data_PCOD8145026
_publ_section_title
;
Structure prediction by ZEFSAII (Michael W. Deem and Ramdas Pophale) SiO2 
 PCOD8145026
Probable space group: C 2/C
;
_chemical_formula_sum "Si O2"
_cell_formula_units_Z 44
_cell_length_a 9.281653
_cell_length_b 16.767438
_cell_length_c 17.672242
_cell_angle_alpha 90.000000
_cell_angle_beta 130.905695
_cell_angle_gamma 90.000000
_cell_volume 2078.662118
_symmetry_space_group_name_H-M "C 2/C"
_symmetry_group_IT_number 15
_symmetry_cell_setting 'monoclinic'
loop_
_space_group_symop_operation_xyz
x,y,z
-x,y,1/2-z
-x,-y,-z
x,-y,1/2+z
1/2+x,1/2+y,z
1/2-x,1/2+y,1/2-z
1/2-x,1/2-y,-z
1/2+x,1/2-y,1/2+z
loop_
_atom_site_type_symbol
_atom_site_label
_atom_site_fract_x
_atom_site_fract_y
_atom_site_fract_z
Si Si1 0.000000 0.383688 0.750000
Si Si2 0.219519 0.985889 0.554770
Si Si3 0.587124 0.136256 0.940667
Si Si4 0.653705 0.278960 0.858754
Si Si5 0.234185 0.636223 0.557813
Si Si6 0.973152 0.740546 0.362920
O O1 0.173960 0.435204 0.843622
O O2 0.095939 0.325960 0.720763
O O3 0.224607 0.943269 0.475230
O O4 0.336193 0.067747 0.587824
O O5 0.000000 0.000000 0.500000
O O6 0.556456 0.217102 0.882889
O O7 0.382142 0.112974 0.906167
O O8 0.742618 0.150151 0.060416
O O9 0.500000 0.319241 0.750000
O O10 0.798117 0.229829 0.854235
O O11 0.432189 0.682183 0.645063
O O12 0.117194 0.699350 0.469802
#
# Coordination Sequence:
#
# PCOD8145026 Si02
#       6
#     4   8   8   8   8   8
#     4  10  24  38  64  92 126 168 212 270 310 384
#     4  11  23  40  65  91 134 172 211 258 329 378
#     4  10  22  39  62  92 127 163 207 263 319 378
#     4  10  22  36  62  91 122 160 208 264 312 376
#     4   9  19  39  62  85 118 165 201 257 315 371
#     4   9  19  37  61  87 117 154 212 250 313 375
#
# _framework density 21.167463000000001
#
# number of rings (size 3 to 8) (size 9 to 14) (size 15 to 20)
#    0.000    2.182    0.000    1.636    6.364    2.909 
#    0.000    0.000    2.000    0.000    0.000    0.000 
#    0.000    0.000    0.000    0.000    0.000    0.000 
#
# Total GULP energy -272726.145445 kJ/mol
# GULP energy per Si atom -12396.642975 kJ/mol
# Density = 2.111928 g / cm^3
# Si number density = 21.167463 Si / 1000 Ang^3
#
#
#
# Elastic Constant Matrix: (Units=GPa)
#
#
# Indices 1 2 3 4 5 6 
#
# 1 137.1510 21.3277 15.0200 0.0000 -4.5125 0.0000
# 2 21.3277 50.8168 17.1837 0.0000 2.3272 0.0000
# 3 15.0200 17.1837 86.0536 0.0000 -7.0924 0.0000
# 4 0.0000 0.0000 0.0000 26.3207 0.0000 -3.2106
# 5 -4.5125 2.3272 -7.0924 0.0000 19.0222 0.0000
# 6 0.0000 0.0000 0.0000 -3.2106 0.0000 36.0876
#
#
#
# Elastic Compliance Matrix: (Units=1/GPa)
#
#
# Indices 1 2 3 4 5 6 
#
# 1 0.007923 -0.003228 -0.000568 0.000000 0.002062 0.000000
# 2 -0.003228 0.022762 -0.004410 0.000000 -0.005195 0.000000
# 3 -0.000568 -0.004410 0.013034 0.000000 0.005265 0.000000
# 4 0.000000 0.000000 0.000000 0.038410 0.000000 0.003417
# 5 0.002062 -0.005195 0.005265 0.000000 0.055658 0.000000
# 6 0.000000 0.000000 0.000000 0.003417 0.000000 0.028014
#
#
# Mechanical properties :
#
#
# Convention : Reuss Voigt Hill
#
# Bulk Modulus (GPa) = 36.61972 42.34267 39.48120
# Shear Modulus (GPa) = 26.13464 30.98543 28.56004
#
# Velocity S-wave (km/s) = 3.51759 3.83015 3.67719
# Velocity P-wave (km/s) = 5.81682 6.29342 6.05981
#
# Compressibility (1/GPa) = 0.02730769
#
# Stress axis : x y z
#
# Youngs Moduli (GPa) = 126.21081 43.93226 76.71992
#
# Poissons Ratio (x) = 0.14180 0.04361
# Poissons Ratio (y) = 0.40736 0.33834
# Poissons Ratio (z) = 0.07174 0.19375
#
# Static dielectric constant tensor:
#      x y z
#    x 4.161270 0.000000 0.015210 
#    y 0.000000 3.574030 0.000000 
#    z 0.015210 0.000000 3.801270 
# 
# 
# High freq. dielectric constant tensor:
#      x y z
#    x 1.843480 0.000000 -0.004320 
#    y 0.000000 1.809180 0.000000 
#    z -0.004320 0.000000 1.818840 
# 
# From -- ./inp_files/134270.got.cif
#   From: 2010.06.25/outbox.cif.g09.slc.cpg/sg15_68_cif.got.tgz:134270.got - 2010.06.28 07:06:18.
