data_PCOD8145914
_publ_section_title
;
Structure prediction by ZEFSAII (Michael W. Deem and Ramdas Pophale) SiO2 
 PCOD8145914
Probable space group: C 2/C
;
_chemical_formula_sum "Si O2"
_cell_formula_units_Z 52
_cell_length_a 15.610022
_cell_length_b 11.294999
_cell_length_c 24.219562
_cell_angle_alpha 90.000000
_cell_angle_beta 36.862575
_cell_angle_gamma 90.000000
_cell_volume 2561.729273
_symmetry_space_group_name_H-M "C 2/C"
_symmetry_group_IT_number 15
_symmetry_cell_setting 'monoclinic'
loop_
_space_group_symop_operation_xyz
x,y,z
-x,y,1/2-z
-x,-y,-z
x,-y,1/2+z
1/2+x,1/2+y,z
1/2-x,1/2+y,1/2-z
1/2-x,1/2-y,-z
1/2+x,1/2-y,1/2+z
loop_
_atom_site_type_symbol
_atom_site_label
_atom_site_fract_x
_atom_site_fract_y
_atom_site_fract_z
Si Si1 0.818833 0.146213 0.928238
Si Si2 0.000000 0.739460 0.250000
Si Si3 0.244960 0.566322 0.161060
Si Si4 0.039815 0.608826 0.016359
Si Si5 0.491958 0.731038 0.062736
Si Si6 0.966479 0.456407 0.149704
Si Si7 0.718857 0.447197 0.468934
O O1 0.965426 0.183291 0.822416
O O2 0.750000 0.250000 0.000000
O O3 0.710494 0.114112 0.934681
O O4 0.851731 0.032879 0.949053
O O5 0.863525 0.661038 0.307582
O O6 0.370945 0.630694 0.129470
O O7 0.165292 0.471252 0.240980
O O8 0.314366 0.496690 0.074521
O O9 0.975069 0.580751 0.110632
O O10 0.985253 0.727762 0.013399
O O11 0.000000 0.500000 0.000000
O O12 0.439512 0.843650 0.124917
O O13 0.639334 0.680026 0.012027
O O14 0.112197 0.435010 0.108525
#
# Coordination Sequence:
#
# PCOD8145914 Si02
#       7
#     8   4   8   8   8   8   8
#     4  11  20  37  63  89 117 158 202 243 305 362
#     4  12  20  36  66  86 122 158 204 252 298 362
#     4  12  22  38  62  91 118 157 207 253 299 364
#     4   9  19  38  58  82 119 155 192 241 304 360
#     4  11  23  38  61  90 121 158 207 253 305 363
#     4  10  22  40  63  87 123 164 201 247 315 371
#     4  11  22  40  62  88 123 162 199 251 311 369
#
# _framework density 20.298787000000001
#
# number of rings (size 3 to 8) (size 9 to 14) (size 15 to 20)
#    0.000    1.231    4.615    1.846    0.000    2.462 
#    0.000    0.000    6.769    0.000    0.000    0.000 
#    0.000    0.000    0.000    0.000    0.000    0.000 
#
# Total GULP energy -322352.852803 kJ/mol
# GULP energy per Si atom -12398.186646 kJ/mol
# Density = 2.025259 g / cm^3
# Si number density = 20.298787 Si / 1000 Ang^3
#
#
#
# Elastic Constant Matrix: (Units=GPa)
#
#
# Indices 1 2 3 4 5 6 
#
# 1 95.3412 43.7668 28.5889 0.0000 1.0597 0.0000
# 2 43.7668 93.0278 41.8244 0.0000 6.7479 0.0000
# 3 28.5889 41.8244 92.6942 -0.0002 13.9935 0.0000
# 4 0.0000 0.0000 -0.0002 29.4848 0.0000 -0.5025
# 5 1.0597 6.7479 13.9935 0.0000 27.8268 0.0000
# 6 0.0000 0.0000 0.0000 -0.5025 0.0000 45.8383
#
#
#
# Elastic Compliance Matrix: (Units=1/GPa)
#
#
# Indices 1 2 3 4 5 6 
#
# 1 0.013658 -0.005696 -0.001918 0.000000 0.001826 0.000000
# 2 -0.005696 0.015862 -0.005251 0.000000 -0.000989 0.000000
# 3 -0.001918 -0.005251 0.014659 0.000000 -0.006025 0.000000
# 4 0.000000 0.000000 0.000000 0.033922 0.000000 0.000372
# 5 0.001826 -0.000989 -0.006025 0.000000 0.039137 0.000000
# 6 0.000000 0.000000 0.000000 0.000372 0.000000 0.021820
#
#
# Mechanical properties :
#
#
# Convention : Reuss Voigt Hill
#
# Bulk Modulus (GPa) = 54.20409 56.60259 55.40334
# Shear Modulus (GPa) = 29.25061 31.75552 30.50307
#
# Velocity S-wave (km/s) = 3.80017 3.95955 3.88068
# Velocity P-wave (km/s) = 6.78352 6.98922 6.88714
#
# Compressibility (1/GPa) = 0.01844879
#
# Stress axis : x y z
#
# Youngs Moduli (GPa) = 73.21603 63.04493 68.21946
#
# Poissons Ratio (x) = 0.35909 0.13085
# Poissons Ratio (y) = 0.41703 0.35821
# Poissons Ratio (z) = 0.14043 0.33104
#
# Static dielectric constant tensor:
#      x y z
#    x 3.918050 0.000000 0.246870 
#    y 0.000000 3.791710 0.000000 
#    z 0.246870 0.000000 3.650510 
# 
# 
# High freq. dielectric constant tensor:
#      x y z
#    x 1.804800 0.000000 0.009350 
#    y 0.000000 1.789710 0.000000 
#    z 0.009350 0.000000 1.774530 
# 
# From -- ./inp_files/273798.got.cif
#   From: 2010.06.25/outbox.cif.g09.slc.cpg/sg15_137_cif.got.tgz:273798.got - 2010.06.28 07:06:18.
