data_PCOD8145799
_publ_section_title
;
Structure prediction by ZEFSAII (Michael W. Deem and Ramdas Pophale) SiO2 
 PCOD8145799
Probable space group: C 2/C
;
_chemical_formula_sum "Si O2"
_cell_formula_units_Z 40
_cell_length_a 12.502336
_cell_length_b 24.167672
_cell_length_c 9.321648
_cell_angle_alpha 90.000000
_cell_angle_beta 41.000241
_cell_angle_gamma 90.000000
_cell_volume 1847.837183
_symmetry_space_group_name_H-M "C 2/C"
_symmetry_group_IT_number 15
_symmetry_cell_setting 'monoclinic'
loop_
_space_group_symop_operation_xyz
x,y,z
-x,y,1/2-z
-x,-y,-z
x,-y,1/2+z
1/2+x,1/2+y,z
1/2-x,1/2+y,1/2-z
1/2-x,1/2-y,-z
1/2+x,1/2-y,1/2+z
loop_
_atom_site_type_symbol
_atom_site_label
_atom_site_fract_x
_atom_site_fract_y
_atom_site_fract_z
Si Si1 0.311039 0.515680 0.427053
Si Si2 0.152620 0.296826 0.420469
Si Si3 0.117166 0.392798 0.263496
Si Si4 0.681211 0.064341 0.276211
Si Si5 0.225108 0.316257 0.655425
O O1 0.500000 0.500582 0.250000
O O2 0.268634 0.570782 0.558789
O O3 0.268987 0.525137 0.303418
O O4 0.200194 0.465721 0.602977
O O5 0.200052 0.337263 0.241694
O O6 0.264738 0.312934 0.444841
O O7 0.180261 0.232118 0.354213
O O8 0.964979 0.306252 0.638679
O O9 0.000000 0.376994 0.250000
O O10 0.009463 0.426622 0.490733
O O11 0.771174 0.124163 0.174802
#
# Coordination Sequence:
#
# PCOD8145799 Si02
#       5
#     8   8   8   8   8
#     4  11  23  39  57  87 120 153 194 241 292 338
#     4   9  18  36  59  84 116 147 191 235 292 334
#     4   9  20  39  61  84 115 153 196 234 284 355
#     4  10  22  40  59  85 119 154 197 234 286 350
#     4   9  19  36  58  87 114 148 192 239 280 349
#
# _framework density 21.646930000000001
#
# number of rings (size 3 to 8) (size 9 to 14) (size 15 to 20)
#    0.000    2.400    0.000    1.200    2.800    1.600 
#   14.400   10.000    0.000    0.000    0.000    0.000 
#    0.000    0.000    0.000    0.000    0.000    0.000 
#
# Total GULP energy -247937.093809 kJ/mol
# GULP energy per Si atom -12396.854690 kJ/mol
# Density = 2.159766 g / cm^3
# Si number density = 21.646930 Si / 1000 Ang^3
#
#
#
# Elastic Constant Matrix: (Units=GPa)
#
#
# Indices 1 2 3 4 5 6 
#
# 1 53.2378 40.1675 16.2262 0.0000 7.5170 0.0000
# 2 40.1675 122.8357 32.0695 0.0000 24.1693 0.0000
# 3 16.2262 32.0695 61.0452 0.0000 14.9004 0.0000
# 4 0.0000 0.0000 0.0000 37.1566 0.0000 7.9171
# 5 7.5170 24.1693 14.9004 0.0000 17.4007 0.0000
# 6 0.0000 0.0000 0.0000 7.9171 0.0000 35.7154
#
#
#
# Elastic Compliance Matrix: (Units=1/GPa)
#
#
# Indices 1 2 3 4 5 6 
#
# 1 0.025431 -0.008054 -0.003259 0.000000 0.002991 0.000000
# 2 -0.008054 0.014100 -0.001688 0.000000 -0.014660 0.000000
# 3 -0.003259 -0.001688 0.021768 0.000000 -0.014888 0.000000
# 4 0.000000 0.000000 0.000000 0.028247 0.000000 -0.006262
# 5 0.002991 -0.014660 -0.014888 0.000000 0.089287 0.000000
# 6 0.000000 0.000000 0.000000 -0.006262 0.000000 0.029387
#
#
# Mechanical properties :
#
#
# Convention : Reuss Voigt Hill
#
# Bulk Modulus (GPa) = 28.33067 46.00501 37.16784
# Shear Modulus (GPa) = 20.32620 27.96493 24.14556
#
# Velocity S-wave (km/s) = 3.06761 3.59815 3.34342
# Velocity P-wave (km/s) = 5.06587 6.20974 5.66674
#
# Compressibility (1/GPa) = 0.03529743
#
# Stress axis : x y z
#
# Youngs Moduli (GPa) = 39.32205 70.92346 45.93832
#
# Poissons Ratio (x) = 0.57120 0.14971
# Poissons Ratio (y) = 0.31669 0.07755
# Poissons Ratio (z) = 0.12815 0.11973
#
# Static dielectric constant tensor:
#      x y z
#    x 3.670320 0.000000 0.349030 
#    y 0.000000 4.298640 0.000000 
#    z 0.349030 0.000000 4.016090 
# 
# 
# High freq. dielectric constant tensor:
#      x y z
#    x 1.820490 0.000000 0.012660 
#    y 0.000000 1.859260 0.000000 
#    z 0.012660 0.000000 1.840330 
# 
# From -- ./inp_files/31745.got.cif
#   From: 2010.06.25/outbox.cif.g09.slc.cpg/sg15_16_cif.got.tgz:31745.got - 2010.06.28 07:06:18.
