data_PCOD8145306
_publ_section_title
;
Structure prediction by ZEFSAII (Michael W. Deem and Ramdas Pophale) SiO2 
 PCOD8145306
Probable space group: C 2/C
;
_chemical_formula_sum "Si O2"
_cell_formula_units_Z 44
_cell_length_a 22.223865
_cell_length_b 20.668678
_cell_length_c 14.566665
_cell_angle_alpha 90.000000
_cell_angle_beta 160.942042
_cell_angle_gamma 90.000000
_cell_volume 2184.781996
_symmetry_space_group_name_H-M "C 2/C"
_symmetry_group_IT_number 15
_symmetry_cell_setting 'monoclinic'
loop_
_space_group_symop_operation_xyz
x,y,z
-x,y,1/2-z
-x,-y,-z
x,-y,1/2+z
1/2+x,1/2+y,z
1/2-x,1/2+y,1/2-z
1/2-x,1/2-y,-z
1/2+x,1/2-y,1/2+z
loop_
_atom_site_type_symbol
_atom_site_label
_atom_site_fract_x
_atom_site_fract_y
_atom_site_fract_z
Si Si1 0.511670 0.408400 0.435902
Si Si2 0.750618 0.114725 0.921608
Si Si3 0.000000 0.767793 0.750000
Si Si4 0.625371 0.163852 0.074880
Si Si5 0.573224 0.552244 0.488888
Si Si6 0.681584 0.693622 0.964615
O O1 0.695917 0.365963 0.717138
O O2 0.583411 0.474992 0.495375
O O3 0.403164 0.421789 0.373682
O O4 0.368067 0.372274 0.161748
O O5 0.544072 0.113306 0.663294
O O6 0.827667 0.187993 0.031796
O O7 0.766353 0.084138 0.841848
O O8 0.870825 0.071538 0.162981
O O9 0.936579 0.725911 0.571852
O O10 0.664361 0.181109 0.236828
O O11 0.500000 0.721531 0.750000
O O12 0.750000 0.750000 0.000000
#
# Coordination Sequence:
#
# PCOD8145306 Si02
#       6
#     8   8   4   8   8   8
#     4  10  22  42  61  87 121 165 192 247 298 360
#     4  10  23  37  66  88 119 155 203 258 286 357
#     4  10  22  38  62  92 124 148 202 250 308 342
#     4  11  23  37  64  91 119 157 200 249 299 353
#     4   9  21  41  64  83 123 156 202 243 302 346
#     4  10  25  38  61  86 126 159 196 242 299 360
#
# _framework density 20.139309000000001
#
# number of rings (size 3 to 8) (size 9 to 14) (size 15 to 20)
#    0.000    2.182    0.000    1.636   17.818    0.727 
#    0.000    0.000    0.000    0.000    0.000    0.000 
#    0.000    0.000    0.000    0.000    0.000    0.000 
#
# Total GULP energy -272779.380193 kJ/mol
# GULP energy per Si atom -12399.062736 kJ/mol
# Density = 2.009347 g / cm^3
# Si number density = 20.139309 Si / 1000 Ang^3
#
#
#
# Elastic Constant Matrix: (Units=GPa)
#
#
# Indices 1 2 3 4 5 6 
#
# 1 70.6898 47.3621 17.4959 0.0000 -20.3050 0.0000
# 2 47.3621 125.2032 25.3292 0.0000 -15.8328 0.0000
# 3 17.4959 25.3292 66.3859 0.0000 -14.8228 0.0000
# 4 0.0000 0.0000 0.0000 17.8265 0.0000 -12.6588
# 5 -20.3050 -15.8328 -14.8228 0.0000 28.2765 0.0000
# 6 0.0000 0.0000 0.0000 -12.6588 0.0000 37.2521
#
#
#
# Elastic Compliance Matrix: (Units=1/GPa)
#
#
# Indices 1 2 3 4 5 6 
#
# 1 0.022257 -0.006794 -0.000628 0.000000 0.011849 0.000000
# 2 -0.006794 0.011051 -0.002417 0.000000 0.000042 0.000000
# 3 -0.000628 -0.002417 0.017836 0.000000 0.007546 0.000000
# 4 0.000000 0.000000 0.000000 0.073938 0.000000 0.025125
# 5 0.011849 0.000042 0.007546 0.000000 0.047853 0.000000
# 6 0.000000 0.000000 0.000000 0.025125 0.000000 0.035382
#
#
# Mechanical properties :
#
#
# Convention : Reuss Voigt Hill
#
# Bulk Modulus (GPa) = 31.77885 49.18367 40.48126
# Shear Modulus (GPa) = 20.96577 28.14380 24.55479
#
# Velocity S-wave (km/s) = 3.23001 3.74231 3.49556
# Velocity P-wave (km/s) = 5.45201 6.56871 6.03624
#
# Compressibility (1/GPa) = 0.03146747
#
# Stress axis : x y z
#
# Youngs Moduli (GPa) = 44.92890 90.48674 56.06720
#
# Poissons Ratio (x) = 0.61478 0.03520
# Poissons Ratio (y) = 0.30525 0.13549
# Poissons Ratio (z) = 0.02821 0.21866
#
# Static dielectric constant tensor:
#      x y z
#    x 3.708860 0.000000 -0.077610 
#    y 0.000000 3.676530 0.000000 
#    z -0.077610 0.000000 3.654930 
# 
# 
# High freq. dielectric constant tensor:
#      x y z
#    x 1.797100 0.000000 -0.010020 
#    y 0.000000 1.788630 0.000000 
#    z -0.010020 0.000000 1.775930 
# 
# From -- ./inp_files/174277.got.cif
#   From: 2010.06.25/outbox.cif.g09.slc.cpg/sg15_88_cif.got.tgz:174277.got - 2010.06.28 07:06:18.
