data_PCOD8145855
_publ_section_title
;
Structure prediction by ZEFSAII (Michael W. Deem and Ramdas Pophale) SiO2 
 PCOD8145855
Probable space group: C 2/C
;
_chemical_formula_sum "Si O2"
_cell_formula_units_Z 64
_cell_length_a 7.790107
_cell_length_b 14.698289
_cell_length_c 25.417451
_cell_angle_alpha 90.000000
_cell_angle_beta 88.204831
_cell_angle_gamma 90.000000
_cell_volume 2908.901385
_symmetry_space_group_name_H-M "C 2/C"
_symmetry_group_IT_number 15
_symmetry_cell_setting 'monoclinic'
loop_
_space_group_symop_operation_xyz
x,y,z
-x,y,1/2-z
-x,-y,-z
x,-y,1/2+z
1/2+x,1/2+y,z
1/2-x,1/2+y,1/2-z
1/2-x,1/2-y,-z
1/2+x,1/2-y,1/2+z
loop_
_atom_site_type_symbol
_atom_site_label
_atom_site_fract_x
_atom_site_fract_y
_atom_site_fract_z
Si Si1 0.784973 0.298186 0.666899
Si Si2 0.199815 0.420158 0.742047
Si Si3 0.678389 0.836733 0.637129
Si Si4 0.861397 0.127897 0.432818
Si Si5 0.630292 0.239902 0.951770
Si Si6 0.364676 0.508641 0.598674
Si Si7 0.607888 0.917006 0.019252
Si Si8 0.645058 0.604598 0.792381
O O1 0.717693 0.378614 0.706154
O O2 0.659911 0.309332 0.618823
O O3 0.762293 0.200781 0.696272
O O4 0.978522 0.314375 0.644681
O O5 0.263228 0.355491 0.693535
O O6 0.235742 0.527291 0.734899
O O7 0.000000 0.406816 0.750000
O O8 0.769470 0.754476 0.604679
O O9 0.717755 0.931167 0.606634
O O10 0.680980 0.124055 0.464298
O O11 0.996419 0.181282 0.466639
O O12 0.948688 0.029787 0.420316
O O13 0.529696 0.145214 0.949429
O O14 0.750000 0.250000 0.000000
O O15 0.275510 0.569122 0.554426
O O16 0.412459 0.566363 0.650280
O O17 0.500000 0.000000 0.000000
O O18 0.500000 0.624252 0.750000
#
# Coordination Sequence:
#
# PCOD8145855 Si02
#       8
#     8   8   8   8   8   8   8   8
#     4  11  21  40  65  91 123 166 209 260 326 387
#     4   9  20  41  64  88 125 162 203 263 320 378
#     4   9  20  40  61  85 122 165 207 256 319 382
#     4  11  23  41  63  89 125 168 210 262 323 381
#     4  11  23  40  60  86 121 165 209 256 313 380
#     4  10  22  40  61  90 126 164 213 270 324 383
#     4  12  24  40  63  94 128 167 217 269 323 388
#     4  11  22  38  61  93 123 159 212 264 321 391
#
# _framework density 22.001434
#
# number of rings (size 3 to 8) (size 9 to 14) (size 15 to 20)
#    0.000    1.500    0.000    6.375    0.000    2.000 
#    0.000   15.625    0.000    0.000    0.000    0.000 
#    0.000    0.000    0.000    0.000    0.000    0.000 
#
# Total GULP energy -396470.593269 kJ/mol
# GULP energy per Si atom -12389.706040 kJ/mol
# Density = 2.195136 g / cm^3
# Si number density = 22.001434 Si / 1000 Ang^3
#
#
#
# Elastic Constant Matrix: (Units=GPa)
#
#
# Indices 1 2 3 4 5 6 
#
# 1 72.3954 33.2135 50.3417 0.0000 4.9386 0.0000
# 2 33.2135 113.6071 63.3253 0.0000 -1.6004 0.0000
# 3 50.3417 63.3253 133.6941 0.0000 10.4307 0.0000
# 4 0.0000 0.0000 0.0000 41.0600 0.0000 -0.2818
# 5 4.9386 -1.6004 10.4307 0.0000 42.3236 0.0000
# 6 0.0000 0.0000 0.0000 -0.2818 0.0000 44.2015
#
#
#
# Elastic Compliance Matrix: (Units=1/GPa)
#
#
# Indices 1 2 3 4 5 6 
#
# 1 0.019115 -0.002205 -0.006089 0.000000 -0.000813 0.000000
# 2 -0.002205 0.012364 -0.005182 0.000000 0.002002 0.000000
# 3 -0.006089 -0.005182 0.012426 0.000000 -0.002548 0.000000
# 4 0.000000 0.000000 0.000000 0.024356 0.000000 0.000155
# 5 -0.000813 0.002002 -0.002548 0.000000 0.024426 0.000000
# 6 0.000000 0.000000 0.000000 0.000155 0.000000 0.022625
#
#
# Mechanical properties :
#
#
# Convention : Reuss Voigt Hill
#
# Bulk Modulus (GPa) = 58.99447 68.16194 63.57820
# Shear Modulus (GPa) = 33.80332 37.03811 35.42071
#
# Velocity S-wave (km/s) = 3.92396 4.10743 4.01674
# Velocity P-wave (km/s) = 6.88492 7.31728 7.10439
#
# Compressibility (1/GPa) = 0.01695074
#
# Stress axis : x y z
#
# Youngs Moduli (GPa) = 52.31561 80.88229 80.47675
#
# Poissons Ratio (x) = 0.17838 0.49006
# Poissons Ratio (y) = 0.11538 0.41702
# Poissons Ratio (z) = 0.31858 0.41912
#
# Static dielectric constant tensor:
#      x y z
#    x 3.788940 0.000000 -0.046650 
#    y 0.000000 4.022300 0.000000 
#    z -0.046650 0.000000 4.359480 
# 
# 
# High freq. dielectric constant tensor:
#      x y z
#    x 1.856080 0.000000 0.004280 
#    y 0.000000 1.862950 0.000000 
#    z 0.004280 0.000000 1.882750 
# 
# From -- ./inp_files/264735.got.cif
#   From: 2010.06.25/outbox.cif.g09.slc.cpg/sg15_133_cif.got.tgz:264735.got - 2010.06.28 07:06:18.
