data_PCOD8145670
_publ_section_title
;
Structure prediction by ZEFSAII (Michael W. Deem and Ramdas Pophale) SiO2 
 PCOD8145670
Probable space group: C 2/C
;
_chemical_formula_sum "Si O2"
_cell_formula_units_Z 44
_cell_length_a 18.271953
_cell_length_b 15.206063
_cell_length_c 8.578801
_cell_angle_alpha 90.000000
_cell_angle_beta 75.932233
_cell_angle_gamma 90.000000
_cell_volume 2312.086476
_symmetry_space_group_name_H-M "C 2/C"
_symmetry_group_IT_number 15
_symmetry_cell_setting 'monoclinic'
loop_
_space_group_symop_operation_xyz
x,y,z
-x,y,1/2-z
-x,-y,-z
x,-y,1/2+z
1/2+x,1/2+y,z
1/2-x,1/2+y,1/2-z
1/2-x,1/2-y,-z
1/2+x,1/2-y,1/2+z
loop_
_atom_site_type_symbol
_atom_site_label
_atom_site_fract_x
_atom_site_fract_y
_atom_site_fract_z
Si Si1 0.500000 0.002865 0.750000
Si Si2 0.246517 0.154908 0.577016
Si Si3 0.484150 0.704756 0.078490
Si Si4 0.116865 0.063109 0.507871
Si Si5 0.113046 0.883775 0.342329
Si Si6 0.416213 0.112069 0.543250
O O1 0.442081 0.064989 0.687879
O O2 0.550743 0.941010 0.617835
O O3 0.250000 0.250000 0.500000
O O4 0.204466 0.093649 0.470283
O O5 0.195850 0.157198 0.762328
O O6 0.326119 0.112605 0.578491
O O7 0.500000 0.723419 0.250000
O O8 0.443843 0.787898 0.021855
O O9 0.430178 0.619791 0.092778
O O10 0.561501 0.692146 0.942485
O O11 0.078639 0.078165 0.697929
O O12 0.116192 0.961276 0.466666
#
# Coordination Sequence:
#
# PCOD8145670 Si02
#       6
#     4   8   8   8   8   8
#     4  10  26  42  66  88 124 166 220 262 308 370
#     4  10  23  40  66  92 129 163 212 251 321 372
#     4  12  23  40  65  92 132 166 216 256 318 386
#     4  10  22  39  64  95 130 163 205 257 321 375
#     4  10  23  39  65  97 124 171 200 266 314 378
#     4  11  23  44  64  93 121 170 212 265 312 373
#
# _framework density 19.030431
#
# number of rings (size 3 to 8) (size 9 to 14) (size 15 to 20)
#    1.091    0.364    2.727    2.182    7.636    0.000 
#    0.000    0.909    0.000    0.000    0.000    0.000 
#    0.000    0.000    0.000    0.000    0.000    0.000 
#
# Total GULP energy -272718.596293 kJ/mol
# GULP energy per Si atom -12396.299832 kJ/mol
# Density = 1.898712 g / cm^3
# Si number density = 19.030431 Si / 1000 Ang^3
#
#
#
# Elastic Constant Matrix: (Units=GPa)
#
#
# Indices 1 2 3 4 5 6 
#
# 1 151.4120 35.8786 38.9429 0.0000 -14.1486 0.0000
# 2 35.8786 68.4323 31.4207 0.0000 -13.6992 0.0000
# 3 38.9429 31.4207 89.7913 0.0000 -8.4152 0.0000
# 4 0.0000 0.0000 0.0000 83.9935 0.0000 1.5213
# 5 -14.1486 -13.6992 -8.4152 0.0000 27.7664 0.0000
# 6 0.0000 0.0000 0.0000 1.5213 0.0000 32.3269
#
#
#
# Elastic Compliance Matrix: (Units=1/GPa)
#
#
# Indices 1 2 3 4 5 6 
#
# 1 0.008045 -0.002735 -0.002341 0.000000 0.002041 0.000000
# 2 -0.002735 0.019744 -0.005085 0.000000 0.006807 0.000000
# 3 -0.002341 -0.005085 0.013982 0.000000 0.000536 0.000000
# 4 0.000000 0.000000 0.000000 0.011916 0.000000 -0.000561
# 5 0.002041 0.006807 0.000536 0.000000 0.040575 0.000000
# 6 0.000000 0.000000 0.000000 -0.000561 0.000000 0.030960
#
#
# Mechanical properties :
#
#
# Convention : Reuss Voigt Hill
#
# Bulk Modulus (GPa) = 46.62072 58.01331 52.31702
# Shear Modulus (GPa) = 32.74510 42.37691 37.56101
#
# Velocity S-wave (km/s) = 4.15260 4.72401 4.44749
# Velocity P-wave (km/s) = 6.89516 7.76568 7.34333
#
# Compressibility (1/GPa) = 0.02144969
#
# Stress axis : x y z
#
# Youngs Moduli (GPa) = 124.29571 50.64785 71.52089
#
# Poissons Ratio (x) = 0.13850 0.16744
# Poissons Ratio (y) = 0.33990 0.36369
# Poissons Ratio (z) = 0.29099 0.25755
#
# Static dielectric constant tensor:
#      x y z
#    x 3.607310 0.000000 0.050280 
#    y 0.000000 3.420750 0.000000 
#    z 0.050280 0.000000 3.384220 
# 
# 
# High freq. dielectric constant tensor:
#      x y z
#    x 1.744210 0.000000 0.002090 
#    y 0.000000 1.744520 0.000000 
#    z 0.002090 0.000000 1.734240 
# 
# From -- ./inp_files/47075.got.cif
#   From: 2010.06.25/outbox.cif.g09.slc.cpg/sg15_24_cif.got.tgz:47075.got - 2010.06.28 07:06:18.
