data_PCOD8145957
_publ_section_title
;
Structure prediction by ZEFSAII (Michael W. Deem and Ramdas Pophale) SiO2 
 PCOD8145957
Probable space group: C 2/C
;
_chemical_formula_sum "Si O2"
_cell_formula_units_Z 40
_cell_length_a 24.309421
_cell_length_b 8.938775
_cell_length_c 9.848802
_cell_angle_alpha 90.000000
_cell_angle_beta 100.941683
_cell_angle_gamma 90.000000
_cell_volume 2101.204359
_symmetry_space_group_name_H-M "C 2/C"
_symmetry_group_IT_number 15
_symmetry_cell_setting 'monoclinic'
loop_
_space_group_symop_operation_xyz
x,y,z
-x,y,1/2-z
-x,-y,-z
x,-y,1/2+z
1/2+x,1/2+y,z
1/2-x,1/2+y,1/2-z
1/2-x,1/2-y,-z
1/2+x,1/2-y,1/2+z
loop_
_atom_site_type_symbol
_atom_site_label
_atom_site_fract_x
_atom_site_fract_y
_atom_site_fract_z
Si Si1 0.730408 0.828427 0.127153
Si Si2 0.395169 0.848398 0.359099
Si Si3 0.405539 0.125804 0.549739
Si Si4 0.784528 0.322763 0.898983
Si Si5 0.004016 0.139417 0.098814
O O1 0.666646 0.787755 0.135338
O O2 0.773625 0.766652 0.256965
O O3 0.735050 0.006471 0.122019
O O4 0.750000 0.750000 0.000000
O O5 0.398085 0.911294 0.206191
O O6 0.435164 0.708144 0.396925
O O7 0.416762 0.973246 0.474112
O O8 0.349546 0.198118 0.463142
O O9 0.456395 0.238097 0.546492
O O10 0.750000 0.250000 0.000000
O O11 0.000000 0.079833 0.250000
O O12 0.000000 0.000000 0.000000
#
# Coordination Sequence:
#
# PCOD8145957 Si02
#       5
#     8   8   8   8   8
#     4  11  24  39  63  92 123 167 206 250 307 362
#     4  10  22  41  63  88 120 159 206 244 300 367
#     4  10  22  40  64  88 120 161 201 248 299 364
#     4  11  22  41  61  90 128 159 207 254 301 366
#     4  10  23  42  61  91 123 155 200 254 305 355
#
# _framework density 19.036701999999998
#
# number of rings (size 3 to 8) (size 9 to 14) (size 15 to 20)
#    0.000    1.600    2.000    1.800    8.400    4.800 
#    0.000    0.000    0.000    0.000    0.000    0.000 
#    0.000    0.000    0.000    0.000    0.000    0.000 
#
# Total GULP energy -248038.221380 kJ/mol
# GULP energy per Si atom -12401.911069 kJ/mol
# Density = 1.899337 g / cm^3
# Si number density = 19.036702 Si / 1000 Ang^3
#
#
#
# Elastic Constant Matrix: (Units=GPa)
#
#
# Indices 1 2 3 4 5 6 
#
# 1 109.3181 60.2330 61.4375 0.0000 -7.8422 0.0000
# 2 60.2330 91.0641 64.3303 0.0000 0.9716 0.0000
# 3 61.4375 64.3303 160.1621 0.0000 -1.9333 0.0000
# 4 0.0000 0.0000 0.0000 48.7810 0.0000 3.5174
# 5 -7.8422 0.9716 -1.9333 0.0000 31.3566 0.0000
# 6 0.0000 0.0000 0.0000 3.5174 0.0000 21.0450
#
#
#
# Elastic Compliance Matrix: (Units=1/GPa)
#
#
# Indices 1 2 3 4 5 6 
#
# 1 0.015553 -0.008586 -0.002469 0.000000 0.004004 0.000000
# 2 -0.008586 0.020094 -0.004814 0.000000 -0.003067 0.000000
# 3 -0.002469 -0.004814 0.009126 0.000000 0.000094 0.000000
# 4 0.000000 0.000000 0.000000 0.020750 0.000000 -0.003468
# 5 0.004004 -0.003067 0.000094 0.000000 0.032993 0.000000
# 6 0.000000 0.000000 0.000000 -0.003468 0.000000 0.048097
#
#
# Mechanical properties :
#
#
# Convention : Reuss Voigt Hill
#
# Bulk Modulus (GPa) = 76.72264 81.39399 79.05831
# Shear Modulus (GPa) = 27.36775 31.87276 29.62025
#
# Velocity S-wave (km/s) = 3.79572 4.09624 3.94884
# Velocity P-wave (km/s) = 7.72010 8.07597 7.90004
#
# Compressibility (1/GPa) = 0.01303396
#
# Stress axis : x y z
#
# Youngs Moduli (GPa) = 64.29515 49.76601 109.57970
#
# Poissons Ratio (x) = 0.42728 0.27058
# Poissons Ratio (y) = 0.55203 0.52757
# Poissons Ratio (z) = 0.15876 0.23960
#
# Static dielectric constant tensor:
#      x y z
#    x 3.782230 0.000000 0.129770 
#    y 0.000000 3.431550 0.000000 
#    z 0.129770 0.000000 3.782240 
# 
# 
# High freq. dielectric constant tensor:
#      x y z
#    x 1.755570 0.000000 0.001180 
#    y 0.000000 1.735470 0.000000 
#    z 0.001180 0.000000 1.759540 
# 
# From -- ./inp_files/59890.got.cif
#   From: 2010.06.25/outbox.cif.g09.slc.cpg/sg15_30_cif.got.tgz:59890.got - 2010.06.28 07:06:18.
