data_PCOD8145727
_publ_section_title
;
Structure prediction by ZEFSAII (Michael W. Deem and Ramdas Pophale) SiO2 
 PCOD8145727
Probable space group: C 2/C
;
_chemical_formula_sum "Si O2"
_cell_formula_units_Z 60
_cell_length_a 8.752879
_cell_length_b 19.272293
_cell_length_c 22.267138
_cell_angle_alpha 90.000000
_cell_angle_beta 131.162318
_cell_angle_gamma 90.000000
_cell_volume 2827.847513
_symmetry_space_group_name_H-M "C 2/C"
_symmetry_group_IT_number 15
_symmetry_cell_setting 'monoclinic'
loop_
_space_group_symop_operation_xyz
x,y,z
-x,y,1/2-z
-x,-y,-z
x,-y,1/2+z
1/2+x,1/2+y,z
1/2-x,1/2+y,1/2-z
1/2-x,1/2-y,-z
1/2+x,1/2-y,1/2+z
loop_
_atom_site_type_symbol
_atom_site_label
_atom_site_fract_x
_atom_site_fract_y
_atom_site_fract_z
Si Si1 0.599209 0.848424 0.165712
Si Si2 0.957893 0.707913 0.387312
Si Si3 0.744991 0.545342 0.567191
Si Si4 0.341915 0.479301 0.258046
Si Si5 0.226923 0.680858 0.567533
Si Si6 0.478467 0.077109 0.175973
Si Si7 0.000000 0.749925 0.750000
Si Si8 0.910366 0.955817 0.066849
O O1 0.396186 0.891518 0.104713
O O2 0.776072 0.899359 0.233328
O O3 0.658912 0.811106 0.119081
O O4 0.558131 0.793111 0.206550
O O5 0.048722 0.643022 0.374047
O O6 0.709665 0.707991 0.319667
O O7 0.038794 0.704802 0.476956
O O8 0.064059 0.776138 0.386596
O O9 0.727641 0.518695 0.494005
O O10 0.535253 0.574561 0.541574
O O11 0.798446 0.478548 0.622658
O O12 0.500000 0.501210 0.250000
O O13 0.169548 0.534590 0.202525
O O14 0.431951 0.489121 0.346730
O O15 0.273174 0.600921 0.564319
O O16 0.500000 0.102814 0.250000
#
# Coordination Sequence:
#
# PCOD8145727 Si02
#       8
#     8   8   8   8   8   8   4   8
#     4  11  24  42  69  94 128 169 222 283 333 395
#     4  11  27  46  65  94 133 182 227 274 325 401
#     4  10  22  39  66  98 131 171 209 275 345 394
#     4  11  22  36  65  99 126 161 209 273 337 392
#     4  11  24  45  71  95 131 177 232 275 327 398
#     4  11  23  41  61  93 133 173 215 269 329 400
#     4  12  28  46  66  94 136 176 232 278 328 402
#     4  11  20  40  64  99 132 166 216 268 338 399
#
# _framework density 21.217551
#
# number of rings (size 3 to 8) (size 9 to 14) (size 15 to 20)
#    0.000    1.067    4.000    2.400    4.667    2.133 
#    0.000    0.000    0.000    0.000    0.000    0.000 
#    0.000    0.000    0.000    0.000    0.000    0.000 
#
# Total GULP energy -371869.072520 kJ/mol
# GULP energy per Si atom -12395.635751 kJ/mol
# Density = 2.116926 g / cm^3
# Si number density = 21.217551 Si / 1000 Ang^3
#
#
#
# Elastic Constant Matrix: (Units=GPa)
#
#
# Indices 1 2 3 4 5 6 
#
# 1 103.9089 16.3764 33.1000 -0.0002 -15.9127 -0.0002
# 2 16.3764 50.3272 13.7817 0.0000 -9.0468 0.0000
# 3 33.1000 13.7817 105.2249 0.0000 -3.5505 0.0000
# 4 -0.0002 0.0000 0.0000 35.3184 -0.0002 -11.9236
# 5 -15.9127 -9.0468 -3.5505 -0.0002 43.1796 -0.0002
# 6 -0.0002 0.0000 0.0000 -11.9236 -0.0002 7.9284
#
#
#
# Elastic Compliance Matrix: (Units=1/GPa)
#
#
# Indices 1 2 3 4 5 6 
#
# 1 0.011541 -0.002242 -0.003218 0.000000 0.003519 0.000001
# 2 -0.002242 0.021798 -0.002029 0.000000 0.003574 0.000000
# 3 -0.003218 -0.002029 0.010757 0.000000 -0.000727 0.000000
# 4 0.000000 0.000000 0.000000 0.057516 0.000001 0.086499
# 5 0.003519 0.003574 -0.000727 0.000001 0.025145 0.000002
# 6 0.000001 0.000000 0.000000 0.086499 0.000002 0.256215
#
#
# Mechanical properties :
#
#
# Convention : Reuss Voigt Hill
#
# Bulk Modulus (GPa) = 34.34326 42.88637 38.61481
# Shear Modulus (GPa) = 12.26526 30.36548 21.31537
#
# Velocity S-wave (km/s) = 2.40692 3.78716 3.17300
# Velocity P-wave (km/s) = 4.89344 6.27535 5.62698
#
# Compressibility (1/GPa) = 0.02911780
#
# Stress axis : x y z
#
# Youngs Moduli (GPa) = 86.64670 45.87678 92.96271
#
# Poissons Ratio (x) = 0.10284 0.29916
# Poissons Ratio (y) = 0.19423 0.18864
# Poissons Ratio (z) = 0.27884 0.09309
#
# Static dielectric constant tensor:
#      x y z
#    x 3.792500 0.000000 0.142410 
#    y 0.000000 3.650620 0.000000 
#    z 0.142410 0.000000 4.120670 
# 
# 
# High freq. dielectric constant tensor:
#      x y z
#    x 1.835830 0.000000 0.001580 
#    y 0.000000 1.813500 0.000000 
#    z 0.001580 0.000000 1.851080 
# 
# From -- ./inp_files/234094.got.cif
#   From: 2010.06.25/outbox.cif.g09.slc.cpg/sg15_118_cif.got.tgz:234094.got - 2010.06.28 07:06:18.
