data_PCOD8145098
_publ_section_title
;
Structure prediction by ZEFSAII (Michael W. Deem and Ramdas Pophale) SiO2 
 PCOD8145098
Probable space group: C 2/C
;
_chemical_formula_sum "Si O2"
_cell_formula_units_Z 64
_cell_length_a 23.415056
_cell_length_b 21.954249
_cell_length_c 12.975272
_cell_angle_alpha 90.000000
_cell_angle_beta 29.388801
_cell_angle_gamma 90.000000
_cell_volume 3273.225497
_symmetry_space_group_name_H-M "C 2/C"
_symmetry_group_IT_number 15
_symmetry_cell_setting 'monoclinic'
loop_
_space_group_symop_operation_xyz
x,y,z
-x,y,1/2-z
-x,-y,-z
x,-y,1/2+z
1/2+x,1/2+y,z
1/2-x,1/2+y,1/2-z
1/2-x,1/2-y,-z
1/2+x,1/2-y,1/2+z
loop_
_atom_site_type_symbol
_atom_site_label
_atom_site_fract_x
_atom_site_fract_y
_atom_site_fract_z
Si Si1 0.407558 0.317496 0.098642
Si Si2 0.725341 0.477735 0.888891
Si Si3 0.832084 0.798446 0.818786
Si Si4 0.279493 0.796663 0.716987
Si Si5 0.451172 0.558270 0.437493
Si Si6 0.618052 0.643533 0.627126
Si Si7 0.800054 0.933771 0.897576
Si Si8 0.878592 0.417373 0.494678
O O1 0.322018 0.270523 0.177767
O O2 0.392267 0.326902 0.244391
O O3 0.532144 0.288254 0.875128
O O4 0.383472 0.383642 0.088495
O O5 0.847322 0.453112 0.649742
O O6 0.637993 0.502001 0.935669
O O7 0.654680 0.427550 0.067000
O O8 0.759992 0.531768 0.912253
O O9 0.817279 0.794594 0.719354
O O10 0.797870 0.862148 0.924739
O O11 0.750000 0.750000 0.000000
O O12 0.377191 0.844841 0.521468
O O13 0.222906 0.821001 0.909442
O O14 0.500000 0.577811 0.250000
O O15 0.565302 0.543036 0.329307
O O16 0.500000 0.652968 0.750000
O O17 0.725585 0.942517 0.912352
O O18 0.000000 0.435242 0.250000
#
# Coordination Sequence:
#
# PCOD8145098 Si02
#       8
#     8   8   8   8   8   8   8   8
#     4  11  23  36  66  85 120 157 197 246 291 358
#     4  10  22  38  62  87 123 152 190 249 297 353
#     4  10  22  37  59  91 119 155 195 247 297 340
#     4  10  23  39  59  87 120 156 199 244 292 358
#     4   9  20  37  56  95 116 144 189 251 299 344
#     4  11  21  41  58  89 121 157 194 240 306 355
#     4   9  20  38  57  87 118 149 191 242 295 346
#     4  10  23  39  59  85 115 160 203 235 288 355
#
# _framework density 19.552579000000001
#
# number of rings (size 3 to 8) (size 9 to 14) (size 15 to 20)
#    0.000    2.000    1.250    1.500   12.250    1.000 
#    0.000    0.000    0.000    0.750    0.000    0.000 
#    0.000    0.000    0.000    0.000    0.000    0.000 
#
# Total GULP energy -396514.199929 kJ/mol
# GULP energy per Si atom -12391.068748 kJ/mol
# Density = 1.950808 g / cm^3
# Si number density = 19.552579 Si / 1000 Ang^3
#
#
#
# Elastic Constant Matrix: (Units=GPa)
#
#
# Indices 1 2 3 4 5 6 
#
# 1 55.2079 23.8934 10.5871 0.0004 0.5516 -0.0002
# 2 23.8934 76.6715 34.6404 0.0007 -7.5976 -0.0005
# 3 10.5871 34.6404 90.1721 0.0014 1.8921 -0.0005
# 4 0.0004 0.0007 0.0014 28.4939 -0.0004 0.2420
# 5 0.5516 -7.5976 1.8921 -0.0004 19.4233 0.0002
# 6 -0.0002 -0.0005 -0.0005 0.2420 0.0002 32.9600
#
#
#
# Elastic Compliance Matrix: (Units=1/GPa)
#
#
# Indices 1 2 3 4 5 6 
#
# 1 0.021146 -0.007062 0.000301 0.000000 -0.003392 0.000000
# 2 -0.007062 0.019084 -0.006677 0.000000 0.008316 0.000000
# 3 0.000301 -0.006677 0.013702 -0.000001 -0.003955 0.000000
# 4 0.000000 0.000000 -0.000001 0.035097 0.000001 -0.000258
# 5 -0.003392 0.008316 -0.003955 0.000001 0.055219 0.000000
# 6 0.000000 0.000000 0.000000 -0.000258 0.000000 0.030342
#
#
# Mechanical properties :
#
#
# Convention : Reuss Voigt Hill
#
# Bulk Modulus (GPa) = 36.95811 40.03256 38.49533
# Shear Modulus (GPa) = 23.75477 26.37081 25.06279
#
# Velocity S-wave (km/s) = 3.48935 3.67647 3.58413
# Velocity P-wave (km/s) = 5.93102 6.20811 6.07115
#
# Compressibility (1/GPa) = 0.02705766
#
# Stress axis : x y z
#
# Youngs Moduli (GPa) = 47.29065 52.40001 72.98006
#
# Poissons Ratio (x) = 0.37005 -0.02200
# Poissons Ratio (y) = 0.33397 0.48726
# Poissons Ratio (z) = -0.01425 0.34985
#
# Static dielectric constant tensor:
#      x y z
#    x 3.627310 0.000000 0.100450 
#    y 0.000000 3.604000 0.000000 
#    z 0.100450 0.000000 3.481800 
# 
# 
# High freq. dielectric constant tensor:
#      x y z
#    x 1.755940 0.000000 0.014890 
#    y 0.000000 1.762880 0.000000 
#    z 0.014890 0.000000 1.753650 
# 
# From -- ./inp_files/120225.got.cif
#   From: 2010.06.25/outbox.cif.g09.slc.cpg/sg15_61_cif.got.tgz:120225.got - 2010.06.28 07:06:18.
