data_PCOD8145671
_publ_section_title
;
Structure prediction by ZEFSAII (Michael W. Deem and Ramdas Pophale) SiO2 
 PCOD8145671
Probable space group: C 2/C
;
_chemical_formula_sum "Si O2"
_cell_formula_units_Z 56
_cell_length_a 23.997752
_cell_length_b 5.293845
_cell_length_c 21.096173
_cell_angle_alpha 90.000000
_cell_angle_beta 112.647536
_cell_angle_gamma 90.000000
_cell_volume 2473.408801
_symmetry_space_group_name_H-M "C 2/C"
_symmetry_group_IT_number 15
_symmetry_cell_setting 'monoclinic'
loop_
_space_group_symop_operation_xyz
x,y,z
-x,y,1/2-z
-x,-y,-z
x,-y,1/2+z
1/2+x,1/2+y,z
1/2-x,1/2+y,1/2-z
1/2-x,1/2-y,-z
1/2+x,1/2-y,1/2+z
loop_
_atom_site_type_symbol
_atom_site_label
_atom_site_fract_x
_atom_site_fract_y
_atom_site_fract_z
Si Si1 0.176404 0.305562 0.269335
Si Si2 0.729484 0.870482 0.899060
Si Si3 0.837028 0.829768 0.470287
Si Si4 0.629015 0.188212 0.449115
Si Si5 0.454598 0.347732 0.789131
Si Si6 0.204187 0.521303 0.152597
Si Si7 0.497020 0.153564 0.173034
O O1 0.188965 0.533558 0.322936
O O2 0.114806 0.169102 0.264265
O O3 0.166580 0.404636 0.193659
O O4 0.231482 0.110705 0.292018
O O5 0.686215 0.735173 0.930653
O O6 0.781224 0.677549 0.897398
O O7 0.765759 0.100082 0.949215
O O8 0.861266 0.595215 0.521472
O O9 0.837553 0.743367 0.396065
O O10 0.876859 0.082871 0.502070
O O11 0.570563 0.183124 0.380192
O O12 0.500000 0.373459 0.750000
O O13 0.463728 0.605596 0.833248
O O14 0.472675 0.104705 0.840001
O O15 0.500000 0.126632 0.250000
#
# Coordination Sequence:
#
# PCOD8145671 Si02
#       7
#     8   8   8   8   8   8   8
#     4  11  24  40  68  99 143 175 222 281 339 401
#     4  11  23  39  65 100 136 174 224 269 344 403
#     4  11  25  42  62  98 136 183 221 264 338 413
#     4  12  24  40  69  93 140 173 217 288 332 396
#     4  10  22  39  64  95 130 165 218 276 338 385
#     4  11  24  41  64 102 136 182 220 265 341 416
#     4  10  22  40  61  97 124 164 219 273 344 383
#
# _framework density 22.640816999999998
#
# number of rings (size 3 to 8) (size 9 to 14) (size 15 to 20)
#    0.000    1.143    2.857    3.429   10.000    0.000 
#    0.000    0.000    0.000    5.143    0.000    0.000 
#    0.000    0.000    0.000    0.000    0.000    0.000 
#
# Total GULP energy -346988.530249 kJ/mol
# GULP energy per Si atom -12392.447509 kJ/mol
# Density = 2.258929 g / cm^3
# Si number density = 22.640817 Si / 1000 Ang^3
#
#
#
# Elastic Constant Matrix: (Units=GPa)
#
#
# Indices 1 2 3 4 5 6 
#
# 1 42.7410 3.6120 19.3530 0.0003 8.6181 -0.0002
# 2 3.6120 150.7510 35.9794 -0.0008 5.9771 -0.0011
# 3 19.3530 35.9794 102.4484 0.0001 23.0586 -0.0002
# 4 0.0003 -0.0008 0.0001 41.2019 0.0000 5.3863
# 5 8.6181 5.9771 23.0586 0.0000 30.5244 0.0001
# 6 -0.0002 -0.0011 -0.0002 5.3863 0.0001 21.2295
#
#
#
# Elastic Compliance Matrix: (Units=1/GPa)
#
#
# Indices 1 2 3 4 5 6 
#
# 1 0.026103 0.000535 -0.004141 0.000000 -0.004347 0.000000
# 2 0.000535 0.007261 -0.002768 0.000000 0.000518 0.000000
# 3 -0.004141 -0.002768 0.013410 0.000000 -0.008419 0.000000
# 4 0.000000 0.000000 0.000000 0.025103 0.000000 -0.006369
# 5 -0.004347 0.000518 -0.008419 0.000000 0.040246 0.000000
# 6 0.000000 0.000000 0.000000 -0.006369 0.000000 0.048720
#
#
# Mechanical properties :
#
#
# Convention : Reuss Voigt Hill
#
# Bulk Modulus (GPa) = 29.38794 45.98103 37.68448
# Shear Modulus (GPa) = 27.03698 34.39090 30.71394
#
# Velocity S-wave (km/s) = 3.45942 3.90163 3.68717
# Velocity P-wave (km/s) = 5.38192 6.37574 5.89979
#
# Compressibility (1/GPa) = 0.03402756
#
# Stress axis : x y z
#
# Youngs Moduli (GPa) = 38.31014 137.72923 74.57080
#
# Poissons Ratio (x) = -0.07370 0.30876
# Poissons Ratio (y) = -0.02050 0.20638
# Poissons Ratio (z) = 0.15862 0.38117
#
# Static dielectric constant tensor:
#      x y z
#    x 3.468100 0.000010 0.131280 
#    y 0.000010 5.285660 0.000000 
#    z 0.131280 0.000000 4.027550 
# 
# 
# High freq. dielectric constant tensor:
#      x y z
#    x 1.845910 0.000000 0.024830 
#    y 0.000000 1.919650 0.000000 
#    z 0.024830 0.000000 1.888640 
# 
# From -- ./inp_files/256605.got.cif
#   From: 2010.06.25/outbox.cif.g09.slc.cpg/sg15_129_cif.got.tgz:256605.got - 2010.06.28 07:06:18.
