data_PCOD8145086
_publ_section_title
;
Structure prediction by ZEFSAII (Michael W. Deem and Ramdas Pophale) SiO2 
 PCOD8145086
Probable space group: C 2/C
;
_chemical_formula_sum "Si O2"
_cell_formula_units_Z 52
_cell_length_a 15.966516
_cell_length_b 20.791665
_cell_length_c 8.359181
_cell_angle_alpha 90.000000
_cell_angle_beta 121.153025
_cell_angle_gamma 90.000000
_cell_volume 2374.814542
_symmetry_space_group_name_H-M "C 2/C"
_symmetry_group_IT_number 15
_symmetry_cell_setting 'monoclinic'
loop_
_space_group_symop_operation_xyz
x,y,z
-x,y,1/2-z
-x,-y,-z
x,-y,1/2+z
1/2+x,1/2+y,z
1/2-x,1/2+y,1/2-z
1/2-x,1/2-y,-z
1/2+x,1/2-y,1/2+z
loop_
_atom_site_type_symbol
_atom_site_label
_atom_site_fract_x
_atom_site_fract_y
_atom_site_fract_z
Si Si1 0.268463 0.023956 0.248097
Si Si2 0.713998 0.407694 0.981513
Si Si3 0.133831 0.197505 0.617573
Si Si4 0.608735 0.184397 0.868500
Si Si5 0.390961 0.061700 0.086941
Si Si6 0.653455 0.801990 0.073440
Si Si7 0.500000 0.280995 0.250000
O O1 0.189004 0.062969 0.280430
O O2 0.318559 0.070715 0.167869
O O3 0.213907 0.964176 0.112349
O O4 0.354623 0.998877 0.449059
O O5 0.639906 0.353944 0.977704
O O6 0.819950 0.376268 0.055321
O O7 0.120278 0.268568 0.531274
O O8 0.228979 0.197643 0.827519
O O9 0.039458 0.178941 0.635722
O O10 0.500000 0.156213 0.750000
O O11 0.630814 0.225059 0.728811
O O12 0.500000 0.046670 0.250000
O O13 0.386194 0.125417 0.975993
O O14 0.596147 0.760906 0.885870
#
# Coordination Sequence:
#
# PCOD8145086 Si02
#       7
#     8   8   8   8   8   8   4
#     4  10  22  37  58  88 125 175 212 255 312 377
#     4  10  22  40  62  91 125 167 211 263 310 385
#     4  11  24  44  64  93 130 168 213 268 325 381
#     4  11  22  40  64  91 136 169 210 256 321 395
#     4  11  21  35  55  89 129 171 208 254 310 381
#     4  11  22  40  59  92 130 164 208 259 319 380
#     4  12  24  40  66  92 126 162 212 266 324 388
#
# _framework density 21.896446999999998
#
# number of rings (size 3 to 8) (size 9 to 14) (size 15 to 20)
#    0.000    1.231    5.385    2.769    4.308    2.462 
#    2.769    0.000    0.000    0.923    0.000    0.000 
#    0.000    0.000    0.000    0.000    0.000    0.000 
#
# Total GULP energy -322232.826135 kJ/mol
# GULP energy per Si atom -12393.570236 kJ/mol
# Density = 2.184661 g / cm^3
# Si number density = 21.896447 Si / 1000 Ang^3
#
#
#
# Elastic Constant Matrix: (Units=GPa)
#
#
# Indices 1 2 3 4 5 6 
#
# 1 123.2598 34.4084 12.0900 0.0000 -27.8415 0.0000
# 2 34.4084 66.1360 8.0707 0.0000 -12.0111 0.0000
# 3 12.0900 8.0707 56.1753 0.0000 -18.2111 0.0000
# 4 0.0000 0.0000 0.0000 25.7888 0.0000 -8.6558
# 5 -27.8415 -12.0111 -18.2111 0.0000 31.4482 0.0000
# 6 0.0000 0.0000 0.0000 -8.6558 0.0000 18.3748
#
#
#
# Elastic Compliance Matrix: (Units=1/GPa)
#
#
# Indices 1 2 3 4 5 6 
#
# 1 0.011237 -0.004361 0.001100 0.000000 0.008920 0.000000
# 2 -0.004361 0.017947 -0.000824 0.000000 0.002517 0.000000
# 3 0.001100 -0.000824 0.022033 0.000000 0.013418 0.000000
# 4 0.000000 0.000000 0.000000 0.046059 0.000000 0.021697
# 5 0.008920 0.002517 0.013418 0.000000 0.048426 0.000000
# 6 0.000000 0.000000 0.000000 0.021697 0.000000 0.064643
#
#
# Mechanical properties :
#
#
# Convention : Reuss Voigt Hill
#
# Bulk Modulus (GPa) = 23.23047 39.41213 31.32130
# Shear Modulus (GPa) = 21.47179 27.85583 24.66381
#
# Velocity S-wave (km/s) = 3.13486 3.57061 3.35981
# Velocity P-wave (km/s) = 4.87190 5.91924 5.42092
#
# Compressibility (1/GPa) = 0.04304690
#
# Stress axis : x y z
#
# Youngs Moduli (GPa) = 88.99095 55.72065 45.38657
#
# Poissons Ratio (x) = 0.24297 -0.04991
# Poissons Ratio (y) = 0.38805 0.03740
# Poissons Ratio (z) = -0.09786 0.04591
#
# Static dielectric constant tensor:
#      x y z
#    x 3.958920 0.000000 -0.321080 
#    y 0.000000 3.674730 0.000000 
#    z -0.321080 0.000000 4.052060 
# 
# 
# High freq. dielectric constant tensor:
#      x y z
#    x 1.854540 0.000000 -0.031400 
#    y 0.000000 1.840700 0.000000 
#    z -0.031400 0.000000 1.855840 
# 
# From -- ./inp_files/42345.got.cif
#   From: 2010.06.25/outbox.cif.g09.slc.cpg/sg15_22_cif.got.tgz:42345.got - 2010.06.28 07:06:18.
