data_PCOD8145255
_publ_section_title
;
Structure prediction by ZEFSAII (Michael W. Deem and Ramdas Pophale) SiO2 
 PCOD8145255
Probable space group: C 2/C
;
_chemical_formula_sum "Si O2"
_cell_formula_units_Z 44
_cell_length_a 8.649152
_cell_length_b 26.606571
_cell_length_c 13.628076
_cell_angle_alpha 90.000000
_cell_angle_beta 137.749079
_cell_angle_gamma 90.000000
_cell_volume 2108.681241
_symmetry_space_group_name_H-M "C 2/C"
_symmetry_group_IT_number 15
_symmetry_cell_setting 'monoclinic'
loop_
_space_group_symop_operation_xyz
x,y,z
-x,y,1/2-z
-x,-y,-z
x,-y,1/2+z
1/2+x,1/2+y,z
1/2-x,1/2+y,1/2-z
1/2-x,1/2-y,-z
1/2+x,1/2-y,1/2+z
loop_
_atom_site_type_symbol
_atom_site_label
_atom_site_fract_x
_atom_site_fract_y
_atom_site_fract_z
Si Si1 0.500000 0.482608 0.750000
Si Si2 0.146225 0.781487 0.590923
Si Si3 0.381680 0.905818 0.970435
Si Si4 0.741015 0.357025 0.095889
Si Si5 0.869192 0.922990 0.277762
Si Si6 0.990865 0.689846 0.090171
O O1 0.729522 0.449790 0.853237
O O2 0.515848 0.520874 0.662889
O O3 0.278990 0.784414 0.756926
O O4 0.294159 0.812096 0.580146
O O5 0.894309 0.805217 0.476540
O O6 0.108067 0.723046 0.546237
O O7 0.451007 0.865865 0.919395
O O8 0.227644 0.880793 0.982338
O O9 0.603977 0.930177 0.124013
O O10 0.610876 0.394158 0.110430
O O11 0.000000 0.344827 0.250000
O O12 0.000000 0.892703 0.250000
#
# Coordination Sequence:
#
# PCOD8145255 Si02
#       6
#     4   8   8   8   8   8
#     4  10  22  38  62  88 120 166 210 260 308 376
#     4  10  22  42  60  95 123 165 215 241 317 365
#     4  11  21  39  60  90 125 157 207 257 319 357
#     4  10  22  38  60  91 124 161 206 262 312 372
#     4   9  21  38  61  85 117 166 207 257 306 370
#     4  10  23  39  67  89 125 168 204 264 293 383
#
# _framework density 20.866122000000001
#
# number of rings (size 3 to 8) (size 9 to 14) (size 15 to 20)
#    0.545    1.455    0.000    2.727    5.091    1.455 
#    1.636    0.000    8.000    0.000    0.000    0.000 
#    0.000    0.000    0.000    0.000    0.000    0.000 
#
# Total GULP energy -272697.829867 kJ/mol
# GULP energy per Si atom -12395.355903 kJ/mol
# Density = 2.081863 g / cm^3
# Si number density = 20.866122 Si / 1000 Ang^3
#
#
#
# Elastic Constant Matrix: (Units=GPa)
#
#
# Indices 1 2 3 4 5 6 
#
# 1 76.6069 19.9129 0.6582 0.0000 5.9903 0.0000
# 2 19.9129 77.3889 16.5602 0.0000 9.5760 0.0000
# 3 0.6582 16.5602 60.1724 0.0000 5.6302 0.0000
# 4 0.0000 0.0000 0.0000 28.2034 0.0000 13.3450
# 5 5.9903 9.5760 5.6302 0.0000 29.9539 0.0000
# 6 0.0000 0.0000 0.0000 13.3450 0.0000 36.9116
#
#
#
# Elastic Compliance Matrix: (Units=1/GPa)
#
#
# Indices 1 2 3 4 5 6 
#
# 1 0.014132 -0.003624 0.001017 0.000000 -0.001859 0.000000
# 2 -0.003624 0.015085 -0.003795 0.000000 -0.003384 0.000000
# 3 0.001017 -0.003795 0.017872 0.000000 -0.002349 0.000000
# 4 0.000000 0.000000 0.000000 0.042774 0.000000 -0.015464
# 5 -0.001859 -0.003384 -0.002349 0.000000 0.035280 0.000000
# 6 0.000000 0.000000 0.000000 -0.015464 0.000000 0.032683
#
#
# Mechanical properties :
#
#
# Convention : Reuss Voigt Hill
#
# Bulk Modulus (GPa) = 29.16773 32.04787 30.60780
# Shear Modulus (GPa) = 27.46355 30.81624 29.13989
#
# Velocity S-wave (km/s) = 3.63185 3.84716 3.74105
# Velocity P-wave (km/s) = 5.62103 5.92674 5.77591
#
# Compressibility (1/GPa) = 0.03428446
#
# Stress axis : x y z
#
# Youngs Moduli (GPa) = 70.76010 66.29035 55.95303
#
# Poissons Ratio (x) = 0.24023 -0.05689
# Poissons Ratio (y) = 0.25643 0.21236
# Poissons Ratio (z) = -0.07194 0.25159
#
# Static dielectric constant tensor:
#      x y z
#    x 3.902690 0.000000 0.094340 
#    y 0.000000 3.507020 0.000000 
#    z 0.094340 0.000000 3.686520 
# 
# 
# High freq. dielectric constant tensor:
#      x y z
#    x 1.820550 0.000000 0.016410 
#    y 0.000000 1.805240 0.000000 
#    z 0.016410 0.000000 1.810530 
# 
# From -- ./inp_files/138826.got.cif
#   From: 2010.06.25/outbox.cif.g09.slc.cpg/sg15_70_cif.got.tgz:138826.got - 2010.06.28 07:06:18.
