data_PCOD8145646
_publ_section_title
;
Structure prediction by ZEFSAII (Michael W. Deem and Ramdas Pophale) SiO2 
 PCOD8145646
Probable space group: C 2/C
;
_chemical_formula_sum "Si O2"
_cell_formula_units_Z 44
_cell_length_a 18.445534
_cell_length_b 12.823756
_cell_length_c 8.072237
_cell_angle_alpha 90.000000
_cell_angle_beta 90.441413
_cell_angle_gamma 90.000000
_cell_volume 1909.358568
_symmetry_space_group_name_H-M "C 2/C"
_symmetry_group_IT_number 15
_symmetry_cell_setting 'monoclinic'
loop_
_space_group_symop_operation_xyz
x,y,z
-x,y,1/2-z
-x,-y,-z
x,-y,1/2+z
1/2+x,1/2+y,z
1/2-x,1/2+y,1/2-z
1/2-x,1/2-y,-z
1/2+x,1/2-y,1/2+z
loop_
_atom_site_type_symbol
_atom_site_label
_atom_site_fract_x
_atom_site_fract_y
_atom_site_fract_z
Si Si1 0.135168 0.113199 0.560585
Si Si2 0.396839 0.177326 0.625948
Si Si3 0.276230 0.526745 0.656889
Si Si4 0.328693 0.954806 0.612259
Si Si5 0.500000 0.351837 0.250000
Si Si6 0.947007 0.310538 0.492255
O O1 0.134754 0.227650 0.482052
O O2 0.152921 0.028212 0.420063
O O3 0.057989 0.082081 0.643806
O O4 0.198291 0.106299 0.700081
O O5 0.474237 0.144177 0.549998
O O6 0.405473 0.213663 0.818690
O O7 0.344659 0.078951 0.605790
O O8 0.218216 0.439260 0.721681
O O9 0.227669 0.589023 0.525044
O O10 0.403785 0.893810 0.604022
O O11 0.546864 0.287752 0.385999
#
# Coordination Sequence:
#
# PCOD8145646 Si02
#       6
#     8   8   8   8   4   8
#     4  10  24  46  65  99 124 177 222 278 319 385
#     4  10  22  41  68  93 140 169 224 267 322 391
#     4  10  24  40  64  91 136 170 224 252 331 390
#     4  11  21  41  61 101 134 182 206 263 335 397
#     4  10  24  44  72  96 128 168 234 268 330 368
#     4  10  22  39  64 103 131 171 217 270 324 396
#
# _framework density 23.04439
#
# number of rings (size 3 to 8) (size 9 to 14) (size 15 to 20)
#    0.000    1.818    1.818    0.545    5.091    8.000 
#    0.000    3.636    0.000    0.000    0.000    0.000 
#    0.000    0.000    0.000    0.000    0.000    0.000 
#
# Total GULP energy -272545.361750 kJ/mol
# GULP energy per Si atom -12388.425534 kJ/mol
# Density = 2.299194 g / cm^3
# Si number density = 23.044390 Si / 1000 Ang^3
#
#
#
# Elastic Constant Matrix: (Units=GPa)
#
#
# Indices 1 2 3 4 5 6 
#
# 1 131.0411 47.5288 49.6850 0.0000 -25.8185 0.0000
# 2 47.5288 54.0201 31.4148 0.0000 5.6072 0.0000
# 3 49.6850 31.4148 109.6042 0.0000 -7.2784 0.0000
# 4 0.0000 0.0000 0.0000 19.8260 0.0000 1.8313
# 5 -25.8185 5.6072 -7.2784 0.0000 47.0338 0.0000
# 6 0.0000 0.0000 0.0000 1.8313 0.0000 35.2695
#
#
#
# Elastic Compliance Matrix: (Units=1/GPa)
#
#
# Indices 1 2 3 4 5 6 
#
# 1 0.015080 -0.012758 -0.002555 0.000000 0.009404 0.000000
# 2 -0.012758 0.033654 -0.004642 0.000000 -0.011734 0.000000
# 3 -0.002555 -0.004642 0.011676 0.000000 0.000958 0.000000
# 4 0.000000 0.000000 0.000000 0.050682 0.000000 -0.002632
# 5 0.009404 -0.011734 0.000958 0.000000 0.027970 0.000000
# 6 0.000000 0.000000 0.000000 -0.002632 0.000000 0.028490
#
#
# Mechanical properties :
#
#
# Convention : Reuss Voigt Hill
#
# Bulk Modulus (GPa) = 48.77911 61.32473 55.05192
# Shear Modulus (GPa) = 23.33229 31.49497 27.41363
#
# Velocity S-wave (km/s) = 3.18542 3.70091 3.45280
# Velocity P-wave (km/s) = 5.89429 6.70311 6.31167
#
# Compressibility (1/GPa) = 0.02050058
#
# Stress axis : x y z
#
# Youngs Moduli (GPa) = 66.31256 29.71395 85.64718
#
# Poissons Ratio (x) = 0.37910 0.21880
# Poissons Ratio (y) = 0.84604 0.39754
# Poissons Ratio (z) = 0.16941 0.13792
#
# Static dielectric constant tensor:
#      x y z
#    x 4.427510 0.000000 -0.361170 
#    y 0.000000 3.498770 0.000000 
#    z -0.361170 0.000000 4.684700 
# 
# 
# High freq. dielectric constant tensor:
#      x y z
#    x 1.931820 0.000000 -0.012860 
#    y 0.000000 1.853190 0.000000 
#    z -0.012860 0.000000 1.935590 
# 
# From -- ./inp_files/47183.got.cif
#   From: 2010.06.25/outbox.cif.g09.slc.cpg/sg15_24_cif.got.tgz:47183.got - 2010.06.28 07:06:18.
