data_PCOD8145963
_publ_section_title
;
Structure prediction by ZEFSAII (Michael W. Deem and Ramdas Pophale) SiO2 
 PCOD8145963
Probable space group: C 2/C
;
_chemical_formula_sum "Si O2"
_cell_formula_units_Z 48
_cell_length_a 29.539231
_cell_length_b 15.451533
_cell_length_c 13.751997
_cell_angle_alpha 90.000000
_cell_angle_beta 20.163720
_cell_angle_gamma 90.000000
_cell_volume 2163.628474
_symmetry_space_group_name_H-M "C 2/C"
_symmetry_group_IT_number 15
_symmetry_cell_setting 'monoclinic'
loop_
_space_group_symop_operation_xyz
x,y,z
-x,y,1/2-z
-x,-y,-z
x,-y,1/2+z
1/2+x,1/2+y,z
1/2-x,1/2+y,1/2-z
1/2-x,1/2-y,-z
1/2+x,1/2-y,1/2+z
loop_
_atom_site_type_symbol
_atom_site_label
_atom_site_fract_x
_atom_site_fract_y
_atom_site_fract_z
Si Si1 0.209405 0.087993 0.522166
Si Si2 0.125161 0.235970 0.560227
Si Si3 0.373383 0.436749 0.939167
Si Si4 0.684830 0.923881 0.492051
Si Si5 0.494719 0.080770 0.644820
Si Si6 0.379773 0.246854 0.920553
O O1 0.139198 0.174356 0.625532
O O2 0.200814 0.086994 0.656973
O O3 0.131759 0.006125 0.636174
O O4 0.362921 0.084441 0.187980
O O5 0.108672 0.333426 0.632193
O O6 0.000000 0.207940 0.750000
O O7 0.251301 0.220871 0.239180
O O8 0.248301 0.451209 0.261911
O O9 0.500000 0.450691 0.750000
O O10 0.363015 0.342366 0.907423
O O11 0.580989 0.995322 0.738438
O O12 0.500000 0.079691 0.750000
O O13 0.414037 0.168724 0.776462
O O14 0.500000 0.259431 0.750000
#
# Coordination Sequence:
#
# PCOD8145963 Si02
#       6
#     8   8   8   8   8   8
#     4  12  23  40  66  94 126 170 213 263 320 374
#     4  11  22  38  64  96 126 160 213 267 319 369
#     4  10  22  40  64  90 127 167 209 263 325 376
#     4  11  24  39  64  97 127 164 217 267 308 381
#     4  11  19  40  66  87 123 171 217 249 314 384
#     4   9  18  38  65  84 118 171 207 245 316 381
#
# _framework density 22.184954999999999
#
# number of rings (size 3 to 8) (size 9 to 14) (size 15 to 20)
#    0.000    1.333    5.000    2.000    2.333    0.667 
#    0.000    0.833    0.000    0.000    0.000    0.000 
#    0.000    0.000    0.000    0.000    0.000    0.000 
#
# Total GULP energy -297562.137261 kJ/mol
# GULP energy per Si atom -12398.422386 kJ/mol
# Density = 2.213446 g / cm^3
# Si number density = 22.184955 Si / 1000 Ang^3
#
#
#
# Elastic Constant Matrix: (Units=GPa)
#
#
# Indices 1 2 3 4 5 6 
#
# 1 66.0956 16.3665 -0.5376 0.0000 -16.2831 0.0000
# 2 16.3665 155.4982 23.2588 0.0001 -9.7605 0.0000
# 3 -0.5376 23.2588 66.3796 0.0002 -19.1768 0.0000
# 4 0.0000 0.0001 0.0002 25.1518 0.0000 -8.9703
# 5 -16.2831 -9.7605 -19.1768 0.0000 21.3075 0.0000
# 6 0.0000 0.0000 0.0000 -8.9703 0.0000 17.4491
#
#
#
# Elastic Compliance Matrix: (Units=1/GPa)
#
#
# Indices 1 2 3 4 5 6 
#
# 1 0.020950 -0.001911 0.007043 0.000000 0.021473 0.000000
# 2 -0.001911 0.006988 -0.002650 0.000000 -0.000644 0.000000
# 3 0.007043 -0.002650 0.023317 0.000000 0.025153 0.000000
# 4 0.000000 0.000000 0.000000 0.048685 0.000000 0.025028
# 5 0.021473 -0.000644 0.025153 0.000000 0.085685 0.000000
# 6 0.000000 0.000000 0.000000 0.025028 0.000000 0.070176
#
#
# Mechanical properties :
#
#
# Convention : Reuss Voigt Hill
#
# Bulk Modulus (GPa) = 17.78756 40.68321 29.23538
# Shear Modulus (GPa) = 18.54762 29.37405 23.96083
#
# Velocity S-wave (km/s) = 2.89458 3.64270 3.28997
# Velocity P-wave (km/s) = 4.38255 6.00586 5.25724
#
# Compressibility (1/GPa) = 0.05621908
#
# Stress axis : x y z
#
# Youngs Moduli (GPa) = 47.73267 143.10254 42.88679
#
# Poissons Ratio (x) = 0.27341 -0.30203
# Poissons Ratio (y) = 0.09120 0.11365
# Poissons Ratio (z) = -0.33616 0.37923
#
# Static dielectric constant tensor:
#      x y z
#    x 3.829190 0.000000 0.002820 
#    y 0.000000 4.824640 0.000000 
#    z 0.002820 0.000000 3.855840 
# 
# 
# High freq. dielectric constant tensor:
#      x y z
#    x 1.840080 0.000000 -0.008920 
#    y 0.000000 1.897780 0.000000 
#    z -0.008920 0.000000 1.869380 
# 
# From -- ./inp_files/182430.got.cif
#   From: 2010.06.25/outbox.cif.g09.slc.cpg/sg15_92_cif.got.tgz:182430.got - 2010.06.28 07:06:18.
