data_PCOD8145774
_publ_section_title
;
Structure prediction by ZEFSAII (Michael W. Deem and Ramdas Pophale) SiO2 
 PCOD8145774
Probable space group: C 2/C
;
_chemical_formula_sum "Si O2"
_cell_formula_units_Z 60
_cell_length_a 17.540383
_cell_length_b 11.633464
_cell_length_c 26.502958
_cell_angle_alpha 90.000000
_cell_angle_beta 149.958956
_cell_angle_gamma 90.000000
_cell_volume 2707.390401
_symmetry_space_group_name_H-M "C 2/C"
_symmetry_group_IT_number 15
_symmetry_cell_setting 'monoclinic'
loop_
_space_group_symop_operation_xyz
x,y,z
-x,y,1/2-z
-x,-y,-z
x,-y,1/2+z
1/2+x,1/2+y,z
1/2-x,1/2+y,1/2-z
1/2-x,1/2-y,-z
1/2+x,1/2-y,1/2+z
loop_
_atom_site_type_symbol
_atom_site_label
_atom_site_fract_x
_atom_site_fract_y
_atom_site_fract_z
Si Si1 0.000000 0.548450 0.250000
Si Si2 0.909431 0.355216 0.426684
Si Si3 0.789691 0.071098 0.191867
Si Si4 0.229200 0.350068 0.555925
Si Si5 0.050815 0.997558 0.121400
Si Si6 0.066779 0.729229 0.110590
Si Si7 0.271729 0.906607 0.055101
Si Si8 0.696418 0.845462 0.780749
O O1 0.915031 0.472051 0.160065
O O2 0.877422 0.627851 0.207810
O O3 0.857925 0.487257 0.393363
O O4 0.776531 0.278139 0.327057
O O5 0.059470 0.335642 0.479866
O O6 0.931065 0.315892 0.497238
O O7 0.837766 0.090799 0.160945
O O8 0.730458 0.193756 0.179769
O O9 0.923482 0.021121 0.303697
O O10 0.298323 0.226396 0.582643
O O11 0.228090 0.427387 0.505080
O O12 0.053954 0.864869 0.109363
O O13 0.182510 0.056052 0.163914
O O14 0.886953 0.048261 0.012334
O O15 0.061664 0.665297 0.161900
#
# Coordination Sequence:
#
# PCOD8145774 Si02
#       8
#     4   8   8   8   8   8   8   8
#     4  12  30  42  64  96 138 182 216 278 348 390
#     4  11  21  44  73 100 134 177 227 274 338 401
#     4  10  23  40  72 103 130 180 227 275 339 395
#     4  10  23  43  68 102 138 169 230 279 333 399
#     4  11  23  45  72 101 133 179 227 276 336 404
#     4  10  22  39  70  98 130 177 225 277 330 394
#     4  11  26  44  66 103 137 177 220 281 341 394
#     4  11  25  45  67  99 137 173 229 277 330 408
#
# _framework density 22.161562
#
# number of rings (size 3 to 8) (size 9 to 14) (size 15 to 20)
#    0.000    1.333    2.667    2.400    9.333    3.733 
#    2.400    1.333    0.000    0.000    0.000    0.000 
#    0.000    0.000    0.000    0.000    0.000    0.000 
#
# Total GULP energy -372009.513188 kJ/mol
# GULP energy per Si atom -12400.317106 kJ/mol
# Density = 2.211112 g / cm^3
# Si number density = 22.161562 Si / 1000 Ang^3
#
#
#
# Elastic Constant Matrix: (Units=GPa)
#
#
# Indices 1 2 3 4 5 6 
#
# 1 110.1651 29.7181 25.7464 0.0003 -16.7892 0.0001
# 2 29.7181 91.6172 20.1363 0.0002 -4.5337 0.0001
# 3 25.7464 20.1363 87.5309 0.0021 -7.7987 0.0006
# 4 0.0003 0.0002 0.0021 30.3403 0.0005 -11.1670
# 5 -16.7892 -4.5337 -7.7987 0.0005 33.4920 0.0001
# 6 0.0001 0.0001 0.0006 -11.1670 0.0001 22.6514
#
#
#
# Elastic Compliance Matrix: (Units=1/GPa)
#
#
# Indices 1 2 3 4 5 6 
#
# 1 0.011073 -0.002883 -0.002179 0.000000 0.004653 0.000000
# 2 -0.002883 0.012277 -0.001999 0.000000 -0.000248 0.000000
# 3 -0.002179 -0.001999 0.012667 -0.000001 0.001586 -0.000001
# 4 0.000000 0.000000 -0.000001 0.040266 -0.000001 0.019851
# 5 0.004653 -0.000248 0.001586 -0.000001 0.032526 -0.000001
# 6 0.000000 0.000000 -0.000001 0.019851 -0.000001 0.053934
#
#
# Mechanical properties :
#
#
# Convention : Reuss Voigt Hill
#
# Bulk Modulus (GPa) = 45.67057 48.94609 47.30833
# Shear Modulus (GPa) = 27.14994 31.54423 29.34709
#
# Velocity S-wave (km/s) = 3.50393 3.77686 3.64295
# Velocity P-wave (km/s) = 6.08463 6.41510 6.25205
#
# Compressibility (1/GPa) = 0.02189594
#
# Stress axis : x y z
#
# Youngs Moduli (GPa) = 90.30641 81.45326 78.94721
#
# Poissons Ratio (x) = 0.23480 0.17206
# Poissons Ratio (y) = 0.26032 0.15778
# Poissons Ratio (z) = 0.19681 0.16279
#
# Static dielectric constant tensor:
#      x y z
#    x 3.931110 0.000000 -0.421570 
#    y 0.000000 3.936740 0.000000 
#    z -0.421570 0.000000 4.115210 
# 
# 
# High freq. dielectric constant tensor:
#      x y z
#    x 1.859420 0.000000 -0.025830 
#    y 0.000000 1.874320 0.000000 
#    z -0.025830 0.000000 1.879560 
# 
# From -- ./inp_files/298987.got.cif
#   From: 2010.06.25/outbox.cif.g09.slc.cpg/sg15_150_cif.got.tgz:298987.got - 2010.06.28 07:06:18.
