data_PCOD8145409
_publ_section_title
;
Structure prediction by ZEFSAII (Michael W. Deem and Ramdas Pophale) SiO2 
 PCOD8145409
Probable space group: C 2/C
;
_chemical_formula_sum "Si O2"
_cell_formula_units_Z 56
_cell_length_a 21.415937
_cell_length_b 8.603216
_cell_length_c 30.510940
_cell_angle_alpha 90.000000
_cell_angle_beta 152.836877
_cell_angle_gamma 90.000000
_cell_volume 2566.364999
_symmetry_space_group_name_H-M "C 2/C"
_symmetry_group_IT_number 15
_symmetry_cell_setting 'monoclinic'
loop_
_space_group_symop_operation_xyz
x,y,z
-x,y,1/2-z
-x,-y,-z
x,-y,1/2+z
1/2+x,1/2+y,z
1/2-x,1/2+y,1/2-z
1/2-x,1/2-y,-z
1/2+x,1/2-y,1/2+z
loop_
_atom_site_type_symbol
_atom_site_label
_atom_site_fract_x
_atom_site_fract_y
_atom_site_fract_z
Si Si1 0.993082 0.890158 0.085694
Si Si2 0.974862 0.779840 0.922058
Si Si3 0.921088 0.650077 0.431081
Si Si4 0.279533 0.591095 0.704831
Si Si5 0.647225 0.585302 0.847032
Si Si6 0.301144 0.864887 0.568016
Si Si7 0.835021 0.621996 0.527503
O O1 0.006594 0.733161 0.065287
O O2 0.072811 0.874444 0.181814
O O3 0.059051 0.038620 0.103415
O O4 0.835071 0.933219 0.994127
O O5 0.829602 0.703058 0.840694
O O6 0.082555 0.766552 0.029854
O O7 0.037693 0.700817 0.917582
O O8 0.771845 0.589624 0.321840
O O9 0.000000 0.500000 0.500000
O O10 0.281474 0.620822 0.654413
O O11 0.500000 0.501046 0.750000
O O12 0.614134 0.757222 0.846011
O O13 0.741987 0.473667 0.935225
O O14 0.250000 0.750000 0.500000
O O15 0.388001 0.002397 0.598740
O O16 0.750000 0.750000 0.500000
#
# Coordination Sequence:
#
# PCOD8145409 Si02
#       7
#     8   8   8   8   8   8   8
#     4  12  23  41  66  98 132 174 224 273 332 400
#     4  11  23  41  66  97 133 173 223 275 337 393
#     4  10  22  40  64  89 128 171 214 269 327 383
#     4  11  23  41  65  99 132 171 223 278 332 391
#     4  11  24  45  68  96 132 177 226 275 335 399
#     4  10  22  38  66  92 124 176 220 269 324 396
#     4  11  22  43  69  95 130 175 224 273 334 399
#
# _framework density 21.820747000000001
#
# number of rings (size 3 to 8) (size 9 to 14) (size 15 to 20)
#    0.000    1.143    2.857    4.714    6.000    0.000 
#    2.571    0.714    3.143    0.000    0.000    0.000 
#    0.000    0.000    0.000    0.000    0.000    0.000 
#
# Total GULP energy -346945.999748 kJ/mol
# GULP energy per Si atom -12390.928562 kJ/mol
# Density = 2.177108 g / cm^3
# Si number density = 21.820747 Si / 1000 Ang^3
#
#
#
# Elastic Constant Matrix: (Units=GPa)
#
#
# Indices 1 2 3 4 5 6 
#
# 1 124.8442 37.6283 16.5462 0.0003 -9.0206 -0.0005
# 2 37.6283 99.9950 19.2046 -0.0005 -17.5904 0.0010
# 3 16.5462 19.2046 66.0442 -0.0119 -7.2541 -0.0036
# 4 0.0003 -0.0005 -0.0119 23.9873 -0.0006 0.7473
# 5 -9.0206 -17.5904 -7.2541 -0.0006 34.8776 0.0005
# 6 -0.0005 0.0010 -0.0036 0.7473 0.0005 28.1544
#
#
#
# Elastic Compliance Matrix: (Units=1/GPa)
#
#
# Indices 1 2 3 4 5 6 
#
# 1 0.009159 -0.003097 -0.001336 -0.000001 0.000529 0.000000
# 2 -0.003097 0.012492 -0.002305 -0.000001 0.005020 -0.000001
# 3 -0.001336 -0.002305 0.016354 0.000008 0.001893 0.000002
# 4 -0.000001 -0.000001 0.000008 0.041723 0.000002 -0.001107
# 5 0.000529 0.005020 0.001893 0.000002 0.031734 -0.000001
# 6 0.000000 -0.000001 0.000002 -0.001107 -0.000001 0.035548
#
#
# Mechanical properties :
#
#
# Convention : Reuss Voigt Hill
#
# Bulk Modulus (GPa) = 40.76839 48.62687 44.69763
# Shear Modulus (GPa) = 29.64515 31.90414 30.77465
#
# Velocity S-wave (km/s) = 3.68989 3.82789 3.75952
# Velocity P-wave (km/s) = 6.07269 6.47071 6.27486
#
# Compressibility (1/GPa) = 0.02452881
#
# Stress axis : x y z
#
# Youngs Moduli (GPa) = 109.18651 80.05398 61.14587
#
# Poissons Ratio (x) = 0.24791 0.08169
# Poissons Ratio (y) = 0.33813 0.14095
# Poissons Ratio (z) = 0.14587 0.18454
#
# Static dielectric constant tensor:
#      x y z
#    x 4.661920 -0.000020 -0.530800 
#    y -0.000020 4.642490 0.000020 
#    z -0.530800 0.000020 4.070170 
# 
# 
# High freq. dielectric constant tensor:
#      x y z
#    x 1.874890 0.000000 -0.008820 
#    y 0.000000 1.859340 0.000000 
#    z -0.008820 0.000000 1.834480 
# 
# From -- ./inp_files/317558.got.cif
#   From: 2010.06.25/outbox.cif.g09.slc.cpg/sg15_159_cif.got.tgz:317558.got - 2010.06.28 07:06:18.
