data_PCOD8145734
_publ_section_title
;
Structure prediction by ZEFSAII (Michael W. Deem and Ramdas Pophale) SiO2 
 PCOD8145734
Probable space group: C 2/C
;
_chemical_formula_sum "Si O2"
_cell_formula_units_Z 52
_cell_length_a 9.261557
_cell_length_b 13.107779
_cell_length_c 26.238676
_cell_angle_alpha 90.000000
_cell_angle_beta 129.924487
_cell_angle_gamma 90.000000
_cell_volume 2442.804088
_symmetry_space_group_name_H-M "C 2/C"
_symmetry_group_IT_number 15
_symmetry_cell_setting 'monoclinic'
loop_
_space_group_symop_operation_xyz
x,y,z
-x,y,1/2-z
-x,-y,-z
x,-y,1/2+z
1/2+x,1/2+y,z
1/2-x,1/2+y,1/2-z
1/2-x,1/2-y,-z
1/2+x,1/2-y,1/2+z
loop_
_atom_site_type_symbol
_atom_site_label
_atom_site_fract_x
_atom_site_fract_y
_atom_site_fract_z
Si Si1 0.704620 0.286068 0.067354
Si Si2 0.000000 0.450736 0.250000
Si Si3 0.725149 0.527983 0.897395
Si Si4 0.109557 0.171176 0.653167
Si Si5 0.101074 0.354673 0.725768
Si Si6 0.875209 0.599419 0.519168
Si Si7 0.016770 0.842343 0.811724
O O1 0.570896 0.319544 0.083792
O O2 0.748840 0.380447 0.040266
O O3 0.902838 0.250342 0.136656
O O4 0.604333 0.198178 0.012264
O O5 0.187179 0.381285 0.291469
O O6 0.007160 0.530299 0.202389
O O7 0.558450 0.609040 0.859949
O O8 0.661852 0.436057 0.846753
O O9 0.914136 0.572548 0.915248
O O10 0.772679 0.491373 0.965585
O O11 0.096801 0.285833 0.673902
O O12 0.318060 0.373550 0.790645
O O13 0.000000 0.294606 0.750000
O O14 0.000000 0.804903 0.750000
#
# Coordination Sequence:
#
# PCOD8145734 Si02
#       7
#     8   4   8   8   8   8   8
#     4  10  22  39  67  88 127 169 214 280 328 391
#     4  10  24  44  60 102 144 166 224 272 340 422
#     4  10  22  40  64  90 127 169 224 266 330 402
#     4  12  22  41  67  95 127 182 215 271 346 395
#     4  10  23  41  58  97 138 170 213 270 330 412
#     4   9  22  44  60  93 123 168 227 275 321 392
#     4  11  20  40  62  92 129 164 213 270 338 400
#
# _framework density 21.287011
#
# number of rings (size 3 to 8) (size 9 to 14) (size 15 to 20)
#    0.462    1.231    3.077    0.923    2.154    3.077 
#    5.538    0.000    0.000    0.000    0.000    0.000 
#    0.000    0.000    0.000    0.000    0.000    0.000 
#
# Total GULP energy -322178.766040 kJ/mol
# GULP energy per Si atom -12391.491002 kJ/mol
# Density = 2.123856 g / cm^3
# Si number density = 21.287011 Si / 1000 Ang^3
#
#
#
# Elastic Constant Matrix: (Units=GPa)
#
#
# Indices 1 2 3 4 5 6 
#
# 1 75.7615 27.9709 19.1209 0.0000 -0.0454 0.0000
# 2 27.9709 76.4757 19.1533 0.0000 -2.1809 0.0000
# 3 19.1209 19.1533 63.3271 0.0000 5.3868 0.0000
# 4 0.0000 0.0000 0.0000 19.8191 0.0000 -3.4073
# 5 -0.0454 -2.1809 5.3868 0.0000 43.3533 0.0000
# 6 0.0000 0.0000 0.0000 -3.4073 0.0000 39.0133
#
#
#
# Elastic Compliance Matrix: (Units=1/GPa)
#
#
# Indices 1 2 3 4 5 6 
#
# 1 0.015868 -0.004972 -0.003303 0.000000 0.000177 0.000000
# 2 -0.004972 0.015773 -0.003372 0.000000 0.001207 0.000000
# 3 -0.003303 -0.003372 0.018013 0.000000 -0.002411 0.000000
# 4 0.000000 0.000000 0.000000 0.051226 0.000000 0.004474
# 5 0.000177 0.001207 -0.002411 0.000000 0.023427 0.000000
# 6 0.000000 0.000000 0.000000 0.004474 0.000000 0.026023
#
#
# Mechanical properties :
#
#
# Convention : Reuss Voigt Hill
#
# Bulk Modulus (GPa) = 37.93334 38.67271 38.30303
# Shear Modulus (GPa) = 27.41060 30.39175 28.90118
#
# Velocity S-wave (km/s) = 3.59230 3.78261 3.68868
# Velocity P-wave (km/s) = 5.92155 6.10608 6.01453
#
# Compressibility (1/GPa) = 0.02636204
#
# Stress axis : x y z
#
# Youngs Moduli (GPa) = 63.01794 63.39766 55.51458
#
# Poissons Ratio (x) = 0.31519 0.18335
# Poissons Ratio (y) = 0.31331 0.18721
# Poissons Ratio (z) = 0.20813 0.21379
#
# Static dielectric constant tensor:
#      x y z
#    x 3.938820 0.000000 0.119560 
#    y 0.000000 3.869940 0.000000 
#    z 0.119560 0.000000 3.851070 
# 
# 
# High freq. dielectric constant tensor:
#      x y z
#    x 1.836460 0.000000 0.005520 
#    y 0.000000 1.836780 0.000000 
#    z 0.005520 0.000000 1.816130 
# 
# From -- ./inp_files/288913.got.cif
#   From: 2010.06.25/outbox.cif.g09.slc.cpg/sg15_145_cif.got.tgz:288913.got - 2010.06.28 07:06:18.
