data_PCOD8145841
_publ_section_title
;
Structure prediction by ZEFSAII (Michael W. Deem and Ramdas Pophale) SiO2 
 PCOD8145841
Probable space group: C 2/C
;
_chemical_formula_sum "Si O2"
_cell_formula_units_Z 48
_cell_length_a 8.780206
_cell_length_b 27.386866
_cell_length_c 10.052126
_cell_angle_alpha 90.000000
_cell_angle_beta 90.889686
_cell_angle_gamma 90.000000
_cell_volume 2416.866188
_symmetry_space_group_name_H-M "C 2/C"
_symmetry_group_IT_number 15
_symmetry_cell_setting 'monoclinic'
loop_
_space_group_symop_operation_xyz
x,y,z
-x,y,1/2-z
-x,-y,-z
x,-y,1/2+z
1/2+x,1/2+y,z
1/2-x,1/2+y,1/2-z
1/2-x,1/2-y,-z
1/2+x,1/2-y,1/2+z
loop_
_atom_site_type_symbol
_atom_site_label
_atom_site_fract_x
_atom_site_fract_y
_atom_site_fract_z
Si Si1 0.682871 0.460452 0.898069
Si Si2 0.180568 0.207935 0.247502
Si Si3 0.329168 0.860622 0.966427
Si Si4 0.312167 0.853560 0.523398
Si Si5 0.180146 0.317916 0.258804
Si Si6 0.332182 0.454831 0.905047
O O1 0.796394 0.416848 0.935026
O O2 0.510728 0.444259 0.928590
O O3 0.699936 0.475145 0.743576
O O4 0.729978 0.506519 0.988622
O O5 0.244475 0.173625 0.362339
O O6 0.237710 0.190004 0.105468
O O7 0.243366 0.262743 0.268592
O O8 0.000000 0.205315 0.250000
O O9 0.507375 0.850596 0.957565
O O10 0.265487 0.848136 0.112158
O O11 0.258371 0.845866 0.370691
O O12 0.256822 0.905007 0.577098
O O13 0.000000 0.315396 0.250000
#
# Coordination Sequence:
#
# PCOD8145841 Si02
#       6
#     8   8   8   8   8   8
#     4  10  22  40  61  86 118 154 194 239 290 350
#     4  11  21  39  62  85 118 159 200 243 292 347
#     4  11  22  39  61  88 121 156 196 244 296 348
#     4  11  22  39  61  88 121 156 196 244 296 348
#     4   9  22  39  58  87 122 157 196 243 290 347
#     4  10  22  40  61  86 118 154 194 239 290 350
#
# _framework density 19.860427000000001
#
# number of rings (size 3 to 8) (size 9 to 14) (size 15 to 20)
#    0.000    1.667    1.667    2.500    2.333    0.667 
#    0.000    7.500    0.000    0.000    0.000    0.000 
#    0.000    0.000    0.000    0.000    0.000    0.000 
#
# Total GULP energy -297694.831842 kJ/mol
# GULP energy per Si atom -12403.951327 kJ/mol
# Density = 1.981522 g / cm^3
# Si number density = 19.860427 Si / 1000 Ang^3
#
#
#
# Elastic Constant Matrix: (Units=GPa)
#
#
# Indices 1 2 3 4 5 6 
#
# 1 54.7660 11.5140 14.0243 0.0000 -8.5765 0.0000
# 2 11.5140 78.3358 25.8219 0.0000 -5.1078 0.0000
# 3 14.0243 25.8219 122.1285 0.0000 -18.4972 0.0000
# 4 0.0000 0.0000 0.0000 42.5585 0.0000 -5.4199
# 5 -8.5765 -5.1078 -18.4972 0.0000 17.8682 0.0000
# 6 0.0000 0.0000 0.0000 -5.4199 0.0000 5.1791
#
#
#
# Elastic Compliance Matrix: (Units=1/GPa)
#
#
# Indices 1 2 3 4 5 6 
#
# 1 0.020200 -0.002230 -0.000565 0.000000 0.008474 0.000000
# 2 -0.002230 0.013986 -0.002677 0.000000 0.000156 0.000000
# 3 -0.000565 -0.002677 0.010273 0.000000 0.009598 0.000000
# 4 0.000000 0.000000 0.000000 0.027110 0.000000 0.028371
# 5 0.008474 0.000156 0.009598 0.000000 0.070013 0.000000
# 6 0.000000 0.000000 0.000000 0.028371 0.000000 0.222773
#
#
# Mechanical properties :
#
#
# Convention : Reuss Voigt Hill
#
# Bulk Modulus (GPa) = 29.83837 39.77230 34.80534
# Shear Modulus (GPa) = 12.93757 26.71252 19.82504
#
# Velocity S-wave (km/s) = 2.55507 3.67142 3.16289
# Velocity P-wave (km/s) = 4.87454 6.16780 5.55891
#
# Compressibility (1/GPa) = 0.03351389
#
# Stress axis : x y z
#
# Youngs Moduli (GPa) = 49.50492 71.49953 97.34551
#
# Poissons Ratio (x) = 0.15947 0.05496
# Poissons Ratio (y) = 0.11042 0.26063
# Poissons Ratio (z) = 0.02795 0.19143
#
# Static dielectric constant tensor:
#      x y z
#    x 3.491350 0.000000 -0.095600 
#    y 0.000000 3.682980 0.000000 
#    z -0.095600 0.000000 4.025910 
# 
# 
# High freq. dielectric constant tensor:
#      x y z
#    x 1.761060 0.000000 -0.002950 
#    y 0.000000 1.778540 0.000000 
#    z -0.002950 0.000000 1.795000 
# 
# From -- ./inp_files/26091.got.cif
#   From: 2010.06.25/outbox.cif.g09.slc.cpg/sg15_14_cif.got.tgz:26091.got - 2010.06.28 07:06:18.
