data_PCOD8145065
_publ_section_title
;
Structure prediction by ZEFSAII (Michael W. Deem and Ramdas Pophale) SiO2 
 PCOD8145065
Probable space group: C 2/C
;
_chemical_formula_sum "Si O2"
_cell_formula_units_Z 32
_cell_length_a 13.426056
_cell_length_b 7.541670
_cell_length_c 18.812131
_cell_angle_alpha 90.000000
_cell_angle_beta 78.103603
_cell_angle_gamma 90.000000
_cell_volume 1863.908316
_symmetry_space_group_name_H-M "C 2/C"
_symmetry_group_IT_number 15
_symmetry_cell_setting 'monoclinic'
loop_
_space_group_symop_operation_xyz
x,y,z
-x,y,1/2-z
-x,-y,-z
x,-y,1/2+z
1/2+x,1/2+y,z
1/2-x,1/2+y,1/2-z
1/2-x,1/2-y,-z
1/2+x,1/2-y,1/2+z
loop_
_atom_site_type_symbol
_atom_site_label
_atom_site_fract_x
_atom_site_fract_y
_atom_site_fract_z
Si Si1 0.713266 0.529469 0.681284
Si Si2 0.028362 0.166235 0.170511
Si Si3 0.773670 0.716176 0.915351
Si Si4 0.307443 0.406739 0.659717
O O1 0.592137 0.513357 0.681552
O O2 0.771129 0.377590 0.626352
O O3 0.733327 0.493190 0.761508
O O4 0.753898 0.719860 0.653567
O O5 0.929008 0.119435 0.140082
O O6 0.000000 0.260623 0.250000
O O7 0.103260 0.296008 0.114849
O O8 0.721143 0.532797 0.901253
O O9 0.750000 0.750000 0.000000
#
# Coordination Sequence:
#
# PCOD8145065 Si02
#       4
#     8   8   8   8
#     4   9  19  35  57  83 102 147 190 219 272 330
#     4   8  18  36  54  82 107 143 192 221 266 337
#     4  10  22  37  55  87 117 137 185 238 270 322
#     4  11  17  38  60  74 114 149 180 230 272 325
#
# _framework density 17.168226000000001
#
# number of rings (size 3 to 8) (size 9 to 14) (size 15 to 20)
#    1.500    1.000    2.500    0.000    0.000    2.000 
#    4.500    2.500    0.000    0.000    0.000    0.000 
#    0.000    0.000    0.000    0.000    0.000    0.000 
#
# Total GULP energy -198239.721465 kJ/mol
# GULP energy per Si atom -12389.982592 kJ/mol
# Density = 1.712915 g / cm^3
# Si number density = 17.168226 Si / 1000 Ang^3
#
#
#
# Elastic Constant Matrix: (Units=GPa)
#
#
# Indices 1 2 3 4 5 6 
#
# 1 101.0803 25.1417 30.2431 0.0000 -8.7013 0.0000
# 2 25.1417 76.4260 17.5837 0.0000 -1.0632 0.0000
# 3 30.2431 17.5837 85.1437 0.0000 -12.8933 0.0000
# 4 0.0000 0.0000 0.0000 20.9065 0.0000 2.4903
# 5 -8.7013 -1.0632 -12.8933 0.0000 20.9738 0.0000
# 6 0.0000 0.0000 0.0000 2.4903 0.0000 19.8408
#
#
#
# Elastic Compliance Matrix: (Units=1/GPa)
#
#
# Indices 1 2 3 4 5 6 
#
# 1 0.011856 -0.003140 -0.003134 0.000000 0.002833 0.000000
# 2 -0.003140 0.014594 -0.002188 0.000000 -0.001908 0.000000
# 3 -0.003134 -0.002188 0.014440 0.000000 0.007466 0.000000
# 4 0.000000 0.000000 0.000000 0.048558 0.000000 -0.006095
# 5 0.002833 -0.001908 0.007466 0.000000 0.053347 0.000000
# 6 0.000000 0.000000 0.000000 -0.006095 0.000000 0.051166
#
#
# Mechanical properties :
#
#
# Convention : Reuss Voigt Hill
#
# Bulk Modulus (GPa) = 41.72228 45.39856 43.56042
# Shear Modulus (GPa) = 22.84436 24.98964 23.91700
#
# Velocity S-wave (km/s) = 3.65172 3.81934 3.73647
# Velocity P-wave (km/s) = 6.49114 6.77869 6.63647
#
# Compressibility (1/GPa) = 0.02396801
#
# Stress axis : x y z
#
# Youngs Moduli (GPa) = 84.34887 68.52045 69.25066
#
# Poissons Ratio (x) = 0.21513 0.21701
# Poissons Ratio (y) = 0.26483 0.15149
# Poissons Ratio (z) = 0.26432 0.14990
#
# Static dielectric constant tensor:
#      x y z
#    x 3.198830 0.000000 -0.040080 
#    y 0.000000 2.980260 0.000000 
#    z -0.040080 0.000000 3.010760 
# 
# 
# High freq. dielectric constant tensor:
#      x y z
#    x 1.655360 0.000000 -0.003100 
#    y 0.000000 1.641710 0.000000 
#    z -0.003100 0.000000 1.652390 
# 
# From -- ./inp_files/140733.got.cif
#   From: 2010.06.25/outbox.cif.g09.slc.cpg/sg15_71_cif.got.tgz:140733.got - 2010.06.28 07:06:18.
