data_PCOD8145439
_publ_section_title
;
Structure prediction by ZEFSAII (Michael W. Deem and Ramdas Pophale) SiO2 
 PCOD8145439
Probable space group: C 2/C
;
_chemical_formula_sum "Si O2"
_cell_formula_units_Z 52
_cell_length_a 30.690481
_cell_length_b 9.496365
_cell_length_c 8.418381
_cell_angle_alpha 90.000000
_cell_angle_beta 81.545785
_cell_angle_gamma 90.000000
_cell_volume 2426.859605
_symmetry_space_group_name_H-M "C 2/C"
_symmetry_group_IT_number 15
_symmetry_cell_setting 'monoclinic'
loop_
_space_group_symop_operation_xyz
x,y,z
-x,y,1/2-z
-x,-y,-z
x,-y,1/2+z
1/2+x,1/2+y,z
1/2-x,1/2+y,1/2-z
1/2-x,1/2-y,-z
1/2+x,1/2-y,1/2+z
loop_
_atom_site_type_symbol
_atom_site_label
_atom_site_fract_x
_atom_site_fract_y
_atom_site_fract_z
Si Si1 0.334801 0.493726 0.009379
Si Si2 0.298233 0.079260 0.782988
Si Si3 0.641211 0.950638 0.522905
Si Si4 0.000000 0.437729 0.250000
Si Si5 0.941856 0.376087 0.556777
Si Si6 0.377803 0.310873 0.245548
Si Si7 0.224904 0.876152 0.719180
O O1 0.351155 0.360521 0.103620
O O2 0.314832 0.613259 0.132590
O O3 0.374201 0.564762 0.880561
O O4 0.292540 0.446509 0.931744
O O5 0.338837 0.117590 0.645123
O O6 0.270369 0.943382 0.749687
O O7 0.234849 0.288731 0.189194
O O8 0.321311 0.060043 0.940487
O O9 0.637511 0.836660 0.668076
O O10 0.596494 0.030742 0.503620
O O11 0.035799 0.534896 0.316456
O O12 0.976242 0.340697 0.396040
O O13 0.925844 0.228877 0.646696
#
# Coordination Sequence:
#
# PCOD8145439 Si02
#       7
#     8   8   8   4   8   8   8
#     4  10  24  42  63  86 127 177 232 262 320 372
#     4  12  26  38  61  91 129 173 225 278 333 380
#     4  12  23  40  64  94 126 167 219 271 322 391
#     4  10  22  38  68 114 132 160 188 268 338 400
#     4  11  21  41  69 103 134 161 203 261 336 383
#     4  11  22  43  66  93 126 172 221 270 312 397
#     4  11  25  40  59  88 128 175 222 283 329 374
#
# _framework density 21.426867000000001
#
# number of rings (size 3 to 8) (size 9 to 14) (size 15 to 20)
#    0.000    0.923    4.615    1.846    4.308    2.462 
#    0.000    0.000    0.000    2.769    0.000    0.000 
#    0.000    0.000    0.000    0.000    0.000    0.000 
#
# Total GULP energy -322130.279875 kJ/mol
# GULP energy per Si atom -12389.626149 kJ/mol
# Density = 2.137810 g / cm^3
# Si number density = 21.426867 Si / 1000 Ang^3
#
#
#
# Elastic Constant Matrix: (Units=GPa)
#
#
# Indices 1 2 3 4 5 6 
#
# 1 95.3409 33.0238 22.4488 0.0000 16.2920 0.0000
# 2 33.0238 74.5026 14.1686 0.0000 11.6622 0.0000
# 3 22.4488 14.1686 95.5651 0.0000 -3.7763 0.0000
# 4 0.0000 0.0000 0.0000 25.1013 0.0000 -13.7516
# 5 16.2920 11.6622 -3.7763 0.0000 43.9956 0.0000
# 6 0.0000 0.0000 0.0000 -13.7516 0.0000 28.8073
#
#
#
# Elastic Compliance Matrix: (Units=1/GPa)
#
#
# Indices 1 2 3 4 5 6 
#
# 1 0.013451 -0.004856 -0.002595 0.000000 -0.003917 0.000000
# 2 -0.004856 0.016247 -0.001372 0.000000 -0.002626 0.000000
# 3 -0.002595 -0.001372 0.011368 0.000000 0.002300 0.000000
# 4 0.000000 0.000000 0.000000 0.053947 0.000000 0.025752
# 5 -0.003917 -0.002626 0.002300 0.000000 0.025073 0.000000
# 6 0.000000 0.000000 0.000000 0.025752 0.000000 0.047007
#
#
# Mechanical properties :
#
#
# Convention : Reuss Voigt Hill
#
# Bulk Modulus (GPa) = 42.69657 44.96564 43.83110
# Shear Modulus (GPa) = 25.96821 32.63200 29.30011
#
# Velocity S-wave (km/s) = 3.48508 3.90673 3.70191
# Velocity P-wave (km/s) = 6.01367 6.43283 6.22678
#
# Compressibility (1/GPa) = 0.02342109
#
# Stress axis : x y z
#
# Youngs Moduli (GPa) = 74.34555 61.55119 87.96750
#
# Poissons Ratio (x) = 0.29887 0.22823
# Poissons Ratio (y) = 0.36099 0.12068
# Poissons Ratio (z) = 0.19289 0.08444
#
# Static dielectric constant tensor:
#      x y z
#    x 3.680390 0.000000 -0.118110 
#    y 0.000000 3.705080 0.000000 
#    z -0.118110 0.000000 4.363760 
# 
# 
# High freq. dielectric constant tensor:
#      x y z
#    x 1.818640 0.000000 -0.003910 
#    y 0.000000 1.817460 0.000000 
#    z -0.003910 0.000000 1.878090 
# 
# From -- ./inp_files/68856.got.cif
#   From: 2010.06.25/outbox.cif.g09.slc.cpg/sg15_35_cif.got.tgz:68856.got - 2010.06.28 07:06:18.
