data_PCOD8145997
_publ_section_title
;
Structure prediction by ZEFSAII (Michael W. Deem and Ramdas Pophale) SiO2 
 PCOD8145997
Probable space group: C 2/C
;
_chemical_formula_sum "Si O2"
_cell_formula_units_Z 64
_cell_length_a 11.537796
_cell_length_b 14.764230
_cell_length_c 28.836366
_cell_angle_alpha 90.000000
_cell_angle_beta 39.887896
_cell_angle_gamma 90.000000
_cell_volume 3150.119258
_symmetry_space_group_name_H-M "C 2/C"
_symmetry_group_IT_number 15
_symmetry_cell_setting 'monoclinic'
loop_
_space_group_symop_operation_xyz
x,y,z
-x,y,1/2-z
-x,-y,-z
x,-y,1/2+z
1/2+x,1/2+y,z
1/2-x,1/2+y,1/2-z
1/2-x,1/2-y,-z
1/2+x,1/2-y,1/2+z
loop_
_atom_site_type_symbol
_atom_site_label
_atom_site_fract_x
_atom_site_fract_y
_atom_site_fract_z
Si Si1 0.560309 0.895870 0.283575
Si Si2 0.399078 0.791801 0.489142
Si Si3 0.041735 0.482005 0.434236
Si Si4 0.285462 0.988359 0.433906
Si Si5 0.179088 0.582023 0.225342
Si Si6 0.076337 0.888140 0.932475
Si Si7 0.189142 0.797398 0.741964
Si Si8 0.202701 0.864330 0.640421
O O1 0.500000 0.875177 0.250000
O O2 0.390932 0.916284 0.369103
O O3 0.660044 0.804691 0.269511
O O4 0.695169 0.981868 0.243108
O O5 0.250000 0.750000 0.500000
O O6 0.517893 0.874538 0.430695
O O7 0.547067 0.715926 0.455179
O O8 0.305383 0.824495 0.564759
O O9 0.235995 0.531332 0.366825
O O10 0.000000 0.500000 0.500000
O O11 0.903012 0.528221 0.440366
O O12 0.112464 0.940040 0.508446
O O13 0.226015 0.073223 0.421293
O O14 0.355727 0.602180 0.140892
O O15 0.161056 0.656394 0.271374
O O16 0.000000 0.586819 0.250000
O O17 0.251972 0.799807 0.669154
O O18 0.010708 0.860321 0.802647
#
# Coordination Sequence:
#
# PCOD8145997 Si02
#       8
#     8   8   8   8   8   8   8   8
#     4  11  21  42  66  94 122 173 216 266 316 384
#     4  11  21  39  65  97 125 170 222 262 321 396
#     4  10  23  40  63  90 132 166 200 269 329 375
#     4  11  22  39  65  96 129 163 213 272 326 370
#     4  11  24  43  63  93 135 164 215 272 327 377
#     4  11  23  36  67  99 124 163 224 272 315 385
#     4  11  23  39  71  91 125 173 221 262 316 402
#     4  10  22  40  64  95 128 167 219 261 325 382
#
# _framework density 20.316692
#
# number of rings (size 3 to 8) (size 9 to 14) (size 15 to 20)
#    0.000    1.250    5.000    2.250    3.500    0.000 
#    0.000    3.750    0.000    0.000    0.000    0.000 
#    0.000    0.000    0.000    0.000    0.000    0.000 
#
# Total GULP energy -396620.720818 kJ/mol
# GULP energy per Si atom -12394.397526 kJ/mol
# Density = 2.027045 g / cm^3
# Si number density = 20.316692 Si / 1000 Ang^3
#
#
#
# Elastic Constant Matrix: (Units=GPa)
#
#
# Indices 1 2 3 4 5 6 
#
# 1 98.9665 56.7012 25.3377 0.0000 13.1756 0.0005
# 2 56.7012 155.7163 26.1703 0.0002 -7.1161 0.0002
# 3 25.3377 26.1703 89.1974 0.0015 14.6330 0.0015
# 4 0.0000 0.0002 0.0015 34.7031 0.0003 -6.8833
# 5 13.1756 -7.1161 14.6330 0.0003 21.7402 -0.0006
# 6 0.0005 0.0002 0.0015 -6.8833 -0.0006 33.9602
#
#
#
# Elastic Compliance Matrix: (Units=1/GPa)
#
#
# Indices 1 2 3 4 5 6 
#
# 1 0.015043 -0.005811 -0.000855 0.000000 -0.010444 0.000000
# 2 -0.005811 0.009322 -0.002431 0.000000 0.008209 0.000000
# 3 -0.000855 -0.002431 0.013729 -0.000001 -0.009518 -0.000001
# 4 0.000000 0.000000 -0.000001 0.030023 0.000000 0.006085
# 5 -0.010444 0.008209 -0.009518 0.000000 0.061421 0.000002
# 6 0.000000 0.000000 -0.000001 0.006085 0.000002 0.030680
#
#
# Mechanical properties :
#
#
# Convention : Reuss Voigt Hill
#
# Bulk Modulus (GPa) = 50.25310 62.25540 56.25425
# Shear Modulus (GPa) = 27.02055 33.79209 30.40632
#
# Velocity S-wave (km/s) = 3.65083 4.08274 3.87281
# Velocity P-wave (km/s) = 6.52380 7.27558 6.90992
#
# Compressibility (1/GPa) = 0.01989927
#
# Stress axis : x y z
#
# Youngs Moduli (GPa) = 66.47539 107.27631 72.84030
#
# Poissons Ratio (x) = 0.62341 0.06227
# Poissons Ratio (y) = 0.38631 0.17707
# Poissons Ratio (z) = 0.05683 0.26079
#
# Static dielectric constant tensor:
#      x y z
#    x 3.737160 0.000000 0.155770 
#    y 0.000000 4.107530 0.000000 
#    z 0.155770 0.000000 3.858370 
# 
# 
# High freq. dielectric constant tensor:
#      x y z
#    x 1.788480 0.000000 0.023620 
#    y 0.000000 1.793630 0.000000 
#    z 0.023620 0.000000 1.795440 
# 
# From -- ./inp_files/311180.got.cif
#   From: 2010.06.25/outbox.cif.g09.slc.cpg/sg15_156_cif.got.tgz:311180.got - 2010.06.28 07:06:18.
