data_PCOD8145180
_publ_section_title
;
Structure prediction by ZEFSAII (Michael W. Deem and Ramdas Pophale) SiO2 
 PCOD8145180
Probable space group: C 2/C
;
_chemical_formula_sum "Si O2"
_cell_formula_units_Z 60
_cell_length_a 19.226649
_cell_length_b 29.040689
_cell_length_c 13.579534
_cell_angle_alpha 90.000000
_cell_angle_beta 157.466952
_cell_angle_gamma 90.000000
_cell_volume 2905.623288
_symmetry_space_group_name_H-M "C 2/C"
_symmetry_group_IT_number 15
_symmetry_cell_setting 'monoclinic'
loop_
_space_group_symop_operation_xyz
x,y,z
-x,y,1/2-z
-x,-y,-z
x,-y,1/2+z
1/2+x,1/2+y,z
1/2-x,1/2+y,1/2-z
1/2-x,1/2-y,-z
1/2+x,1/2-y,1/2+z
loop_
_atom_site_type_symbol
_atom_site_label
_atom_site_fract_x
_atom_site_fract_y
_atom_site_fract_z
Si Si1 0.392507 0.021858 0.212154
Si Si2 0.000000 0.063934 0.750000
Si Si3 0.722282 0.368031 0.666381
Si Si4 0.212122 0.149992 0.540285
Si Si5 0.654304 0.267720 0.091115
Si Si6 0.298429 0.721902 0.466785
Si Si7 0.053070 0.570413 0.606685
Si Si8 0.283524 0.313793 0.655252
O O1 0.500000 0.030308 0.250000
O O2 0.508353 0.051612 0.440364
O O3 0.413050 0.968745 0.268110
O O4 0.174465 0.034922 0.933307
O O5 0.927021 0.096339 0.568126
O O6 0.789057 0.328479 0.674579
O O7 0.638889 0.345442 0.655212
O O8 0.893100 0.395998 0.931025
O O9 0.267229 0.192476 0.682694
O O10 0.268799 0.102017 0.663977
O O11 0.297199 0.157422 0.542226
O O12 0.000000 0.147683 0.250000
O O13 0.769437 0.257528 0.339984
O O14 0.633018 0.221298 0.999069
O O15 0.450296 0.282162 0.841560
O O16 0.250000 0.750000 0.500000
O O17 0.500000 0.706150 0.750000
#
# Coordination Sequence:
#
# PCOD8145180 Si02
#       8
#     8   4   8   8   8   8   8   8
#     4  10  24  47  73 102 133 171 214 277 358 417
#     4  10  22  46  72  98 142 168 214 292 332 416
#     4  10  22  40  65  95 132 170 217 269 325 388
#     4  10  23  40  60  91 125 171 221 273 318 391
#     4  10  22  38  56  88 129 166 221 264 314 374
#     4  11  22  37  60  89 129 177 215 260 319 381
#     4  10  24  44  66 101 131 162 225 276 331 415
#     4  10  22  39  60  87 127 177 215 264 320 376
#
# _framework density 20.649615000000001
#
# number of rings (size 3 to 8) (size 9 to 14) (size 15 to 20)
#    0.000    1.867    0.667    2.000    8.400    2.133 
#    2.400    6.000    0.000    0.000    0.000    0.000 
#    0.000    0.000    0.000    0.000    0.000    0.000 
#
# Total GULP energy -371652.449406 kJ/mol
# GULP energy per Si atom -12388.414980 kJ/mol
# Density = 2.060262 g / cm^3
# Si number density = 20.649615 Si / 1000 Ang^3
#
#
#
# Elastic Constant Matrix: (Units=GPa)
#
#
# Indices 1 2 3 4 5 6 
#
# 1 126.2268 59.9171 41.1519 0.0000 -3.9338 0.0004
# 2 59.9171 140.9331 61.4709 0.0000 -7.1272 0.0002
# 3 41.1519 61.4709 81.8443 -0.0001 -6.8079 0.0011
# 4 0.0000 0.0000 -0.0001 44.4892 0.0000 -2.6423
# 5 -3.9338 -7.1272 -6.8079 0.0000 27.5437 0.0004
# 6 0.0004 0.0002 0.0011 -2.6423 0.0004 13.1617
#
#
#
# Elastic Compliance Matrix: (Units=1/GPa)
#
#
# Indices 1 2 3 4 5 6 
#
# 1 0.010346 -0.003168 -0.002826 0.000000 -0.000041 0.000000
# 2 -0.003168 0.011539 -0.007007 0.000000 0.000801 0.000000
# 3 -0.002826 -0.007007 0.019111 0.000000 0.002507 -0.000001
# 4 0.000000 0.000000 0.000000 0.022749 0.000000 0.004567
# 5 -0.000041 0.000801 0.002507 0.000000 0.037127 -0.000001
# 6 0.000000 0.000000 -0.000001 0.004567 -0.000001 0.076895
#
#
# Mechanical properties :
#
#
# Convention : Reuss Voigt Hill
#
# Bulk Modulus (GPa) = 66.69572 74.89823 70.79697
# Shear Modulus (GPa) = 23.95009 29.46987 26.70998
#
# Velocity S-wave (km/s) = 3.40933 3.78185 3.60041
# Velocity P-wave (km/s) = 6.91859 7.44443 7.18632
#
# Compressibility (1/GPa) = 0.01499347
#
# Stress axis : x y z
#
# Youngs Moduli (GPa) = 96.65468 86.65995 52.32639
#
# Poissons Ratio (x) = 0.27454 0.14788
# Poissons Ratio (y) = 0.30620 0.36667
# Poissons Ratio (z) = 0.27315 0.60725
#
# Static dielectric constant tensor:
#      x y z
#    x 4.036840 0.000000 -0.195000 
#    y 0.000000 4.059830 0.000000 
#    z -0.195000 0.000000 3.835260 
# 
# 
# High freq. dielectric constant tensor:
#      x y z
#    x 1.801640 0.000000 -0.015320 
#    y 0.000000 1.816430 0.000000 
#    z -0.015320 0.000000 1.814480 
# 
# From -- ./inp_files/169948.got.cif
#   From: 2010.06.25/outbox.cif.g09.slc.cpg/sg15_85_cif.got.tgz:169948.got - 2010.06.28 07:06:18.
