data_PCOD8145430
_publ_section_title
;
Structure prediction by ZEFSAII (Michael W. Deem and Ramdas Pophale) SiO2 
 PCOD8145430
Probable space group: C 2/C
;
_chemical_formula_sum "Si O2"
_cell_formula_units_Z 48
_cell_length_a 16.781947
_cell_length_b 11.471002
_cell_length_c 12.443717
_cell_angle_alpha 90.000000
_cell_angle_beta 66.222811
_cell_angle_gamma 90.000000
_cell_volume 2192.158721
_symmetry_space_group_name_H-M "C 2/C"
_symmetry_group_IT_number 15
_symmetry_cell_setting 'monoclinic'
loop_
_space_group_symop_operation_xyz
x,y,z
-x,y,1/2-z
-x,-y,-z
x,-y,1/2+z
1/2+x,1/2+y,z
1/2-x,1/2+y,1/2-z
1/2-x,1/2-y,-z
1/2+x,1/2-y,1/2+z
loop_
_atom_site_type_symbol
_atom_site_label
_atom_site_fract_x
_atom_site_fract_y
_atom_site_fract_z
Si Si1 0.684275 0.894915 0.447421
Si Si2 0.715752 0.309315 0.769525
Si Si3 0.893659 0.362142 0.563644
Si Si4 0.344503 0.299352 0.925435
Si Si5 0.843821 0.951321 0.505352
Si Si6 0.043996 0.746611 0.113668
O O1 0.696738 0.811739 0.338696
O O2 0.777107 0.932700 0.442503
O O3 0.635072 0.824576 0.569751
O O4 0.624927 0.001686 0.440286
O O5 0.814622 0.306325 0.674686
O O6 0.647430 0.321145 0.706760
O O7 0.700612 0.420087 0.856333
O O8 0.905989 0.302442 0.439125
O O9 0.983232 0.334285 0.573811
O O10 0.367484 0.413063 0.984787
O O11 0.250000 0.250000 0.000000
O O12 0.931955 0.874706 0.445224
O O13 0.000000 0.766387 0.250000
#
# Coordination Sequence:
#
# PCOD8145430 Si02
#       6
#     8   8   8   8   8   8
#     4  11  22  41  66  95 129 176 231 271 328 405
#     4  10  22  38  67  95 125 174 227 279 330 393
#     4  11  23  40  64  97 134 170 223 281 333 394
#     4  10  22  39  63  95 126 166 219 275 332 390
#     4  11  22  42  65  95 126 173 228 271 325 407
#     4  11  24  41  63  95 133 174 217 277 341 392
#
# _framework density 21.896225000000001
#
# number of rings (size 3 to 8) (size 9 to 14) (size 15 to 20)
#    0.000    1.333    3.333    4.500    4.667    3.333 
#    0.000    5.000    0.000    0.000    0.000    0.000 
#    0.000    0.000    0.000    0.000    0.000    0.000 
#
# Total GULP energy -297468.470648 kJ/mol
# GULP energy per Si atom -12394.519610 kJ/mol
# Density = 2.184639 g / cm^3
# Si number density = 21.896225 Si / 1000 Ang^3
#
#
#
# Elastic Constant Matrix: (Units=GPa)
#
#
# Indices 1 2 3 4 5 6 
#
# 1 33.0017 1.6887 15.3482 0.0000 -0.5288 0.0000
# 2 1.6887 134.0387 30.2190 0.0000 -2.2311 0.0000
# 3 15.3482 30.2190 102.0477 0.0000 6.6098 0.0000
# 4 0.0000 0.0000 0.0000 23.4620 0.0000 5.5081
# 5 -0.5288 -2.2311 6.6098 0.0000 34.8128 0.0000
# 6 0.0000 0.0000 0.0000 5.5081 0.0000 42.2469
#
#
#
# Elastic Compliance Matrix: (Units=1/GPa)
#
#
# Indices 1 2 3 4 5 6 
#
# 1 0.032731 0.000799 -0.005260 0.000000 0.001547 0.000000
# 2 0.000799 0.008046 -0.002569 0.000000 0.001016 0.000000
# 3 -0.005260 -0.002569 0.011508 0.000000 -0.002430 0.000000
# 4 0.000000 0.000000 0.000000 0.043968 0.000000 -0.005732
# 5 0.001547 0.001016 -0.002430 0.000000 0.029275 0.000000
# 6 0.000000 0.000000 0.000000 -0.005732 0.000000 0.024418
#
#
# Mechanical properties :
#
#
# Convention : Reuss Voigt Hill
#
# Bulk Modulus (GPa) = 26.15897 40.40000 33.27948
# Shear Modulus (GPa) = 28.28882 34.89317 31.59099
#
# Velocity S-wave (km/s) = 3.59827 3.99629 3.80249
# Velocity P-wave (km/s) = 5.40704 6.30749 5.87455
#
# Compressibility (1/GPa) = 0.03822781
#
# Stress axis : x y z
#
# Youngs Moduli (GPa) = 30.55162 124.27774 86.89263
#
# Poissons Ratio (x) = -0.09932 0.45703
# Poissons Ratio (y) = -0.02442 0.22321
# Poissons Ratio (z) = 0.16069 0.31924
#
# Static dielectric constant tensor:
#      x y z
#    x 5.203660 0.000000 1.188760 
#    y 0.000000 5.010720 0.000000 
#    z 1.188760 0.000000 4.913430 
# 
# 
# High freq. dielectric constant tensor:
#      x y z
#    x 1.847560 0.000000 0.009710 
#    y 0.000000 1.872620 0.000000 
#    z 0.009710 0.000000 1.856880 
# 
# From -- ./inp_files/104194.got.cif
#   From: 2010.06.25/outbox.cif.g09.slc.cpg/sg15_53_cif.got.tgz:104194.got - 2010.06.28 07:06:18.
