data_PCOD8145239
_publ_section_title
;
Structure prediction by ZEFSAII (Michael W. Deem and Ramdas Pophale) SiO2 
 PCOD8145239
Probable space group: C 2/C
;
_chemical_formula_sum "Si O2"
_cell_formula_units_Z 48
_cell_length_a 17.464998
_cell_length_b 28.834548
_cell_length_c 10.471187
_cell_angle_alpha 90.000000
_cell_angle_beta 150.225401
_cell_angle_gamma 90.000000
_cell_volume 2618.634456
_symmetry_space_group_name_H-M "C 2/C"
_symmetry_group_IT_number 15
_symmetry_cell_setting 'monoclinic'
loop_
_space_group_symop_operation_xyz
x,y,z
-x,y,1/2-z
-x,-y,-z
x,-y,1/2+z
1/2+x,1/2+y,z
1/2-x,1/2+y,1/2-z
1/2-x,1/2-y,-z
1/2+x,1/2-y,1/2+z
loop_
_atom_site_type_symbol
_atom_site_label
_atom_site_fract_x
_atom_site_fract_y
_atom_site_fract_z
Si Si1 0.436537 0.212667 0.854254
Si Si2 0.339914 0.380012 0.953885
Si Si3 0.904707 0.984006 0.983562
Si Si4 0.577283 0.026154 0.496708
Si Si5 0.256715 0.792465 0.840106
Si Si6 0.472164 0.127702 0.352333
O O1 0.313037 0.201962 0.565980
O O2 0.380022 0.254602 0.863076
O O3 0.604308 0.226896 0.045213
O O4 0.445728 0.164823 0.941111
O O5 0.302074 0.342368 0.791074
O O6 0.207711 0.380148 0.871734
O O7 0.500000 0.365670 0.250000
O O8 0.354831 0.429984 0.907364
O O9 0.000000 0.994323 0.250000
O O10 0.756338 0.015839 0.759685
O O11 0.000000 0.000000 0.000000
O O12 0.500000 0.011563 0.250000
O O13 0.562593 0.080249 0.501395
O O14 0.500000 0.000000 0.500000
O O15 0.500000 0.145833 0.250000
#
# Coordination Sequence:
#
# PCOD8145239 Si02
#       6
#     8   8   8   8   8   8
#     4   9  19  37  58  84 114 146 192 239 289 344
#     4  10  22  39  59  83 118 155 189 239 296 346
#     4  11  24  41  60  87 123 157 197 247 297 351
#     4  11  22  39  62  87 117 157 200 243 291 349
#     4   9  19  37  59  83 113 149 189 240 289 346
#     4  10  22  38  60  85 115 152 196 240 286 350
#
# _framework density 18.330164
#
# number of rings (size 3 to 8) (size 9 to 14) (size 15 to 20)
#    0.000    2.000    1.667    1.000    7.000    4.667 
#    0.000    3.333    0.000    0.000    0.000    0.000 
#    0.000    0.000    0.000    0.000    0.000    0.000 
#
# Total GULP energy -297587.372805 kJ/mol
# GULP energy per Si atom -12399.473867 kJ/mol
# Density = 1.828844 g / cm^3
# Si number density = 18.330164 Si / 1000 Ang^3
#
#
#
# Elastic Constant Matrix: (Units=GPa)
#
#
# Indices 1 2 3 4 5 6 
#
# 1 143.7151 67.9476 62.7484 0.0000 7.4042 0.0000
# 2 67.9476 104.1577 72.2076 0.0000 3.7680 0.0000
# 3 62.7484 72.2076 124.3602 0.0000 15.4338 0.0000
# 4 0.0000 0.0000 0.0000 27.7883 0.0000 4.4074
# 5 7.4042 3.7680 15.4338 0.0000 29.3171 0.0000
# 6 0.0000 0.0000 0.0000 4.4074 0.0000 35.3470
#
#
#
# Elastic Compliance Matrix: (Units=1/GPa)
#
#
# Indices 1 2 3 4 5 6 
#
# 1 0.010427 -0.005352 -0.002045 0.000000 -0.000869 0.000000
# 2 -0.005352 0.019075 -0.008814 0.000000 0.003540 0.000000
# 3 -0.002045 -0.008814 0.014964 0.000000 -0.006228 0.000000
# 4 0.000000 0.000000 0.000000 0.036712 0.000000 -0.004578
# 5 -0.000869 0.003540 -0.006228 0.000000 0.037153 0.000000
# 6 0.000000 0.000000 0.000000 -0.004578 0.000000 0.028862
#
#
# Mechanical properties :
#
#
# Convention : Reuss Voigt Hill
#
# Bulk Modulus (GPa) = 83.04642 86.44892 84.74767
# Shear Modulus (GPa) = 27.22862 29.77913 28.50387
#
# Velocity S-wave (km/s) = 3.85834 4.03500 3.94766
# Velocity P-wave (km/s) = 8.07795 8.30499 8.19226
#
# Compressibility (1/GPa) = 0.01204146
#
# Stress axis : x y z
#
# Youngs Moduli (GPa) = 95.90855 52.42488 66.82735
#
# Poissons Ratio (x) = 0.28060 0.13668
# Poissons Ratio (y) = 0.51335 0.58903
# Poissons Ratio (z) = 0.19616 0.46208
#
# Static dielectric constant tensor:
#      x y z
#    x 3.642490 0.000000 0.008530 
#    y 0.000000 3.418450 0.000000 
#    z 0.008530 0.000000 3.456120 
# 
# 
# High freq. dielectric constant tensor:
#      x y z
#    x 1.722110 0.000000 0.008950 
#    y 0.000000 1.716530 0.000000 
#    z 0.008950 0.000000 1.714380 
# 
# From -- ./inp_files/108295.got.cif
#   From: 2010.06.25/outbox.cif.g09.slc.cpg/sg15_55_cif.got.tgz:108295.got - 2010.06.28 07:06:18.
