data_PCOD8145092
_publ_section_title
;
Structure prediction by ZEFSAII (Michael W. Deem and Ramdas Pophale) SiO2 
 PCOD8145092
Probable space group: C 2/C
;
_chemical_formula_sum "Si O2"
_cell_formula_units_Z 40
_cell_length_a 17.696545
_cell_length_b 17.559240
_cell_length_c 8.759289
_cell_angle_alpha 90.000000
_cell_angle_beta 137.001730
_cell_angle_gamma 90.000000
_cell_volume 1856.232289
_symmetry_space_group_name_H-M "C 2/C"
_symmetry_group_IT_number 15
_symmetry_cell_setting 'monoclinic'
loop_
_space_group_symop_operation_xyz
x,y,z
-x,y,1/2-z
-x,-y,-z
x,-y,1/2+z
1/2+x,1/2+y,z
1/2-x,1/2+y,1/2-z
1/2-x,1/2-y,-z
1/2+x,1/2-y,1/2+z
loop_
_atom_site_type_symbol
_atom_site_label
_atom_site_fract_x
_atom_site_fract_y
_atom_site_fract_z
Si Si1 0.373189 0.829575 0.101467
Si Si2 0.311798 0.245447 0.820460
Si Si3 0.466438 0.378475 0.044035
Si Si4 0.194917 0.895486 0.250218
Si Si5 0.210466 0.044875 0.435249
O O1 0.500000 0.840241 0.250000
O O2 0.359634 0.775811 0.226689
O O3 0.306452 0.788270 0.866961
O O4 0.323416 0.913040 0.056515
O O5 0.289583 0.170383 0.890061
O O6 0.403786 0.303534 0.020002
O O7 0.500000 0.424314 0.250000
O O8 0.576185 0.357746 0.110449
O O9 0.389968 0.428219 0.821056
O O10 0.228475 0.955119 0.432461
O O11 0.185073 0.938597 0.073916
#
# Coordination Sequence:
#
# PCOD8145092 Si02
#       5
#     8   8   8   8   8
#     4   9  17  35  58  82 113 153 197 236 283 345
#     4   9  20  34  57  87 113 152 196 236 289 343
#     4  11  22  37  59  88 118 152 192 240 293 339
#     4  11  21  39  60  84 122 152 192 242 285 344
#     4  10  22  37  59  88 116 154 194 234 290 347
#
# _framework density 21.549026999999999
#
# number of rings (size 3 to 8) (size 9 to 14) (size 15 to 20)
#    0.000    2.000    0.000    4.800    0.000    0.800 
#    0.000    7.000    0.000    0.000    0.000    0.000 
#    0.000    0.000    0.000    0.000    0.000    0.000 
#
# Total GULP energy -247904.674369 kJ/mol
# GULP energy per Si atom -12395.233718 kJ/mol
# Density = 2.149998 g / cm^3
# Si number density = 21.549027 Si / 1000 Ang^3
#
#
#
# Elastic Constant Matrix: (Units=GPa)
#
#
# Indices 1 2 3 4 5 6 
#
# 1 130.8834 34.9494 36.3929 0.0000 21.2542 0.0000
# 2 34.9494 91.3597 9.2402 0.0000 9.7176 0.0000
# 3 36.3929 9.2402 51.0844 0.0000 8.6180 0.0000
# 4 0.0000 0.0000 0.0000 22.1344 0.0000 -6.5741
# 5 21.2542 9.7176 8.6180 0.0000 32.1533 0.0000
# 6 0.0000 0.0000 0.0000 -6.5741 0.0000 30.0830
#
#
#
# Elastic Compliance Matrix: (Units=1/GPa)
#
#
# Indices 1 2 3 4 5 6 
#
# 1 0.011020 -0.003066 -0.006519 0.000000 -0.004611 0.000000
# 2 -0.003066 0.012279 0.000259 0.000000 -0.001754 0.000000
# 3 -0.006519 0.000259 0.024570 0.000000 -0.002355 0.000000
# 4 0.000000 0.000000 0.000000 0.048314 0.000000 0.010558
# 5 -0.004611 -0.001754 -0.002355 0.000000 0.035310 0.000000
# 6 0.000000 0.000000 0.000000 0.010558 0.000000 0.035549
#
#
# Mechanical properties :
#
#
# Convention : Reuss Voigt Hill
#
# Bulk Modulus (GPa) = 34.22540 48.27696 41.25118
# Shear Modulus (GPa) = 25.58426 29.72381 27.65403
#
# Velocity S-wave (km/s) = 3.44940 3.71800 3.58621
# Velocity P-wave (km/s) = 5.63751 6.39401 6.02764
#
# Compressibility (1/GPa) = 0.02921807
#
# Stress axis : x y z
#
# Youngs Moduli (GPa) = 90.74059 81.43989 40.70051
#
# Poissons Ratio (x) = 0.24970 0.26531
# Poissons Ratio (y) = 0.27822 -0.01055
# Poissons Ratio (z) = 0.59150 -0.02110
#
# Static dielectric constant tensor:
#      x y z
#    x 3.890740 0.000000 0.007330 
#    y 0.000000 3.996980 0.000000 
#    z 0.007330 0.000000 3.707610 
# 
# 
# High freq. dielectric constant tensor:
#      x y z
#    x 1.853950 0.000000 -0.002460 
#    y 0.000000 1.845720 0.000000 
#    z -0.002460 0.000000 1.824740 
# 
# From -- ./inp_files/29336.got.cif
#   From: 2010.06.25/outbox.cif.g09.slc.cpg/sg15_15_cif.got.tgz:29336.got - 2010.06.28 07:06:18.
