data_PCOD8145457
_publ_section_title
;
Structure prediction by ZEFSAII (Michael W. Deem and Ramdas Pophale) SiO2 
 PCOD8145457
Probable space group: C 2/C
;
_chemical_formula_sum "Si O2"
_cell_formula_units_Z 40
_cell_length_a 18.510383
_cell_length_b 10.502477
_cell_length_c 8.969613
_cell_angle_alpha 90.000000
_cell_angle_beta 73.981163
_cell_angle_gamma 90.000000
_cell_volume 1676.028962
_symmetry_space_group_name_H-M "C 2/C"
_symmetry_group_IT_number 15
_symmetry_cell_setting 'monoclinic'
loop_
_space_group_symop_operation_xyz
x,y,z
-x,y,1/2-z
-x,-y,-z
x,-y,1/2+z
1/2+x,1/2+y,z
1/2-x,1/2+y,1/2-z
1/2-x,1/2-y,-z
1/2+x,1/2-y,1/2+z
loop_
_atom_site_type_symbol
_atom_site_label
_atom_site_fract_x
_atom_site_fract_y
_atom_site_fract_z
Si Si1 0.548700 0.910930 0.865532
Si Si2 0.522927 0.309250 0.579710
Si Si3 0.224801 0.129861 0.669186
Si Si4 0.929536 0.922244 0.393925
Si Si5 0.287566 0.915150 0.824399
O O1 0.500000 0.873314 0.750000
O O2 0.629267 0.964313 0.768375
O O3 0.568487 0.786936 0.950935
O O4 0.500000 0.000000 0.000000
O O5 0.500000 0.244107 0.750000
O O6 0.445409 0.355199 0.544114
O O7 0.579125 0.426763 0.576062
O O8 0.143180 0.135312 0.640333
O O9 0.284094 0.090984 0.506259
O O10 0.236905 0.274540 0.723244
O O11 0.230507 0.023824 0.795831
O O12 0.000000 0.892909 0.250000
#
# Coordination Sequence:
#
# PCOD8145457 Si02
#       5
#     8   8   8   8   8
#     4  12  25  47  72 100 141 188 244 302 355 430
#     4  10  22  38  69 105 130 174 239 290 359 413
#     4  11  26  48  70 107 150 193 239 303 362 450
#     4  10  22  42  70 102 135 181 237 293 352 418
#     4  11  27  47  72 105 146 197 240 296 379 427
#
# _framework density 23.865939000000001
#
# number of rings (size 3 to 8) (size 9 to 14) (size 15 to 20)
#    0.000    1.200    0.000    4.800   11.200    3.200 
#    3.600    0.000    0.000    0.000    0.000    0.000 
#    0.000    0.000    0.000    0.000    0.000    0.000 
#
# Total GULP energy -247987.146743 kJ/mol
# GULP energy per Si atom -12399.357337 kJ/mol
# Density = 2.381162 g / cm^3
# Si number density = 23.865939 Si / 1000 Ang^3
#
#
#
# Elastic Constant Matrix: (Units=GPa)
#
#
# Indices 1 2 3 4 5 6 
#
# 1 90.0634 8.4632 29.7337 0.0000 -12.5039 0.0000
# 2 8.4632 107.5486 30.2492 0.0000 8.8213 0.0000
# 3 29.7337 30.2492 116.7041 0.0000 -2.8545 0.0000
# 4 0.0000 0.0000 0.0000 44.9691 0.0000 3.7062
# 5 -12.5039 8.8213 -2.8545 0.0000 42.3854 0.0000
# 6 0.0000 0.0000 0.0000 3.7062 0.0000 25.9543
#
#
#
# Elastic Compliance Matrix: (Units=1/GPa)
#
#
# Indices 1 2 3 4 5 6 
#
# 1 0.012644 -0.000443 -0.003018 0.000000 0.003619 0.000000
# 2 -0.000443 0.010267 -0.002608 0.000000 -0.002443 0.000000
# 3 -0.003018 -0.002608 0.010022 0.000000 0.000327 0.000000
# 4 0.000000 0.000000 0.000000 0.022502 0.000000 -0.003213
# 5 0.003619 -0.002443 0.000327 0.000000 0.025191 0.000000
# 6 0.000000 0.000000 0.000000 -0.003213 0.000000 0.038988
#
#
# Mechanical properties :
#
#
# Convention : Reuss Voigt Hill
#
# Bulk Modulus (GPa) = 48.09027 50.13425 49.11226
# Shear Modulus (GPa) = 36.05340 39.05310 37.55325
#
# Velocity S-wave (km/s) = 3.89094 4.04957 3.97105
# Velocity P-wave (km/s) = 6.35451 6.55115 6.45358
#
# Compressibility (1/GPa) = 0.02079423
#
# Stress axis : x y z
#
# Youngs Moduli (GPa) = 79.09068 97.40038 99.78434
#
# Poissons Ratio (x) = 0.04314 0.30115
# Poissons Ratio (y) = 0.03503 0.26024
# Poissons Ratio (z) = 0.23870 0.25402
#
# Static dielectric constant tensor:
#      x y z
#    x 4.030790 0.000000 -0.040120 
#    y 0.000000 4.558120 0.000000 
#    z -0.040120 0.000000 4.709800 
# 
# 
# High freq. dielectric constant tensor:
#      x y z
#    x 1.923100 0.000000 -0.004950 
#    y 0.000000 1.951920 0.000000 
#    z -0.004950 0.000000 1.959500 
# 
# From -- ./inp_files/46062.got.cif
#   From: 2010.06.25/outbox.cif.g09.slc.cpg/sg15_24_cif.got.tgz:46062.got - 2010.06.28 07:06:18.
