data_PCOD8145744
_publ_section_title
;
Structure prediction by ZEFSAII (Michael W. Deem and Ramdas Pophale) SiO2 
 PCOD8145744
Probable space group: C 2/C
;
_chemical_formula_sum "Si O2"
_cell_formula_units_Z 52
_cell_length_a 20.702613
_cell_length_b 8.922098
_cell_length_c 17.975625
_cell_angle_alpha 90.000000
_cell_angle_beta 50.316766
_cell_angle_gamma 90.000000
_cell_volume 2555.250954
_symmetry_space_group_name_H-M "C 2/C"
_symmetry_group_IT_number 15
_symmetry_cell_setting 'monoclinic'
loop_
_space_group_symop_operation_xyz
x,y,z
-x,y,1/2-z
-x,-y,-z
x,-y,1/2+z
1/2+x,1/2+y,z
1/2-x,1/2+y,1/2-z
1/2-x,1/2-y,-z
1/2+x,1/2-y,1/2+z
loop_
_atom_site_type_symbol
_atom_site_label
_atom_site_fract_x
_atom_site_fract_y
_atom_site_fract_z
Si Si1 0.777012 0.480630 0.804687
Si Si2 0.793284 0.645742 0.028630
Si Si3 0.106042 0.876193 0.465883
Si Si4 0.545276 0.535102 0.859717
Si Si5 0.308874 0.686227 0.256991
Si Si6 0.500000 0.299461 0.250000
Si Si7 0.330278 0.149908 0.415099
O O1 0.690456 0.528997 0.904913
O O2 0.763227 0.362483 0.748510
O O3 0.822288 0.634034 0.743966
O O4 0.828250 0.394964 0.830087
O O5 0.874923 0.719071 0.008090
O O6 0.720663 0.620450 0.142482
O O7 0.750000 0.750000 0.000000
O O8 0.827651 0.493359 0.969757
O O9 0.070832 0.850392 0.407731
O O10 0.047732 0.976548 0.560158
O O11 0.603235 0.389136 0.825926
O O12 0.551176 0.605826 0.773872
O O13 0.425437 0.215861 0.351081
O O14 0.250000 0.250000 0.500000
#
# Coordination Sequence:
#
# PCOD8145744 Si02
#       7
#     8   8   8   8   8   4   8
#     4  10  22  40  66  95 126 164 218 259 328 389
#     4  11  22  42  65  94 122 170 220 260 324 389
#     4   9  20  41  66  88 124 161 216 260 317 397
#     4  10  22  41  63  94 128 170 208 266 330 385
#     4  10  22  39  67  94 120 167 217 264 318 401
#     4  12  28  38  64 100 136 170 222 270 326 390
#     4  12  26  43  65  95 140 174 217 275 325 384
#
# _framework density 20.350249999999999
#
# number of rings (size 3 to 8) (size 9 to 14) (size 15 to 20)
#    0.000    1.538    3.077    1.846   10.769    1.231 
#    0.000    0.769    0.000    0.000    0.000    0.000 
#    0.000    0.000    0.000    0.000    0.000    0.000 
#
# Total GULP energy -322236.640419 kJ/mol
# GULP energy per Si atom -12393.716939 kJ/mol
# Density = 2.030393 g / cm^3
# Si number density = 20.350250 Si / 1000 Ang^3
#
#
#
# Elastic Constant Matrix: (Units=GPa)
#
#
# Indices 1 2 3 4 5 6 
#
# 1 95.5899 48.7342 27.3637 -0.0003 12.0777 0.0004
# 2 48.7342 108.4250 26.6940 -0.0013 8.2611 0.0025
# 3 27.3637 26.6940 55.1006 -0.0002 7.8570 0.0002
# 4 -0.0003 -0.0013 -0.0002 38.6488 0.0001 10.1358
# 5 12.0777 8.2611 7.8570 0.0001 47.1446 -0.0001
# 6 0.0004 0.0025 0.0002 10.1358 -0.0001 38.2534
#
#
#
# Elastic Compliance Matrix: (Units=1/GPa)
#
#
# Indices 1 2 3 4 5 6 
#
# 1 0.014729 -0.005374 -0.004412 0.000000 -0.002096 0.000000
# 2 -0.005374 0.012481 -0.003341 0.000001 -0.000253 -0.000001
# 3 -0.004412 -0.003341 0.022242 0.000000 -0.001991 0.000000
# 4 0.000000 0.000001 0.000000 0.027806 0.000000 -0.007368
# 5 -0.002096 -0.000253 -0.001991 0.000000 0.022125 0.000000
# 6 0.000000 -0.000001 0.000000 -0.007368 0.000000 0.028094
#
#
# Mechanical properties :
#
#
# Convention : Reuss Voigt Hill
#
# Bulk Modulus (GPa) = 43.10971 51.63324 47.37148
# Shear Modulus (GPa) = 30.96660 35.23094 33.09877
#
# Velocity S-wave (km/s) = 3.90511 4.16532 4.03731
# Velocity P-wave (km/s) = 6.44694 6.96854 6.71281
#
# Compressibility (1/GPa) = 0.02319663
#
# Stress axis : x y z
#
# Youngs Moduli (GPa) = 67.89201 80.12489 44.95937
#
# Poissons Ratio (x) = 0.43063 0.19837
# Poissons Ratio (y) = 0.36488 0.15022
# Poissons Ratio (z) = 0.29955 0.26771
#
# Static dielectric constant tensor:
#      x y z
#    x 3.941450 0.000000 0.186580 
#    y 0.000000 3.639880 0.000000 
#    z 0.186580 0.000000 3.746730 
# 
# 
# High freq. dielectric constant tensor:
#      x y z
#    x 1.801540 0.000000 0.010670 
#    y 0.000000 1.786480 0.000000 
#    z 0.010670 0.000000 1.802410 
# 
# From -- ./inp_files/214234.got.cif
#   From: 2010.06.25/outbox.cif.g09.slc.cpg/sg15_108_cif.got.tgz:214234.got - 2010.06.28 07:06:18.
