data_PCOD8145152
_publ_section_title
;
Structure prediction by ZEFSAII (Michael W. Deem and Ramdas Pophale) SiO2 
 PCOD8145152
Probable space group: C 2/C
;
_chemical_formula_sum "Si O2"
_cell_formula_units_Z 56
_cell_length_a 9.005162
_cell_length_b 20.864797
_cell_length_c 15.039664
_cell_angle_alpha 90.000000
_cell_angle_beta 85.664883
_cell_angle_gamma 90.000000
_cell_volume 2817.730977
_symmetry_space_group_name_H-M "C 2/C"
_symmetry_group_IT_number 15
_symmetry_cell_setting 'monoclinic'
loop_
_space_group_symop_operation_xyz
x,y,z
-x,y,1/2-z
-x,-y,-z
x,-y,1/2+z
1/2+x,1/2+y,z
1/2-x,1/2+y,1/2-z
1/2-x,1/2-y,-z
1/2+x,1/2-y,1/2+z
loop_
_atom_site_type_symbol
_atom_site_label
_atom_site_fract_x
_atom_site_fract_y
_atom_site_fract_z
Si Si1 0.545647 0.795655 0.069596
Si Si2 0.500000 0.865621 0.250000
Si Si3 0.797723 0.461654 0.175302
Si Si4 0.000000 0.997342 0.750000
Si Si5 0.308039 0.335556 0.938807
Si Si6 0.918318 0.399313 0.667459
Si Si7 0.959354 0.059259 0.065001
Si Si8 0.846410 0.393437 0.992532
O O1 0.532091 0.818614 0.169264
O O2 0.564335 0.718947 0.073529
O O3 0.700021 0.823644 0.026181
O O4 0.400264 0.821355 0.020685
O O5 0.359889 0.912092 0.244094
O O6 0.620634 0.457298 0.196461
O O7 0.841582 0.534057 0.196699
O O8 0.854037 0.441997 0.075130
O O9 0.930572 0.956290 0.670949
O O10 0.203423 0.345728 0.856269
O O11 0.389917 0.401510 0.951918
O O12 0.000000 0.370116 0.750000
O O13 0.036403 0.416741 0.585608
O O14 0.820148 0.102613 0.038734
O O15 0.000000 0.000000 0.000000
#
# Coordination Sequence:
#
# PCOD8145152 Si02
#       8
#     8   4   8   4   8   8   8   8
#     4   9  22  43  64  86 116 169 211 255 306 370
#     4  10  22  37  66  88 117 164 212 256 296 386
#     4  11  21  37  58  91 126 163 202 256 314 372
#     4  12  24  37  56  94 133 162 202 250 332 374
#     4  10  22  42  64  86 125 162 210 257 318 377
#     4  11  20  38  61  92 123 160 205 258 316 379
#     4  12  24  38  61  96 128 167 203 267 326 375
#     4  10  22  38  61  89 125 163 212 252 313 379
#
# _framework density 19.874148000000002
#
# number of rings (size 3 to 8) (size 9 to 14) (size 15 to 20)
#    0.000    1.429    3.571    1.286    2.000    2.286 
#    0.000    0.000    7.857    0.000    0.000    0.000 
#    0.000    0.000    0.000    0.000    0.000    0.000 
#
# Total GULP energy -346999.964004 kJ/mol
# GULP energy per Si atom -12392.855857 kJ/mol
# Density = 1.982891 g / cm^3
# Si number density = 19.874148 Si / 1000 Ang^3
#
#
#
# Elastic Constant Matrix: (Units=GPa)
#
#
# Indices 1 2 3 4 5 6 
#
# 1 117.7837 48.1285 43.8336 0.0000 12.1970 0.0000
# 2 48.1285 91.2462 44.8417 0.0000 0.9944 0.0000
# 3 43.8336 44.8417 107.3332 0.0000 6.4748 0.0000
# 4 0.0000 0.0000 0.0000 -5.2759 0.0000 3.6665
# 5 12.1970 0.9944 6.4748 0.0000 33.1879 0.0000
# 6 0.0000 0.0000 0.0000 3.6665 0.0000 39.4688
#
#
#
# Elastic Compliance Matrix: (Units=1/GPa)
#
#
# Indices 1 2 3 4 5 6 
#
# 1 0.011847 -0.004959 -0.002543 0.000000 -0.003709 0.000000
# 2 -0.004959 0.015883 -0.004748 0.000000 0.002273 0.000000
# 3 -0.002543 -0.004748 0.012420 0.000000 -0.001346 0.000000
# 4 0.000000 0.000000 0.000000 -0.178045 0.000000 0.016540
# 5 -0.003709 0.002273 -0.001346 0.000000 0.031689 0.000000
# 6 0.000000 0.000000 0.000000 0.016540 0.000000 0.023800
#
#
# Mechanical properties :
#
#
# Convention : Reuss Voigt Hill
#
# Bulk Modulus (GPa) = 63.89073 65.55231 64.72152
# Shear Modulus (GPa) = -94.89319 25.44677 -34.72321
#
# Velocity S-wave (km/s) = -6.91742 3.58214 -4.18443
# Velocity P-wave (km/s) = 5.61992 7.08268 3.04802
#
# Compressibility (1/GPa) = 0.01565172
#
# Stress axis : x y z
#
# Youngs Moduli (GPa) = 84.41174 62.95924 80.51580
#
# Poissons Ratio (x) = 0.31219 0.20473
# Poissons Ratio (y) = 0.41857 0.38227
# Poissons Ratio (z) = 0.21463 0.29892
#
# Static dielectric constant tensor:
#      x y z
#    x 3.877570 0.000000 0.125330 
#    y 0.000000 3.495850 0.000000 
#    z 0.125330 0.000000 3.825410 
# 
# 
# High freq. dielectric constant tensor:
#      x y z
#    x 1.783840 0.000000 0.000320 
#    y 0.000000 1.753810 0.000000 
#    z 0.000320 0.000000 1.785350 
# 
# From -- ./inp_files/136496.got.cif
#   From: 2010.06.25/outbox.cif.g09.slc.cpg/sg15_69_cif.got.tgz:136496.got - 2010.06.28 07:06:18.
