data_PCOD8145470
_publ_section_title
;
Structure prediction by ZEFSAII (Michael W. Deem and Ramdas Pophale) SiO2 
 PCOD8145470
Probable space group: C 2/C
;
_chemical_formula_sum "Si O2"
_cell_formula_units_Z 60
_cell_length_a 8.728410
_cell_length_b 16.356231
_cell_length_c 22.162649
_cell_angle_alpha 90.000000
_cell_angle_beta 106.797991
_cell_angle_gamma 90.000000
_cell_volume 3029.015834
_symmetry_space_group_name_H-M "C 2/C"
_symmetry_group_IT_number 15
_symmetry_cell_setting 'monoclinic'
loop_
_space_group_symop_operation_xyz
x,y,z
-x,y,1/2-z
-x,-y,-z
x,-y,1/2+z
1/2+x,1/2+y,z
1/2-x,1/2+y,1/2-z
1/2-x,1/2-y,-z
1/2+x,1/2-y,1/2+z
loop_
_atom_site_type_symbol
_atom_site_label
_atom_site_fract_x
_atom_site_fract_y
_atom_site_fract_z
Si Si1 0.631928 0.311706 0.314173
Si Si2 0.000000 0.589569 0.750000
Si Si3 0.550842 0.979592 0.871116
Si Si4 0.327297 0.752291 0.236988
Si Si5 0.345479 0.913021 0.421652
Si Si6 0.812536 0.005810 0.991134
Si Si7 0.054532 0.306345 0.629049
Si Si8 0.646577 0.170473 0.004596
O O1 0.500000 0.342551 0.250000
O O2 0.743293 0.243807 0.292918
O O3 0.732264 0.386014 0.353454
O O4 0.553772 0.269846 0.363669
O O5 0.011033 0.534820 0.809840
O O6 0.156543 0.648571 0.768860
O O7 0.429130 0.002142 0.911663
O O8 0.522771 0.886327 0.849566
O O9 0.730076 0.993588 0.916386
O O10 0.500000 0.709388 0.250000
O O11 0.231493 0.708387 0.173663
O O12 0.245225 0.932509 0.470833
O O13 0.488642 0.845674 0.445314
O O14 0.766895 0.093484 0.014778
O O15 0.000000 0.000000 0.000000
O O16 0.065677 0.314831 0.559496
O O17 0.750000 0.250000 0.000000
#
# Coordination Sequence:
#
# PCOD8145470 Si02
#       8
#     8   4   8   8   8   8   8   8
#     4  10  23  39  64  93 128 171 210 265 320 386
#     4  10  22  38  72  86 118 176 220 244 326 388
#     4  11  22  44  66  93 128 173 212 266 331 378
#     4   9  21  41  61  91 122 169 212 260 312 389
#     4  11  21  47  66  88 136 169 219 270 323 389
#     4  11  25  44  65  97 131 168 220 279 319 389
#     4  11  23  41  62  92 135 160 216 266 326 378
#     4  11  25  40  67  95 124 176 213 266 333 388
#
# _framework density 19.808413000000002
#
# number of rings (size 3 to 8) (size 9 to 14) (size 15 to 20)
#    0.400    1.067    4.000    0.800   10.267    2.667 
#    0.000    0.667    0.000    0.000    0.000    0.000 
#    0.000    0.000    0.000    0.000    0.000    0.000 
#
# Total GULP energy -371787.907399 kJ/mol
# GULP energy per Si atom -12392.930247 kJ/mol
# Density = 1.976333 g / cm^3
# Si number density = 19.808413 Si / 1000 Ang^3
#
#
#
# Elastic Constant Matrix: (Units=GPa)
#
#
# Indices 1 2 3 4 5 6 
#
# 1 129.7229 27.3834 40.6287 0.0000 17.0045 0.0000
# 2 27.3834 82.5126 34.2034 0.0000 15.5658 0.0000
# 3 40.6287 34.2034 99.3067 0.0000 10.7417 0.0000
# 4 0.0000 0.0000 0.0000 30.4558 0.0000 -2.0049
# 5 17.0045 15.5658 10.7417 0.0000 31.3081 0.0000
# 6 0.0000 0.0000 0.0000 -2.0049 0.0000 26.3619
#
#
#
# Elastic Compliance Matrix: (Units=1/GPa)
#
#
# Indices 1 2 3 4 5 6 
#
# 1 0.009368 -0.001195 -0.003048 0.000000 -0.003448 0.000000
# 2 -0.001195 0.015290 -0.004180 0.000000 -0.005519 0.000000
# 3 -0.003048 -0.004180 0.012829 0.000000 -0.000668 0.000000
# 4 0.000000 0.000000 0.000000 0.033000 0.000000 0.002510
# 5 -0.003448 -0.005519 -0.000668 0.000000 0.036786 0.000000
# 6 0.000000 0.000000 0.000000 0.002510 0.000000 0.038124
#
#
# Mechanical properties :
#
#
# Convention : Reuss Voigt Hill
#
# Bulk Modulus (GPa) = 48.45014 57.33034 52.89024
# Shear Modulus (GPa) = 29.56431 31.58029 30.57230
#
# Velocity S-wave (km/s) = 3.86750 3.99718 3.93287
# Velocity P-wave (km/s) = 6.66752 7.09285 6.88347
#
# Compressibility (1/GPa) = 0.02063977
#
# Stress axis : x y z
#
# Youngs Moduli (GPa) = 106.75131 65.40298 77.94935
#
# Poissons Ratio (x) = 0.07815 0.23759
# Poissons Ratio (y) = 0.12756 0.32586
# Poissons Ratio (z) = 0.32538 0.27341
#
# Static dielectric constant tensor:
#      x y z
#    x 3.765970 0.000000 0.014840 
#    y 0.000000 3.535170 0.000000 
#    z 0.014840 0.000000 3.795560 
# 
# 
# High freq. dielectric constant tensor:
#      x y z
#    x 1.781980 0.000000 -0.003360 
#    y 0.000000 1.756050 0.000000 
#    z -0.003360 0.000000 1.775190 
# 
# From -- ./inp_files/264756.got.cif
#   From: 2010.06.25/outbox.cif.g09.slc.cpg/sg15_133_cif.got.tgz:264756.got - 2010.06.28 07:06:18.
