data_PCOD8145604
_publ_section_title
;
Structure prediction by ZEFSAII (Michael W. Deem and Ramdas Pophale) SiO2 
 PCOD8145604
Probable space group: C 2/C
;
_chemical_formula_sum "Si O2"
_cell_formula_units_Z 64
_cell_length_a 24.402772
_cell_length_b 9.133219
_cell_length_c 17.597720
_cell_angle_alpha 90.000000
_cell_angle_beta 49.050059
_cell_angle_gamma 90.000000
_cell_volume 2962.298726
_symmetry_space_group_name_H-M "C 2/C"
_symmetry_group_IT_number 15
_symmetry_cell_setting 'monoclinic'
loop_
_space_group_symop_operation_xyz
x,y,z
-x,y,1/2-z
-x,-y,-z
x,-y,1/2+z
1/2+x,1/2+y,z
1/2-x,1/2+y,1/2-z
1/2-x,1/2-y,-z
1/2+x,1/2-y,1/2+z
loop_
_atom_site_type_symbol
_atom_site_label
_atom_site_fract_x
_atom_site_fract_y
_atom_site_fract_z
Si Si1 0.576229 0.963882 0.298468
Si Si2 0.308901 0.460498 0.264282
Si Si3 0.144559 0.369372 0.603118
Si Si4 0.912284 0.140878 0.391068
Si Si5 0.178835 0.363848 0.814844
Si Si6 0.303047 0.437597 0.445293
Si Si7 0.437922 0.625805 0.196775
Si Si8 0.912367 0.433480 0.460167
O O1 0.585675 0.051543 0.210569
O O2 0.635694 0.028869 0.299699
O O3 0.590990 0.791464 0.281715
O O4 0.494314 0.984498 0.404372
O O5 0.255796 0.561561 0.263067
O O6 0.307876 0.293592 0.236088
O O7 0.286633 0.480792 0.372795
O O8 0.391315 0.523781 0.182462
O O9 0.227058 0.401111 0.554803
O O10 0.138045 0.194365 0.608636
O O11 0.130920 0.423948 0.529144
O O12 0.929767 0.078580 0.291612
O O13 0.908457 0.317163 0.393877
O O14 0.975323 0.104389 0.396708
O O15 0.834745 0.062394 0.474257
O O16 0.127893 0.350350 0.934913
#
# Coordination Sequence:
#
# PCOD8145604 Si02
#       8
#     8   8   8   8   8   8   8   8
#     4  11  22  41  65  92 127 168 209 263 319 377
#     4  11  23  42  61  88 127 170 214 255 320 381
#     4  11  21  40  66  93 127 159 212 266 320 365
#     4   9  19  37  62  91 125 156 208 262 315 369
#     4  12  25  42  61  92 130 174 209 259 319 387
#     4  10  22  39  62  96 127 158 208 269 313 375
#     4   9  19  38  63  90 120 163 210 261 310 377
#     4  11  23  41  63  96 125 166 215 260 318 386
#
# _framework density 21.604842000000001
#
# number of rings (size 3 to 8) (size 9 to 14) (size 15 to 20)
#    0.000    1.500    3.750    1.500    0.000    3.500 
#    4.500    2.500    0.000    0.000    0.000    0.000 
#    0.000    0.000    0.000    0.000    0.000    0.000 
#
# Total GULP energy -396484.147432 kJ/mol
# GULP energy per Si atom -12390.129607 kJ/mol
# Density = 2.155567 g / cm^3
# Si number density = 21.604842 Si / 1000 Ang^3
#
#
#
# Elastic Constant Matrix: (Units=GPa)
#
#
# Indices 1 2 3 4 5 6 
#
# 1 137.7630 73.7261 23.1035 0.0005 -20.7414 -0.0007
# 2 73.7261 106.0704 7.3772 0.0016 -15.3024 -0.0020
# 3 23.1035 7.3772 54.3355 0.0003 -11.4973 -0.0007
# 4 0.0005 0.0016 0.0003 22.7202 -0.0004 -3.2197
# 5 -20.7414 -15.3024 -11.4973 -0.0004 27.2706 0.0007
# 6 -0.0007 -0.0020 -0.0007 -3.2197 0.0007 50.2260
#
#
#
# Elastic Compliance Matrix: (Units=1/GPa)
#
#
# Indices 1 2 3 4 5 6 
#
# 1 0.012721 -0.008068 -0.003540 0.000000 0.003655 0.000000
# 2 -0.008068 0.015377 0.002053 -0.000001 0.003358 0.000000
# 3 -0.003540 0.002053 0.021196 0.000000 0.007396 0.000000
# 4 0.000000 -0.000001 0.000000 0.044417 0.000000 0.002847
# 5 0.003655 0.003358 0.007396 0.000000 0.044452 0.000000
# 6 0.000000 0.000000 0.000000 0.002847 0.000000 0.020093
#
#
# Mechanical properties :
#
#
# Convention : Reuss Voigt Hill
#
# Bulk Modulus (GPa) = 33.13035 56.28698 44.70866
# Shear Modulus (GPa) = 26.67721 32.97418 29.82569
#
# Velocity S-wave (km/s) = 3.51775 3.91095 3.71955
# Velocity P-wave (km/s) = 5.64513 6.81935 6.25983
#
# Compressibility (1/GPa) = 0.03018381
#
# Stress axis : x y z
#
# Youngs Moduli (GPa) = 78.61234 65.03118 47.17979
#
# Poissons Ratio (x) = 0.52468 0.16701
# Poissons Ratio (y) = 0.63426 -0.09688
# Poissons Ratio (z) = 0.27828 -0.13353
#
# Static dielectric constant tensor:
#      x y z
#    x 4.084600 0.000000 -0.260150 
#    y 0.000000 3.912620 0.000000 
#    z -0.260150 0.000000 3.915640 
# 
# 
# High freq. dielectric constant tensor:
#      x y z
#    x 1.855450 0.000000 -0.019940 
#    y 0.000000 1.849440 0.000000 
#    z -0.019940 0.000000 1.825950 
# 
# From -- ./inp_files/255015.got.cif
#   From: 2010.06.25/outbox.cif.g09.slc.cpg/sg15_128_cif.got.tgz:255015.got - 2010.06.28 07:06:18.
