data_PCOD8145951
_publ_section_title
;
Structure prediction by ZEFSAII (Michael W. Deem and Ramdas Pophale) SiO2 
 PCOD8145951
Probable space group: C 2/C
;
_chemical_formula_sum "Si O2"
_cell_formula_units_Z 60
_cell_length_a 23.094846
_cell_length_b 17.214244
_cell_length_c 11.934647
_cell_angle_alpha 90.000000
_cell_angle_beta 34.925591
_cell_angle_gamma 90.000000
_cell_volume 2716.422378
_symmetry_space_group_name_H-M "C 2/C"
_symmetry_group_IT_number 15
_symmetry_cell_setting 'monoclinic'
loop_
_space_group_symop_operation_xyz
x,y,z
-x,y,1/2-z
-x,-y,-z
x,-y,1/2+z
1/2+x,1/2+y,z
1/2-x,1/2+y,1/2-z
1/2-x,1/2-y,-z
1/2+x,1/2-y,1/2+z
loop_
_atom_site_type_symbol
_atom_site_label
_atom_site_fract_x
_atom_site_fract_y
_atom_site_fract_z
Si Si1 0.211031 0.104650 0.764170
Si Si2 0.681056 0.956336 0.846966
Si Si3 0.500000 0.971102 0.750000
Si Si4 0.223673 0.134938 0.101332
Si Si5 0.975854 0.762132 0.158640
Si Si6 0.657397 0.876151 0.646899
Si Si7 0.175707 0.300944 0.255244
Si Si8 0.497810 0.590680 0.032324
O O1 0.241354 0.102913 0.584057
O O2 0.263488 0.181813 0.727518
O O3 0.089899 0.105836 0.972438
O O4 0.257038 0.035552 0.766888
O O5 0.740463 0.915180 0.852381
O O6 0.678473 0.906653 0.738086
O O7 0.567061 0.973485 0.065627
O O8 0.564677 0.917714 0.730659
O O9 0.225116 0.222308 0.138089
O O10 0.111014 0.109098 0.240698
O O11 0.301518 0.131095 0.873033
O O12 0.869570 0.716604 0.306048
O O13 0.980145 0.850338 0.106147
O O14 0.000000 0.769041 0.250000
O O15 0.057012 0.707177 0.966274
O O16 0.500000 0.500000 0.000000
#
# Coordination Sequence:
#
# PCOD8145951 Si02
#       8
#     8   8   4   8   8   8   8   8
#     4  11  24  42  69  97 138 180 230 286 348 411
#     4  11  24  38  66  98 139 176 227 287 350 420
#     4  10  22  40  64 100 138 176 228 276 366 416
#     4  10  24  46  65  94 134 182 233 281 340 408
#     4  11  22  45  74 102 138 176 227 298 354 416
#     4  11  23  42  66 107 136 174 227 290 355 416
#     4  10  23  44  69  91 135 177 227 286 343 409
#     4  11  25  46  65  98 140 183 237 276 343 417
#
# _framework density 22.087876000000001
#
# number of rings (size 3 to 8) (size 9 to 14) (size 15 to 20)
#    0.000    1.333    3.333    1.200    7.467    3.200 
#    2.400    0.000    0.000    0.000    0.000    0.000 
#    0.000    0.000    0.000    0.000    0.000    0.000 
#
# Total GULP energy -371814.149301 kJ/mol
# GULP energy per Si atom -12393.804977 kJ/mol
# Density = 2.203760 g / cm^3
# Si number density = 22.087876 Si / 1000 Ang^3
#
#
#
# Elastic Constant Matrix: (Units=GPa)
#
#
# Indices 1 2 3 4 5 6 
#
# 1 98.0448 37.0403 51.3316 0.0000 -7.2877 0.0000
# 2 37.0403 108.4458 39.3253 0.0000 1.1122 0.0000
# 3 51.3316 39.3253 78.6190 0.0000 -2.6001 0.0000
# 4 0.0000 0.0000 0.0000 1.4847 0.0000 -2.1484
# 5 -7.2877 1.1122 -2.6001 0.0000 37.7456 0.0000
# 6 0.0000 0.0000 0.0000 -2.1484 0.0000 28.9372
#
#
#
# Elastic Compliance Matrix: (Units=1/GPa)
#
#
# Indices 1 2 3 4 5 6 
#
# 1 0.016090 -0.002128 -0.009357 0.000000 0.002525 0.000000
# 2 -0.002128 0.011566 -0.004430 0.000000 -0.001057 0.000000
# 3 -0.009357 -0.004430 0.021038 0.000000 -0.000227 0.000000
# 4 0.000000 0.000000 0.000000 0.754619 0.000000 0.056026
# 5 0.002525 -0.001057 -0.000227 0.000000 0.026996 0.000000
# 6 0.000000 0.000000 0.000000 0.056026 0.000000 0.038717
#
#
# Mechanical properties :
#
#
# Convention : Reuss Voigt Hill
#
# Bulk Modulus (GPa) = 59.30801 60.05600 59.68200
# Shear Modulus (GPa) = 5.51585 24.12767 14.82176
#
# Velocity S-wave (km/s) = 1.58198 3.30866 2.59325
# Velocity P-wave (km/s) = 5.49964 6.46876 6.00379
#
# Compressibility (1/GPa) = 0.01686113
#
# Stress axis : x y z
#
# Youngs Moduli (GPa) = 62.14928 86.46352 47.53343
#
# Poissons Ratio (x) = 0.18403 0.44479
# Poissons Ratio (y) = 0.13228 0.21059
# Poissons Ratio (z) = 0.58156 0.38307
#
# Static dielectric constant tensor:
#      x y z
#    x 4.121020 0.000000 0.437190 
#    y 0.000000 4.439170 0.000000 
#    z 0.437190 0.000000 5.153690 
# 
# 
# High freq. dielectric constant tensor:
#      x y z
#    x 1.861870 0.000000 -0.002790 
#    y 0.000000 1.878590 0.000000 
#    z -0.002790 0.000000 1.874140 
# 
# From -- ./inp_files/113795.got.cif
#   From: 2010.06.25/outbox.cif.g09.slc.cpg/sg15_57_cif.got.tgz:113795.got - 2010.06.28 07:06:18.
