data_PCOD8145943
_publ_section_title
;
Structure prediction by ZEFSAII (Michael W. Deem and Ramdas Pophale) SiO2 
 PCOD8145943
Probable space group: C 2/C
;
_chemical_formula_sum "Si O2"
_cell_formula_units_Z 52
_cell_length_a 11.530621
_cell_length_b 15.142674
_cell_length_c 14.235031
_cell_angle_alpha 90.000000
_cell_angle_beta 64.662881
_cell_angle_gamma 90.000000
_cell_volume 2246.408148
_symmetry_space_group_name_H-M "C 2/C"
_symmetry_group_IT_number 15
_symmetry_cell_setting 'monoclinic'
loop_
_space_group_symop_operation_xyz
x,y,z
-x,y,1/2-z
-x,-y,-z
x,-y,1/2+z
1/2+x,1/2+y,z
1/2-x,1/2+y,1/2-z
1/2-x,1/2-y,-z
1/2+x,1/2-y,1/2+z
loop_
_atom_site_type_symbol
_atom_site_label
_atom_site_fract_x
_atom_site_fract_y
_atom_site_fract_z
Si Si1 0.736453 0.988463 0.975088
Si Si2 0.986338 0.954784 0.144157
Si Si3 0.623968 0.806872 0.044382
Si Si4 0.000000 0.791701 0.750000
Si Si5 0.541313 0.273075 0.049106
Si Si6 0.699475 0.153923 0.110665
Si Si7 0.279230 0.422193 0.763901
O O1 0.709272 0.976738 0.871757
O O2 0.665476 0.907449 0.050867
O O3 0.890640 0.991210 0.938189
O O4 0.680504 0.079008 0.036547
O O5 0.000000 0.940511 0.250000
O O6 0.964195 0.861228 0.102607
O O7 0.860941 0.013147 0.167397
O O8 0.522752 0.772954 0.155326
O O9 0.750000 0.750000 0.000000
O O10 0.554628 0.795208 0.967913
O O11 0.126163 0.851281 0.720613
O O12 0.593173 0.227643 0.126215
O O13 0.660519 0.300853 0.941814
O O14 0.678244 0.120752 0.225556
#
# Coordination Sequence:
#
# PCOD8145943 Si02
#       7
#     8   8   8   4   8   8   8
#     4  10  22  40  63  97 128 176 223 265 339 395
#     4   9  19  37  65  98 127 165 224 271 317 383
#     4  12  24  41  67  96 135 172 224 283 327 399
#     4  12  22  42  64 102 132 176 222 282 332 394
#     4  10  23  40  64  94 133 173 219 275 337 394
#     4  10  23  42  64  95 136 177 216 275 338 396
#     4  11  19  39  68  94 133 170 225 281 321 387
#
# _framework density 23.148063
#
# number of rings (size 3 to 8) (size 9 to 14) (size 15 to 20)
#    0.000    1.538    5.385    0.000    2.154    3.077 
#    2.769    0.000    1.692    0.000    0.000    0.000 
#    0.000    0.000    0.000    0.000    0.000    0.000 
#
# Total GULP energy -322358.706191 kJ/mol
# GULP energy per Si atom -12398.411777 kJ/mol
# Density = 2.309538 g / cm^3
# Si number density = 23.148063 Si / 1000 Ang^3
#
#
#
# Elastic Constant Matrix: (Units=GPa)
#
#
# Indices 1 2 3 4 5 6 
#
# 1 60.6305 30.9899 10.0418 0.0000 18.8877 0.0000
# 2 30.9899 111.8557 19.8572 0.0000 4.1326 0.0000
# 3 10.0418 19.8572 71.6203 0.0000 17.6838 0.0000
# 4 0.0000 0.0000 0.0000 26.8096 0.0000 6.8553
# 5 18.8877 4.1326 17.6838 0.0000 26.9207 0.0000
# 6 0.0000 0.0000 0.0000 6.8553 0.0000 26.3913
#
#
#
# Elastic Compliance Matrix: (Units=1/GPa)
#
#
# Indices 1 2 3 4 5 6 
#
# 1 0.025315 -0.006849 0.002955 0.000000 -0.018650 0.000000
# 2 -0.006849 0.011258 -0.003486 0.000000 0.005367 0.000000
# 3 0.002955 -0.003486 0.017778 0.000000 -0.013216 0.000000
# 4 0.000000 0.000000 0.000000 0.039954 0.000000 -0.010378
# 5 -0.018650 0.005367 -0.013216 0.000000 0.058089 0.000000
# 6 0.000000 0.000000 0.000000 -0.010378 0.000000 0.040587
#
#
# Mechanical properties :
#
#
# Convention : Reuss Voigt Hill
#
# Bulk Modulus (GPa) = 25.25931 40.65382 32.95657
# Shear Modulus (GPa) = 22.63073 28.23881 25.43477
#
# Velocity S-wave (km/s) = 3.13013 3.49653 3.31839
# Velocity P-wave (km/s) = 4.89892 5.82251 5.38057
#
# Compressibility (1/GPa) = 0.03958936
#
# Stress axis : x y z
#
# Youngs Moduli (GPa) = 39.50282 88.82396 56.24928
#
# Poissons Ratio (x) = 0.60835 -0.16619
# Poissons Ratio (y) = 0.27055 0.19610
# Poissons Ratio (z) = -0.11671 0.30967
#
# Static dielectric constant tensor:
#      x y z
#    x 3.890070 0.000000 -0.023030 
#    y 0.000000 4.452330 0.000000 
#    z -0.023030 0.000000 4.375180 
# 
# 
# High freq. dielectric constant tensor:
#      x y z
#    x 1.890850 0.000000 0.010800 
#    y 0.000000 1.917060 0.000000 
#    z 0.010800 0.000000 1.910900 
# 
# From -- ./inp_files/144173.got.cif
#   From: 2010.06.25/outbox.cif.g09.slc.cpg/sg15_73_cif.got.tgz:144173.got - 2010.06.28 07:06:18.
