data_PCOD8145405
_publ_section_title
;
Structure prediction by ZEFSAII (Michael W. Deem and Ramdas Pophale) SiO2 
 PCOD8145405
Probable space group: C 2/C
;
_chemical_formula_sum "Si O2"
_cell_formula_units_Z 56
_cell_length_a 17.790657
_cell_length_b 8.583970
_cell_length_c 18.060075
_cell_angle_alpha 90.000000
_cell_angle_beta 115.384955
_cell_angle_gamma 90.000000
_cell_volume 2491.740648
_symmetry_space_group_name_H-M "C 2/C"
_symmetry_group_IT_number 15
_symmetry_cell_setting 'monoclinic'
loop_
_space_group_symop_operation_xyz
x,y,z
-x,y,1/2-z
-x,-y,-z
x,-y,1/2+z
1/2+x,1/2+y,z
1/2-x,1/2+y,1/2-z
1/2-x,1/2-y,-z
1/2+x,1/2-y,1/2+z
loop_
_atom_site_type_symbol
_atom_site_label
_atom_site_fract_x
_atom_site_fract_y
_atom_site_fract_z
Si Si1 0.447019 0.863673 0.014880
Si Si2 0.167237 0.181949 0.930944
Si Si3 0.525062 0.323529 0.673334
Si Si4 0.510811 0.336542 0.099543
Si Si5 0.846417 0.767861 0.238334
Si Si6 0.706238 0.378217 0.763615
Si Si7 0.240268 0.623468 0.057210
O O1 0.477442 0.815245 0.110281
O O2 0.450184 0.708054 0.964031
O O3 0.354812 0.936030 0.984055
O O4 0.500000 0.000000 0.000000
O O5 0.141833 0.261313 0.843187
O O6 0.086213 0.212902 0.946780
O O7 0.187484 0.001128 0.927821
O O8 0.250000 0.250000 0.000000
O O9 0.500000 0.338721 0.750000
O O10 0.510515 0.482842 0.621962
O O11 0.622664 0.283776 0.708902
O O12 0.565116 0.242226 0.183546
O O13 0.776990 0.643912 0.232474
O O14 0.811724 0.939221 0.240169
O O15 0.741393 0.306420 0.854552
O O16 0.250000 0.750000 0.000000
#
# Coordination Sequence:
#
# PCOD8145405 Si02
#       7
#     8   8   8   8   8   8   8
#     4  12  26  43  69 104 143 177 223 290 351 401
#     4  11  24  40  66  96 132 169 219 277 335 402
#     4  11  24  44  70  99 134 185 234 279 336 413
#     4  11  22  45  70  97 130 181 230 277 333 409
#     4  10  22  41  63  94 127 173 217 271 330 395
#     4  10  22  38  66  91 127 168 220 271 323 392
#     4  11  23  43  65  95 133 175 219 271 338 403
#
# _framework density 22.474250000000001
#
# number of rings (size 3 to 8) (size 9 to 14) (size 15 to 20)
#    0.000    1.143    1.429    6.000    6.000    1.143 
#    0.000    5.000    0.000    0.000    0.000    0.000 
#    0.000    0.000    0.000    0.000    0.000    0.000 
#
# Total GULP energy -347080.144972 kJ/mol
# GULP energy per Si atom -12395.719463 kJ/mol
# Density = 2.242310 g / cm^3
# Si number density = 22.474250 Si / 1000 Ang^3
#
#
#
# Elastic Constant Matrix: (Units=GPa)
#
#
# Indices 1 2 3 4 5 6 
#
# 1 122.6255 12.5747 17.7032 0.0000 30.0891 0.0000
# 2 12.5747 38.5412 23.0163 0.0000 -7.2677 0.0000
# 3 17.7032 23.0163 111.7250 0.0000 15.2988 0.0000
# 4 0.0000 0.0000 0.0000 34.9324 0.0000 0.1600
# 5 30.0891 -7.2677 15.2988 0.0000 49.8307 0.0000
# 6 0.0000 0.0000 0.0000 0.1600 0.0000 32.0139
#
#
#
# Elastic Compliance Matrix: (Units=1/GPa)
#
#
# Indices 1 2 3 4 5 6 
#
# 1 0.010343 -0.004910 0.000340 0.000000 -0.007066 0.000000
# 2 -0.004910 0.034052 -0.007644 0.000000 0.010278 0.000000
# 3 0.000340 -0.007644 0.011120 0.000000 -0.004734 0.000000
# 4 0.000000 0.000000 0.000000 0.028627 0.000000 -0.000143
# 5 -0.007066 0.010278 -0.004734 0.000000 0.027287 0.000000
# 6 0.000000 0.000000 0.000000 -0.000143 0.000000 0.031237
#
#
# Mechanical properties :
#
#
# Convention : Reuss Voigt Hill
#
# Bulk Modulus (GPa) = 32.16904 42.16445 37.16674
# Shear Modulus (GPa) = 28.17592 37.99524 33.08558
#
# Velocity S-wave (km/s) = 3.54460 4.11617 3.84103
# Velocity P-wave (km/s) = 5.57647 6.43369 6.02036
#
# Compressibility (1/GPa) = 0.03108579
#
# Stress axis : x y z
#
# Youngs Moduli (GPa) = 96.68243 29.36727 89.93046
#
# Poissons Ratio (x) = 0.14420 -0.03060
# Poissons Ratio (y) = 0.47473 0.68745
# Poissons Ratio (z) = -0.03289 0.22449
#
# Static dielectric constant tensor:
#      x y z
#    x 4.820920 0.000000 0.330590 
#    y 0.000000 3.888650 0.000000 
#    z 0.330590 0.000000 4.268500 
# 
# 
# High freq. dielectric constant tensor:
#      x y z
#    x 1.900500 0.000000 0.012760 
#    y 0.000000 1.857760 0.000000 
#    z 0.012760 0.000000 1.902390 
# 
# From -- ./inp_files/214035.got.cif
#   From: 2010.06.25/outbox.cif.g09.slc.cpg/sg15_108_cif.got.tgz:214035.got - 2010.06.28 07:06:18.
