data_PCOD8145664
_publ_section_title
;
Structure prediction by ZEFSAII (Michael W. Deem and Ramdas Pophale) SiO2 
 PCOD8145664
Probable space group: C 2/C
;
_chemical_formula_sum "Si O2"
_cell_formula_units_Z 52
_cell_length_a 10.891313
_cell_length_b 27.038842
_cell_length_c 8.914050
_cell_angle_alpha 90.000000
_cell_angle_beta 84.429584
_cell_angle_gamma 90.000000
_cell_volume 2612.688574
_symmetry_space_group_name_H-M "C 2/C"
_symmetry_group_IT_number 15
_symmetry_cell_setting 'monoclinic'
loop_
_space_group_symop_operation_xyz
x,y,z
-x,y,1/2-z
-x,-y,-z
x,-y,1/2+z
1/2+x,1/2+y,z
1/2-x,1/2+y,1/2-z
1/2-x,1/2-y,-z
1/2+x,1/2-y,1/2+z
loop_
_atom_site_type_symbol
_atom_site_label
_atom_site_fract_x
_atom_site_fract_y
_atom_site_fract_z
Si Si1 0.364232 0.442046 0.448692
Si Si2 0.643466 0.544926 0.892267
Si Si3 0.000000 0.630587 0.250000
Si Si4 0.642448 0.805044 0.212132
Si Si5 0.356004 0.697419 0.250541
Si Si6 0.702009 0.879584 0.945570
Si Si7 0.780301 0.656047 0.480684
O O1 0.349673 0.488339 0.559907
O O2 0.319524 0.454412 0.286186
O O3 0.510219 0.429119 0.431466
O O4 0.278699 0.398775 0.523849
O O5 0.743245 0.573395 0.978957
O O6 0.087950 0.600495 0.355506
O O7 0.092358 0.661684 0.130583
O O8 0.500000 0.796292 0.250000
O O9 0.697083 0.749656 0.179558
O O10 0.703746 0.830778 0.348172
O O11 0.658011 0.839306 0.068773
O O12 0.500000 0.693057 0.250000
O O13 0.300970 0.648706 0.333584
O O14 0.317782 0.694372 0.079334
#
# Coordination Sequence:
#
# PCOD8145664 Si02
#       7
#     8   8   4   8   8   8   8
#     4  10  22  39  64  93 119 153 195 247 306 358
#     4  10  22  39  64  93 119 153 195 247 306 358
#     4  10  24  36  62  88 112 170 198 234 300 358
#     4  11  21  39  62  85 121 160 205 243 296 351
#     4  10  23  37  60  90 119 156 201 246 300 350
#     4  11  21  41  62  86 124 157 200 248 297 355
#     4  11  21  41  62  86 124 157 200 248 297 355
#
# _framework density 19.90287
#
# number of rings (size 3 to 8) (size 9 to 14) (size 15 to 20)
#    0.000    1.538    3.077    1.846    4.308    0.000 
#    0.000    0.769    6.769    0.000    0.000    0.000 
#    0.000    0.000    0.000    0.000    0.000    0.000 
#
# Total GULP energy -322208.646071 kJ/mol
# GULP energy per Si atom -12392.640233 kJ/mol
# Density = 1.985757 g / cm^3
# Si number density = 19.902870 Si / 1000 Ang^3
#
#
#
# Elastic Constant Matrix: (Units=GPa)
#
#
# Indices 1 2 3 4 5 6 
#
# 1 107.4679 34.1585 42.3720 0.0000 23.5568 0.0000
# 2 34.1585 71.5915 16.4728 0.0000 4.8050 0.0000
# 3 42.3720 16.4728 96.8349 0.0000 20.0569 0.0000
# 4 0.0000 0.0000 0.0000 35.0581 0.0000 12.0516
# 5 23.5568 4.8050 20.0569 0.0000 41.8738 0.0000
# 6 0.0000 0.0000 0.0000 12.0516 0.0000 22.7306
#
#
#
# Elastic Compliance Matrix: (Units=1/GPa)
#
#
# Indices 1 2 3 4 5 6 
#
# 1 0.013700 -0.005263 -0.004028 0.000000 -0.005174 0.000000
# 2 -0.005263 0.016570 -0.000816 0.000000 0.001450 0.000000
# 3 -0.004028 -0.000816 0.013032 0.000000 -0.003883 0.000000
# 4 0.000000 0.000000 0.000000 0.034882 0.000000 -0.018494
# 5 -0.005174 0.001450 -0.003883 0.000000 0.028485 0.000000
# 6 0.000000 0.000000 0.000000 -0.018494 0.000000 0.053799
#
#
# Mechanical properties :
#
#
# Convention : Reuss Voigt Hill
#
# Bulk Modulus (GPa) = 43.31164 51.32234 47.31699
# Shear Modulus (GPa) = 26.54242 32.12523 29.33383
#
# Velocity S-wave (km/s) = 3.65581 4.02195 3.84324
# Velocity P-wave (km/s) = 6.29513 6.88552 6.59693
#
# Compressibility (1/GPa) = 0.02308848
#
# Stress axis : x y z
#
# Youngs Moduli (GPa) = 72.99245 60.35145 76.73199
#
# Poissons Ratio (x) = 0.31761 0.30906
# Poissons Ratio (y) = 0.38414 0.06264
# Poissons Ratio (z) = 0.29400 0.04926
#
# Static dielectric constant tensor:
#      x y z
#    x 3.792300 0.000000 0.289920 
#    y 0.000000 3.516530 0.000000 
#    z 0.289920 0.000000 3.647530 
# 
# 
# High freq. dielectric constant tensor:
#      x y z
#    x 1.779240 0.000000 0.019030 
#    y 0.000000 1.761340 0.000000 
#    z 0.019030 0.000000 1.792830 
# 
# From -- ./inp_files/33560.got.cif
#   From: 2010.06.25/outbox.cif.g09.slc.cpg/sg15_17_cif.got.tgz:33560.got - 2010.06.28 07:06:18.
