data_PCOD8145810
_publ_section_title
;
Structure prediction by ZEFSAII (Michael W. Deem and Ramdas Pophale) SiO2 
 PCOD8145810
Probable space group: C 2/C
;
_chemical_formula_sum "Si O2"
_cell_formula_units_Z 64
_cell_length_a 25.285410
_cell_length_b 8.771912
_cell_length_c 31.307101
_cell_angle_alpha 90.000000
_cell_angle_beta 153.587789
_cell_angle_gamma 90.000000
_cell_volume 3088.853764
_symmetry_space_group_name_H-M "C 2/C"
_symmetry_group_IT_number 15
_symmetry_cell_setting 'monoclinic'
loop_
_space_group_symop_operation_xyz
x,y,z
-x,y,1/2-z
-x,-y,-z
x,-y,1/2+z
1/2+x,1/2+y,z
1/2-x,1/2+y,1/2-z
1/2-x,1/2-y,-z
1/2+x,1/2-y,1/2+z
loop_
_atom_site_type_symbol
_atom_site_label
_atom_site_fract_x
_atom_site_fract_y
_atom_site_fract_z
Si Si1 0.239350 0.667433 0.138534
Si Si2 0.167149 0.668724 0.581929
Si Si3 0.647373 0.253048 0.214158
Si Si4 0.136260 0.249722 0.358620
Si Si5 0.990497 0.831631 0.509736
Si Si6 0.267882 0.495295 0.508517
Si Si7 0.119546 0.726392 0.454965
Si Si8 0.668860 0.594663 0.207220
O O1 0.164833 0.513066 0.079707
O O2 0.308624 0.702770 0.146119
O O3 0.332104 0.653794 0.244750
O O4 0.146700 0.801653 0.080353
O O5 0.273979 0.737551 0.686512
O O6 0.187423 0.732714 0.549149
O O7 0.040066 0.718901 0.509131
O O8 0.518966 0.197513 0.136461
O O9 0.643278 0.414482 0.186661
O O10 0.703352 0.128487 0.222394
O O11 0.200862 0.399054 0.423719
O O12 0.000000 0.286342 0.250000
O O13 0.151923 0.110982 0.403163
O O14 0.066017 0.813606 0.608048
O O15 0.000000 0.000000 0.500000
O O16 0.167228 0.585173 0.461887
O O17 0.359822 0.613244 0.553702
#
# Coordination Sequence:
#
# PCOD8145810 Si02
#       8
#     8   8   8   8   8   8   8   8
#     4  11  23  41  65  91 129 177 207 263 332 389
#     4  10  22  40  61  97 126 172 209 253 329 393
#     4  10  23  40  64  94 133 168 210 258 324 389
#     4  11  26  47  66  97 131 169 223 276 331 390
#     4  11  23  39  65  99 133 166 212 267 318 397
#     4  10  26  45  68  99 124 171 228 275 329 389
#     4  11  22  44  71  94 131 170 219 277 324 383
#     4  10  22  40  60 100 128 171 211 256 319 396
#
# _framework density 20.719660999999999
#
# number of rings (size 3 to 8) (size 9 to 14) (size 15 to 20)
#    0.000    1.500    1.250    2.625    7.000    4.000 
#    4.500    2.500    0.000    0.000    0.000    0.000 
#    0.000    0.000    0.000    0.000    0.000    0.000 
#
# Total GULP energy -396958.650575 kJ/mol
# GULP energy per Si atom -12404.957830 kJ/mol
# Density = 2.067250 g / cm^3
# Si number density = 20.719661 Si / 1000 Ang^3
#
#
#
# Elastic Constant Matrix: (Units=GPa)
#
#
# Indices 1 2 3 4 5 6 
#
# 1 90.1626 15.4340 21.9659 -0.0002 -20.4663 0.0000
# 2 15.4340 53.0125 12.9376 -0.0017 -6.4140 -0.0024
# 3 21.9659 12.9376 64.6165 -0.0017 -6.7047 0.0004
# 4 -0.0002 -0.0017 -0.0017 26.7725 0.0000 -1.0723
# 5 -20.4663 -6.4140 -6.7047 0.0000 32.0968 -0.0004
# 6 0.0000 -0.0024 0.0004 -1.0723 -0.0004 30.0592
#
#
#
# Elastic Compliance Matrix: (Units=1/GPa)
#
#
# Indices 1 2 3 4 5 6 
#
# 1 0.014116 -0.002305 -0.003528 0.000000 0.007804 0.000000
# 2 -0.002305 0.020536 -0.003123 0.000001 0.001982 0.000002
# 3 -0.003528 -0.003123 0.017379 0.000001 0.000757 0.000000
# 4 0.000000 0.000001 0.000001 0.037405 0.000000 0.001334
# 5 0.007804 0.001982 0.000757 0.000000 0.036686 0.000001
# 6 0.000000 0.000002 0.000000 0.001334 0.000001 0.033315
#
#
# Mechanical properties :
#
#
# Convention : Reuss Voigt Hill
#
# Bulk Modulus (GPa) = 29.30695 34.27408 31.79051
# Shear Modulus (GPa) = 26.49399 28.28262 27.38830
#
# Velocity S-wave (km/s) = 3.57975 3.69862 3.63967
# Velocity P-wave (km/s) = 5.59119 5.90063 5.74799
#
# Compressibility (1/GPa) = 0.03412160
#
# Stress axis : x y z
#
# Youngs Moduli (GPa) = 70.83951 48.69410 57.54115
#
# Poissons Ratio (x) = 0.11223 0.20298
# Poissons Ratio (y) = 0.16327 0.17968
# Poissons Ratio (z) = 0.24989 0.15206
#
# Static dielectric constant tensor:
#      x y z
#    x 3.920000 0.000000 -0.103740 
#    y 0.000000 3.784870 0.000000 
#    z -0.103740 0.000000 4.054810 
# 
# 
# High freq. dielectric constant tensor:
#      x y z
#    x 1.820240 0.000000 -0.014900 
#    y 0.000000 1.812730 0.000000 
#    z -0.014900 0.000000 1.815270 
# 
# From -- ./inp_files/318639.got.cif
#   From: 2010.06.25/outbox.cif.g09.slc.cpg/sg15_160_cif.got.tgz:318639.got - 2010.06.28 07:06:18.
