data_PCOD8145828
_publ_section_title
;
Structure prediction by ZEFSAII (Michael W. Deem and Ramdas Pophale) SiO2 
 PCOD8145828
Probable space group: C 2/C
;
_chemical_formula_sum "Si O2"
_cell_formula_units_Z 40
_cell_length_a 14.072912
_cell_length_b 13.136865
_cell_length_c 16.588531
_cell_angle_alpha 90.000000
_cell_angle_beta 40.922000
_cell_angle_gamma 90.000000
_cell_volume 2008.840643
_symmetry_space_group_name_H-M "C 2/C"
_symmetry_group_IT_number 15
_symmetry_cell_setting 'monoclinic'
loop_
_space_group_symop_operation_xyz
x,y,z
-x,y,1/2-z
-x,-y,-z
x,-y,1/2+z
1/2+x,1/2+y,z
1/2-x,1/2+y,1/2-z
1/2-x,1/2-y,-z
1/2+x,1/2-y,1/2+z
loop_
_atom_site_type_symbol
_atom_site_label
_atom_site_fract_x
_atom_site_fract_y
_atom_site_fract_z
Si Si1 0.354103 0.863651 0.795035
Si Si2 0.861104 0.064828 0.935009
Si Si3 0.795218 0.637584 0.944960
Si Si4 0.325407 0.640199 0.782203
Si Si5 0.108906 0.421729 0.290083
O O1 0.500000 0.855621 0.750000
O O2 0.337988 0.760079 0.756020
O O3 0.369712 0.957284 0.724599
O O4 0.218241 0.880861 0.940555
O O5 0.805324 0.119706 0.889788
O O6 0.032777 0.079412 0.839103
O O7 0.829020 0.943770 0.951492
O O8 0.818639 0.632998 0.833724
O O9 0.939787 0.606212 0.900432
O O10 0.750000 0.750000 0.000000
O O11 0.182353 0.609457 0.826089
#
# Coordination Sequence:
#
# PCOD8145828 Si02
#       5
#     8   8   8   8   8
#     4  11  20  42  65  82 127 168 192 253 316 361
#     4  10  22  40  60  90 123 158 207 251 303 363
#     4  10  22  41  62  80 126 170 199 253 309 363
#     4  11  24  35  65  98 119 154 211 261 295 365
#     4  10  23  41  58  92 121 162 210 245 311 373
#
# _framework density 19.911982999999999
#
# number of rings (size 3 to 8) (size 9 to 14) (size 15 to 20)
#    0.000    1.600    6.000    0.600    0.000   12.000 
#    0.000    0.000    0.000    0.000    0.000    0.000 
#    0.000    0.000    0.000    0.000    0.000    0.000 
#
# Total GULP energy -248004.083496 kJ/mol
# GULP energy per Si atom -12400.204175 kJ/mol
# Density = 1.986666 g / cm^3
# Si number density = 19.911983 Si / 1000 Ang^3
#
#
#
# Elastic Constant Matrix: (Units=GPa)
#
#
# Indices 1 2 3 4 5 6 
#
# 1 104.3123 30.9401 16.0202 0.0000 -13.8713 0.0000
# 2 30.9401 185.1383 47.7476 0.0000 -12.3474 0.0000
# 3 16.0202 47.7476 70.8900 -0.0001 -24.7073 0.0001
# 4 0.0000 0.0000 -0.0001 27.7723 0.0001 -7.7633
# 5 -13.8713 -12.3474 -24.7073 0.0001 17.0156 -0.0001
# 6 0.0000 0.0000 0.0001 -7.7633 -0.0001 33.9505
#
#
#
# Elastic Compliance Matrix: (Units=1/GPa)
#
#
# Indices 1 2 3 4 5 6 
#
# 1 0.011290 -0.001826 0.002884 0.000000 0.012066 0.000000
# 2 -0.001826 0.006927 -0.006114 0.000000 -0.005340 0.000000
# 3 0.002884 -0.006114 0.034107 0.000000 0.047438 0.000000
# 4 0.000000 0.000000 0.000000 0.038466 0.000000 0.008796
# 5 0.012066 -0.005340 0.047438 0.000000 0.133614 0.000000
# 6 0.000000 0.000000 0.000000 0.008796 0.000000 0.031466
#
#
# Mechanical properties :
#
#
# Convention : Reuss Voigt Hill
#
# Bulk Modulus (GPa) = 23.69043 61.08404 42.38724
# Shear Modulus (GPa) = 17.85383 33.45653 25.65518
#
# Velocity S-wave (km/s) = 2.99764 4.10350 3.59336
# Velocity P-wave (km/s) = 4.88923 7.29350 6.20885
#
# Compressibility (1/GPa) = 0.04221113
#
# Stress axis : x y z
#
# Youngs Moduli (GPa) = 88.57564 144.35729 29.31981
#
# Poissons Ratio (x) = 0.26356 -0.08455
# Poissons Ratio (y) = 0.16172 0.17927
# Poissons Ratio (z) = -0.25544 0.88265
#
# Static dielectric constant tensor:
#      x y z
#    x 3.418390 0.000000 -0.135120 
#    y 0.000000 3.641610 0.000000 
#    z -0.135120 0.000000 3.647670 
# 
# 
# High freq. dielectric constant tensor:
#      x y z
#    x 1.766290 0.000000 -0.011350 
#    y 0.000000 1.790240 0.000000 
#    z -0.011350 0.000000 1.773770 
# 
# From -- ./inp_files/94510.got.cif
#   From: 2010.06.25/outbox.cif.g09.slc.cpg/sg15_48_cif.got.tgz:94510.got - 2010.06.28 07:06:18.
