data_PCOD8145311
_publ_section_title
;
Structure prediction by ZEFSAII (Michael W. Deem and Ramdas Pophale) SiO2 
 PCOD8145311
Probable space group: C 2/C
;
_chemical_formula_sum "Si O2"
_cell_formula_units_Z 44
_cell_length_a 11.049239
_cell_length_b 14.954184
_cell_length_c 20.948813
_cell_angle_alpha 90.000000
_cell_angle_beta 41.629667
_cell_angle_gamma 90.000000
_cell_volume 2299.468531
_symmetry_space_group_name_H-M "C 2/C"
_symmetry_group_IT_number 15
_symmetry_cell_setting 'monoclinic'
loop_
_space_group_symop_operation_xyz
x,y,z
-x,y,1/2-z
-x,-y,-z
x,-y,1/2+z
1/2+x,1/2+y,z
1/2-x,1/2+y,1/2-z
1/2-x,1/2-y,-z
1/2+x,1/2-y,1/2+z
loop_
_atom_site_type_symbol
_atom_site_label
_atom_site_fract_x
_atom_site_fract_y
_atom_site_fract_z
Si Si1 0.627211 0.877741 0.812660
Si Si2 0.500000 0.990821 0.750000
Si Si3 0.415660 0.247374 0.483330
Si Si4 0.595524 0.561510 0.910013
Si Si5 0.127593 0.036143 0.759780
Si Si6 0.793853 0.223161 0.806486
O O1 0.492716 0.927472 0.815597
O O2 0.531639 0.834597 0.911213
O O3 0.744044 0.803765 0.727851
O O4 0.751272 0.949949 0.798139
O O5 0.316363 0.050707 0.824198
O O6 0.250000 0.250000 0.500000
O O7 0.537827 0.336028 0.440233
O O8 0.348175 0.226820 0.580393
O O9 0.524224 0.528593 0.868617
O O10 0.500000 0.500000 0.000000
O O11 0.240126 0.129580 0.716811
O O12 0.000000 0.041943 0.750000
O O13 0.000000 0.231713 0.750000
#
# Coordination Sequence:
#
# PCOD8145311 Si02
#       6
#     8   4   8   8   8   8
#     4  11  20  38  61  90 119 162 205 260 309 376
#     4  10  22  38  62  94 128 162 210 276 316 368
#     4  12  20  35  64  91 118 165 214 254 313 387
#     4  11  22  40  66  96 123 169 221 264 314 380
#     4  10  22  40  60  90 132 159 198 267 322 370
#     4  11  20  37  61  88 118 157 210 257 305 371
#
# _framework density 19.134858000000001
#
# number of rings (size 3 to 8) (size 9 to 14) (size 15 to 20)
#    0.000    1.091    4.545    4.364    0.000    0.727 
#    1.636    1.818    0.000    6.545    0.000    0.000 
#    0.000    0.000    0.000    0.000    0.000    0.000 
#
# Total GULP energy -272661.214282 kJ/mol
# GULP energy per Si atom -12393.691558 kJ/mol
# Density = 1.909131 g / cm^3
# Si number density = 19.134858 Si / 1000 Ang^3
#
#
#
# Elastic Constant Matrix: (Units=GPa)
#
#
# Indices 1 2 3 4 5 6 
#
# 1 69.9701 46.6436 44.9248 0.0000 12.9599 0.0000
# 2 46.6436 158.3865 60.4299 0.0001 -5.2564 -0.0001
# 3 44.9248 60.4299 151.7434 -0.0001 14.7191 -0.0001
# 4 0.0000 0.0001 -0.0001 33.6058 0.0002 3.3015
# 5 12.9599 -5.2564 14.7191 0.0002 22.2758 0.0000
# 6 0.0000 -0.0001 -0.0001 3.3015 0.0000 35.8745
#
#
#
# Elastic Compliance Matrix: (Units=1/GPa)
#
#
# Indices 1 2 3 4 5 6 
#
# 1 0.022491 -0.005840 -0.003130 0.000000 -0.012395 0.000000
# 2 -0.005840 0.009305 -0.002692 0.000000 0.007372 0.000000
# 3 -0.003130 -0.002692 0.009054 0.000000 -0.004797 0.000000
# 4 0.000000 0.000000 0.000000 0.030028 0.000000 -0.002763
# 5 -0.012395 0.007372 -0.004797 0.000000 0.057012 0.000000
# 6 0.000000 0.000000 0.000000 -0.002763 0.000000 0.028129
#
#
# Mechanical properties :
#
#
# Convention : Reuss Voigt Hill
#
# Bulk Modulus (GPa) = 57.06110 76.01075 66.53592
# Shear Modulus (GPa) = 26.99988 33.55800 30.27894
#
# Velocity S-wave (km/s) = 3.76044 4.19234 3.98225
# Velocity P-wave (km/s) = 6.98139 7.95262 7.48278
#
# Compressibility (1/GPa) = 0.01752507
#
# Stress axis : x y z
#
# Youngs Moduli (GPa) = 44.46276 107.46631 110.44746
#
# Poissons Ratio (x) = 0.62764 0.34575
# Poissons Ratio (y) = 0.25968 0.29730
# Poissons Ratio (z) = 0.13919 0.28927
#
# Static dielectric constant tensor:
#      x y z
#    x 3.962980 -0.000030 -0.044370 
#    y -0.000030 3.960350 0.000010 
#    z -0.044370 0.000010 3.587760 
# 
# 
# High freq. dielectric constant tensor:
#      x y z
#    x 1.718420 0.000000 0.025290 
#    y 0.000000 1.764660 0.000000 
#    z 0.025290 0.000000 1.750870 
# 
# From -- ./inp_files/86165.got.cif
#   From: 2010.06.25/outbox.cif.g09.slc.cpg/sg15_44_cif.got.tgz:86165.got - 2010.06.28 07:06:18.
