data_PCOD8145190
_publ_section_title
;
Structure prediction by ZEFSAII (Michael W. Deem and Ramdas Pophale) SiO2 
 PCOD8145190
Probable space group: C 2/C
;
_chemical_formula_sum "Si O2"
_cell_formula_units_Z 32
_cell_length_a 7.846948
_cell_length_b 19.666268
_cell_length_c 11.611579
_cell_angle_alpha 90.000000
_cell_angle_beta 59.366617
_cell_angle_gamma 90.000000
_cell_volume 1541.832768
_symmetry_space_group_name_H-M "C 2/C"
_symmetry_group_IT_number 15
_symmetry_cell_setting 'monoclinic'
loop_
_space_group_symop_operation_xyz
x,y,z
-x,y,1/2-z
-x,-y,-z
x,-y,1/2+z
1/2+x,1/2+y,z
1/2-x,1/2+y,1/2-z
1/2-x,1/2-y,-z
1/2+x,1/2-y,1/2+z
loop_
_atom_site_type_symbol
_atom_site_label
_atom_site_fract_x
_atom_site_fract_y
_atom_site_fract_z
Si Si1 0.271440 0.546395 0.837162
Si Si2 0.097556 0.722287 0.458443
Si Si3 0.812791 0.687163 0.731089
Si Si4 0.476376 0.084475 0.126349
O O1 0.500000 0.526668 0.750000
O O2 0.240623 0.608642 0.760572
O O3 0.155715 0.482354 0.828198
O O4 0.188785 0.567022 0.992633
O O5 0.250000 0.750000 0.500000
O O6 0.118186 0.773148 0.343144
O O7 0.138189 0.644406 0.403918
O O8 0.876217 0.722371 0.587954
O O9 0.000000 0.694518 0.750000
O O10 0.500000 0.108082 0.250000
#
# Coordination Sequence:
#
# PCOD8145190 Si02
#       4
#     8   8   8   8
#     4  10  22  38  58  84 116 156 195 237 293 346
#     4   9  19  35  58  83 111 149 189 236 291 344
#     4   9  18  35  57  81 112 149 191 238 287 343
#     4  10  22  40  59  86 120 152 195 246 289 342
#
# _framework density 20.754519999999999
#
# number of rings (size 3 to 8) (size 9 to 14) (size 15 to 20)
#    0.000    2.500    0.000    0.750    0.000    9.000 
#    0.000    5.000    0.000    0.000    0.000    0.000 
#    0.000    0.000    0.000    0.000    0.000    0.000 
#
# Total GULP energy -198233.208726 kJ/mol
# GULP energy per Si atom -12389.575545 kJ/mol
# Density = 2.070728 g / cm^3
# Si number density = 20.754520 Si / 1000 Ang^3
#
#
#
# Elastic Constant Matrix: (Units=GPa)
#
#
# Indices 1 2 3 4 5 6 
#
# 1 48.6007 29.9926 48.4301 0.0000 -11.7136 0.0000
# 2 29.9926 151.7103 77.8634 0.0000 -4.1073 0.0000
# 3 48.4301 77.8634 140.1278 0.0000 -8.0789 0.0000
# 4 0.0000 0.0000 0.0000 40.8133 0.0000 3.0094
# 5 -11.7136 -4.1073 -8.0789 0.0000 28.9206 0.0000
# 6 0.0000 0.0000 0.0000 3.0094 0.0000 30.4597
#
#
#
# Elastic Compliance Matrix: (Units=1/GPa)
#
#
# Indices 1 2 3 4 5 6 
#
# 1 0.034517 -0.001019 -0.010739 0.000000 0.010836 0.000000
# 2 -0.001019 0.009252 -0.004814 0.000000 -0.000444 0.000000
# 3 -0.010739 -0.004814 0.013449 0.000000 -0.001276 0.000000
# 4 0.000000 0.000000 0.000000 0.024682 0.000000 -0.002439
# 5 0.010836 -0.000444 -0.001276 0.000000 0.038547 0.000000
# 6 0.000000 0.000000 0.000000 -0.002439 0.000000 0.033071
#
#
# Mechanical properties :
#
#
# Convention : Reuss Voigt Hill
#
# Bulk Modulus (GPa) = 41.53776 72.55675 57.04725
# Shear Modulus (GPa) = 25.68226 32.31557 28.99891
#
# Velocity S-wave (km/s) = 3.52153 3.95021 3.74201
# Velocity P-wave (km/s) = 6.04915 7.47268 6.79828
#
# Compressibility (1/GPa) = 0.02407448
#
# Stress axis : x y z
#
# Youngs Moduli (GPa) = 28.97088 108.08696 74.35353
#
# Poissons Ratio (x) = 0.11015 0.79846
# Poissons Ratio (y) = 0.02952 0.35795
# Poissons Ratio (z) = 0.31111 0.52035
#
# Static dielectric constant tensor:
#      x y z
#    x 3.282820 0.000000 0.019220 
#    y 0.000000 3.896150 0.000000 
#    z 0.019220 0.000000 4.814510 
# 
# 
# High freq. dielectric constant tensor:
#      x y z
#    x 1.766990 0.000000 -0.000480 
#    y 0.000000 1.825340 0.000000 
#    z -0.000480 0.000000 1.839430 
# 
# From -- ./inp_files/22250.got.cif
#   From: 2010.06.25/outbox.cif.g09.slc.cpg/sg15_12_cif.got.tgz:22250.got - 2010.06.28 07:06:18.
