data_PCOD8145874
_publ_section_title
;
Structure prediction by ZEFSAII (Michael W. Deem and Ramdas Pophale) SiO2 
 PCOD8145874
Probable space group: C 2/C
;
_chemical_formula_sum "Si O2"
_cell_formula_units_Z 36
_cell_length_a 16.545455
_cell_length_b 15.760994
_cell_length_c 5.307299
_cell_angle_alpha 90.000000
_cell_angle_beta 93.746159
_cell_angle_gamma 90.000000
_cell_volume 1381.042127
_symmetry_space_group_name_H-M "C 2/C"
_symmetry_group_IT_number 15
_symmetry_cell_setting 'monoclinic'
loop_
_space_group_symop_operation_xyz
x,y,z
-x,y,1/2-z
-x,-y,-z
x,-y,1/2+z
1/2+x,1/2+y,z
1/2-x,1/2+y,1/2-z
1/2-x,1/2-y,-z
1/2+x,1/2-y,1/2+z
loop_
_atom_site_type_symbol
_atom_site_label
_atom_site_fract_x
_atom_site_fract_y
_atom_site_fract_z
Si Si1 0.756366 0.826895 0.316950
Si Si2 0.595829 0.450776 0.787371
Si Si3 0.867081 0.215542 0.443308
Si Si4 0.127973 0.553042 0.916910
Si Si5 0.000000 0.687155 0.750000
O O1 0.750000 0.750000 0.500000
O O2 0.691344 0.797579 0.088753
O O3 0.721782 0.914721 0.426455
O O4 0.845266 0.832682 0.202775
O O5 0.500000 0.436546 0.750000
O O6 0.623467 0.508391 0.555688
O O7 0.640839 0.358333 0.777396
O O8 0.958160 0.252177 0.452281
O O9 0.110389 0.496525 0.669009
O O10 0.066898 0.632352 0.909869
#
# Coordination Sequence:
#
# PCOD8145874 Si02
#       5
#     8   8   8   8   4
#     4  10  25  44  68  96 138 183 234 276 336 422
#     4  10  22  40  61  95 132 165 217 274 331 393
#     4  10  22  43  67  98 135 183 230 279 348 411
#     4  11  26  47  73 105 141 182 235 291 352 413
#     4  10  22  46  72 104 140 182 230 296 354 418
#
# _framework density 26.067271000000002
#
# number of rings (size 3 to 8) (size 9 to 14) (size 15 to 20)
#    0.000    1.778    1.111    0.667   12.444    1.778 
#    4.000    0.000    0.000    0.000    0.000    0.000 
#    0.000    0.000    0.000    0.000    0.000    0.000 
#
# Total GULP energy -223074.991789 kJ/mol
# GULP energy per Si atom -12393.055099 kJ/mol
# Density = 2.600794 g / cm^3
# Si number density = 26.067271 Si / 1000 Ang^3
#
#
#
# Elastic Constant Matrix: (Units=GPa)
#
#
# Indices 1 2 3 4 5 6 
#
# 1 77.2550 28.3136 27.8366 0.0000 -38.0292 0.0000
# 2 28.3136 110.6174 37.4050 0.0000 -21.4782 0.0000
# 3 27.8366 37.4050 136.5599 0.0000 -29.2109 0.0000
# 4 0.0000 0.0000 0.0000 29.2712 0.0000 -1.0766
# 5 -38.0292 -21.4782 -29.2109 0.0000 42.5980 0.0000
# 6 0.0000 0.0000 0.0000 -1.0766 0.0000 62.2025
#
#
#
# Elastic Compliance Matrix: (Units=1/GPa)
#
#
# Indices 1 2 3 4 5 6 
#
# 1 0.023548 -0.002172 0.000067 0.000000 0.019973 0.000000
# 2 -0.002172 0.010685 -0.002047 0.000000 0.002045 0.000000
# 3 0.000067 -0.002047 0.008979 0.000000 0.005185 0.000000
# 4 0.000000 0.000000 0.000000 0.034185 0.000000 0.000592
# 5 0.019973 0.002045 0.005185 0.000000 0.045893 0.000000
# 6 0.000000 0.000000 0.000000 0.000592 0.000000 0.016087
#
#
# Mechanical properties :
#
#
# Convention : Reuss Voigt Hill
#
# Bulk Modulus (GPa) = 28.64551 56.83808 42.74180
# Shear Modulus (GPa) = 31.38419 42.20616 36.79517
#
# Velocity S-wave (km/s) = 3.47359 4.02820 3.76113
# Velocity P-wave (km/s) = 5.20583 6.59446 5.94086
#
# Compressibility (1/GPa) = 0.03490948
#
# Stress axis : x y z
#
# Youngs Moduli (GPa) = 42.46667 93.58696 111.37332
#
# Poissons Ratio (x) = 0.20326 -0.00749
# Poissons Ratio (y) = 0.09223 0.22793
# Poissons Ratio (z) = -0.00286 0.19153
#
# Static dielectric constant tensor:
#      x y z
#    x 4.855580 0.000000 -0.266600 
#    y 0.000000 6.313090 0.000000 
#    z -0.266600 0.000000 4.808570 
# 
# 
# High freq. dielectric constant tensor:
#      x y z
#    x 2.039090 0.000000 -0.027770 
#    y 0.000000 2.054780 0.000000 
#    z -0.027770 0.000000 2.040540 
# 
# From -- ./inp_files/9768.got.cif
#   From: 2010.06.25/outbox.cif.g09.slc.cpg/sg15_5_cif.got.tgz:9768.got - 2010.06.28 07:06:18.
