data_PCOD8145747
_publ_section_title
;
Structure prediction by ZEFSAII (Michael W. Deem and Ramdas Pophale) SiO2 
 PCOD8145747
Probable space group: C 2/C
;
_chemical_formula_sum "Si O2"
_cell_formula_units_Z 56
_cell_length_a 13.444799
_cell_length_b 14.232517
_cell_length_c 15.039215
_cell_angle_alpha 90.000000
_cell_angle_beta 119.804915
_cell_angle_gamma 90.000000
_cell_volume 2497.136090
_symmetry_space_group_name_H-M "C 2/C"
_symmetry_group_IT_number 15
_symmetry_cell_setting 'monoclinic'
loop_
_space_group_symop_operation_xyz
x,y,z
-x,y,1/2-z
-x,-y,-z
x,-y,1/2+z
1/2+x,1/2+y,z
1/2-x,1/2+y,1/2-z
1/2-x,1/2-y,-z
1/2+x,1/2-y,1/2+z
loop_
_atom_site_type_symbol
_atom_site_label
_atom_site_fract_x
_atom_site_fract_y
_atom_site_fract_z
Si Si1 0.329722 0.622452 0.721834
Si Si2 0.792447 0.960822 0.027504
Si Si3 0.492743 0.396971 0.460108
Si Si4 0.967579 0.414034 0.587052
Si Si5 0.000000 0.271372 0.750000
Si Si6 0.570331 0.888444 0.130360
Si Si7 0.349443 0.327391 0.547078
Si Si8 0.000000 0.750672 0.750000
O O1 0.320140 0.539335 0.645172
O O2 0.383566 0.711145 0.694182
O O3 0.202069 0.641149 0.699164
O O4 0.409333 0.596505 0.839017
O O5 0.875343 0.884561 0.014385
O O6 0.800185 0.069788 0.003294
O O7 0.664191 0.931389 0.948100
O O8 0.500000 0.500000 0.500000
O O9 0.449389 0.319449 0.513693
O O10 0.013809 0.330000 0.666632
O O11 0.981923 0.380183 0.491875
O O12 0.045468 0.503956 0.647329
O O13 0.510391 0.815212 0.168556
O O14 0.250000 0.250000 0.500000
O O15 0.399964 0.319782 0.670161
#
# Coordination Sequence:
#
# PCOD8145747 Si02
#       8
#     8   8   8   8   4   8   8   4
#     4  11  23  44  69 100 135 178 224 297 347 416
#     4  10  22  45  69  93 141 179 231 277 359 418
#     4  10  22  39  67  94 135 183 227 277 348 420
#     4  10  24  45  72  98 132 191 224 287 347 427
#     4  12  25  41  76 104 140 164 244 297 347 408
#     4  10  24  47  67  96 140 183 231 274 360 422
#     4  11  25  41  65 101 136 182 233 291 341 422
#     4  12  25  39  68  96 140 172 226 293 341 412
#
# _framework density 22.425689999999999
#
# number of rings (size 3 to 8) (size 9 to 14) (size 15 to 20)
#    0.000    1.429    1.429    2.143    6.000    6.857 
#    7.714    0.000    0.000    0.000    0.000    0.000 
#    0.000    0.000    0.000    0.000    0.000    0.000 
#
# Total GULP energy -346902.763258 kJ/mol
# GULP energy per Si atom -12389.384402 kJ/mol
# Density = 2.237465 g / cm^3
# Si number density = 22.425690 Si / 1000 Ang^3
#
#
#
# Elastic Constant Matrix: (Units=GPa)
#
#
# Indices 1 2 3 4 5 6 
#
# 1 110.3809 39.8542 26.5208 0.0000 3.5061 0.0000
# 2 39.8542 83.6168 27.5676 0.0000 2.0715 0.0000
# 3 26.5208 27.5676 73.2836 0.0000 2.0102 0.0000
# 4 0.0000 0.0000 0.0000 47.1354 0.0000 -27.1851
# 5 3.5061 2.0715 2.0102 0.0000 35.0420 0.0000
# 6 0.0000 0.0000 0.0000 -27.1851 0.0000 73.4372
#
#
#
# Elastic Compliance Matrix: (Units=1/GPa)
#
#
# Indices 1 2 3 4 5 6 
#
# 1 0.011306 -0.004599 -0.002342 0.000000 -0.000725 0.000000
# 2 -0.004599 0.015532 -0.004173 0.000000 -0.000219 0.000000
# 3 -0.002342 -0.004173 0.016075 0.000000 -0.000441 0.000000
# 4 0.000000 0.000000 0.000000 0.026975 0.000000 0.009985
# 5 -0.000725 -0.000219 -0.000441 0.000000 0.028648 0.000000
# 6 0.000000 0.000000 0.000000 0.009985 0.000000 0.017314
#
#
# Mechanical properties :
#
#
# Convention : Reuss Voigt Hill
#
# Bulk Modulus (GPa) = 48.33997 50.57407 49.45702
# Shear Modulus (GPa) = 34.48991 42.67884 38.58437
#
# Velocity S-wave (km/s) = 3.92594 4.36721 4.15244
# Velocity P-wave (km/s) = 6.49254 6.93043 6.71506
#
# Compressibility (1/GPa) = 0.02068681
#
# Stress axis : x y z
#
# Youngs Moduli (GPa) = 88.45210 64.38220 62.20913
#
# Poissons Ratio (x) = 0.29607 0.14567
# Poissons Ratio (y) = 0.40675 0.25958
# Poissons Ratio (z) = 0.20712 0.26865
#
# Static dielectric constant tensor:
#      x y z
#    x 4.948870 0.000000 -0.219350 
#    y 0.000000 3.943340 0.000000 
#    z -0.219350 0.000000 4.034240 
# 
# 
# High freq. dielectric constant tensor:
#      x y z
#    x 1.894810 0.000000 -0.005520 
#    y 0.000000 1.879490 0.000000 
#    z -0.005520 0.000000 1.886510 
# 
# From -- ./inp_files/205506.got.cif
#   From: 2010.06.25/outbox.cif.g09.slc.cpg/sg15_103_cif.got.tgz:205506.got - 2010.06.28 07:06:18.
