data_PCOD8145700
_publ_section_title
;
Structure prediction by ZEFSAII (Michael W. Deem and Ramdas Pophale) SiO2 
 PCOD8145700
Probable space group: C 2/C
;
_chemical_formula_sum "Si O2"
_cell_formula_units_Z 52
_cell_length_a 25.936569
_cell_length_b 21.147102
_cell_length_c 14.350731
_cell_angle_alpha 90.000000
_cell_angle_beta 161.736603
_cell_angle_gamma 90.000000
_cell_volume 2466.702669
_symmetry_space_group_name_H-M "C 2/C"
_symmetry_group_IT_number 15
_symmetry_cell_setting 'monoclinic'
loop_
_space_group_symop_operation_xyz
x,y,z
-x,y,1/2-z
-x,-y,-z
x,-y,1/2+z
1/2+x,1/2+y,z
1/2-x,1/2+y,1/2-z
1/2-x,1/2-y,-z
1/2+x,1/2-y,1/2+z
loop_
_atom_site_type_symbol
_atom_site_label
_atom_site_fract_x
_atom_site_fract_y
_atom_site_fract_z
Si Si1 0.759573 0.708553 0.303518
Si Si2 0.500000 0.364794 0.250000
Si Si3 0.000000 0.572094 0.250000
Si Si4 0.553087 0.466821 0.210231
Si Si5 0.000000 0.925805 0.750000
Si Si6 0.271140 0.974221 0.944428
Si Si7 0.823993 0.653345 0.795792
Si Si8 0.923462 0.654778 0.754947
O O1 0.732577 0.783268 0.248294
O O2 0.788186 0.692020 0.461222
O O3 0.901752 0.681731 0.479770
O O4 0.592871 0.677600 0.983039
O O5 0.614777 0.412771 0.387491
O O6 0.152568 0.525602 0.493999
O O7 0.044301 0.616031 0.414672
O O8 0.470360 0.529446 0.111166
O O9 0.721672 0.484799 0.449354
O O10 0.398704 0.441597 0.883584
O O11 0.841733 0.885056 0.502449
O O12 0.403718 0.920035 0.198242
O O13 0.902651 0.667701 0.829196
#
# Coordination Sequence:
#
# PCOD8145700 Si02
#       8
#     8   4   4   8   4   8   8   8
#     4  11  25  46  67  99 132 179 232 278 322 402
#     4  11  23  42  68  98 135 173 220 278 338 395
#     4  12  27  42  68 106 141 170 222 284 338 402
#     4  10  22  39  66 100 133 173 213 279 339 394
#     4  11  20  42  66  94 130 177 218 268 338 401
#     4  11  22  42  68 100 137 171 224 276 341 398
#     4  12  26  46  67  98 137 182 224 279 336 396
#     4  11  24  46  72  97 132 180 231 276 331 399
#
# _framework density 21.080773000000001
#
# number of rings (size 3 to 8) (size 9 to 14) (size 15 to 20)
#    0.000    0.923    4.615    2.769    2.154    0.615 
#    2.769    1.538    0.000    0.000    0.000    0.000 
#    0.000    0.000    0.000    0.000    0.000    0.000 
#
# Total GULP energy -322226.237400 kJ/mol
# GULP energy per Si atom -12393.316823 kJ/mol
# Density = 2.103279 g / cm^3
# Si number density = 21.080773 Si / 1000 Ang^3
#
#
#
# Elastic Constant Matrix: (Units=GPa)
#
#
# Indices 1 2 3 4 5 6 
#
# 1 112.1820 31.5078 22.8023 0.0000 5.7842 0.0000
# 2 31.5078 118.1809 39.2556 0.0000 3.0768 0.0000
# 3 22.8023 39.2556 59.6731 0.0000 -2.1895 0.0000
# 4 0.0000 0.0000 0.0000 8.0331 0.0000 11.6624
# 5 5.7842 3.0768 -2.1895 0.0000 27.9254 0.0000
# 6 0.0000 0.0000 0.0000 11.6624 0.0000 15.3372
#
#
#
# Elastic Compliance Matrix: (Units=1/GPa)
#
#
# Indices 1 2 3 4 5 6 
#
# 1 0.010071 -0.001696 -0.002810 0.000000 -0.002119 0.000000
# 2 -0.001696 0.011200 -0.006771 0.000000 -0.001414 0.000000
# 3 -0.002810 -0.006771 0.022400 -0.000001 0.003084 0.000001
# 4 0.000000 0.000000 -0.000001 -1.197600 -0.000001 0.910656
# 5 -0.002119 -0.001414 0.003084 -0.000001 0.036646 0.000001
# 6 0.000000 0.000000 0.000001 0.910656 0.000001 -0.627262
#
#
# Mechanical properties :
#
#
# Convention : Reuss Voigt Hill
#
# Bulk Modulus (GPa) = 47.36083 53.01860 50.18972
# Shear Modulus (GPa) = -2.91553 23.35717 10.22082
#
# Velocity S-wave (km/s) = -1.17730 3.33225 2.20430
# Velocity P-wave (km/s) = 4.54611 6.32535 5.50804
#
# Compressibility (1/GPa) = 0.02111449
#
# Stress axis : x y z
#
# Youngs Moduli (GPa) = 99.29489 89.28641 44.64377
#
# Poissons Ratio (x) = 0.15146 0.12546
# Poissons Ratio (y) = 0.16844 0.30230
# Poissons Ratio (z) = 0.27903 0.60460
#
# Static dielectric constant tensor:
#      x y z
#    x 3.919490 0.000000 -0.078880 
#    y 0.000000 3.906050 0.000000 
#    z -0.078880 0.000000 3.611760 
# 
# 
# High freq. dielectric constant tensor:
#      x y z
#    x 1.829280 0.000000 -0.005860 
#    y 0.000000 1.834010 0.000000 
#    z -0.005860 0.000000 1.814960 
# 
# From -- ./inp_files/179076.got.cif
#   From: 2010.06.25/outbox.cif.g09.slc.cpg/sg15_90_cif.got.tgz:179076.got - 2010.06.28 07:06:18.
