data_PCOD8145490
_publ_section_title
;
Structure prediction by ZEFSAII (Michael W. Deem and Ramdas Pophale) SiO2 
 PCOD8145490
Probable space group: C 2/C
;
_chemical_formula_sum "Si O2"
_cell_formula_units_Z 44
_cell_length_a 9.025026
_cell_length_b 12.178136
_cell_length_c 21.297540
_cell_angle_alpha 90.000000
_cell_angle_beta 56.473319
_cell_angle_gamma 90.000000
_cell_volume 1951.332993
_symmetry_space_group_name_H-M "C 2/C"
_symmetry_group_IT_number 15
_symmetry_cell_setting 'monoclinic'
loop_
_space_group_symop_operation_xyz
x,y,z
-x,y,1/2-z
-x,-y,-z
x,-y,1/2+z
1/2+x,1/2+y,z
1/2-x,1/2+y,1/2-z
1/2-x,1/2-y,-z
1/2+x,1/2-y,1/2+z
loop_
_atom_site_type_symbol
_atom_site_label
_atom_site_fract_x
_atom_site_fract_y
_atom_site_fract_z
Si Si1 0.304100 0.717583 0.588762
Si Si2 0.500000 0.954339 0.750000
Si Si3 0.665178 0.599726 0.041439
Si Si4 0.712084 0.707384 0.358360
Si Si5 0.732141 0.140410 0.735116
Si Si6 0.899430 0.138201 0.903033
O O1 0.252177 0.631431 0.545609
O O2 0.272244 0.840468 0.572059
O O3 0.179779 0.690627 0.678345
O O4 0.511542 0.706283 0.560382
O O5 0.623595 0.876438 0.679121
O O6 0.620451 0.027935 0.769023
O O7 0.461471 0.637181 0.088027
O O8 0.684814 0.471348 0.048488
O O9 0.688458 0.771795 0.298611
O O10 0.742365 0.794351 0.407023
O O11 0.944093 0.111886 0.684833
#
# Coordination Sequence:
#
# PCOD8145490 Si02
#       6
#     8   4   8   8   8   8
#     4   9  22  43  61  90 122 164 211 241 308 373
#     4  12  20  38  60  86 124 160 190 256 316 342
#     4  11  22  42  66  85 126 167 197 258 306 353
#     4  12  23  39  61  96 121 155 212 252 303 372
#     4  10  22  39  58  89 124 155 203 254 297 368
#     4  10  22  39  59  90 121 154 206 252 295 363
#
# _framework density 22.548687999999999
#
# number of rings (size 3 to 8) (size 9 to 14) (size 15 to 20)
#    1.091    0.364    3.636    1.636    0.000    3.636 
#    3.273    5.455    0.000    0.000    0.000    0.000 
#    0.000    0.000    0.000    0.000    0.000    0.000 
#
# Total GULP energy -272747.175942 kJ/mol
# GULP energy per Si atom -12397.598906 kJ/mol
# Density = 2.249737 g / cm^3
# Si number density = 22.548688 Si / 1000 Ang^3
#
#
#
# Elastic Constant Matrix: (Units=GPa)
#
#
# Indices 1 2 3 4 5 6 
#
# 1 80.1104 59.4167 29.2969 0.0000 29.0823 0.0000
# 2 59.4167 97.5139 27.7387 0.0000 13.0921 0.0000
# 3 29.2969 27.7387 56.9824 0.0000 15.8356 0.0000
# 4 0.0000 0.0000 0.0000 23.8619 0.0000 -4.3988
# 5 29.0823 13.0921 15.8356 0.0000 28.6462 0.0000
# 6 0.0000 0.0000 0.0000 -4.3988 0.0000 38.4714
#
#
#
# Elastic Compliance Matrix: (Units=1/GPa)
#
#
# Indices 1 2 3 4 5 6 
#
# 1 0.036832 -0.018015 -0.002438 0.000000 -0.027812 0.000000
# 2 -0.018015 0.020886 -0.003940 0.000000 0.010922 0.000000
# 3 -0.002438 -0.003940 0.023078 0.000000 -0.008481 0.000000
# 4 0.000000 0.000000 0.000000 0.042810 0.000000 0.004895
# 5 -0.027812 0.010922 -0.008481 0.000000 0.062841 0.000000
# 6 0.000000 0.000000 0.000000 0.004895 0.000000 0.026553
#
#
# Mechanical properties :
#
#
# Convention : Reuss Voigt Hill
#
# Bulk Modulus (GPa) = 31.24088 51.94570 41.59329
# Shear Modulus (GPa) = 18.35146 26.07287 22.21216
#
# Velocity S-wave (km/s) = 2.85592 3.40412 3.14200
# Velocity P-wave (km/s) = 4.97594 6.20788 5.62573
#
# Compressibility (1/GPa) = 0.03200934
#
# Stress axis : x y z
#
# Youngs Moduli (GPa) = 27.14997 47.87835 43.33130
#
# Poissons Ratio (x) = 0.86253 0.10566
# Poissons Ratio (y) = 0.48911 0.17074
# Poissons Ratio (z) = 0.06620 0.18866
#
# Static dielectric constant tensor:
#      x y z
#    x 3.943490 0.000000 -0.024590 
#    y 0.000000 3.923290 0.000000 
#    z -0.024590 0.000000 3.980080 
# 
# 
# High freq. dielectric constant tensor:
#      x y z
#    x 1.885540 0.000000 -0.000700 
#    y 0.000000 1.879620 0.000000 
#    z -0.000700 0.000000 1.882250 
# 
# From -- ./inp_files/263444.got.cif
#   From: 2010.06.25/outbox.cif.g09.slc.cpg/sg15_132_cif.got.tgz:263444.got - 2010.06.28 07:06:18.
