data_PCOD8145049
_publ_section_title
;
Structure prediction by ZEFSAII (Michael W. Deem and Ramdas Pophale) SiO2 
 PCOD8145049
Probable space group: C 2/C
;
_chemical_formula_sum "Si O2"
_cell_formula_units_Z 52
_cell_length_a 23.182131
_cell_length_b 5.115480
_cell_length_c 30.165465
_cell_angle_alpha 90.000000
_cell_angle_beta 140.086551
_cell_angle_gamma 90.000000
_cell_volume 2295.272339
_symmetry_space_group_name_H-M "C 2/C"
_symmetry_group_IT_number 15
_symmetry_cell_setting 'monoclinic'
loop_
_space_group_symop_operation_xyz
x,y,z
-x,y,1/2-z
-x,-y,-z
x,-y,1/2+z
1/2+x,1/2+y,z
1/2-x,1/2+y,1/2-z
1/2-x,1/2-y,-z
1/2+x,1/2-y,1/2+z
loop_
_atom_site_type_symbol
_atom_site_label
_atom_site_fract_x
_atom_site_fract_y
_atom_site_fract_z
Si Si1 0.595482 0.644744 0.228913
Si Si2 0.142078 0.443326 0.899475
Si Si3 0.211419 0.493510 0.629607
Si Si4 0.415443 0.537507 0.085481
Si Si5 0.691905 0.902418 0.211504
Si Si6 0.686051 0.506694 0.057013
Si Si7 0.500000 0.063187 0.750000
O O1 0.684437 0.477283 0.293013
O O2 0.518249 0.468370 0.159837
O O3 0.617312 0.875296 0.206096
O O4 0.560544 0.756716 0.254379
O O5 0.109584 0.676864 0.911661
O O6 0.233982 0.528431 0.930903
O O7 0.067213 0.383093 0.817714
O O8 0.152037 0.178104 0.933389
O O9 0.151200 0.525600 0.638798
O O10 0.192472 0.207978 0.599055
O O11 0.187294 0.707734 0.579063
O O12 0.404554 0.529386 0.025590
O O13 0.738446 0.621407 0.232180
#
# Coordination Sequence:
#
# PCOD8145049 Si02
#       7
#     8   8   8   8   8   8   4
#     4  10  23  43  64  98 128 166 213 269 319 385
#     4  11  23  38  61  89 132 168 209 253 324 383
#     4  11  23  40  67  91 122 168 219 261 308 377
#     4  11  25  40  61  90 132 169 204 260 330 378
#     4  10  22  41  66  94 127 168 216 270 324 373
#     4  12  23  41  62  92 126 169 216 256 313 392
#     4  10  22  36  66  98 126 154 214 270 318 368
#
# _framework density 22.655263999999999
#
# number of rings (size 3 to 8) (size 9 to 14) (size 15 to 20)
#    0.000    1.231    1.538    4.615    4.308    4.308 
#    0.000    1.538    0.000    0.000    0.000    0.000 
#    0.000    0.000    0.000    0.000    0.000    0.000 
#
# Total GULP energy -322378.446500 kJ/mol
# GULP energy per Si atom -12399.171019 kJ/mol
# Density = 2.260370 g / cm^3
# Si number density = 22.655264 Si / 1000 Ang^3
#
#
#
# Elastic Constant Matrix: (Units=GPa)
#
#
# Indices 1 2 3 4 5 6 
#
# 1 112.2962 29.9069 21.3656 -0.0207 -27.5286 0.0118
# 2 29.9069 93.9172 18.3094 -0.0596 -10.6038 0.2070
# 3 21.3656 18.3094 110.5051 -0.0286 -28.3780 -0.0075
# 4 -0.0207 -0.0596 -0.0286 30.3042 0.0128 -11.6857
# 5 -27.5286 -10.6038 -28.3780 0.0128 28.4201 -0.0502
# 6 0.0118 0.2070 -0.0075 -11.6857 -0.0502 36.4734
#
#
#
# Elastic Compliance Matrix: (Units=1/GPa)
#
#
# Indices 1 2 3 4 5 6 
#
# 1 0.012407 -0.002810 0.001189 0.000011 0.012156 0.000033
# 2 -0.002810 0.011843 -0.001322 -0.000006 0.000376 -0.000068
# 3 0.001189 -0.001322 0.012383 0.000017 0.013022 0.000033
# 4 0.000011 -0.000006 0.000017 0.037650 0.000030 0.012063
# 5 0.012156 0.000376 0.013022 0.000030 0.060105 0.000089
# 6 0.000033 -0.000068 0.000033 0.012063 0.000089 0.031283
#
#
# Mechanical properties :
#
#
# Convention : Reuss Voigt Hill
#
# Bulk Modulus (GPa) = 32.52540 50.65359 41.58949
# Shear Modulus (GPa) = 27.50160 35.51532 31.50846
#
# Velocity S-wave (km/s) = 3.48791 3.96364 3.73336
# Velocity P-wave (km/s) = 5.53250 6.58439 6.08123
#
# Compressibility (1/GPa) = 0.03074521
#
# Stress axis : x y z
#
# Youngs Moduli (GPa) = 80.59708 84.43831 80.75690
#
# Poissons Ratio (x) = 0.23729 -0.09598
# Poissons Ratio (y) = 0.22650 0.10678
# Poissons Ratio (z) = -0.09579 0.11165
#
# Static dielectric constant tensor:
#      x y z
#    x 4.234520 -0.000150 -0.206590 
#    y -0.000150 3.823360 0.000110 
#    z -0.206590 0.000110 4.414970 
# 
# 
# High freq. dielectric constant tensor:
#      x y z
#    x 1.885240 -0.000020 -0.027190 
#    y -0.000020 1.890260 0.000010 
#    z -0.027190 0.000010 1.896340 
# 
# From -- ./inp_files/318305.got.cif
#   From: 2010.06.25/outbox.cif.g09.slc.cpg/sg15_160_cif.got.tgz:318305.got - 2010.06.28 07:06:18.
