data_PCOD8145288
_publ_section_title
;
Structure prediction by ZEFSAII (Michael W. Deem and Ramdas Pophale) SiO2 
 PCOD8145288
Probable space group: C 2/C
;
_chemical_formula_sum "Si O2"
_cell_formula_units_Z 60
_cell_length_a 14.277078
_cell_length_b 19.838240
_cell_length_c 24.663310
_cell_angle_alpha 90.000000
_cell_angle_beta 26.673950
_cell_angle_gamma 90.000000
_cell_volume 3135.853730
_symmetry_space_group_name_H-M "C 2/C"
_symmetry_group_IT_number 15
_symmetry_cell_setting 'monoclinic'
loop_
_space_group_symop_operation_xyz
x,y,z
-x,y,1/2-z
-x,-y,-z
x,-y,1/2+z
1/2+x,1/2+y,z
1/2-x,1/2+y,1/2-z
1/2-x,1/2-y,-z
1/2+x,1/2-y,1/2+z
loop_
_atom_site_type_symbol
_atom_site_label
_atom_site_fract_x
_atom_site_fract_y
_atom_site_fract_z
Si Si1 0.893678 0.803823 0.222296
Si Si2 0.774418 0.383833 0.375751
Si Si3 0.000000 0.254808 0.250000
Si Si4 0.687071 0.222446 0.937758
Si Si5 0.077679 0.075315 0.372024
Si Si6 0.735751 0.871032 0.618690
Si Si7 0.967117 0.076620 0.607577
Si Si8 0.745055 0.192792 0.289244
O O1 0.764452 0.815320 0.343911
O O2 0.891785 0.876085 0.194638
O O3 0.775318 0.748652 0.247090
O O4 0.131490 0.780606 0.110369
O O5 0.663511 0.407161 0.488811
O O6 0.638391 0.402448 0.394324
O O7 0.000000 0.419550 0.250000
O O8 0.803992 0.302968 0.366710
O O9 0.070397 0.210015 0.264314
O O10 0.636072 0.300548 0.950541
O O11 0.478942 0.185071 0.065751
O O12 0.206836 0.082226 0.360427
O O13 0.182058 0.121686 0.272655
O O14 0.084301 0.998784 0.347485
O O15 0.500000 0.849020 0.750000
O O16 0.786947 0.911853 0.536122
#
# Coordination Sequence:
#
# PCOD8145288 Si02
#       8
#     8   8   4   8   8   8   8   8
#     4  11  21  39  65  90 126 153 198 258 310 366
#     4   9  19  40  58  88 117 153 206 257 298 353
#     4  10  22  38  62  86 118 160 206 258 278 352
#     4  11  22  37  64 100 117 150 207 261 306 356
#     4  11  24  37  58  89 125 164 199 249 307 372
#     4  11  19  35  63  96 123 148 199 264 315 358
#     4  11  23  38  57  91 129 156 198 251 312 370
#     4  12  22  41  62  89 124 160 210 250 299 364
#
# _framework density 19.133545000000002
#
# number of rings (size 3 to 8) (size 9 to 14) (size 15 to 20)
#    0.400    0.800    5.333    2.800    1.867    2.667 
#    2.400    2.000    0.000    0.000    0.000    0.000 
#    0.000    0.000    0.000    0.000    0.000    0.000 
#
# Total GULP energy -371828.523588 kJ/mol
# GULP energy per Si atom -12394.284120 kJ/mol
# Density = 1.909000 g / cm^3
# Si number density = 19.133545 Si / 1000 Ang^3
#
#
#
# Elastic Constant Matrix: (Units=GPa)
#
#
# Indices 1 2 3 4 5 6 
#
# 1 80.1380 38.9031 30.7704 -0.1463 8.0776 0.0946
# 2 38.9031 153.1039 58.5189 0.2195 17.8789 -0.0120
# 3 30.7704 58.5189 133.7103 0.0087 1.9595 0.0305
# 4 -0.1463 0.2195 0.0087 25.9205 0.2080 7.2809
# 5 8.0776 17.8789 1.9595 0.2080 22.4358 0.0030
# 6 0.0946 -0.0120 0.0305 7.2809 0.0030 14.3234
#
#
#
# Elastic Compliance Matrix: (Units=1/GPa)
#
#
# Indices 1 2 3 4 5 6 
#
# 1 0.014906 -0.002556 -0.002266 0.000185 -0.003134 -0.000189
# 2 -0.002556 0.009167 -0.003335 -0.000060 -0.006093 0.000063
# 3 -0.002266 -0.003335 0.009421 -0.000008 0.002650 -0.000005
# 4 0.000185 -0.000060 -0.000008 0.045012 -0.000432 -0.022882
# 5 -0.003134 -0.006093 0.002650 -0.000432 0.050328 0.000219
# 6 -0.000189 0.000063 -0.000005 -0.022882 0.000219 0.081449
#
#
# Mechanical properties :
#
#
# Convention : Reuss Voigt Hill
#
# Bulk Modulus (GPa) = 58.20267 69.25969 63.73118
# Shear Modulus (GPa) = 21.52192 28.45326 24.98759
#
# Velocity S-wave (km/s) = 3.35748 3.86046 3.61772
# Velocity P-wave (km/s) = 6.74651 7.49316 7.12962
#
# Compressibility (1/GPa) = 0.01718134
#
# Stress axis : x y z
#
# Youngs Moduli (GPa) = 67.08910 109.08574 106.14813
#
# Poissons Ratio (x) = 0.27880 0.24050
# Poissons Ratio (y) = 0.17147 0.35396
# Poissons Ratio (z) = 0.15200 0.36375
#
# Static dielectric constant tensor:
#      x y z
#    x 3.402100 0.000030 -0.086750 
#    y 0.000030 3.283050 0.000300 
#    z -0.086750 0.000300 3.885060 
# 
# 
# High freq. dielectric constant tensor:
#      x y z
#    x 1.724920 0.000000 -0.004730 
#    y 0.000000 1.725970 0.000030 
#    z -0.004730 0.000030 1.754700 
# 
# From -- ./inp_files/274699.got.cif
#   From: 2010.06.25/outbox.cif.g09.slc.cpg/sg15_138_cif.got.tgz:274699.got - 2010.06.28 07:06:18.
