data_PCOD8145082
_publ_section_title
;
Structure prediction by ZEFSAII (Michael W. Deem and Ramdas Pophale) SiO2 
 PCOD8145082
Probable space group: C 2/C
;
_chemical_formula_sum "Si O2"
_cell_formula_units_Z 52
_cell_length_a 16.005161
_cell_length_b 22.426960
_cell_length_c 14.375327
_cell_angle_alpha 90.000000
_cell_angle_beta 30.747792
_cell_angle_gamma 90.000000
_cell_volume 2638.092235
_symmetry_space_group_name_H-M "C 2/C"
_symmetry_group_IT_number 15
_symmetry_cell_setting 'monoclinic'
loop_
_space_group_symop_operation_xyz
x,y,z
-x,y,1/2-z
-x,-y,-z
x,-y,1/2+z
1/2+x,1/2+y,z
1/2-x,1/2+y,1/2-z
1/2-x,1/2-y,-z
1/2+x,1/2-y,1/2+z
loop_
_atom_site_type_symbol
_atom_site_label
_atom_site_fract_x
_atom_site_fract_y
_atom_site_fract_z
Si Si1 0.141446 0.006303 0.292770
Si Si2 0.000000 0.950238 0.250000
Si Si3 0.342387 0.931786 0.836662
Si Si4 0.160794 0.792388 0.709051
Si Si5 0.340904 0.885199 0.637828
Si Si6 0.659972 0.941206 0.256656
Si Si7 0.307281 0.327005 0.031165
O O1 0.191222 0.074673 0.246192
O O2 0.284324 0.962099 0.193110
O O3 0.000000 0.000000 0.500000
O O4 0.081000 0.991634 0.249039
O O5 0.838645 0.915090 0.445437
O O6 0.500000 0.918038 0.750000
O O7 0.367315 0.889989 0.723007
O O8 0.348607 0.001404 0.802306
O O9 0.290402 0.817974 0.660081
O O10 0.173504 0.720665 0.694938
O O11 0.196286 0.824261 0.576666
O O12 0.976879 0.806269 0.914235
O O13 0.490701 0.908012 0.432813
O O14 0.778075 0.893907 0.094349
#
# Coordination Sequence:
#
# PCOD8145082 Si02
#       7
#     8   4   8   8   8   8   8
#     4  11  21  37  53  86 115 153 205 235 301 358
#     4  12  22  36  62  78 126 156 196 248 294 350
#     4  11  24  39  56  91 119 163 206 246 302 357
#     4  10  22  38  57  86 119 155 199 241 297 362
#     4  11  22  37  57  80 123 154 200 251 292 358
#     4  11  22  36  56  82 121 157 197 249 292 359
#     4  10  22  37  58  86 119 156 197 240 297 364
#
# _framework density 19.711214999999999
#
# number of rings (size 3 to 8) (size 9 to 14) (size 15 to 20)
#    0.000    1.231    3.077    5.538    4.308    1.231 
#    0.000    0.000    0.000    0.000    2.000    3.231 
#    0.000    0.000    0.000    0.000    0.000    0.000 
#
# Total GULP energy -322228.008595 kJ/mol
# GULP energy per Si atom -12393.384946 kJ/mol
# Density = 1.966635 g / cm^3
# Si number density = 19.711215 Si / 1000 Ang^3
#
#
#
# Elastic Constant Matrix: (Units=GPa)
#
#
# Indices 1 2 3 4 5 6 
#
# 1 112.8049 20.0476 6.4055 -0.0365 -2.1751 0.0331
# 2 20.0476 56.2897 -2.3811 0.0224 4.8972 -0.0348
# 3 6.4055 -2.3811 86.7228 -0.0309 -12.0698 0.0145
# 4 -0.0365 0.0224 -0.0309 24.9818 0.0247 -0.7785
# 5 -2.1751 4.8972 -12.0698 0.0247 31.7631 -0.0267
# 6 0.0331 -0.0348 0.0145 -0.7785 -0.0267 24.0558
#
#
#
# Elastic Compliance Matrix: (Units=1/GPa)
#
#
# Indices 1 2 3 4 5 6 
#
# 1 0.009545 -0.003510 -0.000671 0.000015 0.000940 -0.000016
# 2 -0.003510 0.019298 0.000361 -0.000018 -0.003079 0.000029
# 3 -0.000671 0.000361 0.012223 0.000009 0.004543 -0.000001
# 4 0.000015 -0.000018 0.000009 0.040070 -0.000023 0.001297
# 5 0.000940 -0.003079 0.004543 -0.000023 0.033748 0.000028
# 6 -0.000016 0.000029 -0.000001 0.001297 0.000028 0.041612
#
#
# Mechanical properties :
#
#
# Convention : Reuss Voigt Hill
#
# Bulk Modulus (GPa) = 29.91608 33.77350 31.84479
# Shear Modulus (GPa) = 28.52624 31.60982 30.06803
#
# Velocity S-wave (km/s) = 3.80835 4.00890 3.90991
# Velocity P-wave (km/s) = 5.87777 6.21287 6.04764
#
# Compressibility (1/GPa) = 0.03342683
#
# Stress axis : x y z
#
# Youngs Moduli (GPa) = 104.76929 51.81806 81.81493
#
# Poissons Ratio (x) = 0.18186 0.05486
# Poissons Ratio (y) = 0.36769 -0.02950
# Poissons Ratio (z) = 0.07025 -0.01869
#
# Static dielectric constant tensor:
#      x y z
#    x 3.208620 -0.000890 -0.236580 
#    y -0.000890 2.025860 0.000760 
#    z -0.236580 0.000760 3.934510 
# 
# 
# High freq. dielectric constant tensor:
#      x y z
#    x 1.771130 -0.000010 -0.016130 
#    y -0.000010 1.733710 0.000020 
#    z -0.016130 0.000020 1.784120 
# 
# From -- ./inp_files/164006.got.cif
#   From: 2010.06.25/outbox.cif.g09.slc.cpg/sg15_83_cif.got.tgz:164006.got - 2010.06.28 07:06:18.
