data_PCOD8145353
_publ_section_title
;
Structure prediction by ZEFSAII (Michael W. Deem and Ramdas Pophale) SiO2 
 PCOD8145353
Probable space group: C 2/C
;
_chemical_formula_sum "Si O2"
_cell_formula_units_Z 60
_cell_length_a 26.653074
_cell_length_b 21.573276
_cell_length_c 15.249714
_cell_angle_alpha 90.000000
_cell_angle_beta 161.006576
_cell_angle_gamma 90.000000
_cell_volume 2853.791455
_symmetry_space_group_name_H-M "C 2/C"
_symmetry_group_IT_number 15
_symmetry_cell_setting 'monoclinic'
loop_
_space_group_symop_operation_xyz
x,y,z
-x,y,1/2-z
-x,-y,-z
x,-y,1/2+z
1/2+x,1/2+y,z
1/2-x,1/2+y,1/2-z
1/2-x,1/2-y,-z
1/2+x,1/2-y,1/2+z
loop_
_atom_site_type_symbol
_atom_site_label
_atom_site_fract_x
_atom_site_fract_y
_atom_site_fract_z
Si Si1 0.060841 0.290845 0.021903
Si Si2 0.353967 0.456253 0.771028
Si Si3 0.500000 0.284147 0.250000
Si Si4 0.368887 0.650864 0.968712
Si Si5 0.489918 0.673199 0.989384
Si Si6 0.138965 0.988086 0.036036
Si Si7 0.255455 0.352283 0.948095
Si Si8 0.325726 0.005942 0.187606
O O1 0.205573 0.336278 0.245928
O O2 0.019193 0.262486 0.860611
O O3 0.097031 0.233154 0.146603
O O4 0.917600 0.327275 0.827738
O O5 0.303045 0.467171 0.788837
O O6 0.218957 0.474730 0.479478
O O7 0.500000 0.500000 0.000000
O O8 0.395013 0.385148 0.821369
O O9 0.653312 0.326753 0.487244
O O10 0.395789 0.686995 0.922687
O O11 0.400943 0.579646 0.991722
O O12 0.500000 0.674463 0.250000
O O13 0.356316 0.666979 0.697499
O O14 0.263261 0.970117 0.168788
O O15 0.000000 0.018949 0.750000
O O16 0.243837 0.425721 0.923955
O O17 0.500000 0.000000 0.500000
#
# Coordination Sequence:
#
# PCOD8145353 Si02
#       8
#     8   8   4   8   8   8   8   8
#     4  11  23  39  61  94 130 166 214 273 325 383
#     4  12  21  42  68  96 124 171 220 266 330 397
#     4  10  22  38  64  92 118 164 218 250 324 392
#     4  11  22  39  61  88 123 171 216 258 326 392
#     4  11  22  40  64  92 124 166 222 269 318 399
#     4  11  21  38  69  93 122 171 220 264 324 400
#     4  11  22  39  65  94 130 166 210 277 331 390
#     4  12  26  41  63 100 135 166 217 280 335 392
#
# _framework density 21.024660000000001
#
# number of rings (size 3 to 8) (size 9 to 14) (size 15 to 20)
#    0.000    0.800    4.000    4.800    4.667    1.067 
#    0.000    4.000    0.000    0.000    0.000    0.000 
#    0.000    0.000    0.000    0.000    0.000    0.000 
#
# Total GULP energy -371730.861873 kJ/mol
# GULP energy per Si atom -12391.028729 kJ/mol
# Density = 2.097681 g / cm^3
# Si number density = 21.024660 Si / 1000 Ang^3
#
#
#
# Elastic Constant Matrix: (Units=GPa)
#
#
# Indices 1 2 3 4 5 6 
#
# 1 125.3878 19.6529 41.7544 0.0000 1.3561 0.0000
# 2 19.6529 84.8198 20.9715 0.0000 3.0977 0.0000
# 3 41.7544 20.9715 117.8081 0.0000 5.1153 0.0000
# 4 0.0000 0.0000 0.0000 21.7048 0.0000 5.4085
# 5 1.3561 3.0977 5.1153 0.0000 33.8204 0.0000
# 6 0.0000 0.0000 0.0000 5.4085 0.0000 34.3382
#
#
#
# Elastic Compliance Matrix: (Units=1/GPa)
#
#
# Indices 1 2 3 4 5 6 
#
# 1 0.009197 -0.001392 -0.003021 0.000000 0.000216 0.000000
# 2 -0.001392 0.012565 -0.001707 0.000000 -0.000837 0.000000
# 3 -0.003021 -0.001707 0.009916 0.000000 -0.001222 0.000000
# 4 0.000000 0.000000 0.000000 0.047955 0.000000 -0.007553
# 5 0.000216 -0.000837 -0.001222 0.000000 0.029821 0.000000
# 6 0.000000 0.000000 0.000000 -0.007553 0.000000 0.030312
#
#
# Mechanical properties :
#
#
# Convention : Reuss Voigt Hill
#
# Bulk Modulus (GPa) = 51.44647 54.75258 53.09953
# Shear Modulus (GPa) = 31.54865 34.34848 32.94857
#
# Velocity S-wave (km/s) = 3.87790 4.04632 3.96301
# Velocity P-wave (km/s) = 6.67634 6.92307 6.80082
#
# Compressibility (1/GPa) = 0.01943768
#
# Stress axis : x y z
#
# Youngs Moduli (GPa) = 108.72880 79.58725 100.84531
#
# Poissons Ratio (x) = 0.11077 0.30469
# Poissons Ratio (y) = 0.15134 0.17215
# Poissons Ratio (z) = 0.32851 0.13586
#
# Static dielectric constant tensor:
#      x y z
#    x 4.073470 0.000000 -0.141180 
#    y 0.000000 4.831120 0.000000 
#    z -0.141180 0.000000 3.478650 
# 
# 
# High freq. dielectric constant tensor:
#      x y z
#    x 1.843810 0.000000 0.000770 
#    y 0.000000 1.827460 0.000000 
#    z 0.000770 0.000000 1.801160 
# 
# From -- ./inp_files/179120.got.cif
#   From: 2010.06.25/outbox.cif.g09.slc.cpg/sg15_90_cif.got.tgz:179120.got - 2010.06.28 07:06:18.
