data_PCOD8145668
_publ_section_title
;
Structure prediction by ZEFSAII (Michael W. Deem and Ramdas Pophale) SiO2 
 PCOD8145668
Probable space group: C 2/C
;
_chemical_formula_sum "Si O2"
_cell_formula_units_Z 52
_cell_length_a 25.694686
_cell_length_b 10.022566
_cell_length_c 9.221917
_cell_angle_alpha 90.000000
_cell_angle_beta 86.961500
_cell_angle_gamma 90.000000
_cell_volume 2371.550969
_symmetry_space_group_name_H-M "C 2/C"
_symmetry_group_IT_number 15
_symmetry_cell_setting 'monoclinic'
loop_
_space_group_symop_operation_xyz
x,y,z
-x,y,1/2-z
-x,-y,-z
x,-y,1/2+z
1/2+x,1/2+y,z
1/2-x,1/2+y,1/2-z
1/2-x,1/2-y,-z
1/2+x,1/2-y,1/2+z
loop_
_atom_site_type_symbol
_atom_site_label
_atom_site_fract_x
_atom_site_fract_y
_atom_site_fract_z
Si Si1 0.159241 0.569438 0.208612
Si Si2 0.085217 0.998908 0.874050
Si Si3 0.442222 0.103446 0.725082
Si Si4 0.500000 0.357924 0.250000
Si Si5 0.586672 0.236078 0.054121
Si Si6 0.700104 0.844548 0.018764
Si Si7 0.388444 0.667499 0.381359
O O1 0.102371 0.499824 0.222677
O O2 0.143412 0.696927 0.112429
O O3 0.180616 0.613789 0.361749
O O4 0.203090 0.480080 0.116869
O O5 0.112635 0.968814 0.714760
O O6 0.095140 0.871618 0.968552
O O7 0.024642 0.040104 0.863867
O O8 0.109855 0.127169 0.949997
O O9 0.500000 0.046487 0.750000
O O10 0.435170 0.125864 0.554216
O O11 0.436668 0.241698 0.818022
O O12 0.544447 0.260484 0.184845
O O13 0.750000 0.750000 0.000000
O O14 0.662585 0.755921 0.124413
#
# Coordination Sequence:
#
# PCOD8145668 Si02
#       7
#     8   8   8   4   8   8   8
#     4  11  24  49  69 104 137 170 233 289 342 429
#     4  11  22  39  59  93 140 180 231 274 323 388
#     4  10  22  39  64  94 144 189 225 271 340 408
#     4  12  22  34  60  98 138 194 234 262 320 402
#     4  11  23  37  62  95 140 185 230 280 331 395
#     4  11  26  50  76  98 131 175 226 299 364 409
#     4  10  23  40  63  94 135 177 230 282 331 403
#
# _framework density 21.926577999999999
#
# number of rings (size 3 to 8) (size 9 to 14) (size 15 to 20)
#    0.000    1.231    3.077    2.308    5.385    3.077 
#    0.000    0.769    0.000    0.000    0.000    0.000 
#    0.000    0.000    0.000    0.000    0.000    0.000 
#
# Total GULP energy -322108.701301 kJ/mol
# GULP energy per Si atom -12388.796204 kJ/mol
# Density = 2.187667 g / cm^3
# Si number density = 21.926578 Si / 1000 Ang^3
#
#
#
# Elastic Constant Matrix: (Units=GPa)
#
#
# Indices 1 2 3 4 5 6 
#
# 1 88.9830 37.3506 37.8809 0.0000 -4.7572 0.0000
# 2 37.3506 72.4009 36.0905 0.0000 2.9770 0.0000
# 3 37.8809 36.0905 111.7023 0.0000 12.5446 0.0000
# 4 0.0000 0.0000 0.0000 49.7630 0.0000 -0.5796
# 5 -4.7572 2.9770 12.5446 0.0000 27.2185 0.0000
# 6 0.0000 0.0000 0.0000 -0.5796 0.0000 42.9527
#
#
#
# Elastic Compliance Matrix: (Units=1/GPa)
#
#
# Indices 1 2 3 4 5 6 
#
# 1 0.015896 -0.006478 -0.003891 0.000000 0.005280 0.000000
# 2 -0.006478 0.019116 -0.003815 0.000000 -0.001465 0.000000
# 3 -0.003891 -0.003815 0.012163 0.000000 -0.005869 0.000000
# 4 0.000000 0.000000 0.000000 0.020098 0.000000 0.000271
# 5 0.005280 -0.001465 -0.005869 0.000000 0.040527 0.000000
# 6 0.000000 0.000000 0.000000 0.000271 0.000000 0.023285
#
#
# Mechanical properties :
#
#
# Convention : Reuss Voigt Hill
#
# Bulk Modulus (GPa) = 53.16900 55.08114 54.12507
# Shear Modulus (GPa) = 30.17093 34.77111 32.47102
#
# Velocity S-wave (km/s) = 3.71347 3.98653 3.85242
# Velocity P-wave (km/s) = 6.53359 6.80919 6.67281
#
# Compressibility (1/GPa) = 0.01880795
#
# Stress axis : x y z
#
# Youngs Moduli (GPa) = 62.90959 52.31263 82.21405
#
# Poissons Ratio (x) = 0.33889 0.31986
# Poissons Ratio (y) = 0.40754 0.31363
# Poissons Ratio (z) = 0.24475 0.19956
#
# Static dielectric constant tensor:
#      x y z
#    x 3.782200 0.000000 -0.317690 
#    y 0.000000 4.245330 0.000000 
#    z -0.317690 0.000000 4.990620 
# 
# 
# High freq. dielectric constant tensor:
#      x y z
#    x 1.813570 0.000000 0.002140 
#    y 0.000000 1.877810 0.000000 
#    z 0.002140 0.000000 1.882600 
# 
# From -- ./inp_files/65153.got.cif
#   From: 2010.06.25/outbox.cif.g09.slc.cpg/sg15_33_cif.got.tgz:65153.got - 2010.06.28 07:06:18.
