data_PCOD8145915
_publ_section_title
;
Structure prediction by ZEFSAII (Michael W. Deem and Ramdas Pophale) SiO2 
 PCOD8145915
Probable space group: C 2/C
;
_chemical_formula_sum "Si O2"
_cell_formula_units_Z 36
_cell_length_a 15.328676
_cell_length_b 23.419726
_cell_length_c 5.078045
_cell_angle_alpha 90.000000
_cell_angle_beta 58.464265
_cell_angle_gamma 90.000000
_cell_volume 1553.755513
_symmetry_space_group_name_H-M "C 2/C"
_symmetry_group_IT_number 15
_symmetry_cell_setting 'monoclinic'
loop_
_space_group_symop_operation_xyz
x,y,z
-x,y,1/2-z
-x,-y,-z
x,-y,1/2+z
1/2+x,1/2+y,z
1/2-x,1/2+y,1/2-z
1/2-x,1/2-y,-z
1/2+x,1/2-y,1/2+z
loop_
_atom_site_type_symbol
_atom_site_label
_atom_site_fract_x
_atom_site_fract_y
_atom_site_fract_z
Si Si1 0.777876 0.036177 0.024889
Si Si2 0.353260 0.278861 0.737101
Si Si3 0.000000 0.697181 0.750000
Si Si4 0.607738 0.117700 0.217171
Si Si5 0.182628 0.153462 0.725396
O O1 0.658299 0.056467 0.210964
O O2 0.800590 0.014332 0.282317
O O3 0.849302 0.090703 0.836139
O O4 0.449473 0.235864 0.601295
O O5 0.346570 0.299784 0.448583
O O6 0.250000 0.250000 0.000000
O O7 0.373166 0.331254 0.912850
O O8 0.089766 0.656637 0.500358
O O9 0.500000 0.106751 0.250000
O O10 0.693555 0.152701 0.913520
#
# Coordination Sequence:
#
# PCOD8145915 Si02
#       5
#     8   8   4   8   8
#     4  10  22  40  63  88 120 169 207 252 317 358
#     4  12  22  41  61  88 123 172 200 258 305 363
#     4  12  26  36  66  90 130 172 204 242 324 366
#     4  10  24  37  59  88 133 160 211 246 300 382
#     4  10  24  40  60  85 127 155 214 251 296 363
#
# _framework density 23.169668000000001
#
# number of rings (size 3 to 8) (size 9 to 14) (size 15 to 20)
#    1.333    0.000    2.222    3.333    6.222    0.889 
#    0.000    0.000    0.000    0.000    0.000   15.556 
#    0.000    0.000    0.000    0.000    0.000    0.000 
#
# Total GULP energy -223006.108517 kJ/mol
# GULP energy per Si atom -12389.228251 kJ/mol
# Density = 2.311693 g / cm^3
# Si number density = 23.169668 Si / 1000 Ang^3
#
#
#
# Elastic Constant Matrix: (Units=GPa)
#
#
# Indices 1 2 3 4 5 6 
#
# 1 34.4367 1.8504 -7.7532 0.0000 15.7006 0.0000
# 2 1.8504 82.9004 6.4908 0.0000 0.9147 0.0000
# 3 -7.7532 6.4908 55.6596 0.0000 6.2599 0.0000
# 4 0.0000 0.0000 0.0000 21.9917 0.0000 10.7910
# 5 15.7006 0.9147 6.2599 0.0000 19.0213 0.0000
# 6 0.0000 0.0000 0.0000 10.7910 0.0000 33.8845
#
#
#
# Elastic Compliance Matrix: (Units=1/GPa)
#
#
# Indices 1 2 3 4 5 6 
#
# 1 0.054701 -0.001723 0.013385 0.000000 -0.049473 0.000000
# 2 -0.001723 0.012228 -0.001828 0.000000 0.001436 0.000000
# 3 0.013385 -0.001828 0.022094 0.000000 -0.018231 0.000000
# 4 0.000000 0.000000 0.000000 0.053894 0.000000 -0.017163
# 5 -0.049473 0.001436 -0.018231 0.000000 0.099340 0.000000
# 6 0.000000 0.000000 0.000000 -0.017163 0.000000 0.034978
#
#
# Mechanical properties :
#
#
# Convention : Reuss Voigt Hill
#
# Bulk Modulus (GPa) = 9.20031 19.35253 14.27642
# Shear Modulus (GPa) = 17.01854 26.47341 21.74597
#
# Velocity S-wave (km/s) = 2.71314 3.38389 3.06691
# Velocity P-wave (km/s) = 3.71407 4.86192 4.32623
#
# Compressibility (1/GPa) = 0.10869198
#
# Stress axis : x y z
#
# Youngs Moduli (GPa) = 18.28122 81.77702 45.26039
#
# Poissons Ratio (x) = 0.14091 -0.60580
# Poissons Ratio (y) = 0.03150 0.08271
# Poissons Ratio (z) = -0.24469 0.14945
#
# Static dielectric constant tensor:
#      x y z
#    x 3.874230 0.000000 0.083800 
#    y 0.000000 4.278940 0.000000 
#    z 0.083800 0.000000 4.102690 
# 
# 
# High freq. dielectric constant tensor:
#      x y z
#    x 1.890410 0.000000 0.013690 
#    y 0.000000 1.918400 0.000000 
#    z 0.013690 0.000000 1.904180 
# 
# From -- ./inp_files/12748.got.cif
#   From: 2010.06.25/outbox.cif.g09.slc.cpg/sg15_7_cif.got.tgz:12748.got - 2010.06.28 07:06:18.
