data_PCOD8145492
_publ_section_title
;
Structure prediction by ZEFSAII (Michael W. Deem and Ramdas Pophale) SiO2 
 PCOD8145492
Probable space group: C 2/C
;
_chemical_formula_sum "Si O2"
_cell_formula_units_Z 48
_cell_length_a 27.604334
_cell_length_b 8.959245
_cell_length_c 10.036539
_cell_angle_alpha 90.000000
_cell_angle_beta 88.425552
_cell_angle_gamma 90.000000
_cell_volume 2481.239418
_symmetry_space_group_name_H-M "C 2/C"
_symmetry_group_IT_number 15
_symmetry_cell_setting 'monoclinic'
loop_
_space_group_symop_operation_xyz
x,y,z
-x,y,1/2-z
-x,-y,-z
x,-y,1/2+z
1/2+x,1/2+y,z
1/2-x,1/2+y,1/2-z
1/2-x,1/2-y,-z
1/2+x,1/2-y,1/2+z
loop_
_atom_site_type_symbol
_atom_site_label
_atom_site_fract_x
_atom_site_fract_y
_atom_site_fract_z
Si Si1 0.705722 0.612869 0.411598
Si Si2 0.897680 0.259049 0.783728
Si Si3 0.380023 0.173807 0.983920
Si Si4 0.813461 0.405302 0.950261
Si Si5 0.032584 0.493306 0.626325
Si Si6 0.348216 0.528375 0.347126
O O1 0.761948 0.575623 0.380655
O O2 0.694307 0.790101 0.425623
O O3 0.675055 0.543555 0.295824
O O4 0.692065 0.535434 0.551293
O O5 0.900793 0.278221 0.624893
O O6 0.849823 0.342506 0.837404
O O7 0.946471 0.326859 0.845978
O O8 0.893640 0.085362 0.826880
O O9 0.421967 0.100737 0.893047
O O10 0.365592 0.314999 0.899226
O O11 0.334390 0.061481 0.004966
O O12 0.000000 0.551501 0.750000
O O13 0.000000 0.500000 0.500000
#
# Coordination Sequence:
#
# PCOD8145492 Si02
#       6
#     8   8   8   8   8   8
#     4  10  22  39  58  90 132 167 216 255 300 361
#     4  10  22  42  61  91 130 156 207 261 309 369
#     4  11  23  39  66  92 123 164 209 252 319 368
#     4   9  23  37  60  90 126 170 215 261 296 356
#     4  11  23  43  70  95 119 153 202 257 312 384
#     4  11  23  40  61  90 129 172 201 254 316 361
#
# _framework density 19.345168999999999
#
# number of rings (size 3 to 8) (size 9 to 14) (size 15 to 20)
#    0.000    1.667    3.333    0.000    7.000    4.667 
#    0.000    1.667    0.000    0.000    0.000    0.000 
#    0.000    0.000    0.000    0.000    0.000    0.000 
#
# Total GULP energy -297604.263719 kJ/mol
# GULP energy per Si atom -12400.177655 kJ/mol
# Density = 1.930114 g / cm^3
# Si number density = 19.345169 Si / 1000 Ang^3
#
#
#
# Elastic Constant Matrix: (Units=GPa)
#
#
# Indices 1 2 3 4 5 6 
#
# 1 108.0257 50.9646 37.7186 0.0000 -0.2485 0.0000
# 2 50.9646 130.1248 33.3135 0.0000 6.7238 0.0000
# 3 37.7186 33.3135 106.8618 0.0000 4.6976 0.0000
# 4 0.0000 0.0000 0.0000 25.5186 0.0000 4.6202
# 5 -0.2485 6.7238 4.6976 0.0000 31.2082 0.0000
# 6 0.0000 0.0000 0.0000 4.6202 0.0000 22.7164
#
#
#
# Elastic Compliance Matrix: (Units=1/GPa)
#
#
# Indices 1 2 3 4 5 6 
#
# 1 0.012278 -0.004084 -0.003124 0.000000 0.001448 0.000000
# 2 -0.004084 0.009772 -0.001521 0.000000 -0.001909 0.000000
# 3 -0.003124 -0.001521 0.010994 0.000000 -0.001352 0.000000
# 4 0.000000 0.000000 0.000000 0.040685 0.000000 -0.008275
# 5 0.001448 -0.001909 -0.001352 0.000000 0.032669 0.000000
# 6 0.000000 0.000000 0.000000 -0.008275 0.000000 0.045704
#
#
# Mechanical properties :
#
#
# Convention : Reuss Voigt Hill
#
# Bulk Modulus (GPa) = 64.15875 65.44509 64.80192
# Shear Modulus (GPa) = 28.61118 30.75634 29.68376
#
# Velocity S-wave (km/s) = 3.84993 3.99165 3.92143
# Velocity P-wave (km/s) = 7.28010 7.42617 7.35350
#
# Compressibility (1/GPa) = 0.01558634
#
# Stress axis : x y z
#
# Youngs Moduli (GPa) = 81.44727 102.32870 90.95631
#
# Poissons Ratio (x) = 0.41788 0.28417
# Poissons Ratio (y) = 0.33261 0.13836
# Poissons Ratio (z) = 0.25446 0.15566
#
# Static dielectric constant tensor:
#      x y z
#    x 3.580900 0.000000 -0.093460 
#    y 0.000000 3.776680 0.000000 
#    z -0.093460 0.000000 3.475430 
# 
# 
# High freq. dielectric constant tensor:
#      x y z
#    x 1.748910 0.000000 -0.006160 
#    y 0.000000 1.754470 0.000000 
#    z -0.006160 0.000000 1.758600 
# 
# From -- ./inp_files/68604.got.cif
#   From: 2010.06.25/outbox.cif.g09.slc.cpg/sg15_35_cif.got.tgz:68604.got - 2010.06.28 07:06:18.
