data_PCOD8145204
_publ_section_title
;
Structure prediction by ZEFSAII (Michael W. Deem and Ramdas Pophale) SiO2 
 PCOD8145204
Probable space group: C 2/C
;
_chemical_formula_sum "Si O2"
_cell_formula_units_Z 52
_cell_length_a 11.074090
_cell_length_b 9.102534
_cell_length_c 27.794815
_cell_angle_alpha 90.000000
_cell_angle_beta 117.755517
_cell_angle_gamma 90.000000
_cell_volume 2479.415696
_symmetry_space_group_name_H-M "C 2/C"
_symmetry_group_IT_number 15
_symmetry_cell_setting 'monoclinic'
loop_
_space_group_symop_operation_xyz
x,y,z
-x,y,1/2-z
-x,-y,-z
x,-y,1/2+z
1/2+x,1/2+y,z
1/2-x,1/2+y,1/2-z
1/2-x,1/2-y,-z
1/2+x,1/2-y,1/2+z
loop_
_atom_site_type_symbol
_atom_site_label
_atom_site_fract_x
_atom_site_fract_y
_atom_site_fract_z
Si Si1 0.000000 0.874344 0.250000
Si Si2 0.083338 0.850106 0.520003
Si Si3 0.824510 0.143756 0.239177
Si Si4 0.937193 0.303849 0.170924
Si Si5 0.513768 0.869493 0.683202
Si Si6 0.893179 0.366484 0.562295
Si Si7 0.613026 0.807612 0.449780
O O1 0.943498 0.767815 0.197074
O O2 0.124379 0.976074 0.255770
O O3 0.071769 0.761421 0.468169
O O4 0.243764 0.866508 0.559530
O O5 0.020636 0.769137 0.554098
O O6 0.000000 0.000000 0.500000
O O7 0.835499 0.225888 0.189568
O O8 0.671016 0.135756 0.228492
O O9 0.913814 0.229586 0.295710
O O10 0.880834 0.281554 0.106440
O O11 0.945787 0.476277 0.185707
O O12 0.504276 0.847489 0.624468
O O13 0.906173 0.523167 0.539060
O O14 0.750000 0.750000 0.500000
#
# Coordination Sequence:
#
# PCOD8145204 Si02
#       7
#     4   8   8   8   8   8   8
#     4  10  22  38  58  94 116 156 208 238 308 362
#     4  11  23  42  61  86 129 158 206 257 302 370
#     4  10  22  41  60  88 127 158 198 254 305 366
#     4   9  22  41  60  92 123 160 207 246 307 372
#     4  11  22  38  65  86 121 159 201 252 303 363
#     4  10  25  41  59  95 119 165 209 247 314 372
#     4  11  22  41  67  90 122 168 206 256 314 361
#
# _framework density 20.972683
#
# number of rings (size 3 to 8) (size 9 to 14) (size 15 to 20)
#    0.000    1.846    1.538    2.308    2.154    6.154 
#    0.000    0.000    0.000    0.000    0.000    0.000 
#    0.000    0.000    0.000    0.000    0.000    0.000 
#
# Total GULP energy -322352.275323 kJ/mol
# GULP energy per Si atom -12398.164436 kJ/mol
# Density = 2.092495 g / cm^3
# Si number density = 20.972683 Si / 1000 Ang^3
#
#
#
# Elastic Constant Matrix: (Units=GPa)
#
#
# Indices 1 2 3 4 5 6 
#
# 1 54.1561 31.6420 20.5801 0.0000 -8.0188 0.0000
# 2 31.6420 163.7913 50.7391 0.0000 -9.5895 0.0000
# 3 20.5801 50.7391 110.5831 0.0000 0.0884 0.0000
# 4 0.0000 0.0000 0.0000 30.7129 0.0000 -7.9473
# 5 -8.0188 -9.5895 0.0884 0.0000 23.2970 0.0000
# 6 0.0000 0.0000 0.0000 -7.9473 0.0000 28.7775
#
#
#
# Elastic Compliance Matrix: (Units=1/GPa)
#
#
# Indices 1 2 3 4 5 6 
#
# 1 0.022250 -0.003076 -0.002734 0.000000 0.006402 0.000000
# 2 -0.003076 0.007750 -0.002985 0.000000 0.002142 0.000000
# 3 -0.002734 -0.002985 0.010923 0.000000 -0.002211 0.000000
# 4 0.000000 0.000000 0.000000 0.035065 0.000000 0.009684
# 5 0.006402 0.002142 -0.002211 0.000000 0.046018 0.000000
# 6 0.000000 0.000000 0.000000 0.009684 0.000000 0.037424
#
#
# Mechanical properties :
#
#
# Convention : Reuss Voigt Hill
#
# Bulk Modulus (GPa) = 42.86118 59.38364 51.12241
# Shear Modulus (GPa) = 27.05653 31.59544 29.32598
#
# Velocity S-wave (km/s) = 3.59567 3.88558 3.74343
# Velocity P-wave (km/s) = 6.14162 6.96466 6.56605
#
# Compressibility (1/GPa) = 0.02333114
#
# Stress axis : x y z
#
# Youngs Moduli (GPa) = 44.94444 129.03605 91.54788
#
# Poissons Ratio (x) = 0.39697 0.25032
# Poissons Ratio (y) = 0.13827 0.27327
# Poissons Ratio (z) = 0.12289 0.38518
#
# Static dielectric constant tensor:
#      x y z
#    x 3.613020 0.000000 0.009030 
#    y 0.000000 4.025170 0.000000 
#    z 0.009030 0.000000 3.685430 
# 
# 
# High freq. dielectric constant tensor:
#      x y z
#    x 1.814930 0.000000 -0.001050 
#    y 0.000000 1.842300 0.000000 
#    z -0.001050 0.000000 1.818470 
# 
# From -- ./inp_files/310089.got.cif
#   From: 2010.06.25/outbox.cif.g09.slc.cpg/sg15_156_cif.got.tgz:310089.got - 2010.06.28 07:06:18.
