data_PCOD8145842
_publ_section_title
;
Structure prediction by ZEFSAII (Michael W. Deem and Ramdas Pophale) SiO2 
 PCOD8145842
Probable space group: C 2/C
;
_chemical_formula_sum "Si O2"
_cell_formula_units_Z 60
_cell_length_a 8.076493
_cell_length_b 19.216052
_cell_length_c 20.213466
_cell_angle_alpha 90.000000
_cell_angle_beta 98.646329
_cell_angle_gamma 90.000000
_cell_volume 3101.443112
_symmetry_space_group_name_H-M "C 2/C"
_symmetry_group_IT_number 15
_symmetry_cell_setting 'monoclinic'
loop_
_space_group_symop_operation_xyz
x,y,z
-x,y,1/2-z
-x,-y,-z
x,-y,1/2+z
1/2+x,1/2+y,z
1/2-x,1/2+y,1/2-z
1/2-x,1/2-y,-z
1/2+x,1/2-y,1/2+z
loop_
_atom_site_type_symbol
_atom_site_label
_atom_site_fract_x
_atom_site_fract_y
_atom_site_fract_z
Si Si1 0.986098 0.880427 0.176464
Si Si2 0.625094 0.174023 0.626296
Si Si3 0.359156 0.759590 0.792718
Si Si4 0.500000 0.226199 0.750000
Si Si5 0.990518 0.794865 0.534159
Si Si6 0.552977 0.569833 0.538977
Si Si7 0.936979 0.427377 0.024116
Si Si8 0.847415 0.687521 0.427196
O O1 0.812501 0.837524 0.162630
O O2 0.000000 0.918970 0.250000
O O3 0.129426 0.821388 0.184425
O O4 0.007599 0.931834 0.114977
O O5 0.502101 0.181408 0.682183
O O6 0.623627 0.243700 0.578634
O O7 0.565867 0.104703 0.584631
O O8 0.500000 0.781381 0.750000
O O9 0.399429 0.810693 0.854853
O O10 0.169008 0.772796 0.756497
O O11 0.051880 0.867343 0.503641
O O12 0.904638 0.756752 0.467783
O O13 0.853818 0.816249 0.580571
O O14 0.500000 0.500000 0.500000
O O15 0.752777 0.575379 0.544896
O O16 0.939185 0.379785 0.959854
O O17 0.000000 0.500000 0.000000
#
# Coordination Sequence:
#
# PCOD8145842 Si02
#       8
#     8   8   8   4   8   8   8   8
#     4  11  22  37  57  94 123 152 200 252 304 369
#     4  11  21  35  62  88 117 157 197 254 297 364
#     4  11  20  35  56  91 123 154 194 246 303 361
#     4  12  20  34  58  90 124 160 196 242 302 364
#     4   9  18  33  58  88 110 152 197 236 306 348
#     4  11  22  39  61  85 124 163 199 255 301 362
#     4  10  22  40  61  87 114 156 207 250 306 358
#     4   9  17  34  60  82 118 146 188 255 291 347
#
# _framework density 19.345832000000001
#
# number of rings (size 3 to 8) (size 9 to 14) (size 15 to 20)
#    0.000    1.600    5.333    2.400    0.000    0.533 
#    2.400    0.000    2.933    1.600    0.000    0.000 
#    0.000    0.000    0.000    0.000    0.000    0.000 
#
# Total GULP energy -371719.498074 kJ/mol
# GULP energy per Si atom -12390.649936 kJ/mol
# Density = 1.930180 g / cm^3
# Si number density = 19.345832 Si / 1000 Ang^3
#
#
#
# Elastic Constant Matrix: (Units=GPa)
#
#
# Indices 1 2 3 4 5 6 
#
# 1 92.0390 17.8863 49.9323 0.0000 -3.0315 0.0000
# 2 17.8863 101.5814 54.0301 0.0000 -7.1686 0.0000
# 3 49.9323 54.0301 153.6341 0.0000 -22.4424 0.0000
# 4 0.0000 0.0000 0.0000 24.4382 0.0000 -2.9551
# 5 -3.0315 -7.1686 -22.4424 0.0000 37.1048 0.0000
# 6 0.0000 0.0000 0.0000 -2.9551 0.0000 17.5983
#
#
#
# Elastic Compliance Matrix: (Units=1/GPa)
#
#
# Indices 1 2 3 4 5 6 
#
# 1 0.013285 -0.000038 -0.004549 0.000000 -0.001673 0.000000
# 2 -0.000038 0.012112 -0.004284 0.000000 -0.000254 0.000000
# 3 -0.004549 -0.004284 0.010222 0.000000 0.004983 0.000000
# 4 0.000000 0.000000 0.000000 0.041768 0.000000 0.007014
# 5 -0.001673 -0.000254 0.004983 0.000000 0.029779 0.000000
# 6 0.000000 0.000000 0.000000 0.007014 0.000000 0.058001
#
#
# Mechanical properties :
#
#
# Convention : Reuss Voigt Hill
#
# Bulk Modulus (GPa) = 55.93832 65.66133 60.79982
# Shear Modulus (GPa) = 26.47354 30.85532 28.66443
#
# Velocity S-wave (km/s) = 3.70325 3.99799 3.85344
# Velocity P-wave (km/s) = 6.87482 7.43817 7.16204
#
# Compressibility (1/GPa) = 0.01787683
#
# Stress axis : x y z
#
# Youngs Moduli (GPa) = 75.27290 82.56388 97.82761
#
# Poissons Ratio (x) = 0.00312 0.44500
# Poissons Ratio (y) = 0.00285 0.41913
# Poissons Ratio (z) = 0.34241 0.35373
#
# Static dielectric constant tensor:
#      x y z
#    x 3.554690 0.000000 -0.055110 
#    y 0.000000 3.283200 0.000000 
#    z -0.055110 0.000000 3.753970 
# 
# 
# High freq. dielectric constant tensor:
#      x y z
#    x 1.757120 0.000000 -0.004230 
#    y 0.000000 1.708570 0.000000 
#    z -0.004230 0.000000 1.767630 
# 
# From -- ./inp_files/232748.got.cif
#   From: 2010.06.25/outbox.cif.g09.slc.cpg/sg15_117_cif.got.tgz:232748.got - 2010.06.28 07:06:18.
