data_PCOD8145694
_publ_section_title
;
Structure prediction by ZEFSAII (Michael W. Deem and Ramdas Pophale) SiO2 
 PCOD8145694
Probable space group: C 2/C
;
_chemical_formula_sum "Si O2"
_cell_formula_units_Z 52
_cell_length_a 17.204193
_cell_length_b 19.009831
_cell_length_c 9.471422
_cell_angle_alpha 90.000000
_cell_angle_beta 50.026721
_cell_angle_gamma 90.000000
_cell_volume 2373.840788
_symmetry_space_group_name_H-M "C 2/C"
_symmetry_group_IT_number 15
_symmetry_cell_setting 'monoclinic'
loop_
_space_group_symop_operation_xyz
x,y,z
-x,y,1/2-z
-x,-y,-z
x,-y,1/2+z
1/2+x,1/2+y,z
1/2-x,1/2+y,1/2-z
1/2-x,1/2-y,-z
1/2+x,1/2-y,1/2+z
loop_
_atom_site_type_symbol
_atom_site_label
_atom_site_fract_x
_atom_site_fract_y
_atom_site_fract_z
Si Si1 0.216382 0.349929 0.497864
Si Si2 0.339845 0.867039 0.617346
Si Si3 0.744430 0.515045 0.715376
Si Si4 0.893902 0.786436 0.431109
Si Si5 0.887772 0.038674 0.360582
Si Si6 0.500000 0.797405 0.250000
Si Si7 0.135959 0.183824 0.233696
O O1 0.159566 0.354046 0.715104
O O2 0.199955 0.416233 0.413649
O O3 0.175082 0.282518 0.461360
O O4 0.336487 0.339453 0.390396
O O5 0.450137 0.846441 0.428891
O O6 0.256717 0.819533 0.629117
O O7 0.322302 0.950166 0.614135
O O8 0.644471 0.498792 0.744305
O O9 0.700946 0.523666 0.923012
O O10 0.915899 0.825908 0.552617
O O11 0.000000 0.760725 0.250000
O O12 0.895782 0.122302 0.334706
O O13 0.000000 0.007320 0.250000
O O14 0.592719 0.753936 0.211351
#
# Coordination Sequence:
#
# PCOD8145694 Si02
#       7
#     8   8   8   8   8   4   8
#     4  10  22  42  64  91 135 170 209 274 330 383
#     4  10  23  43  63  98 129 172 222 262 329 393
#     4  11  23  42  64  92 136 174 212 271 323 393
#     4  10  22  39  65  97 127 170 221 267 328 391
#     4  11  23  40  66  96 130 172 219 265 333 393
#     4  12  22  42  72  90 132 172 218 282 320 384
#     4  10  23  40  64 101 128 166 219 278 328 382
#
# _framework density 21.905428000000001
#
# number of rings (size 3 to 8) (size 9 to 14) (size 15 to 20)
#    0.000    1.538    2.308    1.846    2.154    6.769 
#    1.385    0.769    0.000    0.000    0.000    0.000 
#    0.000    0.000    0.000    0.000    0.000    0.000 
#
# Total GULP energy -322251.510810 kJ/mol
# GULP energy per Si atom -12394.288877 kJ/mol
# Density = 2.185557 g / cm^3
# Si number density = 21.905428 Si / 1000 Ang^3
#
#
#
# Elastic Constant Matrix: (Units=GPa)
#
#
# Indices 1 2 3 4 5 6 
#
# 1 32.1222 15.0781 20.6550 0.0000 9.2546 0.0000
# 2 15.0781 109.3934 37.0321 0.0000 -4.1177 0.0000
# 3 20.6550 37.0321 92.0644 0.0000 -9.6983 0.0000
# 4 0.0000 0.0000 0.0000 33.9674 0.0000 6.4157
# 5 9.2546 -4.1177 -9.6983 0.0000 23.5785 0.0000
# 6 0.0000 0.0000 0.0000 6.4157 0.0000 17.3875
#
#
#
# Elastic Compliance Matrix: (Units=1/GPa)
#
#
# Indices 1 2 3 4 5 6 
#
# 1 0.047181 -0.003435 -0.011726 0.000000 -0.023942 0.000000
# 2 -0.003435 0.010833 -0.003392 0.000000 0.001845 0.000000
# 3 -0.011726 -0.003392 0.015972 0.000000 0.010579 0.000000
# 4 0.000000 0.000000 0.000000 0.031645 0.000000 -0.011677
# 5 -0.023942 0.001845 0.010579 0.000000 0.056482 0.000000
# 6 0.000000 0.000000 0.000000 -0.011677 0.000000 0.061821
#
#
# Mechanical properties :
#
#
# Convention : Reuss Voigt Hill
#
# Bulk Modulus (GPa) = 27.11539 42.12336 34.61938
# Shear Modulus (GPa) = 18.29268 25.70766 22.00017
#
# Velocity S-wave (km/s) = 2.89290 3.42946 3.17255
# Velocity P-wave (km/s) = 4.85425 5.91211 5.40910
#
# Compressibility (1/GPa) = 0.03687942
#
# Stress axis : x y z
#
# Youngs Moduli (GPa) = 21.19495 92.31404 62.61079
#
# Poissons Ratio (x) = 0.31709 0.73415
# Poissons Ratio (y) = 0.07280 0.21240
# Poissons Ratio (z) = 0.24853 0.31316
#
# Static dielectric constant tensor:
#      x y z
#    x 3.885680 0.000000 0.167370 
#    y 0.000000 3.964510 0.000000 
#    z 0.167370 0.000000 3.787000 
# 
# 
# High freq. dielectric constant tensor:
#      x y z
#    x 1.853050 0.000000 0.013050 
#    y 0.000000 1.860910 0.000000 
#    z 0.013050 0.000000 1.856660 
# 
# From -- ./inp_files/50565.got.cif
#   From: 2010.06.25/outbox.cif.g09.slc.cpg/sg15_26_cif.got.tgz:50565.got - 2010.06.28 07:06:18.
