data_PCOD8145207
_publ_section_title
;
Structure prediction by ZEFSAII (Michael W. Deem and Ramdas Pophale) SiO2 
 PCOD8145207
Probable space group: C 2/C
;
_chemical_formula_sum "Si O2"
_cell_formula_units_Z 36
_cell_length_a 11.388156
_cell_length_b 8.483284
_cell_length_c 17.328215
_cell_angle_alpha 90.000000
_cell_angle_beta 115.756805
_cell_angle_gamma 90.000000
_cell_volume 1507.737276
_symmetry_space_group_name_H-M "C 2/C"
_symmetry_group_IT_number 15
_symmetry_cell_setting 'monoclinic'
loop_
_space_group_symop_operation_xyz
x,y,z
-x,y,1/2-z
-x,-y,-z
x,-y,1/2+z
1/2+x,1/2+y,z
1/2-x,1/2+y,1/2-z
1/2-x,1/2-y,-z
1/2+x,1/2-y,1/2+z
loop_
_atom_site_type_symbol
_atom_site_label
_atom_site_fract_x
_atom_site_fract_y
_atom_site_fract_z
Si Si1 0.455823 0.733591 0.395846
Si Si2 0.318749 0.142913 0.119251
Si Si3 0.916111 0.025509 0.651534
Si Si4 0.500000 0.088417 0.750000
Si Si5 0.815369 0.595628 0.484318
O O1 0.311473 0.719355 0.384734
O O2 0.520275 0.559577 0.405637
O O3 0.532162 0.851835 0.478204
O O4 0.461600 0.808265 0.312394
O O5 0.419507 0.287686 0.137341
O O6 0.374646 0.018728 0.196262
O O7 0.294657 0.058672 0.031353
O O8 0.000000 0.981372 0.750000
O O9 0.765943 0.953909 0.616215
O O10 0.750000 0.750000 0.500000
#
# Coordination Sequence:
#
# PCOD8145207 Si02
#       5
#     8   8   8   4   8
#     4  10  23  41  65  91 128 175 209 262 325 377
#     4  11  23  40  66  95 125 174 214 259 323 379
#     4  11  22  41  64  96 129 162 215 270 310 377
#     4  10  22  38  58  94 132 160 218 268 310 380
#     4   9  22  44  64  93 135 167 212 265 314 384
#
# _framework density 23.876840000000001
#
# number of rings (size 3 to 8) (size 9 to 14) (size 15 to 20)
#    0.000    1.778    2.222    0.667    3.111    4.444 
#    0.000   13.333    0.000    0.000    0.000    0.000 
#    0.000    0.000    0.000    0.000    0.000    0.000 
#
# Total GULP energy -223036.812822 kJ/mol
# GULP energy per Si atom -12390.934046 kJ/mol
# Density = 2.382249 g / cm^3
# Si number density = 23.876840 Si / 1000 Ang^3
#
#
#
# Elastic Constant Matrix: (Units=GPa)
#
#
# Indices 1 2 3 4 5 6 
#
# 1 106.5277 43.0090 50.2536 0.0000 17.3703 0.0000
# 2 43.0090 150.2783 38.9597 0.0000 3.0017 0.0000
# 3 50.2536 38.9597 118.0324 0.0000 39.5462 0.0000
# 4 0.0000 0.0000 0.0000 22.8624 0.0000 20.8764
# 5 17.3703 3.0017 39.5462 0.0000 33.3920 0.0000
# 6 0.0000 0.0000 0.0000 20.8764 0.0000 25.6754
#
#
#
# Elastic Compliance Matrix: (Units=1/GPa)
#
#
# Indices 1 2 3 4 5 6 
#
# 1 0.012541 -0.002528 -0.003971 0.000000 -0.001593 0.000000
# 2 -0.002528 0.008062 -0.002955 0.000000 0.004090 0.000000
# 3 -0.003971 -0.002955 0.017171 0.000000 -0.018004 0.000000
# 4 0.000000 0.000000 0.000000 0.169835 0.000000 -0.138091
# 5 -0.001593 0.004090 -0.018004 0.000000 0.051730 0.000000
# 6 0.000000 0.000000 0.000000 -0.138091 0.000000 0.151228
#
#
# Mechanical properties :
#
#
# Convention : Reuss Voigt Hill
#
# Bulk Modulus (GPa) = 53.00804 71.03145 62.01974
# Shear Modulus (GPa) = 11.47408 32.56037 22.01722
#
# Velocity S-wave (km/s) = 2.19453 3.69681 3.03993
# Velocity P-wave (km/s) = 5.35445 6.93077 6.19297
#
# Compressibility (1/GPa) = 0.01886506
#
# Stress axis : x y z
#
# Youngs Moduli (GPa) = 79.73839 124.03505 58.23915
#
# Poissons Ratio (x) = 0.31354 0.23128
# Poissons Ratio (y) = 0.20156 0.17212
# Poissons Ratio (z) = 0.31666 0.36656
#
# Static dielectric constant tensor:
#      x y z
#    x 4.152870 0.000000 0.678940 
#    y 0.000000 4.787140 0.000000 
#    z 0.678940 0.000000 4.544040 
# 
# 
# High freq. dielectric constant tensor:
#      x y z
#    x 1.914650 0.000000 0.044420 
#    y 0.000000 1.986160 0.000000 
#    z 0.044420 0.000000 1.942530 
# 
# From -- ./inp_files/194897.got.cif
#   From: 2010.06.25/outbox.cif.g09.slc.cpg/sg15_98_cif.got.tgz:194897.got - 2010.06.28 07:06:18.
