data_PCOD8145864
_publ_section_title
;
Structure prediction by ZEFSAII (Michael W. Deem and Ramdas Pophale) SiO2 
 PCOD8145864
Probable space group: C 2/C
;
_chemical_formula_sum "Si O2"
_cell_formula_units_Z 64
_cell_length_a 16.324830
_cell_length_b 16.400615
_cell_length_c 16.045934
_cell_angle_alpha 90.000000
_cell_angle_beta 138.647866
_cell_angle_gamma 90.000000
_cell_volume 2838.364946
_symmetry_space_group_name_H-M "C 2/C"
_symmetry_group_IT_number 15
_symmetry_cell_setting 'monoclinic'
loop_
_space_group_symop_operation_xyz
x,y,z
-x,y,1/2-z
-x,-y,-z
x,-y,1/2+z
1/2+x,1/2+y,z
1/2-x,1/2+y,1/2-z
1/2-x,1/2-y,-z
1/2+x,1/2-y,1/2+z
loop_
_atom_site_type_symbol
_atom_site_label
_atom_site_fract_x
_atom_site_fract_y
_atom_site_fract_z
Si Si1 0.697582 0.729123 0.753532
Si Si2 0.097307 0.790785 0.714796
Si Si3 0.228748 0.876287 0.583512
Si Si4 0.755349 0.552229 0.642608
Si Si5 0.500185 0.876314 0.158444
Si Si6 0.765955 0.085804 0.064715
Si Si7 0.646465 0.405554 0.345288
Si Si8 0.524780 0.635261 0.524190
O O1 0.812813 0.744737 0.781648
O O2 0.693210 0.802554 0.816925
O O3 0.695217 0.643205 0.801944
O O4 0.578644 0.721995 0.601091
O O5 0.001881 0.721652 0.671566
O O6 0.160826 0.837115 0.840553
O O7 0.021926 0.857836 0.605850
O O8 0.227595 0.868511 0.483119
O O9 0.085920 0.889351 0.500147
O O10 0.294529 0.958595 0.663464
O O11 0.869170 0.593312 0.780522
O O12 0.730072 0.593520 0.532536
O O13 0.632928 0.566679 0.605607
O O14 0.500000 0.917082 0.250000
O O15 0.378126 0.905972 0.015311
O O16 0.823894 0.001654 0.142595
O O17 0.500000 0.393167 0.250000
#
# Coordination Sequence:
#
# PCOD8145864 Si02
#       8
#     8   8   8   8   8   8   8   8
#     4  11  23  43  63  97 133 171 224 281 336 396
#     4  11  24  40  65  97 135 178 219 269 339 401
#     4  10  23  42  66  96 132 173 227 285 341 394
#     4  10  22  41  66  98 133 179 224 274 339 401
#     4  10  22  40  61  91 135 169 219 269 324 406
#     4  10  25  42  66  99 134 180 225 274 342 397
#     4  11  23  44  72  98 130 173 235 285 333 404
#     4  11  22  38  65  96 134 170 223 278 329 398
#
# _framework density 22.548192
#
# number of rings (size 3 to 8) (size 9 to 14) (size 15 to 20)
#    0.000    1.500    2.500    1.500    5.250    3.000 
#    4.500    2.500    0.000    0.000    0.000    0.000 
#    0.000    0.000    0.000    0.000    0.000    0.000 
#
# Total GULP energy -396493.187111 kJ/mol
# GULP energy per Si atom -12390.412097 kJ/mol
# Density = 2.249687 g / cm^3
# Si number density = 22.548192 Si / 1000 Ang^3
#
#
#
# Elastic Constant Matrix: (Units=GPa)
#
#
# Indices 1 2 3 4 5 6 
#
# 1 50.1460 21.7238 7.0785 0.0000 -3.3113 0.0000
# 2 21.7238 107.2897 38.0695 0.0000 -5.5638 0.0000
# 3 7.0785 38.0695 87.5542 0.0000 -3.7163 0.0000
# 4 0.0000 0.0000 0.0000 29.5041 0.0000 6.8929
# 5 -3.3113 -5.5638 -3.7163 0.0000 23.7746 0.0000
# 6 0.0000 0.0000 0.0000 6.8929 0.0000 16.9830
#
#
#
# Elastic Compliance Matrix: (Units=1/GPa)
#
#
# Indices 1 2 3 4 5 6 
#
# 1 0.021961 -0.004423 0.000235 0.000000 0.002060 0.000000
# 2 -0.004423 0.011993 -0.004796 0.000000 0.001441 0.000000
# 3 0.000235 -0.004796 0.013531 0.000000 0.001026 0.000000
# 4 0.000000 0.000000 0.000000 0.037444 0.000000 -0.015198
# 5 0.002060 0.001441 0.001026 0.000000 0.042846 0.000000
# 6 0.000000 0.000000 0.000000 -0.015198 0.000000 0.065051
#
#
# Mechanical properties :
#
#
# Convention : Reuss Voigt Hill
#
# Bulk Modulus (GPa) = 33.87855 42.08152 37.98003
# Shear Modulus (GPa) = 22.66214 25.92686 24.29450
#
# Velocity S-wave (km/s) = 3.17370 3.39461 3.28601
# Velocity P-wave (km/s) = 5.33736 5.83678 5.59264
#
# Compressibility (1/GPa) = 0.02951720
#
# Stress axis : x y z
#
# Youngs Moduli (GPa) = 45.53569 83.38519 73.90301
#
# Poissons Ratio (x) = 0.36883 -0.01738
# Poissons Ratio (y) = 0.20141 0.35442
# Poissons Ratio (z) = -0.01071 0.39989
#
# Static dielectric constant tensor:
#      x y z
#    x 4.035560 0.000000 0.041070 
#    y 0.000000 4.026440 0.000000 
#    z 0.041070 0.000000 4.264370 
# 
# 
# High freq. dielectric constant tensor:
#      x y z
#    x 1.883020 0.000000 -0.002190 
#    y 0.000000 1.882390 0.000000 
#    z -0.002190 0.000000 1.890920 
# 
# From -- ./inp_files/211410.got.cif
#   From: 2010.06.25/outbox.cif.g09.slc.cpg/sg15_106_cif.got.tgz:211410.got - 2010.06.28 07:06:18.
