data_PCOD8145521
_publ_section_title
;
Structure prediction by ZEFSAII (Michael W. Deem and Ramdas Pophale) SiO2 
 PCOD8145521
Probable space group: C 2/C
;
_chemical_formula_sum "Si O2"
_cell_formula_units_Z 48
_cell_length_a 14.309777
_cell_length_b 16.793232
_cell_length_c 11.486294
_cell_angle_alpha 90.000000
_cell_angle_beta 55.953049
_cell_angle_gamma 90.000000
_cell_volume 2287.078322
_symmetry_space_group_name_H-M "C 2/C"
_symmetry_group_IT_number 15
_symmetry_cell_setting 'monoclinic'
loop_
_space_group_symop_operation_xyz
x,y,z
-x,y,1/2-z
-x,-y,-z
x,-y,1/2+z
1/2+x,1/2+y,z
1/2-x,1/2+y,1/2-z
1/2-x,1/2-y,-z
1/2+x,1/2-y,1/2+z
loop_
_atom_site_type_symbol
_atom_site_label
_atom_site_fract_x
_atom_site_fract_y
_atom_site_fract_z
Si Si1 0.563190 0.415587 0.446467
Si Si2 0.621265 0.401493 0.655460
Si Si3 0.735485 0.985423 0.302011
Si Si4 0.569233 0.131969 0.017574
Si Si5 0.333583 0.878260 0.795651
Si Si6 0.881959 0.796665 0.624550
O O1 0.500000 0.500000 0.500000
O O2 0.633504 0.384274 0.510626
O O3 0.662167 0.421639 0.281385
O O4 0.467932 0.349762 0.485262
O O5 0.500000 0.447849 0.750000
O O6 0.727165 0.453303 0.623302
O O7 0.609082 0.322032 0.745335
O O8 0.617449 0.945133 0.417573
O O9 0.721782 0.034645 0.190087
O O10 0.633505 0.136728 0.095028
O O11 0.436982 0.125848 0.133017
O O12 0.589687 0.205197 0.916491
O O13 0.245477 0.809159 0.828747
#
# Coordination Sequence:
#
# PCOD8145521 Si02
#       6
#     8   8   8   8   8   8
#     4  11  19  37  64  94 120 157 202 251 304 357
#     4   9  18  36  61  88 125 150 198 260 293 351
#     4  11  21  36  66  91 123 161 206 244 312 368
#     4  11  24  38  63  87 125 167 201 253 316 365
#     4  10  22  43  58  87 129 158 209 257 294 373
#     4  10  22  39  60  88 127 158 202 254 308 355
#
# _framework density 20.987475
#
# number of rings (size 3 to 8) (size 9 to 14) (size 15 to 20)
#    0.000    1.667    5.000    2.000    2.333    0.000 
#    0.000    0.833   33.000    0.000    0.000    0.000 
#    0.000    0.000    0.000    0.000    0.000    0.000 
#
# Total GULP energy -297374.848549 kJ/mol
# GULP energy per Si atom -12390.618690 kJ/mol
# Density = 2.093971 g / cm^3
# Si number density = 20.987475 Si / 1000 Ang^3
#
#
#
# Elastic Constant Matrix: (Units=GPa)
#
#
# Indices 1 2 3 4 5 6 
#
# 1 93.2661 24.9807 20.5584 0.0000 -4.2337 0.0000
# 2 24.9807 89.7011 19.7682 0.0000 2.7425 0.0000
# 3 20.5584 19.7682 69.3162 0.0000 -4.1262 0.0000
# 4 0.0000 0.0000 0.0000 30.2047 0.0000 -2.6890
# 5 -4.2337 2.7425 -4.1262 0.0000 34.4549 0.0000
# 6 0.0000 0.0000 0.0000 -2.6890 0.0000 19.6192
#
#
#
# Elastic Compliance Matrix: (Units=1/GPa)
#
#
# Indices 1 2 3 4 5 6 
#
# 1 0.012140 -0.002826 -0.002712 0.000000 0.001392 0.000000
# 2 -0.002826 0.012617 -0.002861 0.000000 -0.001694 0.000000
# 3 -0.002712 -0.002861 0.016156 0.000000 0.001829 0.000000
# 4 0.000000 0.000000 0.000000 0.033516 0.000000 0.004594
# 5 0.001392 -0.001694 0.001829 0.000000 0.029548 0.000000
# 6 0.000000 0.000000 0.000000 0.004594 0.000000 0.051600
#
#
# Mechanical properties :
#
#
# Convention : Reuss Voigt Hill
#
# Bulk Modulus (GPa) = 41.46677 42.54423 42.00550
# Shear Modulus (GPa) = 27.71408 29.32084 28.51746
#
# Velocity S-wave (km/s) = 3.63782 3.74179 3.69017
# Velocity P-wave (km/s) = 6.11929 6.24365 6.18179
#
# Compressibility (1/GPa) = 0.02411570
#
# Stress axis : x y z
#
# Youngs Moduli (GPa) = 82.37372 79.25570 61.89733
#
# Poissons Ratio (x) = 0.22396 0.16785
# Poissons Ratio (y) = 0.23277 0.17709
# Poissons Ratio (z) = 0.22338 0.22676
#
# Static dielectric constant tensor:
#      x y z
#    x 4.059210 0.000000 -0.079860 
#    y 0.000000 3.517620 0.000000 
#    z -0.079860 0.000000 4.016060 
# 
# 
# High freq. dielectric constant tensor:
#      x y z
#    x 1.835590 0.000000 -0.011910 
#    y 0.000000 1.791940 0.000000 
#    z -0.011910 0.000000 1.811540 
# 
# From -- ./inp_files/96853.got.cif
#   From: 2010.06.25/outbox.cif.g09.slc.cpg/sg15_49_cif.got.tgz:96853.got - 2010.06.28 07:06:18.
