data_PCOD8145567
_publ_section_title
;
Structure prediction by ZEFSAII (Michael W. Deem and Ramdas Pophale) SiO2 
 PCOD8145567
Probable space group: C 2/C
;
_chemical_formula_sum "Si O2"
_cell_formula_units_Z 48
_cell_length_a 16.212547
_cell_length_b 29.635703
_cell_length_c 8.525634
_cell_angle_alpha 90.000000
_cell_angle_beta 143.940455
_cell_angle_gamma 90.000000
_cell_volume 2411.195333
_symmetry_space_group_name_H-M "C 2/C"
_symmetry_group_IT_number 15
_symmetry_cell_setting 'monoclinic'
loop_
_space_group_symop_operation_xyz
x,y,z
-x,y,1/2-z
-x,-y,-z
x,-y,1/2+z
1/2+x,1/2+y,z
1/2-x,1/2+y,1/2-z
1/2-x,1/2-y,-z
1/2+x,1/2-y,1/2+z
loop_
_atom_site_type_symbol
_atom_site_label
_atom_site_fract_x
_atom_site_fract_y
_atom_site_fract_z
Si Si1 0.152309 0.052230 0.045805
Si Si2 0.349511 0.457276 0.589360
Si Si3 0.351192 0.126277 0.220674
Si Si4 0.084643 0.281182 0.543924
Si Si5 0.325098 0.877252 0.321435
Si Si6 0.700989 0.777145 0.275328
O O1 0.140979 0.043600 0.211087
O O2 0.266721 0.090259 0.191659
O O3 0.000000 0.067418 0.750000
O O4 0.205597 0.006509 0.044993
O O5 0.500000 0.447799 0.750000
O O6 0.249817 0.419061 0.370987
O O7 0.332707 0.173883 0.279971
O O8 0.513236 0.113268 0.463970
O O9 0.290224 0.127442 0.951513
O O10 0.204300 0.242221 0.721735
O O11 0.968176 0.269584 0.500218
O O12 0.000000 0.287852 0.250000
O O13 0.272236 0.830545 0.161914
O O14 0.750000 0.750000 0.500000
#
# Coordination Sequence:
#
# PCOD8145567 Si02
#       6
#     8   8   8   8   8   8
#     4  11  23  41  63  91 121 159 199 254 303 366
#     4  11  23  40  66  87 126 156 202 248 309 364
#     4  10  22  39  62  86 129 156 209 251 300 365
#     4   9  19  36  59  85 121 160 203 252 307 357
#     4  10  22  40  61  90 121 169 197 253 306 358
#     4   9  19  35  57  84 121 157 207 247 302 360
#
# _framework density 19.907138
#
# number of rings (size 3 to 8) (size 9 to 14) (size 15 to 20)
#    0.000    2.000    0.000    4.000    7.000    3.333 
#    3.000    0.000    0.000    0.000    0.000    0.000 
#    0.000    0.000    0.000    0.000    0.000    0.000 
#
# Total GULP energy -297521.330484 kJ/mol
# GULP energy per Si atom -12396.722104 kJ/mol
# Density = 1.986183 g / cm^3
# Si number density = 19.907138 Si / 1000 Ang^3
#
#
#
# Elastic Constant Matrix: (Units=GPa)
#
#
# Indices 1 2 3 4 5 6 
#
# 1 113.4396 58.6460 43.1519 0.0000 7.3041 0.0000
# 2 58.6460 130.4738 62.3772 0.0000 19.3650 0.0000
# 3 43.1519 62.3772 78.2580 0.0000 -8.3282 0.0000
# 4 0.0000 0.0000 0.0000 31.6771 0.0000 -2.8404
# 5 7.3041 19.3650 -8.3282 0.0000 33.3316 0.0000
# 6 0.0000 0.0000 0.0000 -2.8404 0.0000 34.5847
#
#
#
# Elastic Compliance Matrix: (Units=1/GPa)
#
#
# Indices 1 2 3 4 5 6 
#
# 1 0.012245 -0.003008 -0.004576 0.000000 -0.002079 0.000000
# 2 -0.003008 0.017429 -0.013603 0.000000 -0.012866 0.000000
# 3 -0.004576 -0.013603 0.027832 0.000000 0.015860 0.000000
# 4 0.000000 0.000000 0.000000 0.031803 0.000000 0.002612
# 5 -0.002079 -0.012866 0.015860 0.000000 0.041895 0.000000
# 6 0.000000 0.000000 0.000000 0.002612 0.000000 0.029129
#
#
# Mechanical properties :
#
#
# Convention : Reuss Voigt Hill
#
# Bulk Modulus (GPa) = 66.08197 72.28020 69.18108
# Shear Modulus (GPa) = 24.06751 30.45177 27.25964
#
# Velocity S-wave (km/s) = 3.48082 3.91537 3.70447
# Velocity P-wave (km/s) = 7.03008 7.53841 7.28868
#
# Compressibility (1/GPa) = 0.01513272
#
# Stress axis : x y z
#
# Youngs Moduli (GPa) = 81.66879 57.37512 35.93017
#
# Poissons Ratio (x) = 0.17256 0.16441
# Poissons Ratio (y) = 0.24562 0.48876
# Poissons Ratio (z) = 0.37370 0.78048
#
# Static dielectric constant tensor:
#      x y z
#    x 4.161040 0.000000 0.225060 
#    y 0.000000 3.794260 0.000000 
#    z 0.225060 0.000000 3.541860 
# 
# 
# High freq. dielectric constant tensor:
#      x y z
#    x 1.792040 0.000000 0.001760 
#    y 0.000000 1.781520 0.000000 
#    z 0.001760 0.000000 1.766160 
# 
# From -- ./inp_files/52877.got.cif
#   From: 2010.06.25/outbox.cif.g09.slc.cpg/sg15_27_cif.got.tgz:52877.got - 2010.06.28 07:06:18.
