data_PCOD8145429
_publ_section_title
;
Structure prediction by ZEFSAII (Michael W. Deem and Ramdas Pophale) SiO2 
 PCOD8145429
Probable space group: C 2/C
;
_chemical_formula_sum "Si O2"
_cell_formula_units_Z 40
_cell_length_a 21.354054
_cell_length_b 8.788647
_cell_length_c 16.007757
_cell_angle_alpha 90.000000
_cell_angle_beta 142.950588
_cell_angle_gamma 90.000000
_cell_volume 1810.057815
_symmetry_space_group_name_H-M "C 2/C"
_symmetry_group_IT_number 15
_symmetry_cell_setting 'monoclinic'
loop_
_space_group_symop_operation_xyz
x,y,z
-x,y,1/2-z
-x,-y,-z
x,-y,1/2+z
1/2+x,1/2+y,z
1/2-x,1/2+y,1/2-z
1/2-x,1/2-y,-z
1/2+x,1/2-y,1/2+z
loop_
_atom_site_type_symbol
_atom_site_label
_atom_site_fract_x
_atom_site_fract_y
_atom_site_fract_z
Si Si1 0.011390 0.748398 0.023964
Si Si2 0.298329 0.924214 0.961776
Si Si3 0.666849 0.523573 0.165206
Si Si4 0.012150 0.512523 0.640049
Si Si5 0.744061 0.919206 0.407450
O O1 0.025467 0.665148 0.128517
O O2 0.093269 0.880629 0.098593
O O3 0.035408 0.616261 0.984283
O O4 0.895335 0.818226 0.891077
O O5 0.296507 0.742916 0.950158
O O6 0.253900 0.995173 0.829044
O O7 0.417698 0.979906 0.106557
O O8 0.228967 0.976500 0.968986
O O9 0.717700 0.528110 0.126580
O O10 0.119272 0.592006 0.778948
#
# Coordination Sequence:
#
# PCOD8145429 Si02
#       5
#     8   8   8   8   8
#     4  10  22  38  67  93 127 167 211 249 323 369
#     4  11  24  41  66  94 126 169 212 256 314 382
#     4  11  22  43  64  96 126 169 204 263 310 380
#     4  11  21  40  63  94 126 166 207 268 303 383
#     4  11  24  41  66  94 126 169 212 256 314 382
#
# _framework density 22.098742000000001
#
# number of rings (size 3 to 8) (size 9 to 14) (size 15 to 20)
#    0.000    1.200    4.000    3.000    0.000    0.000 
#    0.000   10.000    0.000    0.000    0.000    0.000 
#    0.000    0.000    0.000    0.000    0.000    0.000 
#
# Total GULP energy -247863.731532 kJ/mol
# GULP energy per Si atom -12393.186577 kJ/mol
# Density = 2.204844 g / cm^3
# Si number density = 22.098742 Si / 1000 Ang^3
#
#
#
# Elastic Constant Matrix: (Units=GPa)
#
#
# Indices 1 2 3 4 5 6 
#
# 1 150.1913 28.4963 25.7110 0.0000 -5.4574 0.0000
# 2 28.4963 60.9630 3.8369 0.0000 0.6095 0.0000
# 3 25.7110 3.8369 56.8301 0.0000 16.0613 0.0000
# 4 0.0000 0.0000 0.0000 15.9144 0.0000 -4.3949
# 5 -5.4574 0.6095 16.0613 0.0000 36.6758 0.0000
# 6 0.0000 0.0000 0.0000 -4.3949 0.0000 15.3975
#
#
#
# Elastic Compliance Matrix: (Units=1/GPa)
#
#
# Indices 1 2 3 4 5 6 
#
# 1 0.008204 -0.003592 -0.004372 0.000000 0.003195 0.000000
# 2 -0.003592 0.018048 0.000733 0.000000 -0.001155 0.000000
# 3 -0.004372 0.000733 0.022497 0.000000 -0.010515 0.000000
# 4 0.000000 0.000000 0.000000 0.068213 0.000000 0.019470
# 5 0.003195 -0.001155 -0.010515 0.000000 0.032365 0.000000
# 6 0.000000 0.000000 0.000000 0.019470 0.000000 0.070503
#
#
# Mechanical properties :
#
#
# Convention : Reuss Voigt Hill
#
# Bulk Modulus (GPa) = 29.16599 42.67474 35.92036
# Shear Modulus (GPa) = 20.34835 27.59356 23.97095
#
# Velocity S-wave (km/s) = 3.03775 3.53746 3.29708
# Velocity P-wave (km/s) = 5.05278 6.00314 5.54834
#
# Compressibility (1/GPa) = 0.03428651
#
# Stress axis : x y z
#
# Youngs Moduli (GPa) = 121.88840 55.40871 44.45124
#
# Poissons Ratio (x) = 0.19901 0.19435
# Poissons Ratio (y) = 0.43779 -0.03258
# Poissons Ratio (z) = 0.53293 -0.04061
#
# Static dielectric constant tensor:
#      x y z
#    x 4.361600 0.000000 -0.048530 
#    y 0.000000 3.866670 0.000000 
#    z -0.048530 0.000000 3.904210 
# 
# 
# High freq. dielectric constant tensor:
#      x y z
#    x 1.889590 0.000000 0.003360 
#    y 0.000000 1.848920 0.000000 
#    z 0.003360 0.000000 1.862550 
# 
# From -- ./inp_files/166518.got.cif
#   From: 2010.06.25/outbox.cif.g09.slc.cpg/sg15_84_cif.got.tgz:166518.got - 2010.06.28 07:06:18.
