data_PCOD8145871
_publ_section_title
;
Structure prediction by ZEFSAII (Michael W. Deem and Ramdas Pophale) SiO2 
 PCOD8145871
Probable space group: C 2/C
;
_chemical_formula_sum "Si O2"
_cell_formula_units_Z 60
_cell_length_a 8.133966
_cell_length_b 26.387884
_cell_length_c 13.075969
_cell_angle_alpha 90.000000
_cell_angle_beta 92.637003
_cell_angle_gamma 90.000000
_cell_volume 2803.629803
_symmetry_space_group_name_H-M "C 2/C"
_symmetry_group_IT_number 15
_symmetry_cell_setting 'monoclinic'
loop_
_space_group_symop_operation_xyz
x,y,z
-x,y,1/2-z
-x,-y,-z
x,-y,1/2+z
1/2+x,1/2+y,z
1/2-x,1/2+y,1/2-z
1/2-x,1/2-y,-z
1/2+x,1/2-y,1/2+z
loop_
_atom_site_type_symbol
_atom_site_label
_atom_site_fract_x
_atom_site_fract_y
_atom_site_fract_z
Si Si1 0.000000 0.680084 0.250000
Si Si2 0.335731 0.697229 0.002224
Si Si3 0.891636 0.614438 0.599129
Si Si4 0.863620 0.235096 0.599381
Si Si5 0.209561 0.043171 0.472381
Si Si6 0.837174 0.865862 0.681371
Si Si7 0.564464 0.454542 0.362486
Si Si8 0.268058 0.137886 0.819158
O O1 0.058700 0.715419 0.345982
O O2 0.159565 0.644937 0.230783
O O3 0.387586 0.684208 0.119138
O O4 0.250000 0.750000 0.000000
O O5 0.205758 0.654934 0.969142
O O6 0.493273 0.698001 0.934713
O O7 0.872332 0.559354 0.542384
O O8 0.817142 0.616436 0.710370
O O9 0.081095 0.629160 0.599795
O O10 0.750000 0.250000 0.500000
O O11 0.771079 0.198396 0.679194
O O12 0.175613 0.084326 0.385857
O O13 0.073288 0.043242 0.556318
O O14 0.214337 0.989903 0.410754
O O15 0.000000 0.876202 0.750000
O O16 0.500000 0.474531 0.250000
O O17 0.618400 0.396163 0.354720
#
# Coordination Sequence:
#
# PCOD8145871 Si02
#       8
#     4   8   8   8   8   8   8   8
#     4  12  26  42  66  98 142 192 236 280 352 420
#     4  11  21  40  62  85 129 172 217 278 326 383
#     4  10  22  40  61  94 129 166 214 272 337 388
#     4  12  25  41  64  98 131 178 239 281 335 411
#     4  10  23  43  69  98 131 169 220 282 343 413
#     4  11  24  44  66  97 140 181 230 283 348 413
#     4  11  22  42  73  99 126 171 222 275 344 417
#     4  11  23  38  66  93 129 168 220 276 327 401
#
# _framework density 21.400827
#
# number of rings (size 3 to 8) (size 9 to 14) (size 15 to 20)
#    0.000    1.067    2.667    4.400    2.800    0.533 
#    0.000    1.333    0.000    0.000    0.000    0.000 
#    0.000    0.000    0.000    0.000    0.000    0.000 
#
# Total GULP energy -371662.408822 kJ/mol
# GULP energy per Si atom -12388.746961 kJ/mol
# Density = 2.135212 g / cm^3
# Si number density = 21.400827 Si / 1000 Ang^3
#
#
#
# Elastic Constant Matrix: (Units=GPa)
#
#
# Indices 1 2 3 4 5 6 
#
# 1 81.4817 11.8498 34.1993 0.0000 8.1473 0.0000
# 2 11.8498 79.6771 26.0536 0.0000 2.9495 0.0000
# 3 34.1993 26.0536 97.0148 0.0000 5.5779 0.0000
# 4 0.0000 0.0000 0.0000 51.7302 0.0000 -14.3104
# 5 8.1473 2.9495 5.5779 0.0000 34.8647 0.0000
# 6 0.0000 0.0000 0.0000 -14.3104 0.0000 41.1870
#
#
#
# Elastic Compliance Matrix: (Units=1/GPa)
#
#
# Indices 1 2 3 4 5 6 
#
# 1 0.014654 -0.000485 -0.004886 0.000000 -0.002602 0.000000
# 2 -0.000485 0.013787 -0.003503 0.000000 -0.000492 0.000000
# 3 -0.004886 -0.003503 0.013008 0.000000 -0.000643 0.000000
# 4 0.000000 0.000000 0.000000 0.021387 0.000000 0.007431
# 5 -0.002602 -0.000492 -0.000643 0.000000 0.029435 0.000000
# 6 0.000000 0.000000 0.000000 0.007431 0.000000 0.026861
#
#
# Mechanical properties :
#
#
# Convention : Reuss Voigt Hill
#
# Bulk Modulus (GPa) = 42.19442 44.70877 43.45159
# Shear Modulus (GPa) = 34.53523 37.96112 36.24818
#
# Velocity S-wave (km/s) = 4.02149 4.21624 4.12001
# Velocity P-wave (km/s) = 6.42824 6.68122 6.55595
#
# Compressibility (1/GPa) = 0.02369982
#
# Stress axis : x y z
#
# Youngs Moduli (GPa) = 68.24018 72.53465 76.87728
#
# Poissons Ratio (x) = 0.03521 0.37561
# Poissons Ratio (y) = 0.03313 0.26930
# Poissons Ratio (z) = 0.33341 0.25409
#
# Static dielectric constant tensor:
#      x y z
#    x 3.970060 0.000000 0.406470 
#    y 0.000000 3.568740 0.000000 
#    z 0.406470 0.000000 4.374470 
# 
# 
# High freq. dielectric constant tensor:
#      x y z
#    x 1.836900 0.000000 0.008280 
#    y 0.000000 1.838680 0.000000 
#    z 0.008280 0.000000 1.854440 
# 
# From -- ./inp_files/138263.got.cif
#   From: 2010.06.25/outbox.cif.g09.slc.cpg/sg15_70_cif.got.tgz:138263.got - 2010.06.28 07:06:18.
