data_PCOD8145847
_publ_section_title
;
Structure prediction by ZEFSAII (Michael W. Deem and Ramdas Pophale) SiO2 
 PCOD8145847
Probable space group: C 2/C
;
_chemical_formula_sum "Si O2"
_cell_formula_units_Z 40
_cell_length_a 7.984413
_cell_length_b 27.139535
_cell_length_c 13.912444
_cell_angle_alpha 90.000000
_cell_angle_beta 142.705417
_cell_angle_gamma 90.000000
_cell_volume 1826.666362
_symmetry_space_group_name_H-M "C 2/C"
_symmetry_group_IT_number 15
_symmetry_cell_setting 'monoclinic'
loop_
_space_group_symop_operation_xyz
x,y,z
-x,y,1/2-z
-x,-y,-z
x,-y,1/2+z
1/2+x,1/2+y,z
1/2-x,1/2+y,1/2-z
1/2-x,1/2-y,-z
1/2+x,1/2-y,1/2+z
loop_
_atom_site_type_symbol
_atom_site_label
_atom_site_fract_x
_atom_site_fract_y
_atom_site_fract_z
Si Si1 0.795531 0.123477 0.842246
Si Si2 0.170601 0.802091 0.422701
Si Si3 0.023557 0.533132 0.152695
Si Si4 0.128239 0.942560 0.950069
Si Si5 0.454957 0.110803 0.969757
O O1 0.500000 0.140637 0.750000
O O2 0.761454 0.104728 0.716934
O O3 0.000077 0.170086 0.929402
O O4 0.924124 0.079862 0.967100
O O5 0.250000 0.750000 0.500000
O O6 0.434298 0.835475 0.510438
O O7 0.000000 0.791218 0.250000
O O8 0.000000 0.552148 0.250000
O O9 0.354881 0.531536 0.283032
O O10 0.873124 0.571155 0.013549
O O11 0.886109 0.480116 0.074733
O O12 0.233006 0.898940 0.926875
#
# Coordination Sequence:
#
# PCOD8145847 Si02
#       5
#     8   8   8   8   8
#     4   9  20  42  64  88 125 166 208 261 317 372
#     4  10  22  41  65  91 119 158 207 262 324 381
#     4  12  24  38  60  94 130 173 215 257 308 369
#     4  11  24  41  62  93 130 171 214 260 309 369
#     4  10  22  40  61  88 124 164 205 256 312 371
#
# _framework density 21.897814
#
# number of rings (size 3 to 8) (size 9 to 14) (size 15 to 20)
#    0.000    1.600    0.000    4.800    0.000    8.800 
#    0.000   13.000    0.000    0.000    0.000    0.000 
#    0.000    0.000    0.000    0.000    0.000    0.000 
#
# Total GULP energy -247901.054443 kJ/mol
# GULP energy per Si atom -12395.052722 kJ/mol
# Density = 2.184797 g / cm^3
# Si number density = 21.897814 Si / 1000 Ang^3
#
#
#
# Elastic Constant Matrix: (Units=GPa)
#
#
# Indices 1 2 3 4 5 6 
#
# 1 111.8645 75.6490 45.8739 0.0000 -6.3159 0.0000
# 2 75.6490 169.6503 80.7275 0.0000 -0.8265 0.0000
# 3 45.8739 80.7275 86.7535 0.0000 10.6671 0.0000
# 4 0.0000 0.0000 0.0000 38.7544 0.0000 0.0934
# 5 -6.3159 -0.8265 10.6671 0.0000 36.2800 0.0000
# 6 0.0000 0.0000 0.0000 0.0934 0.0000 36.9596
#
#
#
# Elastic Compliance Matrix: (Units=1/GPa)
#
#
# Indices 1 2 3 4 5 6 
#
# 1 0.013492 -0.004331 -0.003507 0.000000 0.003281 0.000000
# 2 -0.004331 0.012353 -0.009489 0.000000 0.002317 0.000000
# 3 -0.003507 -0.009489 0.023150 0.000000 -0.007633 0.000000
# 4 0.000000 0.000000 0.000000 0.025804 0.000000 -0.000065
# 5 0.003281 0.002317 -0.007633 0.000000 0.030432 0.000000
# 6 0.000000 0.000000 0.000000 -0.000065 0.000000 0.027057
#
#
# Mechanical properties :
#
#
# Convention : Reuss Voigt Hill
#
# Bulk Modulus (GPa) = 69.73952 85.86324 77.80138
# Shear Modulus (GPa) = 29.11675 33.46665 31.29170
#
# Velocity S-wave (km/s) = 3.65041 3.91360 3.78430
# Velocity P-wave (km/s) = 7.04870 7.72772 7.39601
#
# Compressibility (1/GPa) = 0.01433907
#
# Stress axis : x y z
#
# Youngs Moduli (GPa) = 74.11769 80.95520 43.19612
#
# Poissons Ratio (x) = 0.35064 0.15151
# Poissons Ratio (y) = 0.32102 0.40989
# Poissons Ratio (z) = 0.25996 0.76820
#
# Static dielectric constant tensor:
#      x y z
#    x 4.370090 0.000000 -0.140530 
#    y 0.000000 3.744620 0.000000 
#    z -0.140530 0.000000 4.137070 
# 
# 
# High freq. dielectric constant tensor:
#      x y z
#    x 1.883310 0.000000 -0.011790 
#    y 0.000000 1.830310 0.000000 
#    z -0.011790 0.000000 1.860990 
# 
# From -- ./inp_files/137619.got.cif
#   From: 2010.06.25/outbox.cif.g09.slc.cpg/sg15_69_cif.got.tgz:137619.got - 2010.06.28 07:06:18.
