data_PCOD8145619
_publ_section_title
;
Structure prediction by ZEFSAII (Michael W. Deem and Ramdas Pophale) SiO2 
 PCOD8145619
Probable space group: C 2/C
;
_chemical_formula_sum "Si O2"
_cell_formula_units_Z 60
_cell_length_a 8.992875
_cell_length_b 17.231763
_cell_length_c 26.141774
_cell_angle_alpha 90.000000
_cell_angle_beta 48.113333
_cell_angle_gamma 90.000000
_cell_volume 3015.843065
_symmetry_space_group_name_H-M "C 2/C"
_symmetry_group_IT_number 15
_symmetry_cell_setting 'monoclinic'
loop_
_space_group_symop_operation_xyz
x,y,z
-x,y,1/2-z
-x,-y,-z
x,-y,1/2+z
1/2+x,1/2+y,z
1/2-x,1/2+y,1/2-z
1/2-x,1/2-y,-z
1/2+x,1/2-y,1/2+z
loop_
_atom_site_type_symbol
_atom_site_label
_atom_site_fract_x
_atom_site_fract_y
_atom_site_fract_z
Si Si1 0.881595 0.241633 0.894066
Si Si2 0.184827 0.741177 0.737750
Si Si3 0.241936 0.490311 0.990791
Si Si4 0.305501 0.833500 0.158703
Si Si5 0.245713 0.826106 0.467071
Si Si6 0.000000 0.111366 0.250000
Si Si7 0.780353 0.498283 0.121344
Si Si8 0.630685 0.354769 0.007069
O O1 0.783664 0.225845 0.861696
O O2 0.807224 0.176239 0.951034
O O3 0.119915 0.242985 0.842140
O O4 0.800783 0.326098 0.928821
O O5 0.259857 0.695083 0.770465
O O6 0.116034 0.831069 0.763533
O O7 0.000000 0.698724 0.750000
O O8 0.295864 0.504272 0.919160
O O9 0.378446 0.551697 0.990401
O O10 0.301854 0.402020 0.988194
O O11 0.017655 0.511381 0.060725
O O12 0.542860 0.834126 0.107921
O O13 0.227202 0.919117 0.163403
O O14 0.250000 0.750000 0.500000
O O15 0.081294 0.818698 0.460732
O O16 0.835710 0.063288 0.319451
#
# Coordination Sequence:
#
# PCOD8145619 Si02
#       8
#     8   8   8   8   8   4   8   8
#     4  11  22  37  64  93 124 166 212 261 319 384
#     4  10  24  41  62  89 127 162 213 264 316 376
#     4  10  22  39  63  91 132 167 213 270 319 385
#     4  11  22  41  62  96 122 171 210 261 319 385
#     4  11  23  38  61  92 128 169 210 261 322 379
#     4  10  24  40  62  92 122 170 210 266 316 376
#     4  10  22  39  64  93 127 168 219 258 324 384
#     4  11  22  38  63  94 131 163 214 264 323 377
#
# _framework density 19.894933999999999
#
# number of rings (size 3 to 8) (size 9 to 14) (size 15 to 20)
#    0.400    1.067    2.667    2.400    3.733    0.000 
#    0.000    0.000    0.000    3.200    0.000    0.000 
#    0.000    0.000    0.000    0.000    0.000    0.000 
#
# Total GULP energy -371812.548020 kJ/mol
# GULP energy per Si atom -12393.751601 kJ/mol
# Density = 1.984965 g / cm^3
# Si number density = 19.894934 Si / 1000 Ang^3
#
#
#
# Elastic Constant Matrix: (Units=GPa)
#
#
# Indices 1 2 3 4 5 6 
#
# 1 96.1840 26.0588 33.2024 -0.0001 7.9438 -0.0002
# 2 26.0588 132.0600 36.1923 -0.0004 16.4065 0.0001
# 3 33.2024 36.1923 89.9791 -0.0002 3.2341 0.0011
# 4 -0.0001 -0.0004 -0.0002 27.0109 0.0029 1.3271
# 5 7.9438 16.4065 3.2341 0.0029 29.6440 -0.0005
# 6 -0.0002 0.0001 0.0011 1.3271 -0.0005 36.4741
#
#
#
# Elastic Compliance Matrix: (Units=1/GPa)
#
#
# Indices 1 2 3 4 5 6 
#
# 1 0.012253 -0.001033 -0.004025 0.000000 -0.002273 0.000000
# 2 -0.001033 0.009197 -0.003158 0.000001 -0.004469 0.000000
# 3 -0.004025 -0.003158 0.013821 0.000000 0.001318 0.000000
# 4 0.000000 0.000001 0.000000 0.037088 -0.000004 -0.001349
# 5 -0.002273 -0.004469 0.001318 -0.000004 0.036672 0.000001
# 6 0.000000 0.000000 0.000000 -0.001349 0.000001 0.027466
#
#
# Mechanical properties :
#
#
# Convention : Reuss Voigt Hill
#
# Bulk Modulus (GPa) = 53.07212 56.57000 54.82106
# Shear Modulus (GPa) = 31.40551 33.47711 32.44131
#
# Velocity S-wave (km/s) = 3.97743 4.10652 4.04249
# Velocity P-wave (km/s) = 6.91573 7.14008 7.02880
#
# Compressibility (1/GPa) = 0.01884229
#
# Stress axis : x y z
#
# Youngs Moduli (GPa) = 81.60955 108.73611 72.35158
#
# Poissons Ratio (x) = 0.11228 0.29118
# Poissons Ratio (y) = 0.08427 0.22845
# Poissons Ratio (z) = 0.32844 0.34333
#
# Static dielectric constant tensor:
#      x y z
#    x 3.595040 0.000010 -0.100550 
#    y 0.000010 3.673560 0.000000 
#    z -0.100550 0.000000 3.495870 
# 
# 
# High freq. dielectric constant tensor:
#      x y z
#    x 1.774710 0.000000 -0.006480 
#    y 0.000000 1.776000 0.000000 
#    z -0.006480 0.000000 1.773160 
# 
# From -- ./inp_files/289581.got.cif
#   From: 2010.06.25/outbox.cif.g09.slc.cpg/sg15_145_cif.got.tgz:289581.got - 2010.06.28 07:06:18.
