data_PCOD8145728
_publ_section_title
;
Structure prediction by ZEFSAII (Michael W. Deem and Ramdas Pophale) SiO2 
 PCOD8145728
Probable space group: C 2/C
;
_chemical_formula_sum "Si O2"
_cell_formula_units_Z 40
_cell_length_a 10.412031
_cell_length_b 11.834767
_cell_length_c 22.194009
_cell_angle_alpha 90.000000
_cell_angle_beta 143.992002
_cell_angle_gamma 90.000000
_cell_volume 1607.803749
_symmetry_space_group_name_H-M "C 2/C"
_symmetry_group_IT_number 15
_symmetry_cell_setting 'monoclinic'
loop_
_space_group_symop_operation_xyz
x,y,z
-x,y,1/2-z
-x,-y,-z
x,-y,1/2+z
1/2+x,1/2+y,z
1/2-x,1/2+y,1/2-z
1/2-x,1/2-y,-z
1/2+x,1/2-y,1/2+z
loop_
_atom_site_type_symbol
_atom_site_label
_atom_site_fract_x
_atom_site_fract_y
_atom_site_fract_z
Si Si1 0.751377 0.351241 0.147881
Si Si2 0.956906 0.192143 0.051893
Si Si3 0.958318 0.349082 0.877311
Si Si4 0.391329 0.504318 0.303310
Si Si5 0.797791 0.826318 0.106374
O O1 0.635315 0.379372 0.040043
O O2 0.725577 0.219338 0.154501
O O3 0.613392 0.418494 0.143564
O O4 0.000000 0.390018 0.250000
O O5 0.750000 0.250000 0.000000
O O6 0.037284 0.122037 0.139874
O O7 0.146198 0.281779 0.103844
O O8 0.843866 0.468181 0.816222
O O9 0.048802 0.280566 0.853553
O O10 0.158995 0.372917 0.997506
O O11 0.557072 0.437793 0.320353
#
# Coordination Sequence:
#
# PCOD8145728 Si02
#       5
#     8   8   8   8   8
#     4  10  22  39  66  99 132 175 231 284 341 430
#     4  11  24  42  67  98 145 183 232 289 354 426
#     4   9  20  42  68  98 137 178 227 293 355 415
#     4  11  23  39  74 101 131 185 234 288 365 413
#     4   9  22  43  67 102 140 179 236 295 346 430
#
# _framework density 24.878658000000001
#
# number of rings (size 3 to 8) (size 9 to 14) (size 15 to 20)
#    0.000    2.000    0.000    3.000    5.600    0.800 
#    0.000    0.000   26.400    0.000    0.000    0.000 
#    0.000    0.000    0.000    0.000    0.000    0.000 
#
# Total GULP energy -247789.153176 kJ/mol
# GULP energy per Si atom -12389.457659 kJ/mol
# Density = 2.482203 g / cm^3
# Si number density = 24.878658 Si / 1000 Ang^3
#
#
#
# Elastic Constant Matrix: (Units=GPa)
#
#
# Indices 1 2 3 4 5 6 
#
# 1 103.6673 39.1833 28.0690 0.0000 27.2822 0.0000
# 2 39.1833 98.8397 44.4913 0.0000 19.8241 0.0000
# 3 28.0690 44.4913 120.3090 0.0002 16.0039 0.0001
# 4 0.0000 0.0000 0.0002 44.5574 0.0001 2.3028
# 5 27.2822 19.8241 16.0039 0.0001 41.7250 0.0000
# 6 0.0000 0.0000 0.0001 2.3028 0.0000 -3.0259
#
#
#
# Elastic Compliance Matrix: (Units=1/GPa)
#
#
# Indices 1 2 3 4 5 6 
#
# 1 0.012874 -0.003411 -0.000883 0.000000 -0.006459 0.000000
# 2 -0.003411 0.013806 -0.003935 0.000000 -0.002820 0.000000
# 3 -0.000883 -0.003935 0.010166 0.000000 -0.001452 0.000000
# 4 0.000000 0.000000 0.000000 0.021594 0.000000 0.016433
# 5 -0.006459 -0.002820 -0.001452 0.000000 0.030086 0.000000
# 6 0.000000 0.000000 0.000000 0.016433 0.000000 -0.317970
#
#
# Mechanical properties :
#
#
# Convention : Reuss Voigt Hill
#
# Bulk Modulus (GPa) = 49.04512 60.70035 54.87273
# Shear Modulus (GPa) = -24.24961 30.72279 3.23659
#
# Velocity S-wave (km/s) = -3.12543 3.51793 1.14183
# Velocity P-wave (km/s) = 2.59463 6.39943 4.88287
#
# Compressibility (1/GPa) = 0.02038939
#
# Stress axis : x y z
#
# Youngs Moduli (GPa) = 77.67415 72.43023 98.36413
#
# Poissons Ratio (x) = 0.24705 0.08687
# Poissons Ratio (y) = 0.26493 0.38704
# Poissons Ratio (z) = 0.06860 0.28500
#
# Static dielectric constant tensor:
#      x y z
#    x 4.027320 0.000000 0.261870 
#    y 0.000000 3.881000 0.000000 
#    z 0.261870 0.000000 4.403880 
# 
# 
# High freq. dielectric constant tensor:
#      x y z
#    x 1.994100 0.000000 0.003040 
#    y 0.000000 1.967050 0.000000 
#    z 0.003040 0.000000 2.006150 
# 
# From -- ./inp_files/292363.got.cif
#   From: 2010.06.25/outbox.cif.g09.slc.cpg/sg15_147_cif.got.tgz:292363.got - 2010.06.28 07:06:18.
