data_PCOD8145387
_publ_section_title
;
Structure prediction by ZEFSAII (Michael W. Deem and Ramdas Pophale) SiO2 
 PCOD8145387
Probable space group: C 2/C
;
_chemical_formula_sum "Si O2"
_cell_formula_units_Z 60
_cell_length_a 23.663845
_cell_length_b 8.332631
_cell_length_c 13.437869
_cell_angle_alpha 90.000000
_cell_angle_beta 87.843952
_cell_angle_gamma 90.000000
_cell_volume 2647.831266
_symmetry_space_group_name_H-M "C 2/C"
_symmetry_group_IT_number 15
_symmetry_cell_setting 'monoclinic'
loop_
_space_group_symop_operation_xyz
x,y,z
-x,y,1/2-z
-x,-y,-z
x,-y,1/2+z
1/2+x,1/2+y,z
1/2-x,1/2+y,1/2-z
1/2-x,1/2-y,-z
1/2+x,1/2-y,1/2+z
loop_
_atom_site_type_symbol
_atom_site_label
_atom_site_fract_x
_atom_site_fract_y
_atom_site_fract_z
Si Si1 0.709066 0.149398 0.149553
Si Si2 0.442741 0.275430 0.514818
Si Si3 0.298187 0.905349 0.188963
Si Si4 0.141836 0.493193 0.996625
Si Si5 0.548644 0.837030 0.113912
Si Si6 0.000000 0.392518 0.750000
Si Si7 0.095253 0.178350 0.695201
Si Si8 0.106220 0.159360 0.277493
O O1 0.750854 0.299877 0.135148
O O2 0.646541 0.200576 0.183288
O O3 0.731726 0.017332 0.226909
O O4 0.698615 0.060369 0.045994
O O5 0.412177 0.106664 0.507292
O O6 0.508660 0.251590 0.536999
O O7 0.434719 0.365151 0.409542
O O8 0.412759 0.368418 0.607444
O O9 0.332899 0.029813 0.115632
O O10 0.340386 0.777203 0.235696
O O11 0.111478 0.347140 0.057617
O O12 0.555799 0.735136 0.214913
O O13 0.518455 0.004168 0.151556
O O14 0.948173 0.271464 0.728764
O O15 0.120730 0.016490 0.737863
#
# Coordination Sequence:
#
# PCOD8145387 Si02
#       8
#     8   8   8   8   8   4   8   8
#     4  11  22  45  65  98 125 172 220 274 326 395
#     4  10  22  38  65  91 132 179 212 265 329 378
#     4  11  23  42  75  91 130 174 217 274 339 381
#     4  10  22  40  65 101 125 170 219 271 323 392
#     4  12  21  40  68  95 135 172 227 263 324 394
#     4  12  22  38  64  92 132 176 216 270 308 388
#     4  11  26  41  61  99 138 169 225 268 325 391
#     4  11  23  43  63  94 135 175 216 273 323 392
#
# _framework density 22.660053999999999
#
# number of rings (size 3 to 8) (size 9 to 14) (size 15 to 20)
#    0.000    1.067    5.333    1.600    3.733    0.533 
#    2.400    0.667    0.000    0.000    0.000    0.000 
#    0.000    0.000    0.000    0.000    0.000    0.000 
#
# Total GULP energy -371727.361940 kJ/mol
# GULP energy per Si atom -12390.912065 kJ/mol
# Density = 2.260848 g / cm^3
# Si number density = 22.660054 Si / 1000 Ang^3
#
#
#
# Elastic Constant Matrix: (Units=GPa)
#
#
# Indices 1 2 3 4 5 6 
#
# 1 76.9951 -3.4621 19.9662 0.0000 8.1135 0.0000
# 2 -3.4621 47.6017 19.7688 0.0000 -4.8644 0.0000
# 3 19.9662 19.7688 70.8792 0.0000 4.9560 0.0000
# 4 0.0000 0.0000 0.0000 25.8364 0.0000 1.7568
# 5 8.1135 -4.8644 4.9560 0.0000 36.0272 0.0000
# 6 0.0000 0.0000 0.0000 1.7568 0.0000 27.2442
#
#
#
# Elastic Compliance Matrix: (Units=1/GPa)
#
#
# Indices 1 2 3 4 5 6 
#
# 1 0.014577 0.002793 -0.004728 0.000000 -0.002255 0.000000
# 2 0.002793 0.024929 -0.008008 0.000000 0.003838 0.000000
# 3 -0.004728 -0.008008 0.017847 0.000000 -0.002472 0.000000
# 4 0.000000 0.000000 0.000000 0.038876 0.000000 -0.002507
# 5 -0.002255 0.003838 -0.002472 0.000000 0.029123 0.000000
# 6 0.000000 0.000000 0.000000 -0.002507 0.000000 0.036867
#
#
# Mechanical properties :
#
#
# Convention : Reuss Voigt Hill
#
# Bulk Modulus (GPa) = 26.68997 29.78021 28.23509
# Shear Modulus (GPa) = 25.69483 28.43509 27.06496
#
# Velocity S-wave (km/s) = 3.37104 3.54624 3.45975
# Velocity P-wave (km/s) = 5.19190 5.47160 5.33358
#
# Compressibility (1/GPa) = 0.03746726
#
# Stress axis : x y z
#
# Youngs Moduli (GPa) = 68.60111 40.11440 56.03328
#
# Poissons Ratio (x) = -0.11204 0.26490
# Poissons Ratio (y) = -0.19161 0.44871
# Poissons Ratio (z) = 0.32432 0.32124
#
# Static dielectric constant tensor:
#      x y z
#    x 3.979620 0.000000 0.071070 
#    y 0.000000 3.772860 0.000000 
#    z 0.071070 0.000000 4.563340 
# 
# 
# High freq. dielectric constant tensor:
#      x y z
#    x 1.890200 0.000000 0.005430 
#    y 0.000000 1.863210 0.000000 
#    z 0.005430 0.000000 1.900040 
# 
# From -- ./inp_files/171907.got.cif
#   From: 2010.06.25/outbox.cif.g09.slc.cpg/sg15_86_cif.got.tgz:171907.got - 2010.06.28 07:06:18.
