data_PCOD8145466
_publ_section_title
;
Structure prediction by ZEFSAII (Michael W. Deem and Ramdas Pophale) SiO2 
 PCOD8145466
Probable space group: C 2/C
;
_chemical_formula_sum "Si O2"
_cell_formula_units_Z 40
_cell_length_a 16.010077
_cell_length_b 9.781404
_cell_length_c 21.217814
_cell_angle_alpha 90.000000
_cell_angle_beta 149.801842
_cell_angle_gamma 90.000000
_cell_volume 1671.307923
_symmetry_space_group_name_H-M "C 2/C"
_symmetry_group_IT_number 15
_symmetry_cell_setting 'monoclinic'
loop_
_space_group_symop_operation_xyz
x,y,z
-x,y,1/2-z
-x,-y,-z
x,-y,1/2+z
1/2+x,1/2+y,z
1/2-x,1/2+y,1/2-z
1/2-x,1/2-y,-z
1/2+x,1/2-y,1/2+z
loop_
_atom_site_type_symbol
_atom_site_label
_atom_site_fract_x
_atom_site_fract_y
_atom_site_fract_z
Si Si1 0.149777 0.859516 0.018499
Si Si2 0.693608 0.004343 0.137158
Si Si3 0.267721 0.928630 0.969946
Si Si4 0.283116 0.722994 0.289513
Si Si5 0.589435 0.972353 0.744482
O O1 0.253137 0.727083 0.065606
O O2 0.969909 0.823468 0.928194
O O3 0.147556 0.954903 0.952413
O O4 0.253044 0.929581 0.141526
O O5 0.741264 0.887571 0.219879
O O6 0.739696 0.156128 0.193375
O O7 0.500000 0.000000 0.000000
O O8 0.778165 0.982345 0.122734
O O9 0.460969 0.952051 0.114400
O O10 0.154980 0.666132 0.256988
O O11 0.500000 0.929361 0.750000
#
# Coordination Sequence:
#
# PCOD8145466 Si02
#       5
#     8   8   8   8   8
#     4  10  22  38  71 102 128 175 239 280 340 413
#     4  12  26  45  71  99 146 177 233 289 349 409
#     4  10  22  43  65  98 138 177 220 298 345 397
#     4  12  25  43  70 101 134 188 230 287 344 415
#     4  10  22  43  65  95 142 182 223 286 355 412
#
# _framework density 23.933353
#
# number of rings (size 3 to 8) (size 9 to 14) (size 15 to 20)
#    0.000    1.200    4.000    0.600    5.600    2.400 
#    3.600    2.000    0.000    0.000    0.000    0.000 
#    0.000    0.000    0.000    0.000    0.000    0.000 
#
# Total GULP energy -247842.106612 kJ/mol
# GULP energy per Si atom -12392.105331 kJ/mol
# Density = 2.387888 g / cm^3
# Si number density = 23.933353 Si / 1000 Ang^3
#
#
#
# Elastic Constant Matrix: (Units=GPa)
#
#
# Indices 1 2 3 4 5 6 
#
# 1 105.0716 15.1673 10.5429 0.0005 -23.7222 0.0003
# 2 15.1673 85.8697 11.8683 -0.0014 -18.9319 -0.0004
# 3 10.5429 11.8683 46.5741 -0.0019 -27.3054 -0.0007
# 4 0.0005 -0.0014 -0.0019 28.9672 -0.0002 -4.1639
# 5 -23.7222 -18.9319 -27.3054 -0.0002 41.5749 0.0000
# 6 0.0003 -0.0004 -0.0007 -4.1639 0.0000 37.0240
#
#
#
# Elastic Compliance Matrix: (Units=1/GPa)
#
#
# Indices 1 2 3 4 5 6 
#
# 1 0.011060 -0.000611 0.001933 0.000000 0.007302 0.000000
# 2 -0.000611 0.012981 0.000149 0.000001 0.005660 0.000000
# 3 0.001933 0.000149 0.035258 0.000003 0.024328 0.000001
# 4 0.000000 0.000001 0.000003 0.035089 0.000002 0.003946
# 5 0.007302 0.005660 0.024328 0.000002 0.046775 0.000001
# 6 0.000000 0.000000 0.000001 0.003946 0.000001 0.027453
#
#
# Mechanical properties :
#
#
# Convention : Reuss Voigt Hill
#
# Bulk Modulus (GPa) = 16.06629 34.74139 25.40384
# Shear Modulus (GPa) = 26.82092 34.84233 30.83163
#
# Velocity S-wave (km/s) = 3.35124 3.81964 3.59308
# Velocity P-wave (km/s) = 4.65853 5.83098 5.27742
#
# Compressibility (1/GPa) = 0.06224213
#
# Stress axis : x y z
#
# Youngs Moduli (GPa) = 90.41449 77.03682 28.36202
#
# Poissons Ratio (x) = 0.04705 -0.05483
# Poissons Ratio (y) = 0.05523 -0.00423
# Poissons Ratio (z) = -0.17479 -0.01148
#
# Static dielectric constant tensor:
#      x y z
#    x 4.951850 0.000000 -0.291270 
#    y 0.000000 4.341140 0.000000 
#    z -0.291270 0.000000 4.239830 
# 
# 
# High freq. dielectric constant tensor:
#      x y z
#    x 1.974040 0.000000 -0.015580 
#    y 0.000000 1.916650 0.000000 
#    z -0.015580 0.000000 1.939180 
# 
# From -- ./inp_files/276757.got.cif
#   From: 2010.06.25/outbox.cif.g09.slc.cpg/sg15_139_cif.got.tgz:276757.got - 2010.06.28 07:06:18.
