data_PCOD8145298
_publ_section_title
;
Structure prediction by ZEFSAII (Michael W. Deem and Ramdas Pophale) SiO2 
 PCOD8145298
Probable space group: C 2/C
;
_chemical_formula_sum "Si O2"
_cell_formula_units_Z 52
_cell_length_a 29.489447
_cell_length_b 8.683090
_cell_length_c 10.447827
_cell_angle_alpha 90.000000
_cell_angle_beta 71.731452
_cell_angle_gamma 90.000000
_cell_volume 2540.426047
_symmetry_space_group_name_H-M "C 2/C"
_symmetry_group_IT_number 15
_symmetry_cell_setting 'monoclinic'
loop_
_space_group_symop_operation_xyz
x,y,z
-x,y,1/2-z
-x,-y,-z
x,-y,1/2+z
1/2+x,1/2+y,z
1/2-x,1/2+y,1/2-z
1/2-x,1/2-y,-z
1/2+x,1/2-y,1/2+z
loop_
_atom_site_type_symbol
_atom_site_label
_atom_site_fract_x
_atom_site_fract_y
_atom_site_fract_z
Si Si1 0.045986 0.441245 0.535190
Si Si2 0.356454 0.436300 0.668784
Si Si3 0.500000 0.843467 0.250000
Si Si4 0.691412 0.582576 0.029809
Si Si5 0.462296 0.631220 0.058292
Si Si6 0.150557 0.578937 0.861248
Si Si7 0.199627 0.557201 0.561449
O O1 0.042139 0.254226 0.556096
O O2 0.095799 0.477754 0.420241
O O3 0.000000 0.500000 0.500000
O O4 0.043304 0.542089 0.667265
O O5 0.337648 0.542132 0.571457
O O6 0.333302 0.491835 0.823017
O O7 0.413306 0.457287 0.628717
O O8 0.343618 0.260994 0.652779
O O9 0.476579 0.734407 0.166206
O O10 0.690863 0.765080 0.041352
O O11 0.744772 0.517526 0.970945
O O12 0.500000 0.500000 0.000000
O O13 0.172842 0.502273 0.714412
O O14 0.180030 0.537293 0.960214
#
# Coordination Sequence:
#
# PCOD8145298 Si02
#       7
#     8   8   4   8   8   8   8
#     4   9  21  38  59  89 120 165 205 253 309 370
#     4  10  23  40  60  90 125 161 205 256 312 374
#     4  10  22  40  66  82 134 164 208 264 310 378
#     4  10  22  40  61  89 127 160 205 257 314 371
#     4  10  23  40  61  95 125 165 213 261 317 375
#     4  10  22  38  62  90 123 156 212 252 306 374
#     4  10  22  39  63  91 120 164 206 257 311 370
#
# _framework density 20.469007999999999
#
# number of rings (size 3 to 8) (size 9 to 14) (size 15 to 20)
#    0.000    2.154    0.000    0.923   10.769    3.692 
#    2.769    0.000    0.000    0.000    0.000    0.000 
#    0.000    0.000    0.000    0.000    0.000    0.000 
#
# Total GULP energy -322312.329372 kJ/mol
# GULP energy per Si atom -12396.628053 kJ/mol
# Density = 2.042242 g / cm^3
# Si number density = 20.469008 Si / 1000 Ang^3
#
#
#
# Elastic Constant Matrix: (Units=GPa)
#
#
# Indices 1 2 3 4 5 6 
#
# 1 133.9576 45.1395 75.4026 0.0000 -26.0108 0.0000
# 2 45.1395 56.2284 52.3535 0.0000 -12.6794 0.0000
# 3 75.4026 52.3535 167.4580 0.0000 -18.8676 0.0000
# 4 0.0000 0.0000 0.0000 34.6715 0.0000 7.6268
# 5 -26.0108 -12.6794 -18.8676 0.0000 42.0692 0.0000
# 6 0.0000 0.0000 0.0000 7.6268 0.0000 31.9542
#
#
#
# Elastic Compliance Matrix: (Units=1/GPa)
#
#
# Indices 1 2 3 4 5 6 
#
# 1 0.011991 -0.005759 -0.003116 0.000000 0.004280 0.000000
# 2 -0.005759 0.028600 -0.006085 0.000000 0.002330 0.000000
# 3 -0.003116 -0.006085 0.009325 0.000000 0.000421 0.000000
# 4 0.000000 0.000000 0.000000 0.030440 0.000000 -0.007265
# 5 0.004280 0.002330 0.000421 0.000000 0.027308 0.000000
# 6 0.000000 0.000000 0.000000 -0.007265 0.000000 0.033029
#
#
# Mechanical properties :
#
#
# Convention : Reuss Voigt Hill
#
# Bulk Modulus (GPa) = 50.01768 78.15945 64.08857
# Shear Modulus (GPa) = 28.20401 34.05554 31.12977
#
# Velocity S-wave (km/s) = 3.71602 4.08335 3.90401
# Velocity P-wave (km/s) = 6.54985 7.77810 7.19025
#
# Compressibility (1/GPa) = 0.01999293
#
# Stress axis : x y z
#
# Youngs Moduli (GPa) = 83.39502 34.96550 107.23958
#
# Poissons Ratio (x) = 0.20138 0.33421
# Poissons Ratio (y) = 0.48031 0.65261
# Poissons Ratio (z) = 0.25990 0.21278
#
# Static dielectric constant tensor:
#      x y z
#    x 3.803110 0.000000 -0.135230 
#    y 0.000000 3.816650 0.000000 
#    z -0.135230 0.000000 4.344360 
# 
# 
# High freq. dielectric constant tensor:
#      x y z
#    x 1.810680 0.000000 -0.008330 
#    y 0.000000 1.790480 0.000000 
#    z -0.008330 0.000000 1.806940 
# 
# From -- ./inp_files/121443.got.cif
#   From: 2010.06.25/outbox.cif.g09.slc.cpg/sg15_61_cif.got.tgz:121443.got - 2010.06.28 07:06:18.
