data_PCOD8145423
_publ_section_title
;
Structure prediction by ZEFSAII (Michael W. Deem and Ramdas Pophale) SiO2 
 PCOD8145423
Probable space group: C 2/C
;
_chemical_formula_sum "Si O2"
_cell_formula_units_Z 60
_cell_length_a 20.628226
_cell_length_b 8.837429
_cell_length_c 23.267579
_cell_angle_alpha 90.000000
_cell_angle_beta 38.077301
_cell_angle_gamma 90.000000
_cell_volume 2615.952843
_symmetry_space_group_name_H-M "C 2/C"
_symmetry_group_IT_number 15
_symmetry_cell_setting 'monoclinic'
loop_
_space_group_symop_operation_xyz
x,y,z
-x,y,1/2-z
-x,-y,-z
x,-y,1/2+z
1/2+x,1/2+y,z
1/2-x,1/2+y,1/2-z
1/2-x,1/2-y,-z
1/2+x,1/2-y,1/2+z
loop_
_atom_site_type_symbol
_atom_site_label
_atom_site_fract_x
_atom_site_fract_y
_atom_site_fract_z
Si Si1 0.017973 0.251705 0.825956
Si Si2 0.330455 0.809932 0.876457
Si Si3 0.586822 0.423091 0.803184
Si Si4 0.301603 0.171308 0.113306
Si Si5 0.128045 0.358373 0.481294
Si Si6 0.509556 0.327898 0.975946
Si Si7 0.000000 0.785287 0.750000
Si Si8 0.204338 0.353153 0.081321
O O1 0.113875 0.332261 0.724924
O O2 0.916549 0.224960 0.855707
O O3 0.059900 0.099807 0.827723
O O4 0.976324 0.357704 0.906344
O O5 0.229328 0.704307 0.943834
O O6 0.284386 0.966912 0.934148
O O7 0.712357 0.387976 0.720062
O O8 0.528214 0.326185 0.893613
O O9 0.551013 0.387728 0.763485
O O10 0.254090 0.301863 0.106429
O O11 0.347725 0.031444 0.046332
O O12 0.402771 0.246977 0.072047
O O13 0.106468 0.258459 0.439066
O O14 0.500000 0.500000 0.000000
O O15 0.918965 0.672942 0.835545
O O16 0.250000 0.250000 0.000000
#
# Coordination Sequence:
#
# PCOD8145423 Si02
#       8
#     8   8   8   8   8   8   4   8
#     4  11  23  42  72 101 148 182 247 296 368 433
#     4  11  24  42  70 110 138 193 239 299 366 441
#     4  11  24  45  73 104 143 191 237 310 368 442
#     4  11  26  45  67 106 138 189 245 297 367 441
#     4  12  25  44  72 104 142 188 246 304 364 441
#     4  12  26  47  72 101 144 192 248 301 375 446
#     4  10  22  38  66  98 138 178 226 292 358 424
#     4  11  23  40  66 103 146 181 233 291 363 429
#
# _framework density 22.936192999999999
#
# number of rings (size 3 to 8) (size 9 to 14) (size 15 to 20)
#    0.000    0.800    2.667    4.800    3.733    4.267 
#    0.000    0.000    0.000    0.000    0.000    0.000 
#    0.000    0.000    0.000    0.000    0.000    0.000 
#
# Total GULP energy -371908.566486 kJ/mol
# GULP energy per Si atom -12396.952216 kJ/mol
# Density = 2.288399 g / cm^3
# Si number density = 22.936193 Si / 1000 Ang^3
#
#
#
# Elastic Constant Matrix: (Units=GPa)
#
#
# Indices 1 2 3 4 5 6 
#
# 1 54.8666 20.5224 29.8201 -0.0003 -11.3792 0.0013
# 2 20.5224 111.4768 34.2889 -0.0005 -20.5567 0.0026
# 3 29.8201 34.2889 131.1170 0.0002 -5.5611 0.0002
# 4 -0.0003 -0.0005 0.0002 42.0115 0.0000 -2.0162
# 5 -11.3792 -20.5567 -5.5611 0.0000 39.5971 -0.0005
# 6 0.0013 0.0026 0.0002 -2.0162 -0.0005 37.5057
#
#
#
# Elastic Compliance Matrix: (Units=1/GPa)
#
#
# Indices 1 2 3 4 5 6 
#
# 1 0.022306 -0.001870 -0.004380 0.000000 0.004825 -0.000001
# 2 -0.001870 0.010882 -0.002217 0.000000 0.004801 -0.000001
# 3 -0.004380 -0.002217 0.009155 0.000000 -0.001124 0.000000
# 4 0.000000 0.000000 0.000000 0.023865 0.000000 0.001283
# 5 0.004825 0.004801 -0.001124 0.000000 0.028975 0.000000
# 6 -0.000001 -0.000001 0.000000 0.001283 0.000000 0.026732
#
#
# Mechanical properties :
#
#
# Convention : Reuss Voigt Hill
#
# Bulk Modulus (GPa) = 39.35359 51.85810 45.60584
# Shear Modulus (GPa) = 33.94042 38.01146 35.97594
#
# Velocity S-wave (km/s) = 3.85096 4.07537 3.96475
# Velocity P-wave (km/s) = 6.08015 6.69356 6.39422
#
# Compressibility (1/GPa) = 0.02541064
#
# Stress axis : x y z
#
# Youngs Moduli (GPa) = 44.83040 91.89642 109.23093
#
# Poissons Ratio (x) = 0.17182 0.47838
# Poissons Ratio (y) = 0.08382 0.24215
# Poissons Ratio (z) = 0.19634 0.20372
#
# Static dielectric constant tensor:
#      x y z
#    x 4.677700 -0.000150 -0.253410 
#    y -0.000150 18.495660 0.000050 
#    z -0.253410 0.000050 4.601210 
# 
# 
# High freq. dielectric constant tensor:
#      x y z
#    x 1.898680 0.000000 -0.006690 
#    y 0.000000 1.902980 0.000000 
#    z -0.006690 0.000000 1.921660 
# 
# From -- ./inp_files/279690.got.cif
#   From: 2010.06.25/outbox.cif.g09.slc.cpg/sg15_140_cif.got.tgz:279690.got - 2010.06.28 07:06:18.
