data_PCOD8145707
_publ_section_title
;
Structure prediction by ZEFSAII (Michael W. Deem and Ramdas Pophale) SiO2 
 PCOD8145707
Probable space group: C 2/C
;
_chemical_formula_sum "Si O2"
_cell_formula_units_Z 44
_cell_length_a 8.090384
_cell_length_b 17.041485
_cell_length_c 16.593306
_cell_angle_alpha 90.000000
_cell_angle_beta 128.479923
_cell_angle_gamma 90.000000
_cell_volume 1790.914575
_symmetry_space_group_name_H-M "C 2/C"
_symmetry_group_IT_number 15
_symmetry_cell_setting 'monoclinic'
loop_
_space_group_symop_operation_xyz
x,y,z
-x,y,1/2-z
-x,-y,-z
x,-y,1/2+z
1/2+x,1/2+y,z
1/2-x,1/2+y,1/2-z
1/2-x,1/2-y,-z
1/2+x,1/2-y,1/2+z
loop_
_atom_site_type_symbol
_atom_site_label
_atom_site_fract_x
_atom_site_fract_y
_atom_site_fract_z
Si Si1 0.415235 0.285435 0.315892
Si Si2 0.652162 0.144438 0.373661
Si Si3 0.500000 0.706432 0.250000
Si Si4 0.547669 0.606238 0.413950
Si Si5 0.864560 0.956505 0.287004
Si Si6 0.561228 0.015256 0.927171
O O1 0.500000 0.288022 0.250000
O O2 0.568992 0.219260 0.401855
O O3 0.174112 0.258628 0.257155
O O4 0.432417 0.375110 0.352363
O O5 0.500000 0.133669 0.250000
O O6 0.895219 0.161645 0.421229
O O7 0.649759 0.067618 0.426517
O O8 0.608443 0.649835 0.349300
O O9 0.404887 0.527825 0.359331
O O10 0.761449 0.583127 0.524540
O O11 0.621847 0.952796 0.186008
O O12 0.000000 0.974159 0.250000
O O13 0.500000 0.000000 0.000000
#
# Coordination Sequence:
#
# PCOD8145707 Si02
#       6
#     8   8   4   8   8   8
#     4  10  22  39  66  90 133 177 218 268 338 400
#     4  11  21  42  67  93 137 179 222 273 340 397
#     4  12  20  42  70  96 130 188 218 272 346 398
#     4  12  22  40  70  99 130 177 227 278 331 398
#     4  11  22  41  66  96 133 173 220 279 334 396
#     4  12  23  39  69 105 131 173 235 280 330 404
#
# _framework density 24.568452000000001
#
# number of rings (size 3 to 8) (size 9 to 14) (size 15 to 20)
#    0.000    0.727    8.182    1.636    0.000    1.455 
#    0.000    1.818    8.000    0.000    0.000    0.000 
#    0.000    0.000    0.000    0.000    0.000    0.000 
#
# Total GULP energy -272620.925001 kJ/mol
# GULP energy per Si atom -12391.860227 kJ/mol
# Density = 2.451253 g / cm^3
# Si number density = 24.568452 Si / 1000 Ang^3
#
#
#
# Elastic Constant Matrix: (Units=GPa)
#
#
# Indices 1 2 3 4 5 6 
#
# 1 129.1813 31.4821 25.6831 -0.0002 25.0097 0.0002
# 2 31.4821 101.9486 4.3570 0.0000 0.1811 0.0001
# 3 25.6831 4.3570 61.1007 -0.0003 24.7464 0.0004
# 4 -0.0002 0.0000 -0.0003 -32.1612 -0.0002 75.1556
# 5 25.0097 0.1811 24.7464 -0.0002 39.1833 0.0003
# 6 0.0002 0.0001 0.0004 75.1556 0.0003 -67.7057
#
#
#
# Elastic Compliance Matrix: (Units=1/GPa)
#
#
# Indices 1 2 3 4 5 6 
#
# 1 0.009810 -0.002941 -0.001859 0.000000 -0.005074 0.000000
# 2 -0.002941 0.010729 -0.000362 0.000000 0.002056 0.000000
# 3 -0.001859 -0.000362 0.022429 0.000000 -0.012977 0.000000
# 4 0.000000 0.000000 0.000000 0.019507 0.000000 0.021653
# 5 -0.005074 0.002056 -0.012977 0.000000 0.036946 0.000000
# 6 0.000000 0.000000 0.000000 0.021653 0.000000 0.009266
#
#
# Mechanical properties :
#
#
# Convention : Reuss Voigt Hill
#
# Bulk Modulus (GPa) = 30.63191 46.14166 38.38678
# Shear Modulus (GPa) = 38.49392 3.24385 20.86889
#
# Velocity S-wave (km/s) = 3.96258 1.15030 2.91764
# Velocity P-wave (km/s) = 5.78196 4.53717 5.19697
#
# Compressibility (1/GPa) = 0.03264570
#
# Stress axis : x y z
#
# Youngs Moduli (GPa) = 101.94144 93.20721 44.58421
#
# Poissons Ratio (x) = 0.27410 0.08287
# Poissons Ratio (y) = 0.29979 0.01612
# Poissons Ratio (z) = 0.18948 0.03370
#
# Static dielectric constant tensor:
#      x y z
#    x 4.656070 0.000000 0.247190 
#    y 0.000000 5.135240 0.000000 
#    z 0.247190 0.000000 4.196590 
# 
# 
# High freq. dielectric constant tensor:
#      x y z
#    x 1.996240 0.000000 0.007240 
#    y 0.000000 1.985610 0.000000 
#    z 0.007240 0.000000 1.942400 
# 
# From -- ./inp_files/134554.got.cif
#   From: 2010.06.25/outbox.cif.g09.slc.cpg/sg15_68_cif.got.tgz:134554.got - 2010.06.28 07:06:18.
