data_PCOD8145534
_publ_section_title
;
Structure prediction by ZEFSAII (Michael W. Deem and Ramdas Pophale) SiO2 
 PCOD8145534
Probable space group: C 2/C
;
_chemical_formula_sum "Si O2"
_cell_formula_units_Z 52
_cell_length_a 8.312830
_cell_length_b 12.000890
_cell_length_c 24.858122
_cell_angle_alpha 90.000000
_cell_angle_beta 70.796802
_cell_angle_gamma 90.000000
_cell_volume 2341.894566
_symmetry_space_group_name_H-M "C 2/C"
_symmetry_group_IT_number 15
_symmetry_cell_setting 'monoclinic'
loop_
_space_group_symop_operation_xyz
x,y,z
-x,y,1/2-z
-x,-y,-z
x,-y,1/2+z
1/2+x,1/2+y,z
1/2-x,1/2+y,1/2-z
1/2-x,1/2-y,-z
1/2+x,1/2-y,1/2+z
loop_
_atom_site_type_symbol
_atom_site_label
_atom_site_fract_x
_atom_site_fract_y
_atom_site_fract_z
Si Si1 0.204711 0.289043 0.781669
Si Si2 0.500000 0.953394 0.750000
Si Si3 0.970526 0.150491 0.552584
Si Si4 0.847371 0.216867 0.866025
Si Si5 0.410567 0.862278 0.184562
Si Si6 0.409050 0.403458 0.576514
Si Si7 0.179352 0.804065 0.617957
O O1 0.170036 0.375875 0.736381
O O2 0.340510 0.198934 0.746184
O O3 0.278078 0.350451 0.826858
O O4 0.027198 0.231483 0.816650
O O5 0.504931 0.022502 0.804878
O O6 0.123513 0.164827 0.578483
O O7 0.053935 0.151181 0.485126
O O8 0.847175 0.257910 0.569683
O O9 0.868411 0.034789 0.575209
O O10 0.742618 0.126998 0.841747
O O11 0.748559 0.335932 0.880335
O O12 0.558678 0.801534 0.137088
O O13 0.581567 0.396141 0.593686
#
# Coordination Sequence:
#
# PCOD8145534 Si02
#       7
#     8   4   8   8   8   8   8
#     4  11  22  40  57  90 119 154 199 237 284 351
#     4  12  24  36  66  78 126 160 188 244 294 326
#     4  10  22  40  62  88 116 152 197 244 296 347
#     4  10  22  39  61  84 123 152 194 243 290 345
#     4  11  22  40  57  90 119 154 199 237 284 351
#     4  10  22  40  62  88 116 152 197 244 296 347
#     4  10  22  39  61  84 123 152 194 243 290 345
#
# _framework density 22.204246000000001
#
# number of rings (size 3 to 8) (size 9 to 14) (size 15 to 20)
#    0.000    1.538    3.077    0.923    4.308    0.000 
#    0.000    1.538    0.000    9.231    0.000    0.000 
#    0.000    0.000    0.000    0.000    0.000    0.000 
#
# Total GULP energy -322260.482075 kJ/mol
# GULP energy per Si atom -12394.633926 kJ/mol
# Density = 2.215371 g / cm^3
# Si number density = 22.204246 Si / 1000 Ang^3
#
#
#
# Elastic Constant Matrix: (Units=GPa)
#
#
# Indices 1 2 3 4 5 6 
#
# 1 109.4587 15.1157 32.1594 0.0000 25.9406 0.0000
# 2 15.1157 43.8107 7.5671 0.0000 1.8551 0.0000
# 3 32.1594 7.5671 79.4313 0.0000 18.3370 0.0000
# 4 0.0000 0.0000 0.0000 26.7567 0.0000 12.0101
# 5 25.9406 1.8551 18.3370 0.0000 39.6028 0.0000
# 6 0.0000 0.0000 0.0000 12.0101 0.0000 29.0472
#
#
#
# Elastic Compliance Matrix: (Units=1/GPa)
#
#
# Indices 1 2 3 4 5 6 
#
# 1 0.011990 -0.003338 -0.003090 0.000000 -0.006267 0.000000
# 2 -0.003338 0.024137 -0.001334 0.000000 0.001674 0.000000
# 3 -0.003090 -0.001334 0.015100 0.000000 -0.004905 0.000000
# 4 0.000000 0.000000 0.000000 0.045891 0.000000 -0.018974
# 5 -0.006267 0.001674 -0.004905 0.000000 0.031548 0.000000
# 6 0.000000 0.000000 0.000000 -0.018974 0.000000 0.042272
#
#
# Mechanical properties :
#
#
# Convention : Reuss Voigt Hill
#
# Bulk Modulus (GPa) = 28.00903 38.04278 33.02590
# Shear Modulus (GPa) = 25.20646 30.93857 28.07251
#
# Velocity S-wave (km/s) = 3.37294 3.73683 3.55954
# Velocity P-wave (km/s) = 5.27358 5.98238 5.63912
#
# Compressibility (1/GPa) = 0.03570277
#
# Stress axis : x y z
#
# Youngs Moduli (GPa) = 83.40535 41.43071 66.22553
#
# Poissons Ratio (x) = 0.13828 0.20461
# Poissons Ratio (y) = 0.27838 0.08837
# Poissons Ratio (z) = 0.25769 0.05529
#
# Static dielectric constant tensor:
#      x y z
#    x 4.521860 0.000000 0.399760 
#    y 0.000000 3.824680 0.000000 
#    z 0.399760 0.000000 3.854630 
# 
# 
# High freq. dielectric constant tensor:
#      x y z
#    x 1.892690 0.000000 0.020130 
#    y 0.000000 1.847150 0.000000 
#    z 0.020130 0.000000 1.871120 
# 
# From -- ./inp_files/68994.got.cif
#   From: 2010.06.25/outbox.cif.g09.slc.cpg/sg15_35_cif.got.tgz:68994.got - 2010.06.28 07:06:18.
