data_PCOD8145625
_publ_section_title
;
Structure prediction by ZEFSAII (Michael W. Deem and Ramdas Pophale) SiO2 
 PCOD8145625
Probable space group: C 2/C
;
_chemical_formula_sum "Si O2"
_cell_formula_units_Z 40
_cell_length_a 13.658515
_cell_length_b 15.865550
_cell_length_c 15.875031
_cell_angle_alpha 90.000000
_cell_angle_beta 146.364820
_cell_angle_gamma 90.000000
_cell_volume 1905.490592
_symmetry_space_group_name_H-M "C 2/C"
_symmetry_group_IT_number 15
_symmetry_cell_setting 'monoclinic'
loop_
_space_group_symop_operation_xyz
x,y,z
-x,y,1/2-z
-x,-y,-z
x,-y,1/2+z
1/2+x,1/2+y,z
1/2-x,1/2+y,1/2-z
1/2-x,1/2-y,-z
1/2+x,1/2-y,1/2+z
loop_
_atom_site_type_symbol
_atom_site_label
_atom_site_fract_x
_atom_site_fract_y
_atom_site_fract_z
Si Si1 0.826331 0.021898 0.927172
Si Si2 0.037641 0.573607 0.591220
Si Si3 0.820271 0.342124 0.068843
Si Si4 0.734196 0.695240 0.852098
Si Si5 0.339691 0.349537 0.017972
O O1 0.665232 0.029826 0.748905
O O2 0.830838 0.107223 0.986957
O O3 0.798316 0.946073 0.971238
O O4 0.000000 0.000000 0.000000
O O5 0.121103 0.654468 0.604741
O O6 0.000000 0.500000 0.500000
O O7 0.861550 0.607873 0.511510
O O8 0.000000 0.334511 0.250000
O O9 0.750000 0.250000 0.000000
O O10 0.763447 0.664360 0.968814
O O11 0.545506 0.672489 0.677851
O O12 0.764106 0.796029 0.883896
#
# Coordination Sequence:
#
# PCOD8145625 Si02
#       5
#     8   8   8   8   8
#     4  11  23  43  65  91 129 175 213 269 325 391
#     4  11  24  41  64  96 127 171 222 267 328 391
#     4  10  25  45  65  96 135 171 218 269 328 393
#     4  10  22  39  63  93 122 164 214 270 321 397
#     4  10  22  41  62  92 128 161 215 268 330 378
#
# _framework density 20.991969999999998
#
# number of rings (size 3 to 8) (size 9 to 14) (size 15 to 20)
#    0.000    1.600    2.000    1.200    5.600    1.600 
#   10.800    0.000    0.000    0.000    0.000    0.000 
#    0.000    0.000    0.000    0.000    0.000    0.000 
#
# Total GULP energy -247921.299848 kJ/mol
# GULP energy per Si atom -12396.064992 kJ/mol
# Density = 2.094419 g / cm^3
# Si number density = 20.991970 Si / 1000 Ang^3
#
#
#
# Elastic Constant Matrix: (Units=GPa)
#
#
# Indices 1 2 3 4 5 6 
#
# 1 130.5517 58.8607 33.9389 -0.0009 11.0467 -0.0006
# 2 58.8607 167.0743 53.7633 0.0013 -6.1832 -0.0006
# 3 33.9389 53.7633 61.6434 0.0010 -8.1588 -0.0027
# 4 -0.0009 0.0013 0.0010 41.2561 -0.0036 -5.5034
# 5 11.0467 -6.1832 -8.1588 -0.0036 29.9938 -0.0026
# 6 -0.0006 -0.0006 -0.0027 -5.5034 -0.0026 46.8340
#
#
#
# Elastic Compliance Matrix: (Units=1/GPa)
#
#
# Indices 1 2 3 4 5 6 
#
# 1 0.010349 -0.002477 -0.004263 0.000000 -0.005481 0.000000
# 2 -0.002477 0.008916 -0.006274 0.000000 0.001044 0.000000
# 3 -0.004263 -0.006274 0.024977 0.000000 0.007071 0.000002
# 4 0.000000 0.000000 0.000000 0.024625 0.000003 0.002894
# 5 -0.005481 0.001044 0.007071 0.000003 0.037497 0.000003
# 6 0.000000 0.000000 0.000002 0.002894 0.000003 0.021692
#
#
# Mechanical properties :
#
#
# Convention : Reuss Voigt Hill
#
# Bulk Modulus (GPa) = 54.90353 72.48834 63.69593
# Shear Modulus (GPa) = 31.21994 37.79725 34.50859
#
# Velocity S-wave (km/s) = 3.86065 4.24790 4.05890
# Velocity P-wave (km/s) = 6.78853 7.65937 7.23706
#
# Compressibility (1/GPa) = 0.01821376
#
# Stress axis : x y z
#
# Youngs Moduli (GPa) = 96.63192 112.16371 40.03675
#
# Poissons Ratio (x) = 0.27782 0.17067
# Poissons Ratio (y) = 0.23935 0.25119
# Poissons Ratio (z) = 0.41192 0.70371
#
# Static dielectric constant tensor:
#      x y z
#    x 3.767610 -0.000010 -0.013310 
#    y -0.000010 3.992350 0.000010 
#    z -0.013310 0.000010 3.694780 
# 
# 
# High freq. dielectric constant tensor:
#      x y z
#    x 1.836150 0.000000 -0.007390 
#    y 0.000000 1.834440 0.000000 
#    z -0.007390 0.000000 1.807370 
# 
# From -- ./inp_files/29233.got.cif
#   From: 2010.06.25/outbox.cif.g09.slc.cpg/sg15_15_cif.got.tgz:29233.got - 2010.06.28 07:06:18.
