data_PCOD8145761
_publ_section_title
;
Structure prediction by ZEFSAII (Michael W. Deem and Ramdas Pophale) SiO2 
 PCOD8145761
Probable space group: C 2/C
;
_chemical_formula_sum "Si O2"
_cell_formula_units_Z 40
_cell_length_a 10.545819
_cell_length_b 17.696759
_cell_length_c 9.521075
_cell_angle_alpha 90.000000
_cell_angle_beta 84.253312
_cell_angle_gamma 90.000000
_cell_volume 1767.957833
_symmetry_space_group_name_H-M "C 2/C"
_symmetry_group_IT_number 15
_symmetry_cell_setting 'monoclinic'
loop_
_space_group_symop_operation_xyz
x,y,z
-x,y,1/2-z
-x,-y,-z
x,-y,1/2+z
1/2+x,1/2+y,z
1/2-x,1/2+y,1/2-z
1/2-x,1/2-y,-z
1/2+x,1/2-y,1/2+z
loop_
_atom_site_type_symbol
_atom_site_label
_atom_site_fract_x
_atom_site_fract_y
_atom_site_fract_z
Si Si1 0.796250 0.424286 0.906261
Si Si2 0.367780 0.045141 0.707555
Si Si3 0.500000 0.812264 0.750000
Si Si4 0.983849 0.077454 0.085036
Si Si5 0.392663 0.724965 0.509159
Si Si6 0.500000 0.187239 0.750000
O O1 0.766086 0.493731 0.800714
O O2 0.656103 0.387808 0.937729
O O3 0.895428 0.362739 0.840378
O O4 0.848096 0.461902 0.043756
O O5 0.500000 0.007078 0.750000
O O6 0.372885 0.134030 0.749648
O O7 0.428077 0.755444 0.656442
O O8 0.000000 0.066818 0.250000
O O9 0.089435 0.135008 0.010160
O O10 0.000000 0.000000 0.000000
O O11 0.250000 0.750000 0.500000
O O12 0.488883 0.761798 0.386913
#
# Coordination Sequence:
#
# PCOD8145761 Si02
#       6
#     8   8   4   8   8   4
#     4  12  24  43  71 106 145 185 239 299 357 439
#     4  10  22  39  69 103 145 184 236 288 367 430
#     4  12  25  44  75 108 136 186 246 294 361 434
#     4  12  29  50  71 103 146 191 238 297 370 436
#     4  12  28  49  74 102 148 193 244 304 368 427
#     4  10  23  44  69 100 138 186 246 294 361 418
#
# _framework density 22.624972
#
# number of rings (size 3 to 8) (size 9 to 14) (size 15 to 20)
#    0.600    0.000    4.000    3.000    7.000    2.400 
#    0.000    0.000    0.000    0.000    0.000    0.000 
#    0.000    0.000    0.000    0.000    0.000    0.000 
#
# Total GULP energy -247912.333177 kJ/mol
# GULP energy per Si atom -12395.616659 kJ/mol
# Density = 2.257348 g / cm^3
# Si number density = 22.624972 Si / 1000 Ang^3
#
#
#
# Elastic Constant Matrix: (Units=GPa)
#
#
# Indices 1 2 3 4 5 6 
#
# 1 132.3090 42.5939 44.6157 0.0000 15.4387 0.0000
# 2 42.5939 149.7067 61.9581 0.0000 5.2139 0.0000
# 3 44.6157 61.9581 180.0727 0.0000 33.4300 0.0000
# 4 0.0000 0.0000 0.0000 39.6584 0.0000 -0.4283
# 5 15.4387 5.2139 33.4300 0.0000 25.7433 0.0000
# 6 0.0000 0.0000 0.0000 -0.4283 0.0000 30.1455
#
#
#
# Elastic Compliance Matrix: (Units=1/GPa)
#
#
# Indices 1 2 3 4 5 6 
#
# 1 0.008951 -0.002093 -0.000764 0.000000 -0.003952 0.000000
# 2 -0.002093 0.008403 -0.003017 0.000000 0.003471 0.000000
# 3 -0.000764 -0.003017 0.008673 0.000000 -0.010194 0.000000
# 4 0.000000 0.000000 0.000000 0.025219 0.000000 0.000358
# 5 -0.003952 0.003471 -0.010194 0.000000 0.053749 0.000000
# 6 0.000000 0.000000 0.000000 0.000358 0.000000 0.033178
#
#
# Mechanical properties :
#
#
# Convention : Reuss Voigt Hill
#
# Bulk Modulus (GPa) = 70.03305 84.49154 77.26230
# Shear Modulus (GPa) = 32.32483 39.97082 36.14783
#
# Velocity S-wave (km/s) = 3.78395 4.20774 4.00146
# Velocity P-wave (km/s) = 7.07899 7.81231 7.45467
#
# Compressibility (1/GPa) = 0.01427897
#
# Stress axis : x y z
#
# Youngs Moduli (GPa) = 111.72543 119.00602 115.29906
#
# Poissons Ratio (x) = 0.24905 0.08808
# Poissons Ratio (y) = 0.23382 0.34787
# Poissons Ratio (z) = 0.08535 0.35906
#
# Static dielectric constant tensor:
#      x y z
#    x 4.108260 0.000000 -0.042250 
#    y 0.000000 4.044920 0.000000 
#    z -0.042250 0.000000 4.141720 
# 
# 
# High freq. dielectric constant tensor:
#      x y z
#    x 1.888100 0.000000 0.005740 
#    y 0.000000 1.895030 0.000000 
#    z 0.005740 0.000000 1.902990 
# 
# From -- ./inp_files/29264.got.cif
#   From: 2010.06.25/outbox.cif.g09.slc.cpg/sg15_15_cif.got.tgz:29264.got - 2010.06.28 07:06:18.
