data_PCOD8145139
_publ_section_title
;
Structure prediction by ZEFSAII (Michael W. Deem and Ramdas Pophale) SiO2 
 PCOD8145139
Probable space group: C 2/C
;
_chemical_formula_sum "Si O2"
_cell_formula_units_Z 44
_cell_length_a 24.090289
_cell_length_b 7.332338
_cell_length_c 16.133080
_cell_angle_alpha 90.000000
_cell_angle_beta 130.199258
_cell_angle_gamma 90.000000
_cell_volume 2176.626552
_symmetry_space_group_name_H-M "C 2/C"
_symmetry_group_IT_number 15
_symmetry_cell_setting 'monoclinic'
loop_
_space_group_symop_operation_xyz
x,y,z
-x,y,1/2-z
-x,-y,-z
x,-y,1/2+z
1/2+x,1/2+y,z
1/2-x,1/2+y,1/2-z
1/2-x,1/2-y,-z
1/2+x,1/2-y,1/2+z
loop_
_atom_site_type_symbol
_atom_site_label
_atom_site_fract_x
_atom_site_fract_y
_atom_site_fract_z
Si Si1 0.675195 0.711898 0.195160
Si Si2 0.460826 0.259224 0.019527
Si Si3 0.162847 0.624560 0.195239
Si Si4 0.000000 0.873980 0.750000
Si Si5 0.592901 0.430007 0.219751
Si Si6 0.459311 0.865895 0.056430
O O1 0.757109 0.695081 0.245542
O O2 0.652944 0.570136 0.244586
O O3 0.663716 0.914051 0.220004
O O4 0.622913 0.672817 0.064665
O O5 0.514945 0.423566 0.095734
O O6 0.468237 0.081985 0.086432
O O7 0.473744 0.192848 0.937108
O O8 0.129061 0.730187 0.243018
O O9 0.115471 0.667145 0.067013
O O10 0.964100 0.748010 0.645161
O O11 0.932783 0.004929 0.714081
#
# Coordination Sequence:
#
# PCOD8145139 Si02
#       6
#     8   8   8   4   8   8
#     4  11  19  37  65  93 115 153 208 255 288 345
#     4   9  19  38  64  86 114 156 215 243 281 354
#     4  10  22  37  64  89 118 157 206 249 294 352
#     4  12  24  36  60  92 128 156 196 250 310 352
#     4  11  23  37  60  93 118 159 200 244 302 355
#     4   9  20  38  60  89 117 157 201 251 293 351
#
# _framework density 20.214767999999999
#
# number of rings (size 3 to 8) (size 9 to 14) (size 15 to 20)
#    0.000    1.818    3.636    1.636    2.545    0.727 
#    0.000    0.909    0.000    2.182    0.000    0.000 
#    0.000    0.000    0.000    0.000    0.000    0.000 
#
# Total GULP energy -272552.507600 kJ/mol
# GULP energy per Si atom -12388.750345 kJ/mol
# Density = 2.016876 g / cm^3
# Si number density = 20.214768 Si / 1000 Ang^3
#
#
#
# Elastic Constant Matrix: (Units=GPa)
#
#
# Indices 1 2 3 4 5 6 
#
# 1 112.7596 35.9537 36.2508 0.0000 18.0202 0.0000
# 2 35.9537 93.2261 17.8906 0.0000 -1.7899 0.0000
# 3 36.2508 17.8906 56.8368 0.0000 13.8691 0.0000
# 4 0.0000 0.0000 0.0000 -27.4518 0.0000 65.8826
# 5 18.0202 -1.7899 13.8691 0.0000 36.2435 0.0000
# 6 0.0000 0.0000 0.0000 65.8826 0.0000 -40.7668
#
#
#
# Elastic Compliance Matrix: (Units=1/GPa)
#
#
# Indices 1 2 3 4 5 6 
#
# 1 0.012642 -0.003841 -0.005818 0.000000 -0.004249 0.000000
# 2 -0.003841 0.012735 -0.002403 0.000000 0.003458 0.000000
# 3 -0.005818 -0.002403 0.023587 0.000000 -0.006252 0.000000
# 4 0.000000 0.000000 0.000000 0.012655 0.000000 0.020452
# 5 -0.004249 0.003458 -0.006252 0.000000 0.032267 0.000000
# 6 0.000000 0.000000 0.000000 0.020452 0.000000 0.008522
#
#
# Mechanical properties :
#
#
# Convention : Reuss Voigt Hill
#
# Bulk Modulus (GPa) = 40.25444 49.22362 44.73903
# Shear Modulus (GPa) = 37.08888 5.12015 21.10452
#
# Velocity S-wave (km/s) = 4.28804 1.59323 3.23463
# Velocity P-wave (km/s) = 6.66880 5.27140 6.01085
#
# Compressibility (1/GPa) = 0.02484198
#
# Stress axis : x y z
#
# Youngs Moduli (GPa) = 79.09865 78.52129 42.39701
#
# Poissons Ratio (x) = 0.30159 0.24664
# Poissons Ratio (y) = 0.30381 0.10187
# Poissons Ratio (z) = 0.46016 0.18867
#
# Static dielectric constant tensor:
#      x y z
#    x 3.718790 0.000000 0.330360 
#    y 0.000000 4.064010 0.000000 
#    z 0.330360 0.000000 3.366980 
# 
# 
# High freq. dielectric constant tensor:
#      x y z
#    x 1.779280 0.000000 0.034760 
#    y 0.000000 1.818640 0.000000 
#    z 0.034760 0.000000 1.744180 
# 
# From -- ./inp_files/166476.got.cif
#   From: 2010.06.25/outbox.cif.g09.slc.cpg/sg15_84_cif.got.tgz:166476.got - 2010.06.28 07:06:18.
