data_PCOD8145252
_publ_section_title
;
Structure prediction by ZEFSAII (Michael W. Deem and Ramdas Pophale) SiO2 
 PCOD8145252
Probable space group: C 2/C
;
_chemical_formula_sum "Si O2"
_cell_formula_units_Z 60
_cell_length_a 22.635820
_cell_length_b 5.121706
_cell_length_c 25.920381
_cell_angle_alpha 90.000000
_cell_angle_beta 103.093913
_cell_angle_gamma 90.000000
_cell_volume 2926.922565
_symmetry_space_group_name_H-M "C 2/C"
_symmetry_group_IT_number 15
_symmetry_cell_setting 'monoclinic'
loop_
_space_group_symop_operation_xyz
x,y,z
-x,y,1/2-z
-x,-y,-z
x,-y,1/2+z
1/2+x,1/2+y,z
1/2-x,1/2+y,1/2-z
1/2-x,1/2-y,-z
1/2+x,1/2-y,1/2+z
loop_
_atom_site_type_symbol
_atom_site_label
_atom_site_fract_x
_atom_site_fract_y
_atom_site_fract_z
Si Si1 0.359275 0.232875 0.867946
Si Si2 0.500000 0.172636 0.750000
Si Si3 0.889557 0.286357 0.718872
Si Si4 0.418251 0.721849 0.835183
Si Si5 0.919941 0.746119 0.979601
Si Si6 0.461638 0.501168 0.152285
Si Si7 0.050565 0.748283 0.956612
Si Si8 0.742955 0.158229 0.282749
O O1 0.393158 0.508427 0.869288
O O2 0.363344 0.182324 0.930397
O O3 0.290144 0.255084 0.835967
O O4 0.392244 0.006729 0.842206
O O5 0.494401 0.342164 0.800335
O O6 0.438160 0.015521 0.732004
O O7 0.896982 0.130286 0.773895
O O8 0.820959 0.391003 0.700986
O O9 0.903392 0.107474 0.671678
O O10 0.492145 0.730618 0.856774
O O11 0.979869 0.728710 0.956082
O O12 0.919241 0.531078 0.025044
O O13 0.915183 0.031187 0.003415
O O14 0.439308 0.683476 0.101390
O O15 0.736346 0.388138 0.239288
#
# Coordination Sequence:
#
# PCOD8145252 Si02
#       8
#     8   4   8   8   8   8   8   8
#     4  12  23  41  66  88 130 167 204 263 309 371
#     4  12  24  40  62  94 132 166 206 248 320 398
#     4  12  25  38  61  94 131 169 210 244 315 391
#     4  12  22  38  63  94 126 168 200 245 323 373
#     4  10  22  38  60  90 120 163 214 258 316 363
#     4  12  25  38  62  96 136 169 200 263 316 388
#     4  10  23  37  60  90 124 160 208 266 311 366
#     4  12  26  42  63  93 128 169 211 257 307 376
#
# _framework density 20.499348000000001
#
# number of rings (size 3 to 8) (size 9 to 14) (size 15 to 20)
#    0.000    0.533    6.667    1.600    7.467    0.000 
#    0.000    0.000    0.000    1.600    0.000    0.000 
#    0.000    0.000    0.000    0.000    0.000    0.000 
#
# Total GULP energy -371971.375454 kJ/mol
# GULP energy per Si atom -12399.045848 kJ/mol
# Density = 2.045269 g / cm^3
# Si number density = 20.499348 Si / 1000 Ang^3
#
#
#
# Elastic Constant Matrix: (Units=GPa)
#
#
# Indices 1 2 3 4 5 6 
#
# 1 115.6746 30.0063 28.8849 -0.0002 7.7274 0.0000
# 2 30.0063 86.1395 7.5007 0.0006 -2.3424 0.0005
# 3 28.8849 7.5007 100.0682 0.0001 11.5395 0.0002
# 4 -0.0002 0.0006 0.0001 85.2187 0.0000 39.8245
# 5 7.7274 -2.3424 11.5395 0.0000 27.7750 0.0000
# 6 0.0000 0.0005 0.0002 39.8245 0.0000 31.0696
#
#
#
# Elastic Compliance Matrix: (Units=1/GPa)
#
#
# Indices 1 2 3 4 5 6 
#
# 1 0.010293 -0.003428 -0.002469 0.000000 -0.002127 0.000000
# 2 -0.003428 0.012881 -0.000222 0.000000 0.002132 0.000000
# 3 -0.002469 -0.000222 0.011181 0.000000 -0.003977 0.000000
# 4 0.000000 0.000000 0.000000 0.029263 0.000000 -0.037509
# 5 -0.002127 0.002132 -0.003977 0.000000 0.038427 0.000000
# 6 0.000000 0.000000 0.000000 -0.037509 0.000000 0.080264
#
#
# Mechanical properties :
#
#
# Convention : Reuss Voigt Hill
#
# Bulk Modulus (GPa) = 45.21461 48.29622 46.75541
# Shear Modulus (GPa) = 24.76231 44.51204 34.63717
#
# Velocity S-wave (km/s) = 3.47934 4.66487 4.11502
# Velocity P-wave (km/s) = 6.18430 7.25436 6.74060
#
# Compressibility (1/GPa) = 0.02211674
#
# Stress axis : x y z
#
# Youngs Moduli (GPa) = 97.15504 77.63609 89.43694
#
# Poissons Ratio (x) = 0.26616 0.22080
# Poissons Ratio (y) = 0.33308 0.01983
# Poissons Ratio (z) = 0.23986 0.01722
#
# Static dielectric constant tensor:
#      x y z
#    x 3.641250 0.000000 -0.091910 
#    y 0.000000 3.835550 0.000000 
#    z -0.091910 0.000000 3.937600 
# 
# 
# High freq. dielectric constant tensor:
#      x y z
#    x 1.761780 0.000000 0.011070 
#    y 0.000000 1.815470 0.000000 
#    z 0.011070 0.000000 1.797740 
# 
# From -- ./inp_files/278963.got.cif
#   From: 2010.06.25/outbox.cif.g09.slc.cpg/sg15_140_cif.got.tgz:278963.got - 2010.06.28 07:06:18.
