data_PCOD8145540
_publ_section_title
;
Structure prediction by ZEFSAII (Michael W. Deem and Ramdas Pophale) SiO2 
 PCOD8145540
Probable space group: C 2/C
;
_chemical_formula_sum "Si O2"
_cell_formula_units_Z 56
_cell_length_a 9.587045
_cell_length_b 26.340188
_cell_length_c 18.272136
_cell_angle_alpha 90.000000
_cell_angle_beta 36.746882
_cell_angle_gamma 90.000000
_cell_volume 2760.566181
_symmetry_space_group_name_H-M "C 2/C"
_symmetry_group_IT_number 15
_symmetry_cell_setting 'monoclinic'
loop_
_space_group_symop_operation_xyz
x,y,z
-x,y,1/2-z
-x,-y,-z
x,-y,1/2+z
1/2+x,1/2+y,z
1/2-x,1/2+y,1/2-z
1/2-x,1/2-y,-z
1/2+x,1/2-y,1/2+z
loop_
_atom_site_type_symbol
_atom_site_label
_atom_site_fract_x
_atom_site_fract_y
_atom_site_fract_z
Si Si1 0.917258 0.296637 0.940914
Si Si2 0.408965 0.182268 0.978931
Si Si3 0.739110 0.519207 0.190011
Si Si4 0.080244 0.567216 0.524233
Si Si5 0.976057 0.043142 0.070999
Si Si6 0.250489 0.357848 0.614216
Si Si7 0.585046 0.718759 0.338485
O O1 0.796912 0.343782 0.950021
O O2 0.928095 0.310943 0.020003
O O3 0.181064 0.283748 0.806407
O O4 0.750000 0.250000 0.000000
O O5 0.451835 0.124844 0.935884
O O6 0.131212 0.189926 0.110081
O O7 0.505320 0.222568 0.879429
O O8 0.500000 0.510620 0.250000
O O9 0.875948 0.561284 0.082494
O O10 0.721897 0.535941 0.282536
O O11 0.854596 0.464115 0.141014
O O12 0.285977 0.543536 0.485125
O O13 0.924941 0.095050 0.048955
O O14 0.000000 0.000000 0.000000
O O15 0.363951 0.308469 0.605501
O O16 0.000000 0.373222 0.750000
#
# Coordination Sequence:
#
# PCOD8145540 Si02
#       7
#     8   8   8   8   8   8   8
#     4  11  23  39  62  94 127 166 207 260 315 378
#     4  11  22  40  66  91 126 168 207 257 319 377
#     4   9  22  42  62  91 126 160 215 266 311 380
#     4  10  22  41  66  93 124 164 217 261 321 376
#     4  11  24  40  64  92 127 168 211 265 322 381
#     4  10  22  39  61  88 123 157 213 256 302 371
#     4  10  22  41  62  91 125 161 210 256 304 381
#
# _framework density 20.285693999999999
#
# number of rings (size 3 to 8) (size 9 to 14) (size 15 to 20)
#    0.000    1.714    2.857    0.429    6.000    3.429 
#    5.143    0.000    3.143    0.000    0.000    0.000 
#    0.000    0.000    0.000    0.000    0.000    0.000 
#
# Total GULP energy -347039.996594 kJ/mol
# GULP energy per Si atom -12394.285593 kJ/mol
# Density = 2.023952 g / cm^3
# Si number density = 20.285694 Si / 1000 Ang^3
#
#
#
# Elastic Constant Matrix: (Units=GPa)
#
#
# Indices 1 2 3 4 5 6 
#
# 1 77.8380 11.4376 4.4013 0.0000 11.0787 0.0000
# 2 11.4376 121.1752 19.3207 0.0000 2.0678 0.0000
# 3 4.4013 19.3207 40.8354 -0.0001 0.5061 -0.0001
# 4 0.0000 0.0000 -0.0001 19.7333 0.0000 -8.9772
# 5 11.0787 2.0678 0.5061 0.0000 28.8046 0.0000
# 6 0.0000 0.0000 -0.0001 -8.9772 0.0000 37.3583
#
#
#
# Elastic Compliance Matrix: (Units=1/GPa)
#
#
# Indices 1 2 3 4 5 6 
#
# 1 0.013798 -0.001067 -0.000918 0.000000 -0.005214 0.000000
# 2 -0.001067 0.009018 -0.004150 0.000000 -0.000164 0.000000
# 3 -0.000918 -0.004150 0.026548 0.000000 0.000184 0.000000
# 4 0.000000 0.000000 0.000000 0.056895 0.000000 0.013672
# 5 -0.005214 -0.000164 0.000184 0.000000 0.036731 0.000000
# 6 0.000000 0.000000 0.000000 0.013672 0.000000 0.030053
#
#
# Mechanical properties :
#
#
# Convention : Reuss Voigt Hill
#
# Bulk Modulus (GPa) = 26.95739 34.46308 30.71023
# Shear Modulus (GPa) = 25.29376 30.82518 28.05947
#
# Velocity S-wave (km/s) = 3.53495 3.90237 3.72319
# Velocity P-wave (km/s) = 5.47529 6.10986 5.80126
#
# Compressibility (1/GPa) = 0.03709558
#
# Stress axis : x y z
#
# Youngs Moduli (GPa) = 72.47417 110.89360 37.66700
#
# Poissons Ratio (x) = 0.11833 0.03457
# Poissons Ratio (y) = 0.07734 0.15630
# Poissons Ratio (z) = 0.06651 0.46016
#
# Static dielectric constant tensor:
#      x y z
#    x 4.382600 0.000000 0.107790 
#    y 0.000000 3.564330 0.000000 
#    z 0.107790 0.000000 3.648770 
# 
# 
# High freq. dielectric constant tensor:
#      x y z
#    x 1.812380 0.000000 -0.012790 
#    y 0.000000 1.792580 0.000000 
#    z -0.012790 0.000000 1.767520 
# 
# From -- ./inp_files/82140.got.cif
#   From: 2010.06.25/outbox.cif.g09.slc.cpg/sg15_42_cif.got.tgz:82140.got - 2010.06.28 07:06:18.
