data_PCOD8145708
_publ_section_title
;
Structure prediction by ZEFSAII (Michael W. Deem and Ramdas Pophale) SiO2 
 PCOD8145708
Probable space group: C 2/C
;
_chemical_formula_sum "Si O2"
_cell_formula_units_Z 40
_cell_length_a 8.452022
_cell_length_b 25.162003
_cell_length_c 15.948968
_cell_angle_alpha 90.000000
_cell_angle_beta 144.020418
_cell_angle_gamma 90.000000
_cell_volume 1992.709558
_symmetry_space_group_name_H-M "C 2/C"
_symmetry_group_IT_number 15
_symmetry_cell_setting 'monoclinic'
loop_
_space_group_symop_operation_xyz
x,y,z
-x,y,1/2-z
-x,-y,-z
x,-y,1/2+z
1/2+x,1/2+y,z
1/2-x,1/2+y,1/2-z
1/2-x,1/2-y,-z
1/2+x,1/2-y,1/2+z
loop_
_atom_site_type_symbol
_atom_site_label
_atom_site_fract_x
_atom_site_fract_y
_atom_site_fract_z
Si Si1 0.416093 0.606631 0.384558
Si Si2 0.703042 0.871203 0.118846
Si Si3 0.905981 0.426813 0.591374
Si Si4 0.552776 0.949399 0.367998
Si Si5 0.314238 0.700132 0.086193
O O1 0.198862 0.599725 0.218551
O O2 0.646484 0.562953 0.473039
O O3 0.534890 0.664605 0.418461
O O4 0.281146 0.597964 0.416868
O O5 0.657998 0.910878 0.176844
O O6 0.000000 0.843488 0.250000
O O7 0.724648 0.912030 0.051503
O O8 0.470372 0.826743 0.008572
O O9 0.975652 0.488582 0.628545
O O10 0.500000 0.935288 0.250000
O O11 0.500000 0.711627 0.250000
O O12 0.250000 0.750000 0.000000
#
# Coordination Sequence:
#
# PCOD8145708 Si02
#       5
#     8   8   8   8   8
#     4  10  22  39  66  91 131 169 215 261 318 385
#     4  11  25  42  65  98 132 166 222 268 317 390
#     4  11  21  39  63  95 133 173 212 260 315 384
#     4  11  22  36  61  95 136 180 213 251 314 386
#     4  11  25  49  71  95 125 173 220 282 343 389
#
# _framework density 20.073170999999999
#
# number of rings (size 3 to 8) (size 9 to 14) (size 15 to 20)
#    0.000    1.200    4.000    2.400    2.800    4.800 
#    3.600    2.000    0.000    0.000    0.000    0.000 
#    0.000    0.000    0.000    0.000    0.000    0.000 
#
# Total GULP energy -247784.578753 kJ/mol
# GULP energy per Si atom -12389.228938 kJ/mol
# Density = 2.002748 g / cm^3
# Si number density = 20.073171 Si / 1000 Ang^3
#
#
#
# Elastic Constant Matrix: (Units=GPa)
#
#
# Indices 1 2 3 4 5 6 
#
# 1 80.9206 48.7297 62.2269 0.0000 3.0541 0.0000
# 2 48.7297 113.0115 47.4570 0.0000 5.2581 0.0000
# 3 62.2269 47.4570 117.8479 -0.0003 16.1062 -0.0002
# 4 0.0000 0.0000 -0.0003 28.1618 0.0000 -9.0403
# 5 3.0541 5.2581 16.1062 0.0000 43.4793 0.0000
# 6 0.0000 0.0000 -0.0002 -9.0403 0.0000 24.4031
#
#
#
# Elastic Compliance Matrix: (Units=1/GPa)
#
#
# Indices 1 2 3 4 5 6 
#
# 1 0.024122 -0.006042 -0.010715 0.000000 0.003005 0.000000
# 2 -0.006042 0.012167 -0.001650 0.000000 -0.000436 0.000000
# 3 -0.010715 -0.001650 0.015460 0.000000 -0.004775 0.000000
# 4 0.000000 0.000000 0.000000 0.040302 0.000000 0.014930
# 5 0.003005 -0.000436 -0.004775 0.000000 0.024610 0.000000
# 6 0.000000 0.000000 0.000000 0.014930 0.000000 0.046509
#
#
# Mechanical properties :
#
#
# Convention : Reuss Voigt Hill
#
# Bulk Modulus (GPa) = 66.95029 69.84525 68.39777
# Shear Modulus (GPa) = 24.39476 29.43327 26.91402
#
# Velocity S-wave (km/s) = 3.48989 3.83338 3.66566
# Velocity P-wave (km/s) = 7.04731 7.37997 7.21556
#
# Compressibility (1/GPa) = 0.01493645
#
# Stress axis : x y z
#
# Youngs Moduli (GPa) = 41.45549 82.19049 64.68182
#
# Poissons Ratio (x) = 0.49656 0.69307
# Poissons Ratio (y) = 0.25046 0.10672
# Poissons Ratio (z) = 0.44420 0.13560
#
# Static dielectric constant tensor:
#      x y z
#    x 3.942490 0.000000 0.103100 
#    y 0.000000 3.450810 0.000000 
#    z 0.103100 0.000000 4.133870 
# 
# 
# High freq. dielectric constant tensor:
#      x y z
#    x 1.791890 0.000000 0.003670 
#    y 0.000000 1.768000 0.000000 
#    z 0.003670 0.000000 1.807170 
# 
# From -- ./inp_files/137095.got.cif
#   From: 2010.06.25/outbox.cif.g09.slc.cpg/sg15_69_cif.got.tgz:137095.got - 2010.06.28 07:06:18.
