data_PCOD8145787
_publ_section_title
;
Structure prediction by ZEFSAII (Michael W. Deem and Ramdas Pophale) SiO2 
 PCOD8145787
Probable space group: C 2/C
;
_chemical_formula_sum "Si O2"
_cell_formula_units_Z 36
_cell_length_a 15.197414
_cell_length_b 27.213785
_cell_length_c 9.329944
_cell_angle_alpha 90.000000
_cell_angle_beta 28.559362
_cell_angle_gamma 90.000000
_cell_volume 1844.710739
_symmetry_space_group_name_H-M "C 2/C"
_symmetry_group_IT_number 15
_symmetry_cell_setting 'monoclinic'
loop_
_space_group_symop_operation_xyz
x,y,z
-x,y,1/2-z
-x,-y,-z
x,-y,1/2+z
1/2+x,1/2+y,z
1/2-x,1/2+y,1/2-z
1/2-x,1/2-y,-z
1/2+x,1/2-y,1/2+z
loop_
_atom_site_type_symbol
_atom_site_label
_atom_site_fract_x
_atom_site_fract_y
_atom_site_fract_z
Si Si1 0.121563 0.313534 0.793601
Si Si2 0.285022 0.459379 0.204005
Si Si3 0.697043 0.445748 0.648379
Si Si4 0.000000 0.636144 0.750000
Si Si5 0.000000 0.389709 0.750000
Si Si6 0.000000 0.234496 0.750000
O O1 0.330442 0.300467 0.530453
O O2 0.126492 0.357742 0.673604
O O3 0.024862 0.266701 0.858124
O O4 0.011983 0.328863 0.093886
O O5 0.236739 0.512436 0.337503
O O6 0.128875 0.421399 0.465674
O O7 0.478687 0.436726 0.982999
O O8 0.276359 0.467121 0.047439
O O9 0.814848 0.396713 0.507326
#
# Coordination Sequence:
#
# PCOD8145787 Si02
#       6
#     8   8   8   4   4   4
#     4  10  23  40  66  89 119 152 198 247 309 363
#     4  10  22  40  57  84 127 169 200 243 290 343
#     4  10  23  39  57  87 127 164 204 241 292 343
#     4  12  23  38  61 100 116 156 203 252 287 358
#     4  11  21  38  62  90 116 164 198 252 287 355
#     4   9  22  48  63  88 118 154 193 244 322 379
#
# _framework density 19.515256000000001
#
# number of rings (size 3 to 8) (size 9 to 14) (size 15 to 20)
#    0.000    1.778    2.222    0.667    6.222    2.667 
#    0.000    0.000    0.000    0.000    0.000    0.000 
#    0.000    0.000    0.000    0.000    0.000    0.000 
#
# Total GULP energy -223240.411883 kJ/mol
# GULP energy per Si atom -12402.245105 kJ/mol
# Density = 1.947084 g / cm^3
# Si number density = 19.515256 Si / 1000 Ang^3
#
#
#
# Elastic Constant Matrix: (Units=GPa)
#
#
# Indices 1 2 3 4 5 6 
#
# 1 84.5655 37.3032 36.5406 0.0000 2.6285 0.0002
# 2 37.3032 90.6605 61.0201 0.0000 -3.9873 -0.0001
# 3 36.5406 61.0201 102.4789 -0.0001 -5.1438 0.0001
# 4 0.0000 0.0000 -0.0001 48.0997 -0.0001 5.6837
# 5 2.6285 -3.9873 -5.1438 -0.0001 34.9837 -0.0003
# 6 0.0002 -0.0001 0.0001 5.6837 -0.0003 29.9437
#
#
#
# Elastic Compliance Matrix: (Units=1/GPa)
#
#
# Indices 1 2 3 4 5 6 
#
# 1 0.015050 -0.004341 -0.002884 0.000000 -0.002050 0.000000
# 2 -0.004341 0.019668 -0.010109 0.000000 0.001082 0.000000
# 3 -0.002884 -0.010109 0.016883 0.000000 0.001547 0.000000
# 4 0.000000 0.000000 0.000000 0.021267 0.000000 -0.004037
# 5 -0.002050 0.001082 0.001547 0.000000 0.029089 0.000000
# 6 0.000000 0.000000 0.000000 -0.004037 0.000000 0.034162
#
#
# Mechanical properties :
#
#
# Convention : Reuss Voigt Hill
#
# Bulk Modulus (GPa) = 59.05774 60.82585 59.94179
# Shear Modulus (GPa) = 28.33933 32.12816 30.23374
#
# Velocity S-wave (km/s) = 3.81486 4.06188 3.94030
# Velocity P-wave (km/s) = 7.05211 7.29620 7.17519
#
# Compressibility (1/GPa) = 0.01693258
#
# Stress axis : x y z
#
# Youngs Moduli (GPa) = 66.44427 50.84432 59.23011
#
# Poissons Ratio (x) = 0.22074 0.17083
# Poissons Ratio (y) = 0.28847 0.59874
# Poissons Ratio (z) = 0.19164 0.51397
#
# Static dielectric constant tensor:
#      x y z
#    x 3.701000 0.000000 -0.051750 
#    y 0.000000 3.510120 0.000000 
#    z -0.051750 0.000000 3.645460 
# 
# 
# High freq. dielectric constant tensor:
#      x y z
#    x 1.773000 0.000000 -0.000160 
#    y 0.000000 1.754450 0.000000 
#    z -0.000160 0.000000 1.763900 
# 
# From -- ./inp_files/23124.got.cif
#   From: 2010.06.25/outbox.cif.g09.slc.cpg/sg15_12_cif.got.tgz:23124.got - 2010.06.28 07:06:18.
