data_PCOD8145334
_publ_section_title
;
Structure prediction by ZEFSAII (Michael W. Deem and Ramdas Pophale) SiO2 
 PCOD8145334
Probable space group: C 2/C
;
_chemical_formula_sum "Si O2"
_cell_formula_units_Z 56
_cell_length_a 12.445205
_cell_length_b 25.488040
_cell_length_c 8.468761
_cell_angle_alpha 90.000000
_cell_angle_beta 68.138414
_cell_angle_gamma 90.000000
_cell_volume 2493.139887
_symmetry_space_group_name_H-M "C 2/C"
_symmetry_group_IT_number 15
_symmetry_cell_setting 'monoclinic'
loop_
_space_group_symop_operation_xyz
x,y,z
-x,y,1/2-z
-x,-y,-z
x,-y,1/2+z
1/2+x,1/2+y,z
1/2-x,1/2+y,1/2-z
1/2-x,1/2-y,-z
1/2+x,1/2-y,1/2+z
loop_
_atom_site_type_symbol
_atom_site_label
_atom_site_fract_x
_atom_site_fract_y
_atom_site_fract_z
Si Si1 0.999024 0.881179 0.575712
Si Si2 0.089772 0.213138 0.574102
Si Si3 0.314752 0.193435 0.653473
Si Si4 0.104842 0.475698 0.297350
Si Si5 0.409248 0.900064 0.933208
Si Si6 0.763260 0.926326 0.718570
Si Si7 0.257243 0.883678 0.439553
O O1 0.968005 0.838128 0.464688
O O2 0.903336 0.928426 0.627226
O O3 0.000000 0.855492 0.750000
O O4 0.126964 0.902395 0.465349
O O5 0.203186 0.195495 0.604497
O O6 0.118883 0.251407 0.408894
O O7 0.000000 0.238894 0.750000
O O8 0.405523 0.149582 0.548372
O O9 0.282105 0.175064 0.851906
O O10 0.055638 0.453043 0.490091
O O11 0.205560 0.517222 0.282287
O O12 0.157418 0.426132 0.179045
O O13 0.000000 0.499936 0.250000
O O14 0.500000 0.888670 0.750000
O O15 0.283211 0.905564 0.922755
O O16 0.727778 0.885219 0.878367
#
# Coordination Sequence:
#
# PCOD8145334 Si02
#       7
#     8   8   8   8   8   8   8
#     4  10  22  41  64  92 131 173 215 268 330 385
#     4  11  20  40  68  93 129 168 214 267 323 390
#     4  10  22  38  63  98 123 166 216 265 327 386
#     4  11  24  42  65  96 132 174 223 273 329 384
#     4  11  22  38  61  93 128 171 217 267 328 384
#     4  11  22  39  63  90 129 173 218 271 322 388
#     4  10  22  42  63  94 132 170 215 268 327 387
#
# _framework density 22.461635999999999
#
# number of rings (size 3 to 8) (size 9 to 14) (size 15 to 20)
#    0.000    1.429    2.857    2.571    0.000    2.286 
#    0.000   10.000    0.000    0.000    0.000    0.000 
#    0.000    0.000    0.000    0.000    0.000    0.000 
#
# Total GULP energy -346954.999662 kJ/mol
# GULP energy per Si atom -12391.249988 kJ/mol
# Density = 2.241051 g / cm^3
# Si number density = 22.461636 Si / 1000 Ang^3
#
#
#
# Elastic Constant Matrix: (Units=GPa)
#
#
# Indices 1 2 3 4 5 6 
#
# 1 93.2755 23.5886 32.0435 0.0000 -2.4899 0.0000
# 2 23.5886 76.1617 21.9384 0.0000 3.2938 0.0000
# 3 32.0435 21.9384 87.7500 0.0000 -3.8814 0.0000
# 4 0.0000 0.0000 0.0000 28.5919 0.0000 -1.4902
# 5 -2.4899 3.2938 -3.8814 0.0000 39.8261 0.0000
# 6 0.0000 0.0000 0.0000 -1.4902 0.0000 13.8168
#
#
#
# Elastic Compliance Matrix: (Units=1/GPa)
#
#
# Indices 1 2 3 4 5 6 
#
# 1 0.012814 -0.002864 -0.003934 0.000000 0.000655 0.000000
# 2 -0.002864 0.014881 -0.002749 0.000000 -0.001678 0.000000
# 3 -0.003934 -0.002749 0.013578 0.000000 0.001305 0.000000
# 4 0.000000 0.000000 0.000000 0.035173 0.000000 0.003794
# 5 0.000655 -0.001678 0.001305 0.000000 0.025416 0.000000
# 6 0.000000 0.000000 0.000000 0.003794 0.000000 0.072785
#
#
# Mechanical properties :
#
#
# Convention : Reuss Voigt Hill
#
# Bulk Modulus (GPa) = 45.08774 45.81425 45.45100
# Shear Modulus (GPa) = 24.85903 28.42139 26.64021
#
# Velocity S-wave (km/s) = 3.33037 3.56101 3.44762
# Velocity P-wave (km/s) = 5.90807 6.11135 6.01057
#
# Compressibility (1/GPa) = 0.02217898
#
# Stress axis : x y z
#
# Youngs Moduli (GPa) = 78.03816 67.19841 73.65012
#
# Poissons Ratio (x) = 0.19244 0.28977
# Poissons Ratio (y) = 0.22348 0.20246
# Poissons Ratio (z) = 0.30703 0.18472
#
# Static dielectric constant tensor:
#      x y z
#    x 4.292780 0.000000 0.021600 
#    y 0.000000 3.865480 0.000000 
#    z 0.021600 0.000000 4.472180 
# 
# 
# High freq. dielectric constant tensor:
#      x y z
#    x 1.889590 0.000000 -0.007220 
#    y 0.000000 1.859340 0.000000 
#    z -0.007220 0.000000 1.901810 
# 
# From -- ./inp_files/34180.got.cif
#   From: 2010.06.25/outbox.cif.g09.slc.cpg/sg15_18_cif.got.tgz:34180.got - 2010.06.28 07:06:18.
