data_PCOD8145068
_publ_section_title
;
Structure prediction by ZEFSAII (Michael W. Deem and Ramdas Pophale) SiO2 
 PCOD8145068
Probable space group: C 2/C
;
_chemical_formula_sum "Si O2"
_cell_formula_units_Z 48
_cell_length_a 18.519781
_cell_length_b 14.019236
_cell_length_c 11.199351
_cell_angle_alpha 90.000000
_cell_angle_beta 58.867096
_cell_angle_gamma 90.000000
_cell_volume 2488.924652
_symmetry_space_group_name_H-M "C 2/C"
_symmetry_group_IT_number 15
_symmetry_cell_setting 'monoclinic'
loop_
_space_group_symop_operation_xyz
x,y,z
-x,y,1/2-z
-x,-y,-z
x,-y,1/2+z
1/2+x,1/2+y,z
1/2-x,1/2+y,1/2-z
1/2-x,1/2-y,-z
1/2+x,1/2-y,1/2+z
loop_
_atom_site_type_symbol
_atom_site_label
_atom_site_fract_x
_atom_site_fract_y
_atom_site_fract_z
Si Si1 0.737572 0.054749 0.290030
Si Si2 0.767539 0.336413 0.159362
Si Si3 0.000000 0.283490 0.250000
Si Si4 0.680497 0.277438 0.658994
Si Si5 0.664189 0.829462 0.658808
Si Si6 0.943109 0.556706 0.958169
Si Si7 0.000000 0.406673 0.750000
O O1 0.806457 0.115407 0.303507
O O2 0.728055 0.090430 0.160219
O O3 0.647816 0.085705 0.419443
O O4 0.760100 0.944018 0.284050
O O5 0.815010 0.296767 0.235154
O O6 0.685266 0.273384 0.198829
O O7 0.827714 0.330178 0.992006
O O8 0.085484 0.221851 0.188008
O O9 0.008150 0.349354 0.126018
O O10 0.750000 0.250000 0.500000
O O11 0.563995 0.843886 0.776706
O O12 0.930357 0.477183 0.867155
O O13 0.000000 0.500000 0.000000
#
# Coordination Sequence:
#
# PCOD8145068 Si02
#       7
#     8   8   4   8   8   8   4
#     4  11  21  38  63  90 123 165 203 247 314 369
#     4  10  23  40  58  85 125 162 202 249 303 369
#     4  11  24  38  57  92 130 150 209 260 301 364
#     4  11  24  41  63  92 124 165 202 253 310 373
#     4  10  22  37  56  88 124 161 197 251 308 360
#     4  11  20  32  57  92 122 154 196 255 313 359
#     4  11  20  30  57  90 120 152 199 252 309 360
#
# _framework density 19.285437999999999
#
# number of rings (size 3 to 8) (size 9 to 14) (size 15 to 20)
#    0.000    1.333    5.000    1.000    4.667    0.000 
#    0.000    0.833    0.000    1.000    0.000    0.000 
#    0.000    0.000    0.000    0.000    0.000    0.000 
#
# Total GULP energy -297350.339383 kJ/mol
# GULP energy per Si atom -12389.597474 kJ/mol
# Density = 1.924154 g / cm^3
# Si number density = 19.285438 Si / 1000 Ang^3
#
#
#
# Elastic Constant Matrix: (Units=GPa)
#
#
# Indices 1 2 3 4 5 6 
#
# 1 134.1558 58.1681 30.1780 0.0000 -3.5547 0.0000
# 2 58.1681 136.9774 19.2524 0.0000 4.6058 0.0000
# 3 30.1780 19.2524 72.7711 0.0000 9.4718 0.0000
# 4 0.0000 0.0000 0.0000 20.3428 0.0000 -4.7999
# 5 -3.5547 4.6058 9.4718 0.0000 31.5099 0.0000
# 6 0.0000 0.0000 0.0000 -4.7999 0.0000 28.9912
#
#
#
# Elastic Compliance Matrix: (Units=1/GPa)
#
#
# Indices 1 2 3 4 5 6 
#
# 1 0.009972 -0.003838 -0.003476 0.000000 0.002731 0.000000
# 2 -0.003838 0.009068 -0.000602 0.000000 -0.001577 0.000000
# 3 -0.003476 -0.000602 0.016008 0.000000 -0.005116 0.000000
# 4 0.000000 0.000000 0.000000 0.051156 0.000000 0.008470
# 5 0.002731 -0.001577 -0.005116 0.000000 0.033813 0.000000
# 6 0.000000 0.000000 0.000000 0.008470 0.000000 0.035895
#
#
# Mechanical properties :
#
#
# Convention : Reuss Voigt Hill
#
# Bulk Modulus (GPa) = 52.03687 62.12235 57.07961
# Shear Modulus (GPa) = 28.06631 31.92251 29.99441
#
# Velocity S-wave (km/s) = 3.81899 4.07291 3.94799
# Velocity P-wave (km/s) = 6.81816 7.37564 7.10237
#
# Compressibility (1/GPa) = 0.01921714
#
# Stress axis : x y z
#
# Youngs Moduli (GPa) = 100.27727 110.27773 62.46800
#
# Poissons Ratio (x) = 0.42326 0.21711
# Poissons Ratio (y) = 0.38488 0.03761
# Poissons Ratio (z) = 0.34852 0.06639
#
# Static dielectric constant tensor:
#      x y z
#    x 2.903460 0.000000 0.021020 
#    y 0.000000 3.363560 0.000000 
#    z 0.021020 0.000000 3.328460 
# 
# 
# High freq. dielectric constant tensor:
#      x y z
#    x 1.746220 0.000000 0.020440 
#    y 0.000000 1.743470 0.000000 
#    z 0.020440 0.000000 1.749790 
# 
# From -- ./inp_files/96893.got.cif
#   From: 2010.06.25/outbox.cif.g09.slc.cpg/sg15_49_cif.got.tgz:96893.got - 2010.06.28 07:06:18.
