data_PCOD8145097
_publ_section_title
;
Structure prediction by ZEFSAII (Michael W. Deem and Ramdas Pophale) SiO2 
 PCOD8145097
Probable space group: C 2/C
;
_chemical_formula_sum "Si O2"
_cell_formula_units_Z 48
_cell_length_a 16.051891
_cell_length_b 17.029724
_cell_length_c 8.744804
_cell_angle_alpha 90.000000
_cell_angle_beta 111.524247
_cell_angle_gamma 90.000000
_cell_volume 2223.767363
_symmetry_space_group_name_H-M "C 2/C"
_symmetry_group_IT_number 15
_symmetry_cell_setting 'monoclinic'
loop_
_space_group_symop_operation_xyz
x,y,z
-x,y,1/2-z
-x,-y,-z
x,-y,1/2+z
1/2+x,1/2+y,z
1/2-x,1/2+y,1/2-z
1/2-x,1/2-y,-z
1/2+x,1/2-y,1/2+z
loop_
_atom_site_type_symbol
_atom_site_label
_atom_site_fract_x
_atom_site_fract_y
_atom_site_fract_z
Si Si1 0.159259 0.674953 0.846950
Si Si2 0.000000 0.216102 0.250000
Si Si3 0.583218 0.597671 0.093643
Si Si4 0.257291 0.812931 0.780552
Si Si5 0.402244 0.966712 0.393162
Si Si6 0.893027 0.392189 0.693904
Si Si7 0.000000 0.027277 0.750000
O O1 0.083841 0.733075 0.858624
O O2 0.220599 0.723058 0.765591
O O3 0.107017 0.599778 0.743952
O O4 0.217941 0.653763 0.034212
O O5 0.981804 0.165736 0.388958
O O6 0.684650 0.626687 0.166402
O O7 0.569489 0.522618 0.194340
O O8 0.559354 0.580530 0.902107
O O9 0.340973 0.813999 0.715452
O O10 0.356840 0.927687 0.510316
O O11 0.500000 0.000000 0.500000
O O12 0.358222 0.045254 0.297523
O O13 0.000000 0.376944 0.750000
#
# Coordination Sequence:
#
# PCOD8145097 Si02
#       7
#     8   4   8   8   8   8   4
#     4  10  22  39  66  89 130 174 216 278 327 400
#     4   9  20  36  62  84 123 172 214 258 327 404
#     4   9  19  38  59  96 120 163 214 263 330 389
#     4  10  22  41  61  96 129 170 223 271 332 390
#     4  10  22  38  60  91 121 171 219 269 329 388
#     4  10  22  37  59  90 131 171 218 275 324 401
#     4   9  18  36  68  88 127 160 208 268 325 404
#
# _framework density 21.584990999999999
#
# number of rings (size 3 to 8) (size 9 to 14) (size 15 to 20)
#    0.000    2.333    0.000    1.000    8.167    3.333 
#    0.000   11.667    0.000    0.000    0.000    0.000 
#    0.000    0.000    0.000    0.000    0.000    0.000 
#
# Total GULP energy -297323.618218 kJ/mol
# GULP energy per Si atom -12388.484092 kJ/mol
# Density = 2.153586 g / cm^3
# Si number density = 21.584991 Si / 1000 Ang^3
#
#
#
# Elastic Constant Matrix: (Units=GPa)
#
#
# Indices 1 2 3 4 5 6 
#
# 1 114.1503 46.3183 33.6995 0.0000 -3.1215 0.0000
# 2 46.3183 82.3274 36.9419 0.0000 15.8026 0.0000
# 3 33.6995 36.9419 124.4885 0.0000 11.4404 0.0000
# 4 0.0000 0.0000 0.0000 37.0262 0.0000 4.3948
# 5 -3.1215 15.8026 11.4404 0.0000 24.1050 0.0000
# 6 0.0000 0.0000 0.0000 4.3948 0.0000 25.4888
#
#
#
# Elastic Compliance Matrix: (Units=1/GPa)
#
#
# Indices 1 2 3 4 5 6 
#
# 1 0.012654 -0.007759 -0.001820 0.000000 0.007589 0.000000
# 2 -0.007759 0.020217 -0.002707 0.000000 -0.012974 0.000000
# 3 -0.001820 -0.002707 0.009606 0.000000 -0.003021 0.000000
# 4 0.000000 0.000000 0.000000 0.027572 0.000000 -0.004754
# 5 0.007589 -0.012974 -0.003021 0.000000 0.052407 0.000000
# 6 0.000000 0.000000 0.000000 -0.004754 0.000000 0.040053
#
#
# Mechanical properties :
#
#
# Convention : Reuss Voigt Hill
#
# Bulk Modulus (GPa) = 55.85076 61.65397 58.75237
# Shear Modulus (GPa) = 25.90022 30.92443 28.41232
#
# Velocity S-wave (km/s) = 3.46774 3.78919 3.63202
# Velocity P-wave (km/s) = 6.47801 6.91153 6.69828
#
# Compressibility (1/GPa) = 0.01790486
#
# Stress axis : x y z
#
# Youngs Moduli (GPa) = 79.02862 49.46400 104.09690
#
# Poissons Ratio (x) = 0.38379 0.18949
# Poissons Ratio (y) = 0.61318 0.28175
# Poissons Ratio (z) = 0.14386 0.13388
#
# Static dielectric constant tensor:
#      x y z
#    x 3.814780 0.000000 -0.042350 
#    y 0.000000 4.026500 0.000000 
#    z -0.042350 0.000000 4.045920 
# 
# 
# High freq. dielectric constant tensor:
#      x y z
#    x 1.833130 0.000000 -0.001750 
#    y 0.000000 1.841250 0.000000 
#    z -0.001750 0.000000 1.851900 
# 
# From -- ./inp_files/48733.got.cif
#   From: 2010.06.25/outbox.cif.g09.slc.cpg/sg15_25_cif.got.tgz:48733.got - 2010.06.28 07:06:18.
