data_PCOD8145637
_publ_section_title
;
Structure prediction by ZEFSAII (Michael W. Deem and Ramdas Pophale) SiO2 
 PCOD8145637
Probable space group: C 2/C
;
_chemical_formula_sum "Si O2"
_cell_formula_units_Z 64
_cell_length_a 16.882061
_cell_length_b 22.767487
_cell_length_c 22.264785
_cell_angle_alpha 90.000000
_cell_angle_beta 160.049525
_cell_angle_gamma 90.000000
_cell_volume 2919.967246
_symmetry_space_group_name_H-M "C 2/C"
_symmetry_group_IT_number 15
_symmetry_cell_setting 'monoclinic'
loop_
_space_group_symop_operation_xyz
x,y,z
-x,y,1/2-z
-x,-y,-z
x,-y,1/2+z
1/2+x,1/2+y,z
1/2-x,1/2+y,1/2-z
1/2-x,1/2-y,-z
1/2+x,1/2-y,1/2+z
loop_
_atom_site_type_symbol
_atom_site_label
_atom_site_fract_x
_atom_site_fract_y
_atom_site_fract_z
Si Si1 0.251403 0.419473 0.603601
Si Si2 0.893139 0.640389 0.234114
Si Si3 0.174547 0.969386 0.272417
Si Si4 0.710518 0.921851 0.276978
Si Si5 0.503077 0.690181 0.479870
Si Si6 0.257356 0.986388 0.603035
Si Si7 0.252680 0.361361 0.092682
Si Si8 0.165077 0.686281 0.129805
O O1 0.500000 0.426692 0.750000
O O2 0.190208 0.472475 0.607429
O O3 0.220928 0.359052 0.617423
O O4 0.068867 0.418264 0.418206
O O5 0.714972 0.689449 0.129928
O O6 0.752125 0.580271 0.123411
O O7 0.000000 0.666699 0.250000
O O8 0.106237 0.625343 0.429097
O O9 0.252305 0.939049 0.266009
O O10 0.179404 0.922657 0.328968
O O11 0.914616 0.992414 0.075627
O O12 0.819693 0.860974 0.376310
O O13 0.816365 0.972056 0.394656
O O14 0.386950 0.682510 0.331836
O O15 0.647227 0.749828 0.587248
O O16 0.500000 0.006781 0.750000
O O17 0.500000 0.330327 0.250000
O O18 0.086944 0.324183 0.018897
#
# Coordination Sequence:
#
# PCOD8145637 Si02
#       8
#     8   8   8   8   8   8   8   8
#     4  12  26  45  68 100 135 177 225 284 338 402
#     4  10  22  39  63  96 135 173 220 267 337 402
#     4  12  23  40  66  99 141 170 225 271 345 405
#     4  12  24  41  68  96 136 177 226 273 347 399
#     4  11  25  45  69  94 130 180 223 285 332 397
#     4  11  22  37  61  98 138 176 220 276 328 408
#     4  11  23  39  65  99 135 177 214 275 334 405
#     4  11  26  46  68  96 133 176 234 276 337 400
#
# _framework density 21.918054000000001
#
# number of rings (size 3 to 8) (size 9 to 14) (size 15 to 20)
#    0.000    0.750    2.500    5.625    3.500    0.500 
#    0.000    5.625    0.000    0.000    0.000    0.000 
#    0.000    0.000    0.000    0.000    0.000    0.000 
#
# Total GULP energy -396697.582686 kJ/mol
# GULP energy per Si atom -12396.799459 kJ/mol
# Density = 2.186817 g / cm^3
# Si number density = 21.918054 Si / 1000 Ang^3
#
#
#
# Elastic Constant Matrix: (Units=GPa)
#
#
# Indices 1 2 3 4 5 6 
#
# 1 60.5749 21.4117 17.0360 0.0607 -10.4515 0.0075
# 2 21.4117 100.0426 37.9041 -0.0785 -3.4181 0.0226
# 3 17.0360 37.9041 146.7615 -0.1006 -21.1009 -0.0747
# 4 0.0607 -0.0785 -0.1006 36.1254 0.0065 -2.4737
# 5 -10.4515 -3.4181 -21.1009 0.0065 30.9145 0.0662
# 6 0.0075 0.0226 -0.0747 -2.4737 0.0662 20.9435
#
#
#
# Elastic Compliance Matrix: (Units=1/GPa)
#
#
# Indices 1 2 3 4 5 6 
#
# 1 0.018916 -0.003694 -0.000423 -0.000044 0.005698 -0.000027
# 2 -0.003694 0.011819 -0.002900 0.000023 -0.001921 -0.000013
# 3 -0.000423 -0.002900 0.008366 0.000018 0.005247 0.000019
# 4 -0.000044 0.000023 0.000018 0.027907 -0.000013 0.003296
# 5 0.005698 -0.001921 0.005247 -0.000013 0.037643 -0.000102
# 6 -0.000027 -0.000013 0.000019 0.003296 -0.000102 0.048137
#
#
# Mechanical properties :
#
#
# Convention : Reuss Voigt Hill
#
# Bulk Modulus (GPa) = 39.88979 51.12031 45.50505
# Shear Modulus (GPa) = 28.54230 32.99849 30.77040
#
# Velocity S-wave (km/s) = 3.61255 3.88434 3.75091
# Velocity P-wave (km/s) = 5.96990 6.59480 6.29012
#
# Compressibility (1/GPa) = 0.02506907
#
# Stress axis : x y z
#
# Youngs Moduli (GPa) = 52.86469 84.60614 119.52809
#
# Poissons Ratio (x) = 0.31252 0.05050
# Poissons Ratio (y) = 0.19527 0.34664
# Poissons Ratio (z) = 0.02234 0.24537
#
# Static dielectric constant tensor:
#      x y z
#    x 3.854420 0.000030 -0.140790 
#    y 0.000030 3.698180 -0.001520 
#    z -0.140790 -0.001520 4.532380 
# 
# 
# High freq. dielectric constant tensor:
#      x y z
#    x 1.855590 -0.000010 -0.008740 
#    y -0.000010 1.848170 -0.000100 
#    z -0.008740 -0.000100 1.891600 
# 
# From -- ./inp_files/278130.got.cif
#   From: 2010.06.25/outbox.cif.g09.slc.cpg/sg15_140_cif.got.tgz:278130.got - 2010.06.28 07:06:18.
