data_PCOD8145933
_publ_section_title
;
Structure prediction by ZEFSAII (Michael W. Deem and Ramdas Pophale) SiO2 
 PCOD8145933
Probable space group: C 2/C
;
_chemical_formula_sum "Si O2"
_cell_formula_units_Z 56
_cell_length_a 9.140194
_cell_length_b 22.039014
_cell_length_c 17.437216
_cell_angle_alpha 90.000000
_cell_angle_beta 47.997176
_cell_angle_gamma 90.000000
_cell_volume 2610.230773
_symmetry_space_group_name_H-M "C 2/C"
_symmetry_group_IT_number 15
_symmetry_cell_setting 'monoclinic'
loop_
_space_group_symop_operation_xyz
x,y,z
-x,y,1/2-z
-x,-y,-z
x,-y,1/2+z
1/2+x,1/2+y,z
1/2-x,1/2+y,1/2-z
1/2-x,1/2-y,-z
1/2+x,1/2-y,1/2+z
loop_
_atom_site_type_symbol
_atom_site_label
_atom_site_fract_x
_atom_site_fract_y
_atom_site_fract_z
Si Si1 0.022927 0.391056 0.050436
Si Si2 0.498591 0.761277 0.666446
Si Si3 0.660029 0.975190 0.126588
Si Si4 0.938895 0.853928 0.857407
Si Si5 0.069354 0.088932 0.465395
Si Si6 0.934972 0.280691 0.191484
Si Si7 0.272229 0.840103 0.019321
O O1 0.039839 0.453426 0.092877
O O2 0.988390 0.331890 0.113147
O O3 0.845507 0.394438 0.050039
O O4 0.221548 0.379409 0.935843
O O5 0.500000 0.792014 0.750000
O O6 0.295447 0.729444 0.720141
O O7 0.535151 0.812725 0.590151
O O8 0.672552 0.711604 0.606011
O O9 0.500000 0.969898 0.250000
O O10 0.748189 0.042463 0.088860
O O11 0.854488 0.933657 0.068241
O O12 0.000000 0.871281 0.750000
O O13 0.068083 0.887523 0.878138
O O14 0.952952 0.782024 0.867924
O O15 0.115168 0.141280 0.510128
O O16 0.000000 0.307053 0.250000
#
# Coordination Sequence:
#
# PCOD8145933 Si02
#       7
#     8   8   8   8   8   8   8
#     4  11  23  39  61  92 130 165 220 265 317 393
#     4  11  23  39  57  95 135 168 213 252 329 388
#     4  10  24  45  67  93 122 171 222 269 331 379
#     4  10  22  40  63  93 127 168 215 262 329 389
#     4  10  24  44  68  93 127 166 222 277 320 387
#     4  11  22  36  61  91 129 173 209 260 321 394
#     4  11  24  38  63  93 131 172 209 268 318 389
#
# _framework density 21.454041
#
# number of rings (size 3 to 8) (size 9 to 14) (size 15 to 20)
#    0.000    1.429    1.429    3.429    8.000    3.429 
#    0.000    2.857    0.000    0.857    0.000    0.000 
#    0.000    0.000    0.000    0.000    0.000    0.000 
#
# Total GULP energy -347069.255350 kJ/mol
# GULP energy per Si atom -12395.330548 kJ/mol
# Density = 2.140521 g / cm^3
# Si number density = 21.454041 Si / 1000 Ang^3
#
#
#
# Elastic Constant Matrix: (Units=GPa)
#
#
# Indices 1 2 3 4 5 6 
#
# 1 110.7890 11.3861 23.7935 0.0000 20.5701 0.0000
# 2 11.3861 47.1509 5.0583 0.0000 11.9564 0.0000
# 3 23.7935 5.0583 100.5638 0.0000 5.2579 0.0000
# 4 0.0000 0.0000 0.0000 15.7924 0.0000 5.5467
# 5 20.5701 11.9564 5.2579 0.0000 26.4516 0.0000
# 6 0.0000 0.0000 0.0000 5.5467 0.0000 40.4769
#
#
#
# Elastic Compliance Matrix: (Units=1/GPa)
#
#
# Indices 1 2 3 4 5 6 
#
# 1 0.011009 -0.000411 -0.002169 0.000000 -0.007944 0.000000
# 2 -0.000411 0.024011 -0.000566 0.000000 -0.010421 0.000000
# 3 -0.002169 -0.000566 0.010493 0.000000 -0.000144 0.000000
# 4 0.000000 0.000000 0.000000 0.066523 0.000000 -0.009116
# 5 -0.007944 -0.010421 -0.000144 0.000000 0.048722 0.000000
# 6 0.000000 0.000000 0.000000 -0.009116 0.000000 0.025955
#
#
# Mechanical properties :
#
#
# Convention : Reuss Voigt Hill
#
# Bulk Modulus (GPa) = 25.49596 37.66439 31.58018
# Shear Modulus (GPa) = 24.26264 31.09524 27.67894
#
# Velocity S-wave (km/s) = 3.36655 3.81121 3.59576
# Velocity P-wave (km/s) = 5.19821 6.07956 5.65608
#
# Compressibility (1/GPa) = 0.03922190
#
# Stress axis : x y z
#
# Youngs Moduli (GPa) = 90.83289 41.64752 95.30151
#
# Poissons Ratio (x) = 0.01713 0.20668
# Poissons Ratio (y) = 0.03737 0.05390
# Poissons Ratio (z) = 0.19699 0.02355
#
# Static dielectric constant tensor:
#      x y z
#    x 4.170510 0.000000 0.084150 
#    y 0.000000 3.792730 0.000000 
#    z 0.084150 0.000000 3.948600 
# 
# 
# High freq. dielectric constant tensor:
#      x y z
#    x 1.855760 0.000000 0.002470 
#    y 0.000000 1.819840 0.000000 
#    z 0.002470 0.000000 1.853520 
# 
# From -- ./inp_files/193205.got.cif
#   From: 2010.06.25/outbox.cif.g09.slc.cpg/sg15_97_cif.got.tgz:193205.got - 2010.06.28 07:06:18.
