data_PCOD8145757
_publ_section_title
;
Structure prediction by ZEFSAII (Michael W. Deem and Ramdas Pophale) SiO2 
 PCOD8145757
Probable space group: C 2/C
;
_chemical_formula_sum "Si O2"
_cell_formula_units_Z 44
_cell_length_a 22.324659
_cell_length_b 5.387575
_cell_length_c 25.925563
_cell_angle_alpha 90.000000
_cell_angle_beta 145.332985
_cell_angle_gamma 90.000000
_cell_volume 1773.661023
_symmetry_space_group_name_H-M "C 2/C"
_symmetry_group_IT_number 15
_symmetry_cell_setting 'monoclinic'
loop_
_space_group_symop_operation_xyz
x,y,z
-x,y,1/2-z
-x,-y,-z
x,-y,1/2+z
1/2+x,1/2+y,z
1/2-x,1/2+y,1/2-z
1/2-x,1/2-y,-z
1/2+x,1/2-y,1/2+z
loop_
_atom_site_type_symbol
_atom_site_label
_atom_site_fract_x
_atom_site_fract_y
_atom_site_fract_z
Si Si1 0.000000 0.666776 0.250000
Si Si2 0.286820 0.408652 0.803349
Si Si3 0.842051 0.356412 0.204814
Si Si4 0.807742 0.351569 0.983619
Si Si5 0.984400 0.870222 0.891552
Si Si6 0.369067 0.643158 0.568665
O O1 0.064110 0.498374 0.256255
O O2 0.079396 0.836521 0.338630
O O3 0.254101 0.640368 0.743906
O O4 0.243497 0.454390 0.830560
O O5 0.416172 0.404674 0.895601
O O6 0.781979 0.178253 0.122441
O O7 0.894478 0.192519 0.285917
O O8 0.793688 0.623892 0.000362
O O9 0.924736 0.341581 0.039847
O O10 0.805560 0.121316 0.023826
O O11 0.040530 0.124294 0.911732
#
# Coordination Sequence:
#
# PCOD8145757 Si02
#       6
#     4   8   8   8   8   8
#     4  12  22  42  74  88 140 176 224 262 336 390
#     4  10  22  39  68  96 131 173 220 263 324 394
#     4  11  24  44  70 100 128 185 215 271 334 384
#     4  10  24  43  65 103 132 164 227 267 331 387
#     4   9  22  45  68  93 139 165 219 270 325 391
#     4  10  23  43  65  98 131 171 213 275 323 389
#
# _framework density 24.807448000000001
#
# number of rings (size 3 to 8) (size 9 to 14) (size 15 to 20)
#    1.091    0.727    1.818    1.091    2.545    9.455 
#    0.000    0.909    0.000    0.000    0.000    0.000 
#    0.000    0.000    0.000    0.000    0.000    0.000 
#
# Total GULP energy -272692.094448 kJ/mol
# GULP energy per Si atom -12395.095202 kJ/mol
# Density = 2.475099 g / cm^3
# Si number density = 24.807448 Si / 1000 Ang^3
#
#
#
# Elastic Constant Matrix: (Units=GPa)
#
#
# Indices 1 2 3 4 5 6 
#
# 1 161.0350 59.8393 16.4456 0.0000 30.3544 0.0107
# 2 59.8393 114.6884 14.0709 0.0182 23.2268 -0.0049
# 3 16.4456 14.0709 105.7468 -0.0081 14.1412 0.0090
# 4 0.0000 0.0182 -0.0081 28.6794 0.0023 11.1421
# 5 30.3544 23.2268 14.1412 0.0023 33.0155 -0.0065
# 6 0.0107 -0.0049 0.0090 11.1421 -0.0065 38.1325
#
#
#
# Elastic Compliance Matrix: (Units=1/GPa)
#
#
# Indices 1 2 3 4 5 6 
#
# 1 0.008472 -0.003309 -0.000156 0.000004 -0.005395 -0.000005
# 2 -0.003309 0.011478 -0.000360 -0.000009 -0.004878 0.000004
# 3 -0.000156 -0.000360 0.010051 0.000005 -0.003908 -0.000005
# 4 0.000004 -0.000009 0.000005 0.039333 -0.000005 -0.011493
# 5 -0.005395 -0.004878 -0.003908 -0.000005 0.040355 0.000010
# 6 -0.000005 0.000004 -0.000005 -0.011493 0.000010 0.029583
#
#
# Mechanical properties :
#
#
# Convention : Reuss Voigt Hill
#
# Bulk Modulus (GPa) = 44.73960 62.46462 53.60211
# Shear Modulus (GPa) = 32.38921 39.37310 35.88116
#
# Velocity S-wave (km/s) = 3.61726 3.98823 3.80726
# Velocity P-wave (km/s) = 5.95987 6.81486 6.40166
#
# Compressibility (1/GPa) = 0.02235156
#
# Stress axis : x y z
#
# Youngs Moduli (GPa) = 118.03401 87.12465 99.48861
#
# Poissons Ratio (x) = 0.28827 0.01551
# Poissons Ratio (y) = 0.39054 0.03585
# Poissons Ratio (z) = 0.01840 0.03139
#
# Static dielectric constant tensor:
#      x y z
#    x 5.240730 -0.000050 0.484000 
#    y -0.000050 4.292400 0.000010 
#    z 0.484000 0.000010 4.237900 
# 
# 
# High freq. dielectric constant tensor:
#      x y z
#    x 2.025680 -0.000010 0.037870 
#    y -0.000010 1.988030 0.000000 
#    z 0.037870 0.000000 1.968670 
# 
# From -- ./inp_files/301732.got.cif
#   From: 2010.06.25/outbox.cif.g09.slc.cpg/sg15_151_cif.got.tgz:301732.got - 2010.06.28 07:06:18.
