data_PCOD8145199
_publ_section_title
;
Structure prediction by ZEFSAII (Michael W. Deem and Ramdas Pophale) SiO2 
 PCOD8145199
Probable space group: C 2/C
;
_chemical_formula_sum "Si O2"
_cell_formula_units_Z 48
_cell_length_a 14.797471
_cell_length_b 22.606311
_cell_length_c 12.469330
_cell_angle_alpha 90.000000
_cell_angle_beta 39.701074
_cell_angle_gamma 90.000000
_cell_volume 2664.484186
_symmetry_space_group_name_H-M "C 2/C"
_symmetry_group_IT_number 15
_symmetry_cell_setting 'monoclinic'
loop_
_space_group_symop_operation_xyz
x,y,z
-x,y,1/2-z
-x,-y,-z
x,-y,1/2+z
1/2+x,1/2+y,z
1/2-x,1/2+y,1/2-z
1/2-x,1/2-y,-z
1/2+x,1/2-y,1/2+z
loop_
_atom_site_type_symbol
_atom_site_label
_atom_site_fract_x
_atom_site_fract_y
_atom_site_fract_z
Si Si1 0.355708 0.355130 0.748195
Si Si2 0.408173 0.958969 0.227359
Si Si3 0.177732 0.134367 0.974897
Si Si4 0.610010 0.082671 0.357886
Si Si5 0.495806 0.202948 0.130426
Si Si6 0.759064 0.265459 0.240284
O O1 0.516092 0.377074 0.589059
O O2 0.259044 0.403836 0.778407
O O3 0.341406 0.291268 0.708466
O O4 0.308851 0.348208 0.913584
O O5 0.500000 0.954527 0.250000
O O6 0.259726 0.926264 0.378112
O O7 0.371148 0.026661 0.236079
O O8 0.491052 0.928197 0.055187
O O9 0.248582 0.187329 0.844602
O O10 0.563422 0.136822 0.325878
O O11 0.500000 0.221320 0.250000
O O12 0.396243 0.249001 0.159010
O O13 0.652475 0.206890 0.938465
#
# Coordination Sequence:
#
# PCOD8145199 Si02
#       6
#     8   8   8   8   8   8
#     4  10  22  38  58  89 119 156 191 238 302 347
#     4  11  21  38  62  86 112 154 197 244 295 337
#     4  11  21  37  60  87 122 152 194 242 295 352
#     4  10  22  38  60  84 117 149 199 245 284 349
#     4  11  22  38  59  84 117 157 197 239 293 349
#     4  11  21  38  57  87 121 155 193 244 290 351
#
# _framework density 18.014744
#
# number of rings (size 3 to 8) (size 9 to 14) (size 15 to 20)
#    0.000    1.333    5.000    1.500    0.000    0.667 
#    3.000    0.000    0.000    0.000    0.000    0.000 
#    0.000    0.000    0.000    0.000    0.000    0.000 
#
# Total GULP energy -297728.251781 kJ/mol
# GULP energy per Si atom -12405.343824 kJ/mol
# Density = 1.797374 g / cm^3
# Si number density = 18.014744 Si / 1000 Ang^3
#
#
#
# Elastic Constant Matrix: (Units=GPa)
#
#
# Indices 1 2 3 4 5 6 
#
# 1 62.6735 30.6971 30.7375 -0.0012 -4.4920 0.0001
# 2 30.6971 85.6862 37.8237 -0.0009 -7.9652 -0.0001
# 3 30.7375 37.8237 101.3928 -0.0021 -4.9067 0.0064
# 4 -0.0012 -0.0009 -0.0021 23.3582 0.0014 -8.7933
# 5 -4.4920 -7.9652 -4.9067 0.0014 28.0189 -0.0035
# 6 0.0001 -0.0001 0.0064 -8.7933 -0.0035 7.1011
#
#
#
# Elastic Compliance Matrix: (Units=1/GPa)
#
#
# Indices 1 2 3 4 5 6 
#
# 1 0.020781 -0.005495 -0.004200 0.000003 0.001034 0.000008
# 2 -0.005495 0.015693 -0.004050 0.000003 0.002871 0.000010
# 3 -0.004200 -0.004050 0.012666 -0.000006 0.000393 -0.000019
# 4 0.000003 0.000003 -0.000006 0.080196 0.000009 0.099306
# 5 0.001034 0.002871 0.000393 0.000009 0.036741 0.000029
# 6 0.000008 0.000010 -0.000019 0.099306 0.000029 0.263792
#
#
# Mechanical properties :
#
#
# Convention : Reuss Voigt Hill
#
# Bulk Modulus (GPa) = 46.18649 49.80768 47.99708
# Shear Modulus (GPa) = 10.76254 21.72859 16.24556
#
# Velocity S-wave (km/s) = 2.44689 3.47674 3.00624
# Velocity P-wave (km/s) = 5.80317 6.62007 6.22504
#
# Compressibility (1/GPa) = 0.02165136
#
# Stress axis : x y z
#
# Youngs Moduli (GPa) = 48.12101 63.72086 78.95401
#
# Poissons Ratio (x) = 0.35012 0.33161
# Poissons Ratio (y) = 0.26441 0.31973
# Poissons Ratio (z) = 0.20211 0.25805
#
# Static dielectric constant tensor:
#      x y z
#    x 3.345380 0.000000 -0.029490 
#    y 0.000000 3.284440 0.000000 
#    z -0.029490 0.000000 3.334620 
# 
# 
# High freq. dielectric constant tensor:
#      x y z
#    x 1.704110 0.000000 -0.000290 
#    y 0.000000 1.696940 0.000000 
#    z -0.000290 0.000000 1.705430 
# 
# From -- ./inp_files/50063.got.cif
#   From: 2010.06.25/outbox.cif.g09.slc.cpg/sg15_26_cif.got.tgz:50063.got - 2010.06.28 07:06:18.
