data_PCOD8145022
_publ_section_title
;
Structure prediction by ZEFSAII (Michael W. Deem and Ramdas Pophale) SiO2 
 PCOD8145022
Probable space group: C 2/C
;
_chemical_formula_sum "Si O2"
_cell_formula_units_Z 60
_cell_length_a 19.214665
_cell_length_b 12.797292
_cell_length_c 28.474866
_cell_angle_alpha 90.000000
_cell_angle_beta 24.624426
_cell_angle_gamma 90.000000
_cell_volume 2917.448001
_symmetry_space_group_name_H-M "C 2/C"
_symmetry_group_IT_number 15
_symmetry_cell_setting 'monoclinic'
loop_
_space_group_symop_operation_xyz
x,y,z
-x,y,1/2-z
-x,-y,-z
x,-y,1/2+z
1/2+x,1/2+y,z
1/2-x,1/2+y,1/2-z
1/2-x,1/2-y,-z
1/2+x,1/2-y,1/2+z
loop_
_atom_site_type_symbol
_atom_site_label
_atom_site_fract_x
_atom_site_fract_y
_atom_site_fract_z
Si Si1 0.400041 0.264298 0.265970
Si Si2 0.450769 0.330274 0.523872
Si Si3 0.639133 0.147126 0.063342
Si Si4 0.948660 0.533423 0.104661
Si Si5 0.500000 0.593785 0.250000
Si Si6 0.655336 0.139198 0.425283
Si Si7 0.130136 0.006751 0.852541
Si Si8 0.460433 0.538354 0.865537
O O1 0.500000 0.303511 0.250000
O O2 0.208687 0.237445 0.396093
O O3 0.484825 0.158135 0.194004
O O4 0.421289 0.358323 0.215111
O O5 0.570874 0.251801 0.477534
O O6 0.390174 0.417247 0.596957
O O7 0.552190 0.383472 0.418764
O O8 0.565474 0.122727 0.056605
O O9 0.750000 0.250000 0.000000
O O10 0.768395 0.057392 0.998573
O O11 0.843827 0.587714 0.127114
O O12 0.825661 0.484132 0.219489
O O13 0.061592 0.439310 0.017418
O O14 0.341512 0.661545 0.330407
O O15 0.551781 0.523982 0.174653
O O16 0.036484 0.974123 0.862087
#
# Coordination Sequence:
#
# PCOD8145022 Si02
#       8
#     8   8   8   8   4   8   8   8
#     4  11  22  36  65 101 132 160 209 269 335 388
#     4  11  26  43  65  96 133 175 222 267 323 390
#     4  10  22  36  62 100 129 163 208 269 338 381
#     4  11  22  42  67  99 128 170 214 268 335 395
#     4  12  22  44  62  96 128 168 224 266 318 386
#     4  11  26  40  68  94 131 172 218 269 320 396
#     4  11  24  45  65  92 132 175 217 266 325 390
#     4  11  22  39  65  93 132 170 208 269 325 384
#
# _framework density 20.565919999999998
#
# number of rings (size 3 to 8) (size 9 to 14) (size 15 to 20)
#    0.000    1.067    4.667    1.600    9.333    1.067 
#    0.000    2.000    2.933    0.000    0.000    0.000 
#    0.000    0.000    0.000    0.000    0.000    0.000 
#
# Total GULP energy -371852.289361 kJ/mol
# GULP energy per Si atom -12395.076312 kJ/mol
# Density = 2.051911 g / cm^3
# Si number density = 20.565920 Si / 1000 Ang^3
#
#
#
# Elastic Constant Matrix: (Units=GPa)
#
#
# Indices 1 2 3 4 5 6 
#
# 1 109.2238 26.7467 37.6357 0.0045 -17.0242 -0.0001
# 2 26.7467 50.3932 36.4773 -0.0162 -8.2841 -0.0094
# 3 37.6357 36.4773 118.9703 -0.0614 -15.1421 0.0026
# 4 0.0045 -0.0162 -0.0614 12.9002 0.0034 -8.5844
# 5 -17.0242 -8.2841 -15.1421 0.0034 42.4887 -0.0078
# 6 -0.0001 -0.0094 0.0026 -8.5844 -0.0078 33.5819
#
#
#
# Elastic Compliance Matrix: (Units=1/GPa)
#
#
# Indices 1 2 3 4 5 6 
#
# 1 0.011298 -0.004100 -0.001930 -0.000023 0.003040 -0.000006
# 2 -0.004100 0.027206 -0.006891 0.000010 0.001206 0.000011
# 3 -0.001930 -0.006891 0.011376 0.000053 0.001937 0.000011
# 4 -0.000023 0.000010 0.000053 0.093407 0.000009 0.023877
# 5 0.003040 0.001206 0.001937 0.000009 0.025679 0.000008
# 6 -0.000006 0.000011 0.000011 0.023877 0.000008 0.035882
#
#
# Mechanical properties :
#
#
# Convention : Reuss Voigt Hill
#
# Bulk Modulus (GPa) = 41.60133 53.36743 47.48438
# Shear Modulus (GPa) = 20.94645 29.64267 25.29456
#
# Velocity S-wave (km/s) = 3.19486 3.80063 3.51083
# Velocity P-wave (km/s) = 5.82080 6.72796 6.29076
#
# Compressibility (1/GPa) = 0.02403769
#
# Stress axis : x y z
#
# Youngs Moduli (GPa) = 88.50822 36.75593 87.90758
#
# Poissons Ratio (x) = 0.15069 0.16969
# Poissons Ratio (y) = 0.36287 0.60580
# Poissons Ratio (z) = 0.17085 0.25330
#
# Static dielectric constant tensor:
#      x y z
#    x 3.791050 -0.000020 -0.036140 
#    y -0.000020 3.549810 -0.000010 
#    z -0.036140 -0.000010 4.247860 
# 
# 
# High freq. dielectric constant tensor:
#      x y z
#    x 1.808910 0.000000 -0.002820 
#    y 0.000000 1.773030 0.000000 
#    z -0.002820 0.000000 1.821630 
# 
# From -- ./inp_files/298942.got.cif
#   From: 2010.06.25/outbox.cif.g09.slc.cpg/sg15_150_cif.got.tgz:298942.got - 2010.06.28 07:06:18.
