data_PCOD8145836
_publ_section_title
;
Structure prediction by ZEFSAII (Michael W. Deem and Ramdas Pophale) SiO2 
 PCOD8145836
Probable space group: C 2/C
;
_chemical_formula_sum "Si O2"
_cell_formula_units_Z 52
_cell_length_a 29.959438
_cell_length_b 15.469358
_cell_length_c 8.760120
_cell_angle_alpha 90.000000
_cell_angle_beta 143.828572
_cell_angle_gamma 90.000000
_cell_volume 2396.169606
_symmetry_space_group_name_H-M "C 2/C"
_symmetry_group_IT_number 15
_symmetry_cell_setting 'monoclinic'
loop_
_space_group_symop_operation_xyz
x,y,z
-x,y,1/2-z
-x,-y,-z
x,-y,1/2+z
1/2+x,1/2+y,z
1/2-x,1/2+y,1/2-z
1/2-x,1/2-y,-z
1/2+x,1/2-y,1/2+z
loop_
_atom_site_type_symbol
_atom_site_label
_atom_site_fract_x
_atom_site_fract_y
_atom_site_fract_z
Si Si1 0.199172 0.765550 0.510206
Si Si2 0.092658 0.387014 0.749948
Si Si3 0.149001 0.500466 0.149604
Si Si4 0.465739 0.773755 0.484300
Si Si5 0.809723 0.370770 0.998987
Si Si6 0.000000 0.014937 0.750000
Si Si7 0.554457 0.381485 0.138462
O O1 0.250000 0.750000 0.500000
O O2 0.167305 0.672358 0.466427
O O3 0.128369 0.829277 0.290492
O O4 0.244218 0.801952 0.781807
O O5 0.095277 0.450617 0.616463
O O6 0.015001 0.337257 0.516465
O O7 0.090397 0.441384 0.897971
O O8 0.206247 0.436907 0.404180
O O9 0.189112 0.570008 0.151017
O O10 0.500000 0.771493 0.750000
O O11 0.381344 0.809577 0.236543
O O12 0.479119 0.679758 0.442759
O O13 0.952709 0.955702 0.505695
O O14 0.060340 0.073518 0.821957
#
# Coordination Sequence:
#
# PCOD8145836 Si02
#       7
#     8   8   8   8   8   4   8
#     4  11  24  45  64  98 132 178 218 274 338 421
#     4  10  22  41  63  88 131 162 220 261 320 396
#     4  10  22  40  60  96 122 168 206 268 319 389
#     4  11  22  41  66  97 126 175 218 273 319 411
#     4  11  24  40  66  91 134 170 215 267 337 393
#     4  10  22  46  70 104 124 182 226 298 332 380
#     4  10  24  43  71  96 136 167 238 275 342 396
#
# _framework density 21.701301000000001
#
# number of rings (size 3 to 8) (size 9 to 14) (size 15 to 20)
#    0.000    1.538    3.846    0.000    2.154    6.154 
#    0.000    0.000    0.000    0.000    0.000    0.000 
#    0.000    0.000    0.000    0.000    0.000    0.000 
#
# Total GULP energy -322118.279130 kJ/mol
# GULP energy per Si atom -12389.164582 kJ/mol
# Density = 2.165191 g / cm^3
# Si number density = 21.701301 Si / 1000 Ang^3
#
#
#
# Elastic Constant Matrix: (Units=GPa)
#
#
# Indices 1 2 3 4 5 6 
#
# 1 93.3013 47.7537 31.5236 0.0000 -11.1871 0.0000
# 2 47.7537 123.9281 36.8689 0.0000 -3.4258 0.0000
# 3 31.5236 36.8689 76.5227 0.0000 -0.4964 0.0000
# 4 0.0000 0.0000 0.0000 47.8313 0.0000 -32.3829
# 5 -11.1871 -3.4258 -0.4964 0.0000 35.8405 0.0000
# 6 0.0000 0.0000 0.0000 -32.3829 0.0000 61.7103
#
#
#
# Elastic Compliance Matrix: (Units=1/GPa)
#
#
# Indices 1 2 3 4 5 6 
#
# 1 0.014809 -0.004418 -0.003945 0.000000 0.004146 0.000000
# 2 -0.004418 0.010763 -0.003368 0.000000 -0.000397 0.000000
# 3 -0.003945 -0.003368 0.016307 0.000000 -0.001327 0.000000
# 4 0.000000 0.000000 0.000000 0.032427 0.000000 0.017016
# 5 0.004146 -0.000397 -0.001327 0.000000 0.029139 0.000000
# 6 0.000000 0.000000 0.000000 0.017016 0.000000 0.025134
#
#
# Mechanical properties :
#
#
# Convention : Reuss Voigt Hill
#
# Bulk Modulus (GPa) = 54.29866 58.44939 56.37402
# Shear Modulus (GPa) = 31.60925 40.91679 36.26302
#
# Velocity S-wave (km/s) = 3.82063 4.34689 4.09223
# Velocity P-wave (km/s) = 6.67370 7.22399 6.95429
#
# Compressibility (1/GPa) = 0.01841666
#
# Stress axis : x y z
#
# Youngs Moduli (GPa) = 67.52508 92.91346 61.32228
#
# Poissons Ratio (x) = 0.41052 0.24192
# Poissons Ratio (y) = 0.29834 0.20653
# Poissons Ratio (z) = 0.26639 0.31293
#
# Static dielectric constant tensor:
#      x y z
#    x 4.042650 0.000000 -0.281660 
#    y 0.000000 5.679610 0.000000 
#    z -0.281660 0.000000 3.729510 
# 
# 
# High freq. dielectric constant tensor:
#      x y z
#    x 1.850700 0.000000 -0.023390 
#    y 0.000000 1.884310 0.000000 
#    z -0.023390 0.000000 1.825030 
# 
# From -- ./inp_files/70195.got.cif
#   From: 2010.06.25/outbox.cif.g09.slc.cpg/sg15_36_cif.got.tgz:70195.got - 2010.06.28 07:06:18.
