data_PCOD8145716
_publ_section_title
;
Structure prediction by ZEFSAII (Michael W. Deem and Ramdas Pophale) SiO2 
 PCOD8145716
Probable space group: C 2/C
;
_chemical_formula_sum "Si O2"
_cell_formula_units_Z 48
_cell_length_a 20.388009
_cell_length_b 11.594057
_cell_length_c 15.184202
_cell_angle_alpha 90.000000
_cell_angle_beta 143.677730
_cell_angle_gamma 90.000000
_cell_volume 2126.000194
_symmetry_space_group_name_H-M "C 2/C"
_symmetry_group_IT_number 15
_symmetry_cell_setting 'monoclinic'
loop_
_space_group_symop_operation_xyz
x,y,z
-x,y,1/2-z
-x,-y,-z
x,-y,1/2+z
1/2+x,1/2+y,z
1/2-x,1/2+y,1/2-z
1/2-x,1/2-y,-z
1/2+x,1/2-y,1/2+z
loop_
_atom_site_type_symbol
_atom_site_label
_atom_site_fract_x
_atom_site_fract_y
_atom_site_fract_z
Si Si1 0.709151 0.308935 0.653918
Si Si2 0.616058 0.543781 0.551782
Si Si3 0.581888 0.081179 0.035667
Si Si4 0.255977 0.923016 0.378802
Si Si5 0.428359 0.714877 0.333617
Si Si6 0.126307 0.065648 0.374474
O O1 0.619650 0.407037 0.533093
O O2 0.830689 0.362723 0.801505
O O3 0.710348 0.212144 0.578129
O O4 0.664560 0.250856 0.696140
O O5 0.684813 0.572105 0.712524
O O6 0.491902 0.594488 0.430643
O O7 0.671099 0.596997 0.521069
O O8 0.639311 0.006993 0.020858
O O9 0.515196 0.182643 0.914953
O O10 0.500000 0.000000 0.000000
O O11 0.193864 0.962577 0.399775
O O12 0.368244 0.683731 0.176797
O O13 0.000000 0.022279 0.250000
#
# Coordination Sequence:
#
# PCOD8145716 Si02
#       6
#     8   8   8   8   8   8
#     4  11  22  38  70  91 129 180 217 273 343 396
#     4  10  22  39  66  96 127 170 225 277 322 402
#     4  11  22  37  65  98 132 170 222 279 334 398
#     4  11  22  42  65 100 131 178 223 271 349 393
#     4  11  20  39  65  98 124 173 222 278 326 396
#     4  10  23  39  65 101 127 173 227 274 327 399
#
# _framework density 22.577608000000001
#
# number of rings (size 3 to 8) (size 9 to 14) (size 15 to 20)
#    0.000    1.333    6.667    0.500    2.333    0.667 
#    0.000    9.167    0.000    0.000    0.000    0.000 
#    0.000    0.000    0.000    0.000    0.000    0.000 
#
# Total GULP energy -297422.900731 kJ/mol
# GULP energy per Si atom -12392.620864 kJ/mol
# Density = 2.252622 g / cm^3
# Si number density = 22.577608 Si / 1000 Ang^3
#
#
#
# Elastic Constant Matrix: (Units=GPa)
#
#
# Indices 1 2 3 4 5 6 
#
# 1 128.8224 12.6325 12.5534 0.0000 14.8475 0.0000
# 2 12.6325 110.9365 2.2305 0.0000 24.6232 0.0000
# 3 12.5534 2.2305 40.6966 0.0000 -3.7931 0.0000
# 4 0.0000 0.0000 0.0000 29.4198 0.0000 12.0840
# 5 14.8475 24.6232 -3.7931 0.0000 28.6849 0.0000
# 6 0.0000 0.0000 0.0000 12.0840 0.0000 40.1399
#
#
#
# Elastic Compliance Matrix: (Units=1/GPa)
#
#
# Indices 1 2 3 4 5 6 
#
# 1 0.008632 0.000203 -0.003145 0.000000 -0.005058 0.000000
# 2 0.000203 0.011234 -0.001607 0.000000 -0.009961 0.000000
# 3 -0.003145 -0.001607 0.026234 0.000000 0.006476 0.000000
# 4 0.000000 0.000000 0.000000 0.038787 0.000000 -0.011677
# 5 -0.005058 -0.009961 0.006476 0.000000 0.046887 0.000000
# 6 0.000000 0.000000 0.000000 -0.011677 0.000000 0.028428
#
#
# Mechanical properties :
#
#
# Convention : Reuss Voigt Hill
#
# Bulk Modulus (GPa) = 27.02534 37.25426 32.13980
# Shear Modulus (GPa) = 27.52784 36.51820 32.02302
#
# Velocity S-wave (km/s) = 3.49557 4.02612 3.77019
# Velocity P-wave (km/s) = 5.31864 6.17650 5.76356
#
# Compressibility (1/GPa) = 0.03700230
#
# Stress axis : x y z
#
# Youngs Moduli (GPa) = 115.84509 89.01318 38.11853
#
# Poissons Ratio (x) = -0.01807 0.11989
# Poissons Ratio (y) = -0.02352 0.06125
# Poissons Ratio (z) = 0.36437 0.14302
#
# Static dielectric constant tensor:
#      x y z
#    x 4.254140 0.000000 -0.004170 
#    y 0.000000 4.444780 0.000000 
#    z -0.004170 0.000000 3.873240 
# 
# 
# High freq. dielectric constant tensor:
#      x y z
#    x 1.900180 0.000000 0.010070 
#    y 0.000000 1.894770 0.000000 
#    z 0.010070 0.000000 1.852050 
# 
# From -- ./inp_files/167923.got.cif
#   From: 2010.06.25/outbox.cif.g09.slc.cpg/sg15_84_cif.got.tgz:167923.got - 2010.06.28 07:06:18.
