data_PCOD8145125
_publ_section_title
;
Structure prediction by ZEFSAII (Michael W. Deem and Ramdas Pophale) SiO2 
 PCOD8145125
Probable space group: C 2/C
;
_chemical_formula_sum "Si O2"
_cell_formula_units_Z 48
_cell_length_a 12.483779
_cell_length_b 14.820383
_cell_length_c 14.604189
_cell_angle_alpha 90.000000
_cell_angle_beta 62.276669
_cell_angle_gamma 90.000000
_cell_volume 2391.808707
_symmetry_space_group_name_H-M "C 2/C"
_symmetry_group_IT_number 15
_symmetry_cell_setting 'monoclinic'
loop_
_space_group_symop_operation_xyz
x,y,z
-x,y,1/2-z
-x,-y,-z
x,-y,1/2+z
1/2+x,1/2+y,z
1/2-x,1/2+y,1/2-z
1/2-x,1/2-y,-z
1/2+x,1/2-y,1/2+z
loop_
_atom_site_type_symbol
_atom_site_label
_atom_site_fract_x
_atom_site_fract_y
_atom_site_fract_z
Si Si1 0.231058 0.197416 0.881766
Si Si2 0.229807 0.771706 0.816095
Si Si3 0.183303 0.445374 0.019587
Si Si4 0.640123 0.370712 0.690216
Si Si5 0.413323 0.874939 0.863017
Si Si6 0.489806 0.192500 0.994964
O O1 0.215530 0.197440 0.777125
O O2 0.335053 0.272274 0.866758
O O3 0.106022 0.227059 0.979046
O O4 0.268185 0.101275 0.906767
O O5 0.190103 0.862017 0.774911
O O6 0.323043 0.800095 0.857408
O O7 0.116808 0.722202 0.905474
O O8 0.283935 0.443971 0.898422
O O9 0.059447 0.397659 0.035745
O O10 0.160900 0.548327 0.054577
O O11 0.500000 0.397297 0.750000
O O12 0.500000 0.916196 0.750000
O O13 0.499850 0.826081 0.900978
#
# Coordination Sequence:
#
# PCOD8145125 Si02
#       6
#     8   8   8   8   8   8
#     4   9  20  36  60  91 114 153 214 244 292 356
#     4  10  22  37  63  85 120 165 200 242 303 362
#     4  11  22  36  64  97 118 155 204 263 298 346
#     4   9  17  36  60  86 119 157 205 248 293 357
#     4  12  24  41  57  91 134 156 193 255 319 352
#     4  11  21  41  65  86 118 163 207 246 296 371
#
# _framework density 20.068494000000001
#
# number of rings (size 3 to 8) (size 9 to 14) (size 15 to 20)
#    1.000    0.667    1.667    5.000    2.333    0.000 
#    0.000    3.333    0.000    0.000    0.000    0.000 
#    0.000    0.000    0.000    0.000    0.000    0.000 
#
# Total GULP energy -297437.164350 kJ/mol
# GULP energy per Si atom -12393.215181 kJ/mol
# Density = 2.002282 g / cm^3
# Si number density = 20.068494 Si / 1000 Ang^3
#
#
#
# Elastic Constant Matrix: (Units=GPa)
#
#
# Indices 1 2 3 4 5 6 
#
# 1 91.7515 33.8292 22.6617 0.0000 12.7672 0.0000
# 2 33.8292 40.7945 31.2143 0.0000 0.6435 0.0000
# 3 22.6617 31.2143 84.4443 0.0000 4.0344 0.0000
# 4 0.0000 0.0000 0.0000 25.9660 0.0000 0.5678
# 5 12.7672 0.6435 4.0344 0.0000 42.1464 0.0000
# 6 0.0000 0.0000 0.0000 0.5678 0.0000 8.7384
#
#
#
# Elastic Compliance Matrix: (Units=1/GPa)
#
#
# Indices 1 2 3 4 5 6 
#
# 1 0.016709 -0.014680 0.001179 0.000000 -0.004950 0.000000
# 2 -0.014680 0.047098 -0.013711 0.000000 0.005040 0.000000
# 3 0.001179 -0.013711 0.016677 0.000000 -0.001744 0.000000
# 4 0.000000 0.000000 0.000000 0.038567 0.000000 -0.002506
# 5 -0.004950 0.005040 -0.001744 0.000000 0.025316 0.000000
# 6 0.000000 0.000000 0.000000 -0.002506 0.000000 0.114600
#
#
# Mechanical properties :
#
#
# Convention : Reuss Voigt Hill
#
# Bulk Modulus (GPa) = 38.37238 43.60006 40.98622
# Shear Modulus (GPa) = 15.52410 23.98917 19.75664
#
# Velocity S-wave (km/s) = 2.78430 3.46116 3.14102
# Velocity P-wave (km/s) = 5.43127 6.14374 5.79846
#
# Compressibility (1/GPa) = 0.02606041
#
# Stress axis : x y z
#
# Youngs Moduli (GPa) = 59.84660 21.23218 59.96211
#
# Poissons Ratio (x) = 0.31170 -0.07068
# Poissons Ratio (y) = 0.87857 0.82213
# Poissons Ratio (z) = -0.07055 0.29111
#
# Static dielectric constant tensor:
#      x y z
#    x 3.597030 0.000000 0.117130 
#    y 0.000000 3.030270 0.000000 
#    z 0.117130 0.000000 3.789120 
# 
# 
# High freq. dielectric constant tensor:
#      x y z
#    x 1.784540 0.000000 0.003280 
#    y 0.000000 1.728630 0.000000 
#    z 0.003280 0.000000 1.803720 
# 
# From -- ./inp_files/143420.got.cif
#   From: 2010.06.25/outbox.cif.g09.slc.cpg/sg15_72_cif.got.tgz:143420.got - 2010.06.28 07:06:18.
