data_PCOD8145907
_publ_section_title
;
Structure prediction by ZEFSAII (Michael W. Deem and Ramdas Pophale) SiO2 
 PCOD8145907
Probable space group: C 2/C
;
_chemical_formula_sum "Si O2"
_cell_formula_units_Z 56
_cell_length_a 20.757569
_cell_length_b 14.744033
_cell_length_c 16.604214
_cell_angle_alpha 90.000000
_cell_angle_beta 148.613978
_cell_angle_gamma 90.000000
_cell_volume 2646.569083
_symmetry_space_group_name_H-M "C 2/C"
_symmetry_group_IT_number 15
_symmetry_cell_setting 'monoclinic'
loop_
_space_group_symop_operation_xyz
x,y,z
-x,y,1/2-z
-x,-y,-z
x,-y,1/2+z
1/2+x,1/2+y,z
1/2-x,1/2+y,1/2-z
1/2-x,1/2-y,-z
1/2+x,1/2-y,1/2+z
loop_
_atom_site_type_symbol
_atom_site_label
_atom_site_fract_x
_atom_site_fract_y
_atom_site_fract_z
Si Si1 0.871632 0.596612 0.516595
Si Si2 0.099758 0.911934 0.754029
Si Si3 0.797183 0.334889 0.603910
Si Si4 0.549004 0.589664 0.880774
Si Si5 0.000000 0.544611 0.250000
Si Si6 0.500000 0.747845 0.250000
Si Si7 0.057508 0.179972 0.052793
Si Si8 0.664849 0.198089 0.176544
O O1 0.743205 0.561428 0.419445
O O2 0.855849 0.609806 0.402890
O O3 0.973311 0.519137 0.643700
O O4 0.908436 0.691004 0.598597
O O5 0.079630 0.816013 0.776344
O O6 0.078943 0.902140 0.636469
O O7 0.005339 0.988332 0.683492
O O8 0.750000 0.250000 0.500000
O O9 0.695749 0.406886 0.527897
O O10 0.864564 0.309643 0.759656
O O11 0.885135 0.390562 0.640363
O O12 0.500000 0.644869 0.750000
O O13 0.505605 0.639480 0.914402
O O14 0.191379 0.231905 0.182687
O O15 0.945422 0.237027 0.971470
#
# Coordination Sequence:
#
# PCOD8145907 Si02
#       8
#     8   8   8   8   4   4   8   8
#     4  10  23  43  63  99 131 170 218 278 328 397
#     4  11  21  39  65  94 131 169 221 266 333 387
#     4  11  26  44  67  96 130 177 219 274 336 402
#     4  11  22  39  64  94 127 167 223 268 321 391
#     4  11  26  44  67  96 138 166 223 278 336 387
#     4  11  20  38  67  90 134 172 217 264 334 401
#     4  10  22  40  62  97 127 174 218 277 327 393
#     4  10  22  42  66  93 134 172 227 265 337 404
#
# _framework density 21.159471
#
# number of rings (size 3 to 8) (size 9 to 14) (size 15 to 20)
#    0.000    1.429    2.143    2.571    5.000    0.571 
#    2.571    0.000    0.000    0.000    0.000    0.000 
#    0.000    0.000    0.000    0.000    0.000    0.000 
#
# Total GULP energy -346866.579696 kJ/mol
# GULP energy per Si atom -12388.092132 kJ/mol
# Density = 2.111131 g / cm^3
# Si number density = 21.159471 Si / 1000 Ang^3
#
#
#
# Elastic Constant Matrix: (Units=GPa)
#
#
# Indices 1 2 3 4 5 6 
#
# 1 99.7417 39.7514 33.8751 0.0000 -14.1676 0.0000
# 2 39.7514 98.8527 47.5665 0.0000 9.7067 0.0000
# 3 33.8751 47.5665 95.2487 0.0001 -6.9091 0.0000
# 4 0.0000 0.0000 0.0001 33.0217 0.0000 9.2827
# 5 -14.1676 9.7067 -6.9091 0.0000 43.9131 0.0000
# 6 0.0000 0.0000 0.0000 9.2827 0.0000 22.8156
#
#
#
# Elastic Compliance Matrix: (Units=1/GPa)
#
#
# Indices 1 2 3 4 5 6 
#
# 1 0.013379 -0.004964 -0.001908 0.000000 0.005113 0.000000
# 2 -0.004964 0.015904 -0.006624 0.000000 -0.006159 0.000000
# 3 -0.001908 -0.006624 0.014715 0.000000 0.003164 0.000000
# 4 0.000000 0.000000 0.000000 0.034194 0.000000 -0.013912
# 5 0.005113 -0.006159 0.003164 0.000000 0.026281 0.000000
# 6 0.000000 0.000000 0.000000 -0.013912 0.000000 0.049490
#
#
# Mechanical properties :
#
#
# Convention : Reuss Voigt Hill
#
# Bulk Modulus (GPa) = 58.80323 59.58101 59.19212
# Shear Modulus (GPa) = 26.79197 31.46009 29.12603
#
# Velocity S-wave (km/s) = 3.56222 3.86010 3.71415
# Velocity P-wave (km/s) = 6.69104 6.93443 6.81382
#
# Compressibility (1/GPa) = 0.01700587
#
# Stress axis : x y z
#
# Youngs Moduli (GPa) = 74.74635 62.87649 67.95826
#
# Poissons Ratio (x) = 0.31210 0.12969
# Poissons Ratio (y) = 0.37102 0.45015
# Poissons Ratio (z) = 0.14264 0.41649
#
# Static dielectric constant tensor:
#      x y z
#    x 3.984930 0.000000 -0.147330 
#    y 0.000000 3.489970 0.000000 
#    z -0.147330 0.000000 4.116250 
# 
# 
# High freq. dielectric constant tensor:
#      x y z
#    x 1.840900 0.000000 -0.009090 
#    y 0.000000 1.798690 0.000000 
#    z -0.009090 0.000000 1.849120 
# 
# From -- ./inp_files/215742.got.cif
#   From: 2010.06.25/outbox.cif.g09.slc.cpg/sg15_108_cif.got.tgz:215742.got - 2010.06.28 07:06:18.
