data_PCOD8145073
_publ_section_title
;
Structure prediction by ZEFSAII (Michael W. Deem and Ramdas Pophale) SiO2 
 PCOD8145073
Probable space group: C 2/C
;
_chemical_formula_sum "Si O2"
_cell_formula_units_Z 56
_cell_length_a 21.565974
_cell_length_b 24.160518
_cell_length_c 10.445355
_cell_angle_alpha 90.000000
_cell_angle_beta 148.043206
_cell_angle_gamma 90.000000
_cell_volume 2880.604854
_symmetry_space_group_name_H-M "C 2/C"
_symmetry_group_IT_number 15
_symmetry_cell_setting 'monoclinic'
loop_
_space_group_symop_operation_xyz
x,y,z
-x,y,1/2-z
-x,-y,-z
x,-y,1/2+z
1/2+x,1/2+y,z
1/2-x,1/2+y,1/2-z
1/2-x,1/2-y,-z
1/2+x,1/2-y,1/2+z
loop_
_atom_site_type_symbol
_atom_site_label
_atom_site_fract_x
_atom_site_fract_y
_atom_site_fract_z
Si Si1 0.949983 0.296773 0.531747
Si Si2 0.552123 0.385373 0.212018
Si Si3 0.075072 0.006282 0.259564
Si Si4 0.596635 0.834767 0.312403
Si Si5 0.683347 0.718880 0.552766
Si Si6 0.174304 0.113297 0.359846
Si Si7 0.136573 0.218516 0.755514
O O1 0.958261 0.340174 0.427000
O O2 0.818820 0.276545 0.327565
O O3 0.000000 0.324772 0.750000
O O4 0.023353 0.242299 0.627626
O O5 0.500000 0.359812 0.250000
O O6 0.619281 0.443293 0.360813
O O7 0.649614 0.345095 0.322146
O O8 0.443294 0.389942 0.926202
O O9 0.000000 0.026205 0.250000
O O10 0.180780 0.051315 0.433267
O O11 0.000000 0.000000 0.000000
O O12 0.500000 0.849617 0.250000
O O13 0.644481 0.771720 0.401515
O O14 0.708175 0.876065 0.518734
O O15 0.659038 0.661438 0.438331
O O16 0.612213 0.721864 0.560969
O O17 0.250000 0.250000 0.000000
#
# Coordination Sequence:
#
# PCOD8145073 Si02
#       7
#     8   8   8   8   8   8   8
#     4  11  21  37  51  77 119 152 192 234 280 344
#     4  10  22  37  57  86 119 151 191 242 296 349
#     4   9  20  38  60  88 115 147 190 240 294 348
#     4  11  22  36  55  84 118 157 198 235 286 350
#     4  11  23  36  53  84 117 161 196 235 290 355
#     4  10  22  37  60  84 117 154 194 246 292 347
#     4  12  23  33  57  85 118 156 192 237 295 348
#
# _framework density 19.440360999999999
#
# number of rings (size 3 to 8) (size 9 to 14) (size 15 to 20)
#    0.000    1.429    2.857    3.857    6.000    0.000 
#    0.000    0.000    0.000    0.000    3.714   11.000 
#    0.000    0.000    0.000    0.000    0.000    0.000 
#
# Total GULP energy -347032.660541 kJ/mol
# GULP energy per Si atom -12394.023591 kJ/mol
# Density = 1.939611 g / cm^3
# Si number density = 19.440361 Si / 1000 Ang^3
#
#
#
# Elastic Constant Matrix: (Units=GPa)
#
#
# Indices 1 2 3 4 5 6 
#
# 1 114.6143 48.3321 40.8550 0.0000 -5.7989 0.0000
# 2 48.3321 120.7493 47.7577 0.0000 17.4415 0.0000
# 3 40.8550 47.7577 74.7218 0.0000 0.6928 0.0000
# 4 0.0000 0.0000 0.0000 22.3831 0.0000 7.3979
# 5 -5.7989 17.4415 0.6928 0.0000 36.5661 0.0000
# 6 0.0000 0.0000 0.0000 7.3979 0.0000 22.2230
#
#
#
# Elastic Compliance Matrix: (Units=1/GPa)
#
#
# Indices 1 2 3 4 5 6 
#
# 1 0.011964 -0.003647 -0.004245 0.000000 0.003717 0.000000
# 2 -0.003647 0.013259 -0.006418 0.000000 -0.006781 0.000000
# 3 -0.004245 -0.006418 0.019787 0.000000 0.002013 0.000000
# 4 0.000000 0.000000 0.000000 0.050200 0.000000 -0.016711
# 5 0.003717 -0.006781 0.002013 0.000000 0.031134 0.000000
# 6 0.000000 0.000000 0.000000 -0.016711 0.000000 0.050562
#
#
# Mechanical properties :
#
#
# Convention : Reuss Voigt Hill
#
# Bulk Modulus (GPa) = 61.00840 64.88614 62.94727
# Shear Modulus (GPa) = 23.69803 27.77713 25.73758
#
# Velocity S-wave (km/s) = 3.49522 3.78410 3.64253
# Velocity P-wave (km/s) = 6.90936 7.24859 7.08100
#
# Compressibility (1/GPa) = 0.01639119
#
# Stress axis : x y z
#
# Youngs Moduli (GPa) = 83.58411 75.42037 50.53786
#
# Poissons Ratio (x) = 0.27504 0.21454
# Poissons Ratio (y) = 0.30481 0.32433
# Poissons Ratio (z) = 0.35483 0.48402
#
# Static dielectric constant tensor:
#      x y z
#    x 3.463960 0.000000 1.227220 
#    y 0.000000 3.903950 0.000000 
#    z 1.227220 0.000000 -1.316610 
# 
# 
# High freq. dielectric constant tensor:
#      x y z
#    x 1.776450 0.000000 -0.016510 
#    y 0.000000 1.732660 0.000000 
#    z -0.016510 0.000000 1.741240 
# 
# From -- ./inp_files/120172.got.cif
#   From: 2010.06.25/outbox.cif.g09.slc.cpg/sg15_61_cif.got.tgz:120172.got - 2010.06.28 07:06:18.
