data_PCOD8145487
_publ_section_title
;
Structure prediction by ZEFSAII (Michael W. Deem and Ramdas Pophale) SiO2 
 PCOD8145487
Probable space group: C 2/C
;
_chemical_formula_sum "Si O2"
_cell_formula_units_Z 60
_cell_length_a 23.057030
_cell_length_b 21.125651
_cell_length_c 9.430406
_cell_angle_alpha 90.000000
_cell_angle_beta 140.704145
_cell_angle_gamma 90.000000
_cell_volume 2909.178781
_symmetry_space_group_name_H-M "C 2/C"
_symmetry_group_IT_number 15
_symmetry_cell_setting 'monoclinic'
loop_
_space_group_symop_operation_xyz
x,y,z
-x,y,1/2-z
-x,-y,-z
x,-y,1/2+z
1/2+x,1/2+y,z
1/2-x,1/2+y,1/2-z
1/2-x,1/2-y,-z
1/2+x,1/2-y,1/2+z
loop_
_atom_site_type_symbol
_atom_site_label
_atom_site_fract_x
_atom_site_fract_y
_atom_site_fract_z
Si Si1 0.489508 0.147522 0.521225
Si Si2 0.500000 0.104379 0.250000
Si Si3 0.813970 0.425825 0.692446
Si Si4 0.312384 0.306906 0.063179
Si Si5 0.150837 0.789124 0.678725
Si Si6 0.305854 0.151400 0.633746
Si Si7 0.519199 0.709902 0.443065
Si Si8 0.684572 0.952683 0.133661
O O1 0.468690 0.152512 0.313483
O O2 0.418326 0.093138 0.435959
O O3 0.596596 0.129722 0.752691
O O4 0.464762 0.214633 0.542539
O O5 0.576997 0.058030 0.456396
O O6 0.749082 0.366627 0.587944
O O7 0.798730 0.450429 0.502847
O O8 0.783231 0.480228 0.743303
O O9 0.388078 0.322511 0.325524
O O10 0.250000 0.250000 0.000000
O O11 0.367487 0.291260 0.023412
O O12 0.181249 0.717916 0.764806
O O13 0.062309 0.806768 0.603677
O O14 0.230636 0.839618 0.868918
O O15 0.268119 0.102852 0.682516
O O16 0.500000 0.682327 0.250000
#
# Coordination Sequence:
#
# PCOD8145487 Si02
#       8
#     8   4   8   8   8   8   8   8
#     4   9  19  35  58  90 134 168 210 250 311 382
#     4   8  18  36  56  82 124 182 208 250 308 370
#     4  11  24  40  62  93 132 177 215 263 321 381
#     4  12  25  41  67  97 132 166 220 273 329 386
#     4  10  23  40  67  95 125 175 214 269 327 388
#     4   9  20  36  65  91 133 167 218 257 320 374
#     4  11  25  41  64  98 130 167 214 274 333 388
#     4  10  22  39  58  87 130 175 216 260 311 386
#
# _framework density 20.624378
#
# number of rings (size 3 to 8) (size 9 to 14) (size 15 to 20)
#    0.000    1.867    1.333    1.200   14.933    4.800 
#    3.600    0.000    0.000    0.800    0.000    0.000 
#    0.000    0.000    0.000    0.000    0.000    0.000 
#
# Total GULP energy -371784.765772 kJ/mol
# GULP energy per Si atom -12392.825526 kJ/mol
# Density = 2.057744 g / cm^3
# Si number density = 20.624378 Si / 1000 Ang^3
#
#
#
# Elastic Constant Matrix: (Units=GPa)
#
#
# Indices 1 2 3 4 5 6 
#
# 1 103.8395 28.6939 45.5263 0.0000 -10.6562 0.0000
# 2 28.6939 75.3127 31.7371 0.0000 4.7577 0.0000
# 3 45.5263 31.7371 117.9066 0.0000 -0.3765 0.0000
# 4 0.0000 0.0000 0.0000 32.5861 0.0000 -2.6147
# 5 -10.6562 4.7577 -0.3765 0.0000 31.4245 0.0000
# 6 0.0000 0.0000 0.0000 -2.6147 0.0000 20.3052
#
#
#
# Elastic Compliance Matrix: (Units=1/GPa)
#
#
# Indices 1 2 3 4 5 6 
#
# 1 0.012853 -0.003517 -0.004001 0.000000 0.004843 0.000000
# 2 -0.003517 0.016110 -0.002990 0.000000 -0.003667 0.000000
# 3 -0.004001 -0.002990 0.010828 0.000000 -0.000774 0.000000
# 4 0.000000 0.000000 0.000000 0.031008 0.000000 0.003993
# 5 0.004843 -0.003667 -0.000774 0.000000 0.034011 0.000000
# 6 0.000000 0.000000 0.000000 0.003993 0.000000 0.049763
#
#
# Mechanical properties :
#
#
# Convention : Reuss Voigt Hill
#
# Bulk Modulus (GPa) = 53.26025 56.55258 54.90641
# Shear Modulus (GPa) = 27.49570 29.60327 28.54949
#
# Velocity S-wave (km/s) = 3.65521 3.79272 3.72460
# Velocity P-wave (km/s) = 6.61015 6.83077 6.72136
#
# Compressibility (1/GPa) = 0.01877573
#
# Stress axis : x y z
#
# Youngs Moduli (GPa) = 77.80196 62.07472 92.34982
#
# Poissons Ratio (x) = 0.21832 0.36947
# Poissons Ratio (y) = 0.27363 0.27612
# Poissons Ratio (z) = 0.31126 0.18560
#
# Static dielectric constant tensor:
#      x y z
#    x 3.738490 0.000000 -0.073370 
#    y 0.000000 3.503760 0.000000 
#    z -0.073370 0.000000 3.988780 
# 
# 
# High freq. dielectric constant tensor:
#      x y z
#    x 1.798680 0.000000 -0.018580 
#    y 0.000000 1.774030 0.000000 
#    z -0.018580 0.000000 1.812360 
# 
# From -- ./inp_files/63534.got.cif
#   From: 2010.06.25/outbox.cif.g09.slc.cpg/sg15_32_cif.got.tgz:63534.got - 2010.06.28 07:06:18.
