data_PCOD8145618
_publ_section_title
;
Structure prediction by ZEFSAII (Michael W. Deem and Ramdas Pophale) SiO2 
 PCOD8145618
Probable space group: C 2/C
;
_chemical_formula_sum "Si O2"
_cell_formula_units_Z 48
_cell_length_a 12.061853
_cell_length_b 18.880377
_cell_length_c 11.210225
_cell_angle_alpha 90.000000
_cell_angle_beta 115.132208
_cell_angle_gamma 90.000000
_cell_volume 2311.245240
_symmetry_space_group_name_H-M "C 2/C"
_symmetry_group_IT_number 15
_symmetry_cell_setting 'monoclinic'
loop_
_space_group_symop_operation_xyz
x,y,z
-x,y,1/2-z
-x,-y,-z
x,-y,1/2+z
1/2+x,1/2+y,z
1/2-x,1/2+y,1/2-z
1/2-x,1/2-y,-z
1/2+x,1/2-y,1/2+z
loop_
_atom_site_type_symbol
_atom_site_label
_atom_site_fract_x
_atom_site_fract_y
_atom_site_fract_z
Si Si1 0.500000 0.821183 0.750000
Si Si2 0.122158 0.834494 0.882152
Si Si3 0.346998 0.936683 0.563749
Si Si4 0.668639 0.751391 0.638973
Si Si5 0.782096 0.615056 0.776004
Si Si6 0.500000 0.951631 0.250000
Si Si7 0.868631 0.969139 0.460704
O O1 0.385652 0.868050 0.655846
O O2 0.551870 0.775423 0.663452
O O3 0.242195 0.815843 0.858315
O O4 0.135365 0.916162 0.928055
O O5 0.000000 0.822918 0.750000
O O6 0.114849 0.785110 0.995774
O O7 0.327369 0.912026 0.421841
O O8 0.451998 0.997505 0.620707
O O9 0.220791 0.964835 0.560024
O O10 0.748844 0.697749 0.756876
O O11 0.892117 0.601031 0.735178
O O12 0.665378 0.570625 0.677636
O O13 0.000000 0.000000 0.500000
#
# Coordination Sequence:
#
# PCOD8145618 Si02
#       7
#     4   8   8   8   8   4   8
#     4  11  26  44  64  98 140 169 224 274 328 405
#     4  10  24  43  70  94 132 175 220 277 322 394
#     4  10  23  39  64  93 126 171 211 273 331 383
#     4  10  25  44  63 100 130 174 229 261 330 397
#     4  10  22  39  63  91 126 170 216 269 325 390
#     4   9  20  40  62  94 122 163 226 272 328 381
#     4  10  24  41  63  97 128 165 219 272 334 389
#
# _framework density 20.768025000000002
#
# number of rings (size 3 to 8) (size 9 to 14) (size 15 to 20)
#    0.000    2.000    0.000    0.500    8.167   10.000 
#    0.000    0.000    0.000    0.000    0.000    0.000 
#    0.000    0.000    0.000    0.000    0.000    0.000 
#
# Total GULP energy -297601.705105 kJ/mol
# GULP energy per Si atom -12400.071046 kJ/mol
# Density = 2.072076 g / cm^3
# Si number density = 20.768025 Si / 1000 Ang^3
#
#
#
# Elastic Constant Matrix: (Units=GPa)
#
#
# Indices 1 2 3 4 5 6 
#
# 1 130.3422 70.7278 46.4131 0.0000 6.2269 0.0000
# 2 70.7278 118.0620 44.4206 0.0000 2.7136 0.0000
# 3 46.4131 44.4206 122.7719 0.0000 9.1645 0.0000
# 4 0.0000 0.0000 0.0000 -12.0262 0.0000 5.9112
# 5 6.2269 2.7136 9.1645 0.0000 35.0133 0.0000
# 6 0.0000 0.0000 0.0000 5.9112 0.0000 32.1593
#
#
#
# Elastic Compliance Matrix: (Units=1/GPa)
#
#
# Indices 1 2 3 4 5 6 
#
# 1 0.011905 -0.006302 -0.002141 0.000000 -0.001069 0.000000
# 2 -0.006302 0.013142 -0.002428 0.000000 0.000738 0.000000
# 3 -0.002141 -0.002428 0.009985 0.000000 -0.002045 0.000000
# 4 0.000000 0.000000 0.000000 -0.076262 0.000000 0.014018
# 5 -0.001069 0.000738 -0.002045 0.000000 0.029229 0.000000
# 6 0.000000 0.000000 0.000000 0.014018 0.000000 0.028519
#
#
# Mechanical properties :
#
#
# Convention : Reuss Voigt Hill
#
# Bulk Modulus (GPa) = 75.23412 77.14435 76.18923
# Shear Modulus (GPa) = 117.12583 25.00359 71.06471
#
# Velocity S-wave (km/s) = 7.51795 3.47356 5.85599
# Velocity P-wave (km/s) = 10.56712 7.30163 9.08234
#
# Compressibility (1/GPa) = 0.01329184
#
# Stress axis : x y z
#
# Youngs Moduli (GPa) = 83.99747 76.09247 100.14590
#
# Poissons Ratio (x) = 0.47954 0.21438
# Poissons Ratio (y) = 0.52935 0.24311
# Poissons Ratio (z) = 0.17982 0.18472
#
# Static dielectric constant tensor:
#      x y z
#    x 3.590380 0.000000 0.176750 
#    y 0.000000 3.863000 0.000000 
#    z 0.176750 0.000000 4.131590 
# 
# 
# High freq. dielectric constant tensor:
#      x y z
#    x 1.803090 0.000000 0.012440 
#    y 0.000000 1.816080 0.000000 
#    z 0.012440 0.000000 1.824530 
# 
# From -- ./inp_files/89173.got.cif
#   From: 2010.06.25/outbox.cif.g09.slc.cpg/sg15_45_cif.got.tgz:89173.got - 2010.06.28 07:06:18.
