data_PCOD8145972
_publ_section_title
;
Structure prediction by ZEFSAII (Michael W. Deem and Ramdas Pophale) SiO2 
 PCOD8145972
Probable space group: C 2/C
;
_chemical_formula_sum "Si O2"
_cell_formula_units_Z 44
_cell_length_a 27.337522
_cell_length_b 11.518265
_cell_length_c 15.899813
_cell_angle_alpha 90.000000
_cell_angle_beta 24.771894
_cell_angle_gamma 90.000000
_cell_volume 2097.776546
_symmetry_space_group_name_H-M "C 2/C"
_symmetry_group_IT_number 15
_symmetry_cell_setting 'monoclinic'
loop_
_space_group_symop_operation_xyz
x,y,z
-x,y,1/2-z
-x,-y,-z
x,-y,1/2+z
1/2+x,1/2+y,z
1/2-x,1/2+y,1/2-z
1/2-x,1/2-y,-z
1/2+x,1/2-y,1/2+z
loop_
_atom_site_type_symbol
_atom_site_label
_atom_site_fract_x
_atom_site_fract_y
_atom_site_fract_z
Si Si1 0.225089 0.656040 0.415692
Si Si2 0.283106 0.693625 0.139550
Si Si3 0.371292 0.037515 0.227110
Si Si4 0.625098 0.910631 0.587740
Si Si5 0.839627 0.880527 0.902076
Si Si6 0.000000 0.041826 0.750000
O O1 0.271311 0.709866 0.257384
O O2 0.152515 0.539415 0.511576
O O3 0.141437 0.751784 0.590014
O O4 0.332024 0.626122 0.312422
O O5 0.171667 0.627782 0.275781
O O6 0.284453 0.819487 0.093609
O O7 0.400300 0.621605 0.942988
O O8 0.371260 0.100276 0.317463
O O9 0.283396 0.928306 0.368564
O O10 0.500000 0.000000 0.000000
O O11 0.500000 0.872627 0.750000
O O12 0.948555 0.961490 0.755865
#
# Coordination Sequence:
#
# PCOD8145972 Si02
#       6
#     8   8   8   8   8   4
#     4  10  23  41  62  89 127 165 210 254 308 375
#     4  11  23  40  64  93 128 162 207 262 313 369
#     4  10  22  41  67  92 126 166 207 256 317 375
#     4  11  23  40  62  95 130 164 211 256 311 378
#     4   9  22  43  63  90 126 161 212 257 306 376
#     4  10  22  40  64  92 126 164 200 262 314 370
#
# _framework density 20.974589000000002
#
# number of rings (size 3 to 8) (size 9 to 14) (size 15 to 20)
#    0.000    1.818    0.909    1.636    8.909    0.727 
#    3.273    0.000    0.000    0.000    0.000    0.000 
#    0.000    0.000    0.000    0.000    0.000    0.000 
#
# Total GULP energy -272851.508288 kJ/mol
# GULP energy per Si atom -12402.341286 kJ/mol
# Density = 2.092685 g / cm^3
# Si number density = 20.974589 Si / 1000 Ang^3
#
#
#
# Elastic Constant Matrix: (Units=GPa)
#
#
# Indices 1 2 3 4 5 6 
#
# 1 135.1856 44.2791 41.6974 0.0000 18.2494 0.0000
# 2 44.2791 128.0562 34.4956 0.0000 -0.2579 0.0000
# 3 41.6974 34.4956 81.9320 0.0000 -4.1247 0.0000
# 4 0.0000 0.0000 0.0000 19.9475 0.0000 7.6735
# 5 18.2494 -0.2579 -4.1247 0.0000 38.1069 0.0000
# 6 0.0000 0.0000 0.0000 7.6735 0.0000 32.8331
#
#
#
# Elastic Compliance Matrix: (Units=1/GPa)
#
#
# Indices 1 2 3 4 5 6 
#
# 1 0.010297 -0.002353 -0.004524 0.000000 -0.005437 0.000000
# 2 -0.002353 0.009350 -0.002694 0.000000 0.000898 0.000000
# 3 -0.004524 -0.002694 0.015836 0.000000 0.003862 0.000000
# 4 0.000000 0.000000 0.000000 0.055084 0.000000 -0.012874
# 5 -0.005437 0.000898 0.003862 0.000000 0.029270 0.000000
# 6 0.000000 0.000000 0.000000 -0.012874 0.000000 0.033466
#
#
# Mechanical properties :
#
#
# Convention : Reuss Voigt Hill
#
# Bulk Modulus (GPa) = 61.19026 65.12421 63.15723
# Shear Modulus (GPa) = 28.10704 33.15762 30.63233
#
# Velocity S-wave (km/s) = 3.66464 3.98030 3.82573
# Velocity P-wave (km/s) = 6.86608 7.22774 7.04923
#
# Compressibility (1/GPa) = 0.01634247
#
# Stress axis : x y z
#
# Youngs Moduli (GPa) = 97.11434 106.94986 63.14698
#
# Poissons Ratio (x) = 0.25165 0.28565
# Poissons Ratio (y) = 0.22850 0.17012
# Poissons Ratio (z) = 0.43930 0.28812
#
# Static dielectric constant tensor:
#      x y z
#    x 3.994920 0.000000 -0.090020 
#    y 0.000000 3.922190 0.000000 
#    z -0.090020 0.000000 3.497250 
# 
# 
# High freq. dielectric constant tensor:
#      x y z
#    x 1.838570 0.000000 -0.004340 
#    y 0.000000 1.835940 0.000000 
#    z -0.004340 0.000000 1.793650 
# 
# From -- ./inp_files/151717.got.cif
#   From: 2010.06.25/outbox.cif.g09.slc.cpg/sg15_76_cif.got.tgz:151717.got - 2010.06.28 07:06:18.
