data_PCOD8145472
_publ_section_title
;
Structure prediction by ZEFSAII (Michael W. Deem and Ramdas Pophale) SiO2 
 PCOD8145472
Probable space group: C 2/C
;
_chemical_formula_sum "Si O2"
_cell_formula_units_Z 56
_cell_length_a 8.201366
_cell_length_b 20.896212
_cell_length_c 16.808079
_cell_angle_alpha 90.000000
_cell_angle_beta 109.323784
_cell_angle_gamma 90.000000
_cell_volume 2718.247991
_symmetry_space_group_name_H-M "C 2/C"
_symmetry_group_IT_number 15
_symmetry_cell_setting 'monoclinic'
loop_
_space_group_symop_operation_xyz
x,y,z
-x,y,1/2-z
-x,-y,-z
x,-y,1/2+z
1/2+x,1/2+y,z
1/2-x,1/2+y,1/2-z
1/2-x,1/2-y,-z
1/2+x,1/2-y,1/2+z
loop_
_atom_site_type_symbol
_atom_site_label
_atom_site_fract_x
_atom_site_fract_y
_atom_site_fract_z
Si Si1 0.297073 0.940487 0.341920
Si Si2 0.000000 0.843948 0.250000
Si Si3 0.917143 0.098915 0.015383
Si Si4 0.266864 0.965319 0.519018
Si Si5 0.411709 0.067226 0.319746
Si Si6 0.000000 0.377054 0.250000
Si Si7 0.157271 0.168802 0.335945
Si Si8 0.813242 0.197542 0.863689
O O1 0.152600 0.892235 0.292276
O O2 0.311503 0.940844 0.438564
O O3 0.474526 0.919213 0.326071
O O4 0.263616 0.012157 0.302276
O O5 0.032867 0.799222 0.177673
O O6 0.869511 0.155187 0.947198
O O7 0.110629 0.075315 0.030397
O O8 0.915895 0.127720 0.103167
O O9 0.781834 0.040471 0.986975
O O10 0.442200 0.951281 0.593180
O O11 0.500000 0.071636 0.250000
O O12 0.316612 0.133638 0.319513
O O13 0.837016 0.333417 0.211068
O O14 0.245721 0.233867 0.382456
O O15 0.000000 0.182377 0.250000
#
# Coordination Sequence:
#
# PCOD8145472 Si02
#       8
#     8   4   8   8   8   4   8   8
#     4  11  21  40  66  99 128 167 210 279 330 388
#     4  10  24  40  70  98 128 172 220 272 334 378
#     4  11  24  44  71  97 134 174 219 272 337 392
#     4  11  24  44  66 102 138 165 214 282 336 396
#     4  12  26  41  66  99 134 174 218 269 340 397
#     4  10  22  38  72  94 128 166 230 266 324 392
#     4  12  27  46  67  93 136 181 222 271 326 395
#     4  11  23  46  65  96 129 179 224 269 314 394
#
# _framework density 20.601503999999998
#
# number of rings (size 3 to 8) (size 9 to 14) (size 15 to 20)
#    0.000    0.857    4.286    2.571    6.000    0.000 
#    0.000    0.714    0.000    0.000    0.000    0.000 
#    0.000    0.000    0.000    0.000    0.000    0.000 
#
# Total GULP energy -347080.923625 kJ/mol
# GULP energy per Si atom -12395.747272 kJ/mol
# Density = 2.055461 g / cm^3
# Si number density = 20.601504 Si / 1000 Ang^3
#
#
#
# Elastic Constant Matrix: (Units=GPa)
#
#
# Indices 1 2 3 4 5 6 
#
# 1 98.9032 42.8739 42.5485 0.0000 -19.6577 0.0000
# 2 42.8739 119.3448 38.8046 0.0000 -3.3799 0.0000
# 3 42.5485 38.8046 90.5892 0.0000 -27.7272 0.0000
# 4 0.0000 0.0000 0.0000 23.9817 0.0000 1.4370
# 5 -19.6577 -3.3799 -27.7272 0.0000 42.0642 0.0000
# 6 0.0000 0.0000 0.0000 1.4370 0.0000 32.3159
#
#
#
# Elastic Compliance Matrix: (Units=1/GPa)
#
#
# Indices 1 2 3 4 5 6 
#
# 1 0.014141 -0.003702 -0.003914 0.000000 0.003731 0.000000
# 2 -0.003702 0.010912 -0.004005 0.000000 -0.003493 0.000000
# 3 -0.003914 -0.004005 0.017456 0.000000 0.009356 0.000000
# 4 0.000000 0.000000 0.000000 0.041810 0.000000 -0.001859
# 5 0.003731 -0.003493 0.009356 0.000000 0.031403 0.000000
# 6 0.000000 0.000000 0.000000 -0.001859 0.000000 0.031027
#
#
# Mechanical properties :
#
#
# Convention : Reuss Voigt Hill
#
# Bulk Modulus (GPa) = 51.89943 61.92123 56.91033
# Shear Modulus (GPa) = 28.34250 31.97971 30.16110
#
# Velocity S-wave (km/s) = 3.71313 3.94420 3.83041
# Velocity P-wave (km/s) = 6.60529 7.13191 6.87365
#
# Compressibility (1/GPa) = 0.01926803
#
# Stress axis : x y z
#
# Youngs Moduli (GPa) = 70.71618 91.64136 57.28600
#
# Poissons Ratio (x) = 0.33923 0.22423
# Poissons Ratio (y) = 0.26177 0.22941
# Poissons Ratio (z) = 0.27680 0.36700
#
# Static dielectric constant tensor:
#      x y z
#    x 4.244710 0.000000 -0.282290 
#    y 0.000000 3.922010 0.000000 
#    z -0.282290 0.000000 3.698080 
# 
# 
# High freq. dielectric constant tensor:
#      x y z
#    x 1.821790 0.000000 -0.017130 
#    y 0.000000 1.807820 0.000000 
#    z -0.017130 0.000000 1.808630 
# 
# From -- ./inp_files/191087.got.cif
#   From: 2010.06.25/outbox.cif.g09.slc.cpg/sg15_96_cif.got.tgz:191087.got - 2010.06.28 07:06:18.
