data_PCOD8145984
_publ_section_title
;
Structure prediction by ZEFSAII (Michael W. Deem and Ramdas Pophale) SiO2 
 PCOD8145984
Probable space group: C 2/C
;
_chemical_formula_sum "Si O2"
_cell_formula_units_Z 48
_cell_length_a 29.242585
_cell_length_b 8.560435
_cell_length_c 17.867897
_cell_angle_alpha 90.000000
_cell_angle_beta 150.523596
_cell_angle_gamma 90.000000
_cell_volume 2200.936854
_symmetry_space_group_name_H-M "C 2/C"
_symmetry_group_IT_number 15
_symmetry_cell_setting 'monoclinic'
loop_
_space_group_symop_operation_xyz
x,y,z
-x,y,1/2-z
-x,-y,-z
x,-y,1/2+z
1/2+x,1/2+y,z
1/2-x,1/2+y,1/2-z
1/2-x,1/2-y,-z
1/2+x,1/2-y,1/2+z
loop_
_atom_site_type_symbol
_atom_site_label
_atom_site_fract_x
_atom_site_fract_y
_atom_site_fract_z
Si Si1 0.155187 0.691003 0.149784
Si Si2 0.509179 0.350870 0.844330
Si Si3 0.922143 0.808270 0.082711
Si Si4 0.742177 0.317892 0.406845
Si Si5 0.334791 0.823863 0.325259
Si Si6 0.817644 0.155005 0.149008
O O1 0.152737 0.764180 0.230480
O O2 0.237411 0.758640 0.216151
O O3 0.167518 0.508392 0.176439
O O4 0.058593 0.733097 0.971780
O O5 0.500000 0.267035 0.750000
O O6 0.570252 0.506052 0.917024
O O7 0.408481 0.399660 0.732667
O O8 0.000000 0.742095 0.250000
O O9 0.825596 0.756353 0.979811
O O10 0.923038 0.732507 0.001215
O O11 0.750000 0.250000 0.500000
O O12 0.740548 0.505011 0.406258
O O13 0.350433 0.762347 0.264032
O O14 0.750000 0.250000 0.000000
#
# Coordination Sequence:
#
# PCOD8145984 Si02
#       6
#     8   8   8   8   8   8
#     4  11  23  41  66  94 131 174 218 270 324 383
#     4  11  24  43  67  95 129 170 217 269 325 386
#     4  10  22  40  64  93 128 168 211 262 321 385
#     4  11  22  40  66  94 129 169 212 264 322 382
#     4  11  23  41  64  95 132 173 219 268 326 383
#     4  12  26  43  67  97 132 172 217 268 323 387
#
# _framework density 21.808895
#
# number of rings (size 3 to 8) (size 9 to 14) (size 15 to 20)
#    0.000    1.000    0.000    9.000    0.000    8.000 
#    0.000    0.000    0.000    0.000    0.000    0.000 
#    0.000    0.000    0.000    0.000    0.000    0.000 
#
# Total GULP energy -297568.055066 kJ/mol
# GULP energy per Si atom -12398.668961 kJ/mol
# Density = 2.175926 g / cm^3
# Si number density = 21.808895 Si / 1000 Ang^3
#
#
#
# Elastic Constant Matrix: (Units=GPa)
#
#
# Indices 1 2 3 4 5 6 
#
# 1 110.6164 48.8317 56.0705 0.0000 -22.6322 0.0000
# 2 48.8317 172.5280 60.3017 0.0000 -14.7481 0.0000
# 3 56.0705 60.3017 149.1564 0.0000 -43.5317 0.0000
# 4 0.0000 0.0000 0.0000 34.7444 0.0000 -4.8786
# 5 -22.6322 -14.7481 -43.5317 0.0000 56.7712 0.0000
# 6 0.0000 0.0000 0.0000 -4.8786 0.0000 36.6508
#
#
#
# Elastic Compliance Matrix: (Units=1/GPa)
#
#
# Indices 1 2 3 4 5 6 
#
# 1 0.011922 -0.002141 -0.003081 0.000000 0.001834 0.000000
# 2 -0.002141 0.007143 -0.002307 0.000000 -0.000767 0.000000
# 3 -0.003081 -0.002307 0.010644 0.000000 0.006334 0.000000
# 4 0.000000 0.000000 0.000000 0.029330 0.000000 0.003904
# 5 0.001834 -0.000767 0.006334 0.000000 0.023004 0.000000
# 6 0.000000 0.000000 0.000000 0.003904 0.000000 0.027804
#
#
# Mechanical properties :
#
#
# Convention : Reuss Voigt Hill
#
# Bulk Modulus (GPa) = 68.25056 84.74541 76.49799
# Shear Modulus (GPa) = 38.52455 43.43973 40.98214
#
# Velocity S-wave (km/s) = 4.20749 4.46784 4.33962
# Velocity P-wave (km/s) = 7.41395 8.09679 7.76288
#
# Compressibility (1/GPa) = 0.01465189
#
# Stress axis : x y z
#
# Youngs Moduli (GPa) = 83.87627 140.00140 93.95198
#
# Poissons Ratio (x) = 0.29971 0.28946
# Poissons Ratio (y) = 0.17956 0.21672
# Poissons Ratio (z) = 0.25842 0.32294
#
# Static dielectric constant tensor:
#      x y z
#    x 4.635610 0.000000 -0.689110 
#    y 0.000000 3.910000 0.000000 
#    z -0.689110 0.000000 4.756820 
# 
# 
# High freq. dielectric constant tensor:
#      x y z
#    x 1.857710 0.000000 -0.027400 
#    y 0.000000 1.857530 0.000000 
#    z -0.027400 0.000000 1.875910 
# 
# From -- ./inp_files/224701.got.cif
#   From: 2010.06.25/outbox.cif.g09.slc.cpg/sg15_113_cif.got.tgz:224701.got - 2010.06.28 07:06:18.
