data_PCOD8145151
_publ_section_title
;
Structure prediction by ZEFSAII (Michael W. Deem and Ramdas Pophale) SiO2 
 PCOD8145151
Probable space group: C 2/C
;
_chemical_formula_sum "Si O2"
_cell_formula_units_Z 56
_cell_length_a 14.816061
_cell_length_b 12.661902
_cell_length_c 30.222910
_cell_angle_alpha 90.000000
_cell_angle_beta 26.747716
_cell_angle_gamma 90.000000
_cell_volume 2551.767741
_symmetry_space_group_name_H-M "C 2/C"
_symmetry_group_IT_number 15
_symmetry_cell_setting 'monoclinic'
loop_
_space_group_symop_operation_xyz
x,y,z
-x,y,1/2-z
-x,-y,-z
x,-y,1/2+z
1/2+x,1/2+y,z
1/2-x,1/2+y,1/2-z
1/2-x,1/2-y,-z
1/2+x,1/2-y,1/2+z
loop_
_atom_site_type_symbol
_atom_site_label
_atom_site_fract_x
_atom_site_fract_y
_atom_site_fract_z
Si Si1 0.581942 0.301946 0.030085
Si Si2 0.413417 0.910381 0.833364
Si Si3 0.224343 0.585794 0.977176
Si Si4 0.909567 0.468326 0.168252
Si Si5 0.281119 0.874389 0.364610
Si Si6 0.012515 0.954075 0.797109
Si Si7 0.606376 0.241001 0.604440
O O1 0.608602 0.352131 0.066942
O O2 0.381100 0.354043 0.101396
O O3 0.783242 0.321267 0.913614
O O4 0.556799 0.174737 0.039044
O O5 0.500000 0.861846 0.750000
O O6 0.590474 0.957514 0.787515
O O7 0.260717 0.004686 0.888292
O O8 0.330635 0.534035 0.888165
O O9 0.114994 0.493501 0.052002
O O10 0.719168 0.488893 0.220476
O O11 0.928039 0.344665 0.173648
O O12 0.500000 0.849927 0.250000
O O13 0.244372 0.798727 0.422361
O O14 0.000000 0.929663 0.750000
O O15 0.995754 0.849515 0.834678
O O16 0.750000 0.250000 0.500000
#
# Coordination Sequence:
#
# PCOD8145151 Si02
#       7
#     8   8   8   8   8   8   8
#     4  10  22  40  67  94 141 182 225 291 351 422
#     4   9  20  38  63 102 132 176 233 289 351 405
#     4  10  24  43  66 100 136 187 232 283 366 414
#     4  10  24  45  69  97 143 181 234 296 344 429
#     4  10  22  37  65  99 132 175 236 287 343 413
#     4  12  28  45  73 105 144 188 237 294 361 430
#     4  11  24  45  68 100 134 186 238 285 357 421
#
# _framework density 21.945568999999999
#
# number of rings (size 3 to 8) (size 9 to 14) (size 15 to 20)
#    0.000    1.714    1.429    0.857   10.000    6.286 
#    0.000    0.000    0.000    0.000    0.000    0.000 
#    0.000    0.000    0.000    0.000    0.000    0.000 
#
# Total GULP energy -347129.364282 kJ/mol
# GULP energy per Si atom -12397.477296 kJ/mol
# Density = 2.189562 g / cm^3
# Si number density = 21.945569 Si / 1000 Ang^3
#
#
#
# Elastic Constant Matrix: (Units=GPa)
#
#
# Indices 1 2 3 4 5 6 
#
# 1 103.7032 24.5780 34.9696 -0.0005 4.8701 0.0004
# 2 24.5780 97.9451 20.6233 0.0057 3.5245 0.0002
# 3 34.9696 20.6233 70.1313 0.0241 23.0538 0.0158
# 4 -0.0005 0.0057 0.0241 17.1092 0.0150 12.0291
# 5 4.8701 3.5245 23.0538 0.0150 43.1900 -0.0013
# 6 0.0004 0.0002 0.0158 12.0291 -0.0013 25.6563
#
#
#
# Elastic Compliance Matrix: (Units=1/GPa)
#
#
# Indices 1 2 3 4 5 6 
#
# 1 0.012050 -0.001801 -0.006162 0.000008 0.002077 0.000000
# 2 -0.001801 0.011188 -0.002618 -0.000003 0.000687 0.000003
# 3 -0.006162 -0.002618 0.021591 -0.000016 -0.010616 -0.000006
# 4 0.000008 -0.000003 -0.000016 0.087190 -0.000024 -0.040880
# 5 0.002077 0.000687 -0.010616 -0.000024 0.028530 0.000019
# 6 0.000000 0.000003 -0.000006 -0.040880 0.000019 0.058144
#
#
# Mechanical properties :
#
#
# Convention : Reuss Voigt Hill
#
# Bulk Modulus (GPa) = 42.25154 48.01348 45.13251
# Shear Modulus (GPa) = 20.18217 29.96501 25.07359
#
# Velocity S-wave (km/s) = 3.03586 3.69917 3.38381
# Velocity P-wave (km/s) = 5.61990 6.33807 5.98976
#
# Compressibility (1/GPa) = 0.02366778
#
# Stress axis : x y z
#
# Youngs Moduli (GPa) = 82.98760 89.37931 46.31548
#
# Poissons Ratio (x) = 0.16098 0.28538
# Poissons Ratio (y) = 0.14947 0.12125
# Poissons Ratio (z) = 0.51134 0.23399
#
# Static dielectric constant tensor:
#      x y z
#    x 4.053040 -0.000010 0.240150 
#    y -0.000010 4.095520 0.000000 
#    z 0.240150 0.000000 3.718030 
# 
# 
# High freq. dielectric constant tensor:
#      x y z
#    x 1.860300 0.000000 0.015590 
#    y 0.000000 1.866760 0.000000 
#    z 0.015590 0.000000 1.853340 
# 
# From -- ./inp_files/313726.got.cif
#   From: 2010.06.25/outbox.cif.g09.slc.cpg/sg15_157_cif.got.tgz:313726.got - 2010.06.28 07:06:18.
