data_PCOD8145748
_publ_section_title
;
Structure prediction by ZEFSAII (Michael W. Deem and Ramdas Pophale) SiO2 
 PCOD8145748
Probable space group: C 2/C
;
_chemical_formula_sum "Si O2"
_cell_formula_units_Z 52
_cell_length_a 7.825318
_cell_length_b 14.652202
_cell_length_c 29.606400
_cell_angle_alpha 90.000000
_cell_angle_beta 137.213269
_cell_angle_gamma 90.000000
_cell_volume 2305.864594
_symmetry_space_group_name_H-M "C 2/C"
_symmetry_group_IT_number 15
_symmetry_cell_setting 'monoclinic'
loop_
_space_group_symop_operation_xyz
x,y,z
-x,y,1/2-z
-x,-y,-z
x,-y,1/2+z
1/2+x,1/2+y,z
1/2-x,1/2+y,1/2-z
1/2-x,1/2-y,-z
1/2+x,1/2-y,1/2+z
loop_
_atom_site_type_symbol
_atom_site_label
_atom_site_fract_x
_atom_site_fract_y
_atom_site_fract_z
Si Si1 0.818574 0.008207 0.890823
Si Si2 0.529393 0.982019 0.597502
Si Si3 0.085067 0.830093 0.910452
Si Si4 0.025533 0.889032 0.703899
Si Si5 0.219995 0.853368 0.478868
Si Si6 0.500000 0.978342 0.750000
Si Si7 0.949577 0.328642 0.438398
O O1 0.960976 0.094262 0.941770
O O2 0.640356 0.958000 0.892221
O O3 0.652615 0.040093 0.815331
O O4 0.016104 0.933116 0.911193
O O5 0.456118 0.912391 0.543225
O O6 0.827045 0.973855 0.665525
O O7 0.459785 0.085840 0.572897
O O8 0.890253 0.756850 0.894468
O O9 0.074859 0.818027 0.853922
O O10 0.352567 0.801404 0.983259
O O11 0.306897 0.917072 0.742899
O O12 0.000000 0.847109 0.750000
O O13 0.250000 0.750000 0.500000
O O14 0.208064 0.855570 0.421643
#
# Coordination Sequence:
#
# PCOD8145748 Si02
#       7
#     8   8   8   8   8   4   8
#     4  11  23  41  66 100 134 181 224 282 346 415
#     4  12  23  40  71  98 133 179 226 285 350 408
#     4  10  22  39  67  95 137 171 222 279 343 409
#     4  11  22  43  70  98 132 186 235 279 348 419
#     4  12  25  40  66 102 138 175 228 292 350 405
#     4  10  22  42  70  96 136 180 236 276 340 424
#     4  11  22  39  63 100 132 172 220 284 346 403
#
# _framework density 22.551195
#
# number of rings (size 3 to 8) (size 9 to 14) (size 15 to 20)
#    0.000    0.923    4.615    3.692    4.308    0.000 
#    0.000    0.000   13.538    0.000    0.000    0.000 
#    0.000    0.000    0.000    0.000    0.000    0.000 
#
# Total GULP energy -322152.691028 kJ/mol
# GULP energy per Si atom -12390.488116 kJ/mol
# Density = 2.249987 g / cm^3
# Si number density = 22.551195 Si / 1000 Ang^3
#
#
#
# Elastic Constant Matrix: (Units=GPa)
#
#
# Indices 1 2 3 4 5 6 
#
# 1 131.7252 18.9524 36.7379 0.0000 -15.0834 0.0000
# 2 18.9524 117.5733 39.9416 0.0000 -9.0139 0.0000
# 3 36.7379 39.9416 114.7641 -0.0001 -14.6673 0.0000
# 4 0.0000 0.0000 -0.0001 19.0900 0.0000 -8.2839
# 5 -15.0834 -9.0139 -14.6673 0.0000 46.3015 0.0000
# 6 0.0000 0.0000 0.0000 -8.2839 0.0000 27.8238
#
#
#
# Elastic Compliance Matrix: (Units=1/GPa)
#
#
# Indices 1 2 3 4 5 6 
#
# 1 0.008527 -0.000433 -0.002329 0.000000 0.001956 0.000000
# 2 -0.000433 0.009700 -0.003141 0.000000 0.000752 0.000000
# 3 -0.002329 -0.003141 0.010815 0.000000 0.002056 0.000000
# 4 0.000000 0.000000 0.000000 0.060155 0.000000 0.017910
# 5 0.001956 0.000752 0.002056 0.000000 0.023032 0.000000
# 6 0.000000 0.000000 0.000000 0.017910 0.000000 0.041273
#
#
# Mechanical properties :
#
#
# Convention : Reuss Voigt Hill
#
# Bulk Modulus (GPa) = 58.01985 61.70293 59.86139
# Shear Modulus (GPa) = 29.23051 36.53847 32.88449
#
# Velocity S-wave (km/s) = 3.60416 4.02959 3.82280
# Velocity P-wave (km/s) = 6.56536 7.00506 6.78877
#
# Compressibility (1/GPa) = 0.01723548
#
# Stress axis : x y z
#
# Youngs Moduli (GPa) = 117.26885 103.09366 92.46442
#
# Poissons Ratio (x) = 0.04469 0.21534
# Poissons Ratio (y) = 0.05083 0.29043
# Poissons Ratio (z) = 0.27311 0.32382
#
# Static dielectric constant tensor:
#      x y z
#    x 4.380750 0.000000 -0.185220 
#    y 0.000000 3.596790 0.000000 
#    z -0.185220 0.000000 4.228190 
# 
# 
# High freq. dielectric constant tensor:
#      x y z
#    x 1.914990 0.000000 -0.011930 
#    y 0.000000 1.850100 0.000000 
#    z -0.011930 0.000000 1.880860 
# 
# From -- ./inp_files/308323.got.cif
#   From: 2010.06.25/outbox.cif.g09.slc.cpg/sg15_155_cif.got.tgz:308323.got - 2010.06.28 07:06:18.
