data_PCOD8145546
_publ_section_title
;
Structure prediction by ZEFSAII (Michael W. Deem and Ramdas Pophale) SiO2 
 PCOD8145546
Probable space group: C 2/C
;
_chemical_formula_sum "Si O2"
_cell_formula_units_Z 56
_cell_length_a 16.814172
_cell_length_b 15.890479
_cell_length_c 18.907811
_cell_angle_alpha 90.000000
_cell_angle_beta 146.131368
_cell_angle_gamma 90.000000
_cell_volume 2815.369854
_symmetry_space_group_name_H-M "C 2/C"
_symmetry_group_IT_number 15
_symmetry_cell_setting 'monoclinic'
loop_
_space_group_symop_operation_xyz
x,y,z
-x,y,1/2-z
-x,-y,-z
x,-y,1/2+z
1/2+x,1/2+y,z
1/2-x,1/2+y,1/2-z
1/2-x,1/2-y,-z
1/2+x,1/2-y,1/2+z
loop_
_atom_site_type_symbol
_atom_site_label
_atom_site_fract_x
_atom_site_fract_y
_atom_site_fract_z
Si Si1 0.908872 0.761299 0.891422
Si Si2 0.265848 0.773164 0.876240
Si Si3 0.515429 0.412926 0.467551
Si Si4 0.621217 0.513129 0.430120
Si Si5 0.637841 0.894113 0.308962
Si Si6 0.307551 0.543042 0.168675
Si Si7 0.203224 0.591008 0.699758
O O1 0.789156 0.778826 0.744403
O O2 0.873074 0.668636 0.897994
O O3 0.887621 0.841024 0.926306
O O4 0.074728 0.760075 0.991674
O O5 0.157096 0.706817 0.832005
O O6 0.260357 0.867546 0.903016
O O7 0.500000 0.500000 0.500000
O O8 0.593601 0.425939 0.450181
O O9 0.358852 0.376594 0.337552
O O10 0.722794 0.567283 0.553799
O O11 0.467269 0.560600 0.314943
O O12 0.683232 0.492029 0.398409
O O13 0.500000 0.924405 0.250000
O O14 0.621291 0.924489 0.214431
O O15 0.211822 0.491204 0.155204
#
# Coordination Sequence:
#
# PCOD8145546 Si02
#       7
#     8   8   8   8   8   8   8
#     4  11  21  39  61  97 120 165 218 252 315 374
#     4  11  23  37  60  90 131 168 199 258 319 379
#     4  11  18  40  68  85 122 170 220 246 312 395
#     4  10  22  39  61  90 118 170 209 256 313 383
#     4  11  23  38  58  90 130 162 203 257 314 386
#     4  10  23  39  62  92 123 158 216 258 317 375
#     4  10  22  41  61  92 124 167 206 266 309 375
#
# _framework density 19.890815
#
# number of rings (size 3 to 8) (size 9 to 14) (size 15 to 20)
#    0.000    1.429    4.286    2.571    6.000    1.143 
#    0.000    0.714    0.000    0.000    0.000    0.000 
#    0.000    0.000    0.000    0.000    0.000    0.000 
#
# Total GULP energy -346892.837733 kJ/mol
# GULP energy per Si atom -12389.029919 kJ/mol
# Density = 1.984554 g / cm^3
# Si number density = 19.890815 Si / 1000 Ang^3
#
#
#
# Elastic Constant Matrix: (Units=GPa)
#
#
# Indices 1 2 3 4 5 6 
#
# 1 121.6691 44.4432 17.2528 -0.0015 -4.7397 -0.0004
# 2 44.4432 64.8984 18.5254 -0.0016 1.8892 -0.0006
# 3 17.2528 18.5254 53.0967 -0.0026 -2.0445 -0.0009
# 4 -0.0015 -0.0016 -0.0026 37.7928 -0.0012 -4.3420
# 5 -4.7397 1.8892 -2.0445 -0.0012 19.6728 -0.0004
# 6 -0.0004 -0.0006 -0.0009 -4.3420 -0.0004 25.9493
#
#
#
# Elastic Compliance Matrix: (Units=1/GPa)
#
#
# Indices 1 2 3 4 5 6 
#
# 1 0.011226 -0.007530 -0.000892 0.000000 0.003335 0.000000
# 2 -0.007530 0.022266 -0.005496 0.000000 -0.004524 0.000000
# 3 -0.000892 -0.005496 0.021138 0.000001 0.002510 0.000001
# 4 0.000000 0.000000 0.000001 0.026979 0.000002 0.004514
# 5 0.003335 -0.004524 0.002510 0.000002 0.052330 0.000001
# 6 0.000000 0.000000 0.000001 0.004514 0.000001 0.039292
#
#
# Mechanical properties :
#
#
# Convention : Reuss Voigt Hill
#
# Bulk Modulus (GPa) = 37.32280 44.45635 40.88958
# Shear Modulus (GPa) = 23.80974 27.31251 25.56113
#
# Velocity S-wave (km/s) = 3.46355 3.70959 3.58868
# Velocity P-wave (km/s) = 5.89911 6.38332 6.14598
#
# Compressibility (1/GPa) = 0.02679327
#
# Stress axis : x y z
#
# Youngs Moduli (GPa) = 89.07859 44.91155 47.30906
#
# Poissons Ratio (x) = 0.33819 0.04220
# Poissons Ratio (y) = 0.67078 0.26001
# Poissons Ratio (z) = 0.07946 0.24683
#
# Static dielectric constant tensor:
#      x y z
#    x 3.642900 0.000000 -0.056790 
#    y 0.000000 3.780640 0.000000 
#    z -0.056790 0.000000 3.782840 
# 
# 
# High freq. dielectric constant tensor:
#      x y z
#    x 1.754090 0.000000 -0.001980 
#    y 0.000000 1.763840 0.000000 
#    z -0.001980 0.000000 1.785740 
# 
# From -- ./inp_files/206279.got.cif
#   From: 2010.06.25/outbox.cif.g09.slc.cpg/sg15_104_cif.got.tgz:206279.got - 2010.06.28 07:06:18.
