data_PCOD8145624
_publ_section_title
;
Structure prediction by ZEFSAII (Michael W. Deem and Ramdas Pophale) SiO2 
 PCOD8145624
Probable space group: C 2/C
;
_chemical_formula_sum "Si O2"
_cell_formula_units_Z 60
_cell_length_a 22.075145
_cell_length_b 22.682282
_cell_length_c 9.536316
_cell_angle_alpha 90.000000
_cell_angle_beta 39.581605
_cell_angle_gamma 90.000000
_cell_volume 3042.501138
_symmetry_space_group_name_H-M "C 2/C"
_symmetry_group_IT_number 15
_symmetry_cell_setting 'monoclinic'
loop_
_space_group_symop_operation_xyz
x,y,z
-x,y,1/2-z
-x,-y,-z
x,-y,1/2+z
1/2+x,1/2+y,z
1/2-x,1/2+y,1/2-z
1/2-x,1/2-y,-z
1/2+x,1/2-y,1/2+z
loop_
_atom_site_type_symbol
_atom_site_label
_atom_site_fract_x
_atom_site_fract_y
_atom_site_fract_z
Si Si1 0.839890 0.767656 0.750487
Si Si2 0.500000 0.036174 0.750000
Si Si3 0.766021 0.570539 0.798033
Si Si4 0.171246 0.486373 0.578457
Si Si5 0.109630 0.836370 0.585264
Si Si6 0.109379 0.386148 0.863985
Si Si7 0.285444 0.234730 0.280353
Si Si8 0.441364 0.845134 0.992027
O O1 0.885812 0.820867 0.756528
O O2 0.806513 0.782099 0.650826
O O3 0.915719 0.715458 0.614180
O O4 0.750000 0.750000 0.000000
O O5 0.588197 0.075401 0.539045
O O6 0.556522 0.995300 0.760816
O O7 0.781557 0.540056 0.920806
O O8 0.772722 0.519965 0.667875
O O9 0.846613 0.619244 0.623061
O O10 0.664260 0.601876 0.970083
O O11 0.182105 0.423585 0.638944
O O12 0.155146 0.787520 0.398695
O O13 0.000000 0.847086 0.750000
O O14 0.148576 0.322362 0.831055
O O15 0.005523 0.382341 0.981258
O O16 0.250000 0.250000 0.500000
O O17 0.500000 0.828813 0.750000
#
# Coordination Sequence:
#
# PCOD8145624 Si02
#       8
#     8   4   8   8   8   8   8   8
#     4  10  22  39  63  92 128 173 217 255 319 390
#     4  12  24  34  56  96 134 164 206 254 318 410
#     4  12  24  43  65  89 132 168 215 269 329 388
#     4  12  24  41  59  95 127 171 206 264 327 394
#     4  11  25  46  67  92 126 175 228 272 322 382
#     4  12  24  33  62  93 132 164 209 253 323 393
#     4  11  23  41  64  99 136 171 212 266 328 393
#     4  12  21  37  63  94 134 170 200 254 328 393
#
# _framework density 19.720618000000002
#
# number of rings (size 3 to 8) (size 9 to 14) (size 15 to 20)
#    0.000    0.533    6.667    3.600    6.533    0.000 
#    0.000    0.667    0.000    0.000    0.000    0.000 
#    0.000    0.000    0.000    0.000    0.000    0.000 
#
# Total GULP energy -371916.355585 kJ/mol
# GULP energy per Si atom -12397.211853 kJ/mol
# Density = 1.967573 g / cm^3
# Si number density = 19.720618 Si / 1000 Ang^3
#
#
#
# Elastic Constant Matrix: (Units=GPa)
#
#
# Indices 1 2 3 4 5 6 
#
# 1 116.9830 44.9694 54.8118 0.0000 -1.3308 0.0000
# 2 44.9694 102.2621 49.1273 0.0000 -3.1640 0.0000
# 3 54.8118 49.1273 89.1473 0.0000 4.1656 0.0000
# 4 0.0000 0.0000 0.0000 37.9857 0.0000 -12.3550
# 5 -1.3308 -3.1640 4.1656 0.0000 37.4079 0.0000
# 6 0.0000 0.0000 0.0000 -12.3550 0.0000 23.4594
#
#
#
# Elastic Compliance Matrix: (Units=1/GPa)
#
#
# Indices 1 2 3 4 5 6 
#
# 1 0.012474 -0.002380 -0.006403 0.000000 0.000955 0.000000
# 2 -0.002380 0.013897 -0.006279 0.000000 0.001790 0.000000
# 3 -0.006403 -0.006279 0.018747 0.000000 -0.002846 0.000000
# 4 0.000000 0.000000 0.000000 0.031767 0.000000 0.016730
# 5 0.000955 0.001790 -0.002846 0.000000 0.027235 0.000000
# 6 0.000000 0.000000 0.000000 0.016730 0.000000 0.051438
#
#
# Mechanical properties :
#
#
# Convention : Reuss Voigt Hill
#
# Bulk Modulus (GPa) = 66.68681 67.35661 67.02171
# Shear Modulus (GPa) = 26.22207 30.40288 28.31248
#
# Velocity S-wave (km/s) = 3.65043 3.93068 3.79315
# Velocity P-wave (km/s) = 7.18726 7.40472 7.29680
#
# Compressibility (1/GPa) = 0.01499547
#
# Stress axis : x y z
#
# Youngs Moduli (GPa) = 80.16734 71.95743 53.34150
#
# Poissons Ratio (x) = 0.17125 0.34153
# Poissons Ratio (y) = 0.19079 0.33492
# Poissons Ratio (z) = 0.51328 0.45180
#
# Static dielectric constant tensor:
#      x y z
#    x 4.085030 0.000000 0.227310 
#    y 0.000000 3.560220 0.000000 
#    z 0.227310 0.000000 3.481310 
# 
# 
# High freq. dielectric constant tensor:
#      x y z
#    x 1.772060 0.000000 0.021740 
#    y 0.000000 1.764980 0.000000 
#    z 0.021740 0.000000 1.754220 
# 
# From -- ./inp_files/58720.got.cif
#   From: 2010.06.25/outbox.cif.g09.slc.cpg/sg15_30_cif.got.tgz:58720.got - 2010.06.28 07:06:18.
