data_PCOD8145683
_publ_section_title
;
Structure prediction by ZEFSAII (Michael W. Deem and Ramdas Pophale) SiO2 
 PCOD8145683
Probable space group: C 2/C
;
_chemical_formula_sum "Si O2"
_cell_formula_units_Z 60
_cell_length_a 24.529933
_cell_length_b 14.990969
_cell_length_c 20.900894
_cell_angle_alpha 90.000000
_cell_angle_beta 23.422710
_cell_angle_gamma 90.000000
_cell_volume 3055.207871
_symmetry_space_group_name_H-M "C 2/C"
_symmetry_group_IT_number 15
_symmetry_cell_setting 'monoclinic'
loop_
_space_group_symop_operation_xyz
x,y,z
-x,y,1/2-z
-x,-y,-z
x,-y,1/2+z
1/2+x,1/2+y,z
1/2-x,1/2+y,1/2-z
1/2-x,1/2-y,-z
1/2+x,1/2-y,1/2+z
loop_
_atom_site_type_symbol
_atom_site_label
_atom_site_fract_x
_atom_site_fract_y
_atom_site_fract_z
Si Si1 0.156793 0.623061 0.097596
Si Si2 0.719438 0.751934 0.636175
Si Si3 0.000000 0.848711 0.750000
Si Si4 0.332931 0.217357 0.020194
Si Si5 0.034130 0.794086 0.891381
Si Si6 0.554529 0.317833 0.016849
Si Si7 0.515361 0.491565 0.908297
Si Si8 0.273348 0.547268 0.415707
O O1 0.183321 0.653106 0.142142
O O2 0.000000 0.640334 0.250000
O O3 0.253033 0.680676 0.948290
O O4 0.198864 0.520596 0.043708
O O5 0.598206 0.716281 0.809936
O O6 0.846724 0.759646 0.546311
O O7 0.905322 0.911264 0.808721
O O8 0.102416 0.788302 0.597898
O O9 0.170086 0.232613 0.205130
O O10 0.343455 0.118612 0.978457
O O11 0.417005 0.222767 0.997249
O O12 0.968193 0.890720 0.941621
O O13 0.082917 0.797972 0.911919
O O14 0.571368 0.421852 0.021449
O O15 0.669004 0.499593 0.711949
O O16 0.500000 0.500000 0.000000
#
# Coordination Sequence:
#
# PCOD8145683 Si02
#       8
#     8   8   4   8   8   8   8   8
#     4  11  24  40  57  93 128 165 205 257 309 376
#     4  11  23  38  64  88 128 163 210 250 313 370
#     4  12  24  40  62  92 120 164 218 250 312 386
#     4  11  22  41  60  92 121 158 206 263 309 372
#     4  10  22  39  65  90 125 158 212 258 315 369
#     4  11  21  40  64  92 121 169 204 260 308 378
#     4   9  19  38  60  87 119 156 204 251 300 368
#     4  11  24  38  64  88 123 166 205 259 317 369
#
# _framework density 19.638597000000001
#
# number of rings (size 3 to 8) (size 9 to 14) (size 15 to 20)
#    0.000    1.333    5.333    1.200    2.800    0.000 
#    0.000    0.000    0.000    0.800    0.000    0.000 
#    0.000    0.000    0.000    0.000    0.000    0.000 
#
# Total GULP energy -371651.273022 kJ/mol
# GULP energy per Si atom -12388.375767 kJ/mol
# Density = 1.959390 g / cm^3
# Si number density = 19.638597 Si / 1000 Ang^3
#
#
#
# Elastic Constant Matrix: (Units=GPa)
#
#
# Indices 1 2 3 4 5 6 
#
# 1 71.4242 31.3849 12.8377 0.0007 -4.5293 -0.0007
# 2 31.3849 92.4498 28.0569 0.0004 -3.6617 0.0000
# 3 12.8377 28.0569 77.9004 0.0005 3.1523 -0.0006
# 4 0.0007 0.0004 0.0005 34.8874 0.0006 0.6309
# 5 -4.5293 -3.6617 3.1523 0.0006 34.9737 -0.0012
# 6 -0.0007 0.0000 -0.0006 0.6309 -0.0012 26.0186
#
#
#
# Elastic Compliance Matrix: (Units=1/GPa)
#
#
# Indices 1 2 3 4 5 6 
#
# 1 0.016595 -0.005296 -0.000895 0.000000 0.001675 0.000001
# 2 -0.005296 0.013932 -0.004192 0.000000 0.001151 0.000000
# 3 -0.000895 -0.004192 0.014570 0.000000 -0.001868 0.000000
# 4 0.000000 0.000000 0.000000 0.028676 -0.000001 -0.000695
# 5 0.001675 0.001151 -0.001868 -0.000001 0.029099 0.000001
# 6 0.000001 0.000000 0.000000 -0.000695 0.000001 0.038451
#
#
# Mechanical properties :
#
#
# Convention : Reuss Voigt Hill
#
# Bulk Modulus (GPa) = 41.09878 42.92591 42.01234
# Shear Modulus (GPa) = 29.37746 30.47560 29.92653
#
# Velocity S-wave (km/s) = 3.87189 3.94359 3.90790
# Velocity P-wave (km/s) = 6.40013 6.53003 6.46541
#
# Compressibility (1/GPa) = 0.02433162
#
# Stress axis : x y z
#
# Youngs Moduli (GPa) = 60.25915 71.77656 68.63535
#
# Poissons Ratio (x) = 0.38010 0.06145
# Poissons Ratio (y) = 0.31911 0.28770
# Poissons Ratio (z) = 0.05395 0.30087
#
# Static dielectric constant tensor:
#      x y z
#    x 3.672140 0.000000 0.277970 
#    y 0.000000 3.993920 0.000000 
#    z 0.277970 0.000000 3.609550 
# 
# 
# High freq. dielectric constant tensor:
#      x y z
#    x 1.763650 0.000000 0.019860 
#    y 0.000000 1.766170 0.000000 
#    z 0.019860 0.000000 1.763020 
# 
# From -- ./inp_files/61551.got.cif
#   From: 2010.06.25/outbox.cif.g09.slc.cpg/sg15_31_cif.got.tgz:61551.got - 2010.06.28 07:06:18.
