data_PCOD8145158
_publ_section_title
;
Structure prediction by ZEFSAII (Michael W. Deem and Ramdas Pophale) SiO2 
 PCOD8145158
Probable space group: C 2/C
;
_chemical_formula_sum "Si O2"
_cell_formula_units_Z 60
_cell_length_a 10.828899
_cell_length_b 17.383127
_cell_length_c 26.469290
_cell_angle_alpha 90.000000
_cell_angle_beta 34.697011
_cell_angle_gamma 90.000000
_cell_volume 2836.268487
_symmetry_space_group_name_H-M "C 2/C"
_symmetry_group_IT_number 15
_symmetry_cell_setting 'monoclinic'
loop_
_space_group_symop_operation_xyz
x,y,z
-x,y,1/2-z
-x,-y,-z
x,-y,1/2+z
1/2+x,1/2+y,z
1/2-x,1/2+y,1/2-z
1/2-x,1/2-y,-z
1/2+x,1/2-y,1/2+z
loop_
_atom_site_type_symbol
_atom_site_label
_atom_site_fract_x
_atom_site_fract_y
_atom_site_fract_z
Si Si1 0.405451 0.552172 0.727534
Si Si2 0.632318 0.455252 0.568491
Si Si3 0.258257 0.188567 0.155829
Si Si4 0.191971 0.970923 0.901389
Si Si5 0.500000 0.090987 0.750000
Si Si6 0.994639 0.544738 0.384888
Si Si7 0.722857 0.199117 0.750630
Si Si8 0.161802 0.785545 0.581146
O O1 0.500000 0.533973 0.750000
O O2 0.565610 0.518502 0.631830
O O3 0.387617 0.644795 0.726210
O O4 0.174149 0.510965 0.800659
O O5 0.432481 0.424188 0.600514
O O6 0.835060 0.491715 0.471121
O O7 0.698712 0.376815 0.572497
O O8 0.401933 0.111779 0.115694
O O9 0.346894 0.248381 0.167892
O O10 0.289429 0.232125 0.091119
O O11 0.000000 0.169811 0.250000
O O12 0.363449 0.924142 0.878959
O O13 0.296674 0.041253 0.835870
O O14 0.000000 0.000000 0.000000
O O15 0.556306 0.143294 0.778552
O O16 0.585834 0.255695 0.833151
O O17 0.250000 0.750000 0.500000
#
# Coordination Sequence:
#
# PCOD8145158 Si02
#       8
#     8   8   8   8   4   8   8   8
#     4  12  24  41  66  94 130 167 216 265 319 380
#     4  11  24  41  65  98 125 163 219 265 314 384
#     4  10  22  41  65  92 125 172 217 258 325 394
#     4  10  22  37  67  98 125 160 221 268 317 380
#     4  12  18  40  72  88 124 176 212 260 326 386
#     4  11  22  41  67  93 128 167 209 270 321 370
#     4  11  22  41  65  89 126 174 215 258 323 396
#     4  11  23  38  63  96 126 165 215 265 321 387
#
# _framework density 21.154555999999999
#
# number of rings (size 3 to 8) (size 9 to 14) (size 15 to 20)
#    0.000    1.067    4.667    3.600    1.867    3.200 
#    2.400    0.667    0.000    0.000    0.000    0.000 
#    0.000    0.000    0.000    0.000    0.000    0.000 
#
# Total GULP energy -371666.345865 kJ/mol
# GULP energy per Si atom -12388.878196 kJ/mol
# Density = 2.110641 g / cm^3
# Si number density = 21.154556 Si / 1000 Ang^3
#
#
#
# Elastic Constant Matrix: (Units=GPa)
#
#
# Indices 1 2 3 4 5 6 
#
# 1 86.6503 6.3909 15.9047 -0.0071 7.7458 -0.0142
# 2 6.3909 90.5447 36.9035 -0.0021 5.2976 0.0032
# 3 15.9047 36.9035 101.6641 0.0357 14.3787 -0.0177
# 4 -0.0071 -0.0021 0.0357 24.3870 -0.0086 6.1355
# 5 7.7458 5.2976 14.3787 -0.0086 32.5895 0.0044
# 6 -0.0142 0.0032 -0.0177 6.1355 0.0044 37.2100
#
#
#
# Elastic Compliance Matrix: (Units=1/GPa)
#
#
# Indices 1 2 3 4 5 6 
#
# 1 0.012024 -0.000094 -0.001541 0.000004 -0.002163 0.000003
# 2 -0.000094 0.012963 -0.004688 0.000009 -0.000016 -0.000005
# 3 -0.001541 -0.004688 0.012393 -0.000023 -0.004339 0.000010
# 4 0.000004 0.000009 -0.000023 0.042780 0.000020 -0.007054
# 5 -0.002163 -0.000016 -0.004339 0.000020 0.033116 -0.000010
# 6 0.000003 -0.000005 0.000010 -0.007054 -0.000010 0.028038
#
#
# Mechanical properties :
#
#
# Convention : Reuss Voigt Hill
#
# Bulk Modulus (GPa) = 40.43257 44.13969 42.28613
# Shear Modulus (GPa) = 30.82529 33.48129 32.15329
#
# Velocity S-wave (km/s) = 3.82140 3.98263 3.90285
# Velocity P-wave (km/s) = 6.21492 6.48530 6.35155
#
# Compressibility (1/GPa) = 0.02473254
#
# Stress axis : x y z
#
# Youngs Moduli (GPa) = 83.16867 77.14439 80.69065
#
# Poissons Ratio (x) = 0.00726 0.12435
# Poissons Ratio (y) = 0.00782 0.37831
# Poissons Ratio (z) = 0.12817 0.36168
#
# Static dielectric constant tensor:
#      x y z
#    x 4.442360 0.000000 0.081310 
#    y 0.000000 3.828160 0.000020 
#    z 0.081310 0.000020 3.871400 
# 
# 
# High freq. dielectric constant tensor:
#      x y z
#    x 1.837310 0.000000 0.022730 
#    y 0.000000 1.817450 0.000000 
#    z 0.022730 0.000000 1.826340 
# 
# From -- ./inp_files/293518.got.cif
#   From: 2010.06.25/outbox.cif.g09.slc.cpg/sg15_147_cif.got.tgz:293518.got - 2010.06.28 07:06:18.
