data_PCOD8145285
_publ_section_title
;
Structure prediction by ZEFSAII (Michael W. Deem and Ramdas Pophale) SiO2 
 PCOD8145285
Probable space group: C 2/C
;
_chemical_formula_sum "Si O2"
_cell_formula_units_Z 56
_cell_length_a 20.779384
_cell_length_b 11.442099
_cell_length_c 12.329946
_cell_angle_alpha 90.000000
_cell_angle_beta 91.933993
_cell_angle_gamma 90.000000
_cell_volume 2929.895202
_symmetry_space_group_name_H-M "C 2/C"
_symmetry_group_IT_number 15
_symmetry_cell_setting 'monoclinic'
loop_
_space_group_symop_operation_xyz
x,y,z
-x,y,1/2-z
-x,-y,-z
x,-y,1/2+z
1/2+x,1/2+y,z
1/2-x,1/2+y,1/2-z
1/2-x,1/2-y,-z
1/2+x,1/2-y,1/2+z
loop_
_atom_site_type_symbol
_atom_site_label
_atom_site_fract_x
_atom_site_fract_y
_atom_site_fract_z
Si Si1 0.286906 0.207737 0.709812
Si Si2 0.316120 0.201578 0.956166
Si Si3 0.313358 0.047827 0.509191
Si Si4 0.036020 0.092883 0.644792
Si Si5 0.648418 0.254513 0.119070
Si Si6 0.585821 0.595081 0.995392
Si Si7 0.324920 0.414149 0.580786
O O1 0.306897 0.168159 0.829804
O O2 0.312325 0.110839 0.626034
O O3 0.209456 0.219798 0.699192
O O4 0.317578 0.336373 0.688980
O O5 0.250000 0.250000 0.000000
O O6 0.373612 0.292363 0.971549
O O7 0.339682 0.084425 0.020757
O O8 0.354080 0.119911 0.421159
O O9 0.241990 0.029285 0.458337
O O10 0.082855 0.203451 0.674251
O O11 0.000000 0.051797 0.750000
O O12 0.983634 0.133820 0.552741
O O13 0.077067 0.983094 0.603059
O O14 0.653357 0.325360 0.009293
O O15 0.622818 0.517879 0.904902
#
# Coordination Sequence:
#
# PCOD8145285 Si02
#       7
#     8   8   8   8   8   8   8
#     4   9  20  35  61  84 115 161 185 234 309 348
#     4  12  24  35  55  95 125 142 190 254 296 348
#     4   9  18  37  56  84 120 153 187 239 299 355
#     4  10  22  38  62  81 115 164 198 236 282 346
#     4   8  17  36  59  82 109 157 204 226 280 357
#     4  10  22  39  55  92 121 144 196 251 284 337
#     4   8  15  35  59  80 115 149 190 235 291 354
#
# _framework density 19.113310999999999
#
# number of rings (size 3 to 8) (size 9 to 14) (size 15 to 20)
#    0.000    2.571    1.429    1.714    4.000    2.286 
#    0.000    0.714    0.000    0.857    0.000    0.000 
#    0.000    0.000    0.000    0.000    0.000    0.000 
#
# Total GULP energy -347046.506971 kJ/mol
# GULP energy per Si atom -12394.518106 kJ/mol
# Density = 1.906981 g / cm^3
# Si number density = 19.113311 Si / 1000 Ang^3
#
#
#
# Elastic Constant Matrix: (Units=GPa)
#
#
# Indices 1 2 3 4 5 6 
#
# 1 94.1880 62.5727 23.2617 0.0000 -7.0673 0.0000
# 2 62.5727 139.8554 40.7108 0.0000 -3.9922 0.0000
# 3 23.2617 40.7108 74.4176 0.0000 -6.3814 0.0000
# 4 0.0000 0.0000 0.0000 18.2536 0.0000 -0.2214
# 5 -7.0673 -3.9922 -6.3814 0.0000 23.5858 0.0000
# 6 0.0000 0.0000 0.0000 -0.2214 0.0000 32.9302
#
#
#
# Elastic Compliance Matrix: (Units=1/GPa)
#
#
# Indices 1 2 3 4 5 6 
#
# 1 0.015442 -0.006532 -0.000974 0.000000 0.003258 0.000000
# 2 -0.006532 0.011269 -0.004225 0.000000 -0.001193 0.000000
# 3 -0.000974 -0.004225 0.016346 0.000000 0.003416 0.000000
# 4 0.000000 0.000000 0.000000 0.054788 0.000000 0.000368
# 5 0.003258 -0.001193 0.003416 0.000000 0.044097 0.000000
# 6 0.000000 0.000000 0.000000 0.000368 0.000000 0.030370
#
#
# Mechanical properties :
#
#
# Convention : Reuss Voigt Hill
#
# Bulk Modulus (GPa) = 51.03542 62.39459 56.71501
# Shear Modulus (GPa) = 24.71512 27.08164 25.89838
#
# Velocity S-wave (km/s) = 3.59985 3.76826 3.68501
# Velocity P-wave (km/s) = 6.63612 7.18669 6.91688
#
# Compressibility (1/GPa) = 0.01959424
#
# Stress axis : x y z
#
# Youngs Moduli (GPa) = 64.75980 88.74167 61.17565
#
# Poissons Ratio (x) = 0.57968 0.05958
# Poissons Ratio (y) = 0.42303 0.25847
# Poissons Ratio (z) = 0.06307 0.37494
#
# Static dielectric constant tensor:
#      x y z
#    x 4.602230 0.000000 -0.553520 
#    y 0.000000 3.757240 0.000000 
#    z -0.553520 0.000000 3.416390 
# 
# 
# High freq. dielectric constant tensor:
#      x y z
#    x 1.724880 0.000000 -0.009190 
#    y 0.000000 1.739540 0.000000 
#    z -0.009190 0.000000 1.729630 
# 
# From -- ./inp_files/111088.got.cif
#   From: 2010.06.25/outbox.cif.g09.slc.cpg/sg15_56_cif.got.tgz:111088.got - 2010.06.28 07:06:18.
