data_PCOD8145878
_publ_section_title
;
Structure prediction by ZEFSAII (Michael W. Deem and Ramdas Pophale) SiO2 
 PCOD8145878
Probable space group: C 2/C
;
_chemical_formula_sum "Si O2"
_cell_formula_units_Z 60
_cell_length_a 16.299176
_cell_length_b 9.315231
_cell_length_c 22.401001
_cell_angle_alpha 90.000000
_cell_angle_beta 113.527523
_cell_angle_gamma 90.000000
_cell_volume 3118.413627
_symmetry_space_group_name_H-M "C 2/C"
_symmetry_group_IT_number 15
_symmetry_cell_setting 'monoclinic'
loop_
_space_group_symop_operation_xyz
x,y,z
-x,y,1/2-z
-x,-y,-z
x,-y,1/2+z
1/2+x,1/2+y,z
1/2-x,1/2+y,1/2-z
1/2-x,1/2-y,-z
1/2+x,1/2-y,1/2+z
loop_
_atom_site_type_symbol
_atom_site_label
_atom_site_fract_x
_atom_site_fract_y
_atom_site_fract_z
Si Si1 0.287691 0.109272 0.322277
Si Si2 0.598213 0.950258 0.541956
Si Si3 0.082508 0.153778 0.478424
Si Si4 0.617220 0.583670 0.084160
Si Si5 0.000000 0.025360 0.750000
Si Si6 0.340704 0.595427 0.785284
Si Si7 0.147869 0.065187 0.373998
Si Si8 0.266399 0.183208 0.941063
O O1 0.378847 0.049914 0.380021
O O2 0.306879 0.245133 0.287286
O O3 0.221817 0.152432 0.357807
O O4 0.240924 0.985296 0.270384
O O5 0.615934 0.791818 0.523027
O O6 0.500000 0.000000 0.500000
O O7 0.661616 0.059348 0.525546
O O8 0.137332 0.145192 0.433207
O O9 0.976593 0.165878 0.434297
O O10 0.107736 0.013704 0.523131
O O11 0.636158 0.488184 0.147551
O O12 0.696351 0.699319 0.095502
O O13 0.927599 0.114694 0.767896
O O14 0.946215 0.926759 0.687922
O O15 0.177580 0.896125 0.389579
O O16 0.250000 0.250000 0.000000
#
# Coordination Sequence:
#
# PCOD8145878 Si02
#       8
#     8   8   8   8   4   8   8   8
#     4  10  25  40  65  93 123 167 208 261 317 375
#     4  11  23  40  61  93 131 161 207 264 321 370
#     4  11  21  39  67  94 123 169 213 258 318 384
#     4  11  22  37  66  94 124 167 210 258 314 383
#     4  10  22  40  62  88 118 168 204 264 300 382
#     4  11  23  43  67  89 127 163 219 254 316 385
#     4  10  22  41  63  93 125 160 215 260 317 378
#     4  11  23  38  61  96 127 160 204 263 321 371
#
# _framework density 19.240552000000001
#
# number of rings (size 3 to 8) (size 9 to 14) (size 15 to 20)
#    0.000    1.333    5.333    0.000    5.600    4.267 
#    0.000    0.000    2.933    0.000    0.000    0.000 
#    0.000    0.000    0.000    0.000    0.000    0.000 
#
# Total GULP energy -371913.322695 kJ/mol
# GULP energy per Si atom -12397.110757 kJ/mol
# Density = 1.919676 g / cm^3
# Si number density = 19.240552 Si / 1000 Ang^3
#
#
#
# Elastic Constant Matrix: (Units=GPa)
#
#
# Indices 1 2 3 4 5 6 
#
# 1 83.8303 40.7667 46.1671 0.0000 -2.7212 0.0000
# 2 40.7667 86.7210 23.9699 0.0000 3.0343 0.0000
# 3 46.1671 23.9699 113.2249 0.0000 13.1436 0.0000
# 4 0.0000 0.0000 0.0000 34.4285 0.0000 -6.5293
# 5 -2.7212 3.0343 13.1436 0.0000 40.6415 0.0000
# 6 0.0000 0.0000 0.0000 -6.5293 0.0000 34.2860
#
#
#
# Elastic Compliance Matrix: (Units=1/GPa)
#
#
# Indices 1 2 3 4 5 6 
#
# 1 0.019405 -0.007379 -0.006821 0.000000 0.004056 0.000000
# 2 -0.007379 0.015054 0.000010 0.000000 -0.001621 0.000000
# 3 -0.006821 0.000010 0.012119 0.000000 -0.004377 0.000000
# 4 0.000000 0.000000 0.000000 0.030134 0.000000 0.005739
# 5 0.004056 -0.001621 -0.004377 0.000000 0.026414 0.000000
# 6 0.000000 0.000000 0.000000 0.005739 0.000000 0.030259
#
#
# Mechanical properties :
#
#
# Convention : Reuss Voigt Hill
#
# Bulk Modulus (GPa) = 54.94989 56.17596 55.56293
# Shear Modulus (GPa) = 29.79170 33.39604 31.59387
#
# Velocity S-wave (km/s) = 3.93922 4.17071 4.05661
# Velocity P-wave (km/s) = 7.02220 7.24245 7.13318
#
# Compressibility (1/GPa) = 0.01819840
#
# Stress axis : x y z
#
# Youngs Moduli (GPa) = 51.53188 66.42789 82.51295
#
# Poissons Ratio (x) = 0.49016 0.56284
# Poissons Ratio (y) = 0.38025 -0.00082
# Poissons Ratio (z) = 0.35151 -0.00066
#
# Static dielectric constant tensor:
#      x y z
#    x 3.537180 0.000000 -0.125700 
#    y 0.000000 3.472900 0.000000 
#    z -0.125700 0.000000 3.485140 
# 
# 
# High freq. dielectric constant tensor:
#      x y z
#    x 1.750950 0.000000 0.003470 
#    y 0.000000 1.735210 0.000000 
#    z 0.003470 0.000000 1.764020 
# 
# From -- ./inp_files/273110.got.cif
#   From: 2010.06.25/outbox.cif.g09.slc.cpg/sg15_137_cif.got.tgz:273110.got - 2010.06.28 07:06:18.
