data_PCOD8145710
_publ_section_title
;
Structure prediction by ZEFSAII (Michael W. Deem and Ramdas Pophale) SiO2 
 PCOD8145710
Probable space group: C 2/C
;
_chemical_formula_sum "Si O2"
_cell_formula_units_Z 64
_cell_length_a 11.134902
_cell_length_b 15.867972
_cell_length_c 17.999435
_cell_angle_alpha 90.000000
_cell_angle_beta 96.779190
_cell_angle_gamma 90.000000
_cell_volume 3158.054644
_symmetry_space_group_name_H-M "C 2/C"
_symmetry_group_IT_number 15
_symmetry_cell_setting 'monoclinic'
loop_
_space_group_symop_operation_xyz
x,y,z
-x,y,1/2-z
-x,-y,-z
x,-y,1/2+z
1/2+x,1/2+y,z
1/2-x,1/2+y,1/2-z
1/2-x,1/2-y,-z
1/2+x,1/2-y,1/2+z
loop_
_atom_site_type_symbol
_atom_site_label
_atom_site_fract_x
_atom_site_fract_y
_atom_site_fract_z
Si Si1 0.966351 0.412088 0.328446
Si Si2 0.763559 0.679855 0.402006
Si Si3 0.816681 0.351378 0.556743
Si Si4 0.707170 0.132740 0.929088
Si Si5 0.008552 0.863869 0.839361
Si Si6 0.469227 0.898032 0.828839
Si Si7 0.385648 0.518167 0.439475
Si Si8 0.643010 0.777001 0.095593
O O1 0.080523 0.403224 0.391276
O O2 0.000000 0.377579 0.250000
O O3 0.918551 0.507185 0.320608
O O4 0.852676 0.357902 0.350245
O O5 0.738675 0.778885 0.393562
O O6 0.807358 0.647172 0.484576
O O7 0.648226 0.624602 0.370175
O O8 0.869665 0.664584 0.351896
O O9 0.705201 0.414057 0.527984
O O10 0.767874 0.274661 0.604827
O O11 0.881058 0.310973 0.489625
O O12 0.912849 0.402467 0.611100
O O13 0.814995 0.068041 0.917874
O O14 0.000000 0.854521 0.750000
O O15 0.966245 0.780783 0.881695
O O16 0.932248 0.943873 0.864052
O O17 0.500000 0.863482 0.750000
O O18 0.500000 0.500000 0.500000
#
# Coordination Sequence:
#
# PCOD8145710 Si02
#       8
#     8   8   8   8   8   8   8   8
#     4  11  23  39  63  95 127 169 216 265 318 384
#     4  11  25  40  66  95 129 173 217 267 327 387
#     4  10  23  40  64  93 129 171 211 271 322 383
#     4  11  23  41  64  96 129 165 220 269 314 386
#     4  11  24  41  69  95 130 175 217 266 327 391
#     4  11  26  41  61  95 134 170 211 269 332 382
#     4  11  23  42  67  94 130 172 217 270 323 390
#     4  10  22  39  66  93 124 165 221 259 317 382
#
# _framework density 20.265640000000001
#
# number of rings (size 3 to 8) (size 9 to 14) (size 15 to 20)
#    0.000    1.250    3.750    1.125    7.000    2.000 
#    0.000    0.625    0.000    0.000    0.000    0.000 
#    0.000    0.000    0.000    0.000    0.000    0.000 
#
# Total GULP energy -396797.969561 kJ/mol
# GULP energy per Si atom -12399.936549 kJ/mol
# Density = 2.021951 g / cm^3
# Si number density = 20.265640 Si / 1000 Ang^3
#
#
#
# Elastic Constant Matrix: (Units=GPa)
#
#
# Indices 1 2 3 4 5 6 
#
# 1 75.1039 33.6806 36.9576 0.0000 -19.7686 0.0000
# 2 33.6806 93.1582 37.2264 0.0000 -23.8321 0.0000
# 3 36.9576 37.2264 106.1267 0.0000 -25.7171 0.0000
# 4 0.0000 0.0000 0.0000 19.8889 0.0000 2.6460
# 5 -19.7686 -23.8321 -25.7171 0.0000 31.2163 0.0000
# 6 0.0000 0.0000 0.0000 2.6460 0.0000 15.1271
#
#
#
# Elastic Compliance Matrix: (Units=1/GPa)
#
#
# Indices 1 2 3 4 5 6 
#
# 1 0.018287 -0.003668 -0.003691 0.000000 0.005740 0.000000
# 2 -0.003668 0.014757 -0.002164 0.000000 0.007161 0.000000
# 3 -0.003691 -0.002164 0.013119 0.000000 0.006819 0.000000
# 4 0.000000 0.000000 0.000000 0.051477 0.000000 -0.009004
# 5 0.005740 0.007161 0.006819 0.000000 0.046754 0.000000
# 6 0.000000 0.000000 0.000000 -0.009004 0.000000 0.067682
#
#
# Mechanical properties :
#
#
# Convention : Reuss Voigt Hill
#
# Bulk Modulus (GPa) = 36.87592 54.45758 45.66675
# Shear Modulus (GPa) = 20.81935 24.34804 22.58369
#
# Velocity S-wave (km/s) = 3.20866 3.46995 3.34186
# Velocity P-wave (km/s) = 5.65360 6.55624 6.12158
#
# Compressibility (1/GPa) = 0.02711796
#
# Stress axis : x y z
#
# Youngs Moduli (GPa) = 54.68412 67.76333 76.22336
#
# Poissons Ratio (x) = 0.24858 0.28131
# Poissons Ratio (y) = 0.20060 0.16493
# Poissons Ratio (z) = 0.20182 0.14662
#
# Static dielectric constant tensor:
#      x y z
#    x 3.655330 0.000000 -0.153380 
#    y 0.000000 3.852670 0.000000 
#    z -0.153380 0.000000 3.687110 
# 
# 
# High freq. dielectric constant tensor:
#      x y z
#    x 1.789320 0.000000 -0.011680 
#    y 0.000000 1.801340 0.000000 
#    z -0.011680 0.000000 1.786900 
# 
# From -- ./inp_files/198343.got.cif
#   From: 2010.06.25/outbox.cif.g09.slc.cpg/sg15_100_cif.got.tgz:198343.got - 2010.06.28 07:06:18.
