data_PCOD8145091
_publ_section_title
;
Structure prediction by ZEFSAII (Michael W. Deem and Ramdas Pophale) SiO2 
 PCOD8145091
Probable space group: C 2/C
;
_chemical_formula_sum "Si O2"
_cell_formula_units_Z 64
_cell_length_a 13.154956
_cell_length_b 13.789871
_cell_length_c 24.700269
_cell_angle_alpha 90.000000
_cell_angle_beta 133.494440
_cell_angle_gamma 90.000000
_cell_volume 3250.524791
_symmetry_space_group_name_H-M "C 2/C"
_symmetry_group_IT_number 15
_symmetry_cell_setting 'monoclinic'
loop_
_space_group_symop_operation_xyz
x,y,z
-x,y,1/2-z
-x,-y,-z
x,-y,1/2+z
1/2+x,1/2+y,z
1/2-x,1/2+y,1/2-z
1/2-x,1/2-y,-z
1/2+x,1/2-y,1/2+z
loop_
_atom_site_type_symbol
_atom_site_label
_atom_site_fract_x
_atom_site_fract_y
_atom_site_fract_z
Si Si1 0.650569 0.851031 0.021565
Si Si2 0.135559 0.520631 0.941142
Si Si3 0.551396 0.300666 0.398856
Si Si4 0.642606 0.953375 0.825208
Si Si5 0.092087 0.072228 0.570469
Si Si6 0.646522 0.328325 0.986546
Si Si7 0.426266 0.815098 0.387930
Si Si8 0.375528 0.745396 0.737668
O O1 0.818127 0.836811 0.090100
O O2 0.570126 0.842829 0.048043
O O3 0.598469 0.768736 0.963184
O O4 0.607198 0.955459 0.982628
O O5 0.137985 0.451255 0.889104
O O6 0.290590 0.567506 0.007991
O O7 0.016763 0.603483 0.889717
O O8 0.488906 0.394702 0.405797
O O9 0.435951 0.243910 0.320480
O O10 0.500000 0.001215 0.750000
O O11 0.657284 0.845776 0.805595
O O12 0.773339 0.017880 0.855397
O O13 0.138240 0.163889 0.549446
O O14 0.000000 0.000000 0.500000
O O15 0.750000 0.250000 0.000000
O O16 0.494960 0.293616 0.907682
O O17 0.267239 0.815406 0.308586
O O18 0.500000 0.690553 0.750000
#
# Coordination Sequence:
#
# PCOD8145091 Si02
#       8
#     8   8   8   8   8   8   8   8
#     4  11  21  37  60  87 118 155 202 251 303 352
#     4  10  22  37  61  91 114 155 207 250 295 358
#     4  11  23  36  62  90 122 158 203 255 303 364
#     4  10  22  37  59  85 122 155 199 246 299 357
#     4  11  21  37  63  93 115 153 210 253 296 360
#     4   9  19  37  58  86 117 151 193 249 298 351
#     4  11  21  37  62  86 122 158 196 250 312 360
#     4  11  22  39  56  86 125 163 193 245 308 359
#
# _framework density 19.689129000000001
#
# number of rings (size 3 to 8) (size 9 to 14) (size 15 to 20)
#    0.000    1.500    2.500    4.125    3.500    0.000 
#    0.000    0.000    0.000    0.000    0.000    0.875 
#    0.000    0.000    0.000    0.000    0.000    0.000 
#
# Total GULP energy -396459.057665 kJ/mol
# GULP energy per Si atom -12389.345552 kJ/mol
# Density = 1.964432 g / cm^3
# Si number density = 19.689129 Si / 1000 Ang^3
#
#
#
# Elastic Constant Matrix: (Units=GPa)
#
#
# Indices 1 2 3 4 5 6 
#
# 1 81.4957 27.7192 26.2604 0.0000 7.8754 0.0000
# 2 27.7192 72.4187 40.6273 0.0000 6.1934 0.0000
# 3 26.2604 40.6273 103.5814 0.0000 16.7212 0.0000
# 4 0.0000 0.0000 0.0000 30.3104 0.0000 -4.4700
# 5 7.8754 6.1934 16.7212 0.0000 37.2046 0.0000
# 6 0.0000 0.0000 0.0000 -4.4700 0.0000 29.2441
#
#
#
# Elastic Compliance Matrix: (Units=1/GPa)
#
#
# Indices 1 2 3 4 5 6 
#
# 1 0.014480 -0.004476 -0.001662 0.000000 -0.001573 0.000000
# 2 -0.004476 0.019089 -0.006461 0.000000 0.000674 0.000000
# 3 -0.001662 -0.006461 0.013348 0.000000 -0.004572 0.000000
# 4 0.000000 0.000000 0.000000 0.033753 0.000000 0.005159
# 5 -0.001573 0.000674 -0.004572 0.000000 0.029154 0.000000
# 6 0.000000 0.000000 0.000000 0.005159 0.000000 0.034984
#
#
# Mechanical properties :
#
#
# Convention : Reuss Voigt Hill
#
# Bulk Modulus (GPa) = 46.04092 49.63441 47.83766
# Shear Modulus (GPa) = 28.20961 30.21109 29.21035
#
# Velocity S-wave (km/s) = 3.78928 3.92140 3.85590
# Velocity P-wave (km/s) = 6.52530 6.76512 6.64629
#
# Compressibility (1/GPa) = 0.02171981
#
# Stress axis : x y z
#
# Youngs Moduli (GPa) = 69.05875 52.38640 74.91898
#
# Poissons Ratio (x) = 0.23447 0.12449
# Poissons Ratio (y) = 0.30910 0.48407
# Poissons Ratio (z) = 0.11475 0.33848
#
# Static dielectric constant tensor:
#      x y z
#    x 3.919320 0.000000 0.257370 
#    y 0.000000 3.585340 0.000000 
#    z 0.257370 0.000000 3.678220 
# 
# 
# High freq. dielectric constant tensor:
#      x y z
#    x 1.781120 0.000000 0.016610 
#    y 0.000000 1.754630 0.000000 
#    z 0.016610 0.000000 1.754130 
# 
# From -- ./inp_files/296426.got.cif
#   From: 2010.06.25/outbox.cif.g09.slc.cpg/sg15_149_cif.got.tgz:296426.got - 2010.06.28 07:06:18.
