data_PCOD8145983
_publ_section_title
;
Structure prediction by ZEFSAII (Michael W. Deem and Ramdas Pophale) SiO2 
 PCOD8145983
Probable space group: C 2/C
;
_chemical_formula_sum "Si O2"
_cell_formula_units_Z 32
_cell_length_a 17.513791
_cell_length_b 8.738523
_cell_length_c 9.298860
_cell_angle_alpha 90.000000
_cell_angle_beta 73.933166
_cell_angle_gamma 90.000000
_cell_volume 1367.552348
_symmetry_space_group_name_H-M "C 2/C"
_symmetry_group_IT_number 15
_symmetry_cell_setting 'monoclinic'
loop_
_space_group_symop_operation_xyz
x,y,z
-x,y,1/2-z
-x,-y,-z
x,-y,1/2+z
1/2+x,1/2+y,z
1/2-x,1/2+y,1/2-z
1/2-x,1/2-y,-z
1/2+x,1/2-y,1/2+z
loop_
_atom_site_type_symbol
_atom_site_label
_atom_site_fract_x
_atom_site_fract_y
_atom_site_fract_z
Si Si1 0.429846 0.562267 0.185876
Si Si2 0.667123 0.952723 0.075789
Si Si3 0.160611 0.882159 0.495237
Si Si4 0.071782 0.603734 0.905281
O O1 0.500000 0.497627 0.250000
O O2 0.353984 0.583855 0.328478
O O3 0.456282 0.721403 0.097219
O O4 0.409768 0.442899 0.070492
O O5 0.664012 0.800590 0.976919
O O6 0.602035 0.953541 0.235145
O O7 0.756713 0.966048 0.090499
O O8 0.644031 0.093235 0.982854
O O9 0.000000 0.500000 0.000000
#
# Coordination Sequence:
#
# PCOD8145983 Si02
#       4
#     8   8   8   8
#     4  11  23  40  61  90 127 165 209 256 307 372
#     4  10  22  40  64  93 126 163 206 259 315 375
#     4  10  22  41  64  93 126 161 207 260 314 375
#     4  11  22  39  61  90 126 165 210 257 307 369
#
# _framework density 23.399469
#
# number of rings (size 3 to 8) (size 9 to 14) (size 15 to 20)
#    0.000    1.500    0.000    6.000    0.000    3.000 
#    0.000    3.750    0.000    0.000    0.000    0.000 
#    0.000    0.000    0.000    0.000    0.000    0.000 
#
# Total GULP energy -198410.928279 kJ/mol
# GULP energy per Si atom -12400.683017 kJ/mol
# Density = 2.334621 g / cm^3
# Si number density = 23.399469 Si / 1000 Ang^3
#
#
#
# Elastic Constant Matrix: (Units=GPa)
#
#
# Indices 1 2 3 4 5 6 
#
# 1 129.2672 47.2807 44.5298 0.0000 11.0284 0.0000
# 2 47.2807 53.1060 46.6785 0.0000 9.9131 0.0000
# 3 44.5298 46.6785 98.9680 0.0000 7.9840 0.0000
# 4 0.0000 0.0000 0.0000 34.9847 0.0000 4.7241
# 5 11.0284 9.9131 7.9840 0.0000 52.1889 0.0000
# 6 0.0000 0.0000 0.0000 4.7241 0.0000 39.0182
#
#
#
# Elastic Compliance Matrix: (Units=1/GPa)
#
#
# Indices 1 2 3 4 5 6 
#
# 1 0.011505 -0.009623 -0.000596 0.000000 -0.000512 0.000000
# 2 -0.009623 0.040990 -0.014721 0.000000 -0.003500 0.000000
# 3 -0.000596 -0.014721 0.017294 0.000000 0.000277 0.000000
# 4 0.000000 0.000000 0.000000 0.029059 0.000000 -0.003518
# 5 -0.000512 -0.003500 0.000277 0.000000 0.019892 0.000000
# 6 0.000000 0.000000 0.000000 -0.003518 0.000000 0.026055
#
#
# Mechanical properties :
#
#
# Convention : Reuss Voigt Hill
#
# Bulk Modulus (GPa) = 50.23164 62.03546 56.13355
# Shear Modulus (GPa) = 24.83714 34.76184 29.79949
#
# Velocity S-wave (km/s) = 3.26151 3.85851 3.57250
# Velocity P-wave (km/s) = 5.97469 6.81321 6.40768
#
# Compressibility (1/GPa) = 0.01990777
#
# Stress axis : x y z
#
# Youngs Moduli (GPa) = 86.92072 24.39600 57.82496
#
# Poissons Ratio (x) = 0.23476 0.03449
# Poissons Ratio (y) = 0.83643 0.85124
# Poissons Ratio (z) = 0.05185 0.35913
#
# Static dielectric constant tensor:
#      x y z
#    x 4.389770 0.000000 -0.044910 
#    y 0.000000 3.942680 0.000000 
#    z -0.044910 0.000000 4.301320 
# 
# 
# High freq. dielectric constant tensor:
#      x y z
#    x 1.939500 0.000000 -0.008730 
#    y 0.000000 1.896820 0.000000 
#    z -0.008730 0.000000 1.935860 
# 
# From -- ./inp_files/53406.got.cif
#   From: 2010.06.25/outbox.cif.g09.slc.cpg/sg15_27_cif.got.tgz:53406.got - 2010.06.28 07:06:18.
