data_PCOD8145056
_publ_section_title
;
Structure prediction by ZEFSAII (Michael W. Deem and Ramdas Pophale) SiO2 
 PCOD8145056
Probable space group: C 2/C
;
_chemical_formula_sum "Si O2"
_cell_formula_units_Z 44
_cell_length_a 19.995648
_cell_length_b 5.102000
_cell_length_c 17.357763
_cell_angle_alpha 90.000000
_cell_angle_beta 81.267768
_cell_angle_gamma 90.000000
_cell_volume 1750.274734
_symmetry_space_group_name_H-M "C 2/C"
_symmetry_group_IT_number 15
_symmetry_cell_setting 'monoclinic'
loop_
_space_group_symop_operation_xyz
x,y,z
-x,y,1/2-z
-x,-y,-z
x,-y,1/2+z
1/2+x,1/2+y,z
1/2-x,1/2+y,1/2-z
1/2-x,1/2-y,-z
1/2+x,1/2-y,1/2+z
loop_
_atom_site_type_symbol
_atom_site_label
_atom_site_fract_x
_atom_site_fract_y
_atom_site_fract_z
Si Si1 0.500000 0.093841 0.750000
Si Si2 0.611142 0.235001 0.155283
Si Si3 0.205822 0.044582 0.758743
Si Si4 0.867756 0.584049 0.982109
Si Si5 0.366684 0.572492 0.071429
Si Si6 0.512881 0.623490 0.093556
O O1 0.434178 0.914603 0.774176
O O2 0.516505 0.275807 0.819819
O O3 0.658393 0.438566 0.191738
O O4 0.566285 0.389016 0.099773
O O5 0.657121 0.027339 0.097211
O O6 0.238252 0.327407 0.768497
O O7 0.161681 0.964016 0.839142
O O8 0.948267 0.636749 0.955039
O O9 0.851477 0.368913 0.049803
O O10 0.834258 0.857707 0.017598
O O11 0.448435 0.522929 0.055629
#
# Coordination Sequence:
#
# PCOD8145056 Si02
#       6
#     4   8   8   8   8   8
#     4  10  22  36  70 108 140 190 224 298 348 440
#     4  11  25  46  70 106 144 186 238 288 366 415
#     4  12  30  51  74  98 137 193 254 300 340 412
#     4  11  25  42  73 111 149 182 222 292 362 444
#     4  12  25  45  72 109 144 187 234 285 363 416
#     4  11  23  40  72 110 154 180 226 287 367 437
#
# _framework density 25.138909000000002
#
# number of rings (size 3 to 8) (size 9 to 14) (size 15 to 20)
#    0.000    0.727    1.818    4.909   15.273    0.000 
#    0.000    5.455    0.000    0.000    0.000    0.000 
#    0.000    0.000    0.000    0.000    0.000    0.000 
#
# Total GULP energy -272798.720428 kJ/mol
# GULP energy per Si atom -12399.941838 kJ/mol
# Density = 2.508169 g / cm^3
# Si number density = 25.138909 Si / 1000 Ang^3
#
#
#
# Elastic Constant Matrix: (Units=GPa)
#
#
# Indices 1 2 3 4 5 6 
#
# 1 23.8241 8.9625 2.1519 0.0000 -1.3661 0.0000
# 2 8.9625 144.6706 44.6266 0.0000 2.4285 0.0000
# 3 2.1519 44.6266 96.4334 0.0000 -3.2439 0.0000
# 4 0.0000 0.0000 0.0000 28.6055 0.0000 23.2595
# 5 -1.3661 2.4285 -3.2439 0.0000 24.8585 0.0000
# 6 0.0000 0.0000 0.0000 23.2595 0.0000 4.7016
#
#
#
# Elastic Compliance Matrix: (Units=1/GPa)
#
#
# Indices 1 2 3 4 5 6 
#
# 1 0.043164 -0.002859 0.000451 0.000000 0.002710 0.000000
# 2 -0.002859 0.008293 -0.003823 0.000000 -0.001466 0.000000
# 3 0.000451 -0.003823 0.012196 0.000000 0.001990 0.000000
# 4 0.000000 0.000000 0.000000 -0.011566 0.000000 0.057217
# 5 0.002710 -0.001466 0.001990 0.000000 0.040780 0.000000
# 6 0.000000 0.000000 0.000000 0.057217 0.000000 -0.070368
#
#
# Mechanical properties :
#
#
# Convention : Reuss Voigt Hill
#
# Bulk Modulus (GPa) = 19.53455 41.82334 30.67894
# Shear Modulus (GPa) = 96.10536 25.57894 60.84215
#
# Velocity S-wave (km/s) = 6.18973 3.19329 4.92493
# Velocity P-wave (km/s) = 7.67275 5.50174 6.67609
#
# Compressibility (1/GPa) = 0.05119135
#
# Stress axis : x y z
#
# Youngs Moduli (GPa) = 23.16727 120.57798 81.99336
#
# Poissons Ratio (x) = 0.34469 -0.03697
# Poissons Ratio (y) = 0.06623 0.31350
# Poissons Ratio (z) = -0.01045 0.46103
#
# Static dielectric constant tensor:
#      x y z
#    x 4.098170 0.000000 -0.069280 
#    y 0.000000 4.747440 0.000000 
#    z -0.069280 0.000000 4.704140 
# 
# 
# High freq. dielectric constant tensor:
#      x y z
#    x 1.954360 0.000000 -0.011660 
#    y 0.000000 2.020840 0.000000 
#    z -0.011660 0.000000 2.033450 
# 
# From -- ./inp_files/212880.got.cif
#   From: 2010.06.25/outbox.cif.g09.slc.cpg/sg15_107_cif.got.tgz:212880.got - 2010.06.28 07:06:18.
