data_PCOD8145013
_publ_section_title
;
Structure prediction by ZEFSAII (Michael W. Deem and Ramdas Pophale) SiO2 
 PCOD8145013
Probable space group: C 2/C
;
_chemical_formula_sum "Si O2"
_cell_formula_units_Z 56
_cell_length_a 12.034288
_cell_length_b 33.654456
_cell_length_c 8.126757
_cell_angle_alpha 90.000000
_cell_angle_beta 127.703180
_cell_angle_gamma 90.000000
_cell_volume 2604.118930
_symmetry_space_group_name_H-M "C 2/C"
_symmetry_group_IT_number 15
_symmetry_cell_setting 'monoclinic'
loop_
_space_group_symop_operation_xyz
x,y,z
-x,y,1/2-z
-x,-y,-z
x,-y,1/2+z
1/2+x,1/2+y,z
1/2-x,1/2+y,1/2-z
1/2-x,1/2-y,-z
1/2+x,1/2-y,1/2+z
loop_
_atom_site_type_symbol
_atom_site_label
_atom_site_fract_x
_atom_site_fract_y
_atom_site_fract_z
Si Si1 0.303762 0.141292 0.709940
Si Si2 0.396820 0.873554 0.928631
Si Si3 0.862370 0.722302 0.897035
Si Si4 0.329374 0.791398 0.749804
Si Si5 0.143171 0.015308 0.779097
Si Si6 0.226610 0.941485 0.653574
Si Si7 0.949483 0.915841 0.516741
O O1 0.347973 0.126135 0.571967
O O2 0.289135 0.189113 0.712586
O O3 0.159115 0.119384 0.628543
O O4 0.435802 0.130792 0.947943
O O5 0.309633 0.837898 0.766120
O O6 0.362142 0.915349 0.813382
O O7 0.797669 0.765142 0.790824
O O8 0.829285 0.712546 0.055078
O O9 0.030208 0.723770 0.028981
O O10 0.118747 0.041272 0.590787
O O11 0.000000 0.008240 0.750000
O O12 0.208626 0.973704 0.783264
O O13 0.249737 0.038336 0.996902
O O14 0.088938 0.912543 0.529260
O O15 0.000000 0.913507 0.750000
#
# Coordination Sequence:
#
# PCOD8145013 Si02
#       7
#     8   8   8   8   8   8   8
#     4  10  22  38  58  84 119 157 185 239 287 343
#     4  10  22  38  59  84 120 153 191 233 293 341
#     4   9  19  37  60  82 118 150 190 230 285 337
#     4   9  19  37  58  86 114 154 186 235 280 341
#     4  10  22  36  61  86 115 151 190 245 292 342
#     4  11  21  38  61  86 113 152 192 243 286 347
#     4  11  20  37  60  84 114 150 197 236 289 336
#
# _framework density 21.504393
#
# number of rings (size 3 to 8) (size 9 to 14) (size 15 to 20)
#    0.000    2.000    1.429    3.000    2.000    1.714 
#    0.000    0.714    0.000    0.000    0.000    0.000 
#    0.000    0.000    0.000    0.000    0.000    0.000 
#
# Total GULP energy -347068.735294 kJ/mol
# GULP energy per Si atom -12395.311975 kJ/mol
# Density = 2.145545 g / cm^3
# Si number density = 21.504393 Si / 1000 Ang^3
#
#
#
# Elastic Constant Matrix: (Units=GPa)
#
#
# Indices 1 2 3 4 5 6 
#
# 1 33.4993 21.6595 19.9171 0.0000 9.1493 0.0000
# 2 21.6595 123.2152 68.9094 0.0000 11.2925 0.0000
# 3 19.9171 68.9094 94.7125 0.0000 5.6720 0.0000
# 4 0.0000 0.0000 0.0000 38.7653 0.0000 1.1509
# 5 9.1493 11.2925 5.6720 0.0000 15.3030 0.0000
# 6 0.0000 0.0000 0.0000 1.1509 0.0000 18.6853
#
#
#
# Elastic Compliance Matrix: (Units=1/GPa)
#
#
# Indices 1 2 3 4 5 6 
#
# 1 0.040131 -0.001935 -0.005809 0.000000 -0.020413 0.000000
# 2 -0.001935 0.014451 -0.009755 0.000000 -0.005892 0.000000
# 3 -0.005809 -0.009755 0.018652 0.000000 0.003758 0.000000
# 4 0.000000 0.000000 0.000000 0.025844 0.000000 -0.001592
# 5 -0.020413 -0.005892 0.003758 0.000000 0.080506 0.000000
# 6 0.000000 0.000000 0.000000 -0.001592 0.000000 0.053616
#
#
# Mechanical properties :
#
#
# Convention : Reuss Voigt Hill
#
# Bulk Modulus (GPa) = 26.15232 52.48878 39.32055
# Shear Modulus (GPa) = 17.79723 23.94678 20.87200
#
# Velocity S-wave (km/s) = 2.87994 3.34065 3.11881
# Velocity P-wave (km/s) = 4.82147 6.27226 5.59410
#
# Compressibility (1/GPa) = 0.03823753
#
# Stress axis : x y z
#
# Youngs Moduli (GPa) = 24.91822 69.19785 53.61415
#
# Poissons Ratio (x) = 0.13390 0.31144
# Poissons Ratio (y) = 0.04822 0.52298
# Poissons Ratio (z) = 0.14475 0.67499
#
# Static dielectric constant tensor:
#      x y z
#    x 3.685760 0.000000 0.101050 
#    y 0.000000 3.940370 0.000000 
#    z 0.101050 0.000000 4.082700 
# 
# 
# High freq. dielectric constant tensor:
#      x y z
#    x 1.811800 0.000000 -0.006490 
#    y 0.000000 1.843000 0.000000 
#    z -0.006490 0.000000 1.847880 
# 
# From -- ./inp_files/44583.got.cif
#   From: 2010.06.25/outbox.cif.g09.slc.cpg/sg15_23_cif.got.tgz:44583.got - 2010.06.28 07:06:18.
