data_PCOD8145954
_publ_section_title
;
Structure prediction by ZEFSAII (Michael W. Deem and Ramdas Pophale) SiO2 
 PCOD8145954
Probable space group: C 2/C
;
_chemical_formula_sum "Si O2"
_cell_formula_units_Z 44
_cell_length_a 21.188598
_cell_length_b 8.048816
_cell_length_c 10.997042
_cell_angle_alpha 90.000000
_cell_angle_beta 105.198693
_cell_angle_gamma 90.000000
_cell_volume 1809.870630
_symmetry_space_group_name_H-M "C 2/C"
_symmetry_group_IT_number 15
_symmetry_cell_setting 'monoclinic'
loop_
_space_group_symop_operation_xyz
x,y,z
-x,y,1/2-z
-x,-y,-z
x,-y,1/2+z
1/2+x,1/2+y,z
1/2-x,1/2+y,1/2-z
1/2-x,1/2-y,-z
1/2+x,1/2-y,1/2+z
loop_
_atom_site_type_symbol
_atom_site_label
_atom_site_fract_x
_atom_site_fract_y
_atom_site_fract_z
Si Si1 0.294185 0.364911 0.742651
Si Si2 0.376202 0.447360 0.113815
Si Si3 0.754206 0.072125 0.926236
Si Si4 0.500000 0.359917 0.750000
Si Si5 0.625989 0.061930 0.435460
Si Si6 0.907523 0.623602 0.828867
O O1 0.338867 0.519196 0.721521
O O2 0.257900 0.269602 0.610314
O O3 0.241077 0.447810 0.804112
O O4 0.340396 0.223909 0.823404
O O5 0.447837 0.527425 0.152041
O O6 0.381235 0.256244 0.088936
O O7 0.330576 0.542949 0.992996
O O8 0.700637 0.999720 0.993653
O O9 0.467243 0.250281 0.840127
O O10 0.585399 0.018780 0.540774
O O11 0.595759 0.975857 0.300166
#
# Coordination Sequence:
#
# PCOD8145954 Si02
#       6
#     8   8   8   4   8   8
#     4  10  22  40  64 107 143 182 238 294 372 426
#     4  11  23  44  70 103 142 199 236 305 355 438
#     4  11  22  40  70 104 150 184 234 305 367 444
#     4  10  26  50  66 100 148 190 258 290 352 444
#     4  11  24  43  75 106 144 183 248 303 380 422
#     4  10  24  47  68 104 141 190 240 307 353 438
#
# _framework density 24.311131
#
# number of rings (size 3 to 8) (size 9 to 14) (size 15 to 20)
#    0.000    1.455    1.818    2.182    5.091    2.182 
#    9.818    0.000    0.000    0.000    0.000    0.000 
#    0.000    0.000    0.000    0.000    0.000    0.000 
#
# Total GULP energy -272599.365878 kJ/mol
# GULP energy per Si atom -12390.880267 kJ/mol
# Density = 2.425580 g / cm^3
# Si number density = 24.311131 Si / 1000 Ang^3
#
#
#
# Elastic Constant Matrix: (Units=GPa)
#
#
# Indices 1 2 3 4 5 6 
#
# 1 120.4512 64.5638 55.3281 0.0000 9.9921 0.0000
# 2 64.5638 96.8325 61.5534 0.0000 1.2052 0.0000
# 3 55.3281 61.5534 135.5587 0.0000 -15.4207 0.0000
# 4 0.0000 0.0000 0.0000 37.4422 0.0000 2.1824
# 5 9.9921 1.2052 -15.4207 0.0000 44.3663 0.0000
# 6 0.0000 0.0000 0.0000 2.1824 0.0000 28.2810
#
#
#
# Elastic Compliance Matrix: (Units=1/GPa)
#
#
# Indices 1 2 3 4 5 6 
#
# 1 0.013877 -0.007486 -0.002704 0.000000 -0.003862 0.000000
# 2 -0.007486 0.018896 -0.005614 0.000000 -0.000779 0.000000
# 3 -0.002704 -0.005614 0.011574 0.000000 0.004784 0.000000
# 4 0.000000 0.000000 0.000000 0.026829 0.000000 -0.002070
# 5 -0.003862 -0.000779 0.004784 0.000000 0.025093 0.000000
# 6 0.000000 0.000000 0.000000 -0.002070 0.000000 0.035519
#
#
# Mechanical properties :
#
#
# Convention : Reuss Voigt Hill
#
# Bulk Modulus (GPa) = 78.49092 79.52590 79.00841
# Shear Modulus (GPa) = 29.82550 33.44438 31.63494
#
# Velocity S-wave (km/s) = 3.50641 3.71304 3.61120
# Velocity P-wave (km/s) = 6.98207 7.15297 7.06804
#
# Compressibility (1/GPa) = 0.01274033
#
# Stress axis : x y z
#
# Youngs Moduli (GPa) = 72.06162 52.92060 86.40177
#
# Poissons Ratio (x) = 0.39614 0.23365
# Poissons Ratio (y) = 0.53942 0.48503
# Poissons Ratio (z) = 0.19487 0.29708
#
# Static dielectric constant tensor:
#      x y z
#    x 4.371060 0.000000 -0.107530 
#    y 0.000000 4.462440 0.000000 
#    z -0.107530 0.000000 4.874900 
# 
# 
# High freq. dielectric constant tensor:
#      x y z
#    x 1.954050 0.000000 -0.009510 
#    y 0.000000 1.970720 0.000000 
#    z -0.009510 0.000000 1.980690 
# 
# From -- ./inp_files/116530.got.cif
#   From: 2010.06.25/outbox.cif.g09.slc.cpg/sg15_59_cif.got.tgz:116530.got - 2010.06.28 07:06:18.
