data_PCOD8145006
_publ_section_title
;
Structure prediction by ZEFSAII (Michael W. Deem and Ramdas Pophale) SiO2 
 PCOD8145006
Probable space group: C 2/C
;
_chemical_formula_sum "Si O2"
_cell_formula_units_Z 44
_cell_length_a 10.897379
_cell_length_b 21.125748
_cell_length_c 14.499854
_cell_angle_alpha 90.000000
_cell_angle_beta 41.769202
_cell_angle_gamma 90.000000
_cell_volume 2223.606095
_symmetry_space_group_name_H-M "C 2/C"
_symmetry_group_IT_number 15
_symmetry_cell_setting 'monoclinic'
loop_
_space_group_symop_operation_xyz
x,y,z
-x,y,1/2-z
-x,-y,-z
x,-y,1/2+z
1/2+x,1/2+y,z
1/2-x,1/2+y,1/2-z
1/2-x,1/2-y,-z
1/2+x,1/2-y,1/2+z
loop_
_atom_site_type_symbol
_atom_site_label
_atom_site_fract_x
_atom_site_fract_y
_atom_site_fract_z
Si Si1 0.000000 0.516128 0.250000
Si Si2 0.454414 0.083015 0.093299
Si Si3 0.579189 0.681219 0.053719
Si Si4 0.650305 0.446892 0.415392
Si Si5 0.226101 0.702411 0.371860
Si Si6 0.201928 0.972955 0.180887
O O1 0.926457 0.563398 0.213991
O O2 0.830061 0.469741 0.372347
O O3 0.422241 0.156749 0.092473
O O4 0.301915 0.041628 0.123585
O O5 0.668566 0.071889 0.951830
O O6 0.393985 0.706731 0.205654
O O7 0.726328 0.674951 0.053573
O O8 0.559855 0.613707 0.015157
O O9 0.641996 0.728240 0.936538
O O10 0.500000 0.500000 0.500000
O O11 0.701082 0.437226 0.279856
O O12 0.000000 0.980340 0.250000
#
# Coordination Sequence:
#
# PCOD8145006 Si02
#       6
#     4   8   8   8   8   8
#     4  10  22  38  60  94 122 160 200 258 308 370
#     4  10  22  37  62  91 122 166 200 254 311 367
#     4  10  23  39  62  90 125 161 205 254 312 362
#     4  11  23  37  62  90 124 159 201 258 308 366
#     4  10  23  39  62  88 123 162 203 256 306 372
#     4  10  22  36  60  91 126 159 206 254 306 369
#
# _framework density 19.787676999999999
#
# number of rings (size 3 to 8) (size 9 to 14) (size 15 to 20)
#    0.000    1.818    0.000    3.273   15.273    1.455 
#    0.000    0.000    2.000    3.273    0.000    0.000 
#    0.000    0.000    0.000    0.000    0.000    0.000 
#
# Total GULP energy -272691.091118 kJ/mol
# GULP energy per Si atom -12395.049596 kJ/mol
# Density = 1.974264 g / cm^3
# Si number density = 19.787677 Si / 1000 Ang^3
#
#
#
# Elastic Constant Matrix: (Units=GPa)
#
#
# Indices 1 2 3 4 5 6 
#
# 1 92.3466 45.6618 31.4281 -0.0006 -20.9546 0.0002
# 2 45.6618 135.5359 61.8697 -0.0001 -1.2048 0.0000
# 3 31.4281 61.8697 108.4126 -0.0016 -10.9140 0.0006
# 4 -0.0006 -0.0001 -0.0016 33.0164 0.0010 4.8412
# 5 -20.9546 -1.2048 -10.9140 0.0010 37.7254 -0.0003
# 6 0.0002 0.0000 0.0006 4.8412 -0.0003 31.7912
#
#
#
# Elastic Compliance Matrix: (Units=1/GPa)
#
#
# Indices 1 2 3 4 5 6 
#
# 1 0.015278 -0.004630 -0.000976 0.000000 0.008056 0.000000
# 2 -0.004630 0.011450 -0.005576 0.000000 -0.003820 0.000000
# 3 -0.000976 -0.005576 0.012995 0.000001 0.003040 0.000000
# 4 0.000000 0.000000 0.000001 0.030980 -0.000001 -0.004718
# 5 0.008056 -0.003820 0.003040 -0.000001 0.031740 0.000000
# 6 0.000000 0.000000 0.000000 -0.004718 0.000000 0.032174
#
#
# Mechanical properties :
#
#
# Convention : Reuss Voigt Hill
#
# Bulk Modulus (GPa) = 57.60828 68.24605 62.92717
# Shear Modulus (GPa) = 30.71878 33.66230 32.19054
#
# Velocity S-wave (km/s) = 3.94435 4.12900 4.03773
# Velocity P-wave (km/s) = 7.06543 7.56939 7.32174
#
# Compressibility (1/GPa) = 0.01735862
#
# Stress axis : x y z
#
# Youngs Moduli (GPa) = 65.45209 87.33917 76.95142
#
# Poissons Ratio (x) = 0.40440 0.07508
# Poissons Ratio (y) = 0.30306 0.42911
# Poissons Ratio (z) = 0.06386 0.48704
#
# Static dielectric constant tensor:
#      x y z
#    x 3.568180 0.000010 0.140750 
#    y 0.000010 3.235220 0.000040 
#    z 0.140750 0.000040 4.354140 
# 
# 
# High freq. dielectric constant tensor:
#      x y z
#    x 1.759180 0.000000 -0.000980 
#    y 0.000000 1.750260 0.000000 
#    z -0.000980 0.000000 1.792840 
# 
# From -- ./inp_files/147017.got.cif
#   From: 2010.06.25/outbox.cif.g09.slc.cpg/sg15_74_cif.got.tgz:147017.got - 2010.06.28 07:06:18.
