data_PCOD8145468
_publ_section_title
;
Structure prediction by ZEFSAII (Michael W. Deem and Ramdas Pophale) SiO2 
 PCOD8145468
Probable space group: C 2/C
;
_chemical_formula_sum "Si O2"
_cell_formula_units_Z 40
_cell_length_a 31.505492
_cell_length_b 8.749268
_cell_length_c 21.280164
_cell_angle_alpha 90.000000
_cell_angle_beta 161.815464
_cell_angle_gamma 90.000000
_cell_volume 1830.614183
_symmetry_space_group_name_H-M "C 2/C"
_symmetry_group_IT_number 15
_symmetry_cell_setting 'monoclinic'
loop_
_space_group_symop_operation_xyz
x,y,z
-x,y,1/2-z
-x,-y,-z
x,-y,1/2+z
1/2+x,1/2+y,z
1/2-x,1/2+y,1/2-z
1/2-x,1/2-y,-z
1/2+x,1/2-y,1/2+z
loop_
_atom_site_type_symbol
_atom_site_label
_atom_site_fract_x
_atom_site_fract_y
_atom_site_fract_z
Si Si1 0.527319 0.894225 0.857554
Si Si2 0.465387 0.746945 0.447737
Si Si3 0.824001 0.972084 0.317811
Si Si4 0.605433 0.555238 0.945475
Si Si5 0.371470 0.018900 0.248718
O O1 0.500000 0.959185 0.750000
O O2 0.534890 0.711220 0.868472
O O3 0.391598 0.951956 0.702977
O O4 0.664076 0.963283 0.080416
O O5 0.373351 0.629605 0.356581
O O6 0.598393 0.668977 0.604968
O O7 0.503120 0.883435 0.547442
O O8 0.379773 0.835811 0.273431
O O9 0.854320 0.961957 0.435304
O O10 0.500000 0.467211 0.750000
O O11 0.735012 0.590890 0.084432
#
# Coordination Sequence:
#
# PCOD8145468 Si02
#       5
#     8   8   8   8   8
#     4  11  25  42  68  96 131 172 217 265 320 392
#     4  10  22  38  71  95 131 171 219 255 329 381
#     4  11  22  43  64 100 132 173 208 273 316 382
#     4  11  25  42  68  96 131 172 217 265 320 392
#     4  11  22  41  64  98 127 173 213 268 319 392
#
# _framework density 21.850588999999999
#
# number of rings (size 3 to 8) (size 9 to 14) (size 15 to 20)
#    0.000    1.200    4.000    2.400    0.000    6.400 
#    0.000    6.000    0.000    0.000    0.000    0.000 
#    0.000    0.000    0.000    0.000    0.000    0.000 
#
# Total GULP energy -247920.131337 kJ/mol
# GULP energy per Si atom -12396.006567 kJ/mol
# Density = 2.180086 g / cm^3
# Si number density = 21.850589 Si / 1000 Ang^3
#
#
#
# Elastic Constant Matrix: (Units=GPa)
#
#
# Indices 1 2 3 4 5 6 
#
# 1 159.3077 26.4106 38.8493 0.0000 -7.0771 0.0000
# 2 26.4106 76.6118 12.7462 0.0000 -3.6250 0.0000
# 3 38.8493 12.7462 79.3748 0.0000 -17.2583 0.0000
# 4 0.0000 0.0000 0.0000 16.8665 0.0000 -0.7829
# 5 -7.0771 -3.6250 -17.2583 0.0000 45.5893 0.0000
# 6 0.0000 0.0000 0.0000 -0.7829 0.0000 12.7197
#
#
#
# Elastic Compliance Matrix: (Units=1/GPa)
#
#
# Indices 1 2 3 4 5 6 
#
# 1 0.007420 -0.002011 -0.003370 0.000000 -0.000284 0.000000
# 2 -0.002011 0.013959 -0.001181 0.000000 0.000351 0.000000
# 3 -0.003370 -0.001181 0.015587 0.000000 0.005283 0.000000
# 4 0.000000 0.000000 0.000000 0.059459 0.000000 0.003660
# 5 -0.000284 0.000351 0.005283 0.000000 0.023919 0.000000
# 6 0.000000 0.000000 0.000000 0.003660 0.000000 0.078843
#
#
# Mechanical properties :
#
#
# Convention : Reuss Voigt Hill
#
# Bulk Modulus (GPa) = 41.94483 52.36738 47.15611
# Shear Modulus (GPa) = 22.70066 30.85433 26.77749
#
# Velocity S-wave (km/s) = 3.22670 3.76181 3.50449
# Velocity P-wave (km/s) = 5.75500 6.54878 6.16468
#
# Compressibility (1/GPa) = 0.02384084
#
# Stress axis : x y z
#
# Youngs Moduli (GPa) = 134.77487 71.63813 64.15798
#
# Poissons Ratio (x) = 0.14403 0.21624
# Poissons Ratio (y) = 0.27097 0.07579
# Poissons Ratio (z) = 0.45425 0.08463
#
# Static dielectric constant tensor:
#      x y z
#    x 4.279270 0.000000 -0.138440 
#    y 0.000000 3.835390 0.000000 
#    z -0.138440 0.000000 3.855090 
# 
# 
# High freq. dielectric constant tensor:
#      x y z
#    x 1.879440 0.000000 0.009080 
#    y 0.000000 1.843950 0.000000 
#    z 0.009080 0.000000 1.846630 
# 
# From -- ./inp_files/76834.got.cif
#   From: 2010.06.25/outbox.cif.g09.slc.cpg/sg15_39_cif.got.tgz:76834.got - 2010.06.28 07:06:18.
