data_PCOD8145677
_publ_section_title
;
Structure prediction by ZEFSAII (Michael W. Deem and Ramdas Pophale) SiO2 
 PCOD8145677
Probable space group: C 2/C
;
_chemical_formula_sum "Si O2"
_cell_formula_units_Z 36
_cell_length_a 8.024593
_cell_length_b 19.934083
_cell_length_c 11.525267
_cell_angle_alpha 90.000000
_cell_angle_beta 62.499817
_cell_angle_gamma 90.000000
_cell_volume 1635.303906
_symmetry_space_group_name_H-M "C 2/C"
_symmetry_group_IT_number 15
_symmetry_cell_setting 'monoclinic'
loop_
_space_group_symop_operation_xyz
x,y,z
-x,y,1/2-z
-x,-y,-z
x,-y,1/2+z
1/2+x,1/2+y,z
1/2-x,1/2+y,1/2-z
1/2-x,1/2-y,-z
1/2+x,1/2-y,1/2+z
loop_
_atom_site_type_symbol
_atom_site_label
_atom_site_fract_x
_atom_site_fract_y
_atom_site_fract_z
Si Si1 0.936165 0.189161 0.548785
Si Si2 0.000000 0.896020 0.250000
Si Si3 0.705419 0.140396 0.173517
Si Si4 0.821994 0.340209 0.568631
Si Si5 0.864320 0.562070 0.519607
O O1 0.920362 0.151175 0.674741
O O2 0.846058 0.261839 0.588474
O O3 0.818506 0.146446 0.491984
O O4 0.151660 0.191525 0.434968
O O5 0.169491 0.943851 0.152361
O O6 0.500000 0.176228 0.250000
O O7 0.765899 0.124523 0.287052
O O8 0.684060 0.072233 0.102529
O O9 0.024621 0.371650 0.473147
O O10 0.000000 0.500000 0.500000
#
# Coordination Sequence:
#
# PCOD8145677 Si02
#       5
#     8   4   8   8   8
#     4  10  22  39  65 101 129 165 219 266 342 382
#     4  10  24  42  68  96 132 172 214 282 326 394
#     4   9  20  39  63  90 127 169 209 267 324 384
#     4  10  22  40  65  96 131 170 212 276 322 398
#     4  10  23  45  64  96 128 176 222 264 327 388
#
# _framework density 22.014257000000001
#
# number of rings (size 3 to 8) (size 9 to 14) (size 15 to 20)
#    0.000    2.222    0.000    0.667    7.778    5.333 
#   20.000    2.222    0.000    0.000    0.000    0.000 
#    0.000    0.000    0.000    0.000    0.000    0.000 
#
# Total GULP energy -223077.667280 kJ/mol
# GULP energy per Si atom -12393.203738 kJ/mol
# Density = 2.196415 g / cm^3
# Si number density = 22.014257 Si / 1000 Ang^3
#
#
#
# Elastic Constant Matrix: (Units=GPa)
#
#
# Indices 1 2 3 4 5 6 
#
# 1 126.3840 49.6752 89.0766 0.0000 21.4409 0.0000
# 2 49.6752 75.2097 44.4662 0.0000 8.9932 0.0000
# 3 89.0766 44.4662 164.4372 0.0000 5.2955 0.0000
# 4 0.0000 0.0000 0.0000 17.2024 0.0000 -0.5584
# 5 21.4409 8.9932 5.2955 0.0000 55.1753 0.0000
# 6 0.0000 0.0000 0.0000 -0.5584 0.0000 39.5698
#
#
#
# Elastic Compliance Matrix: (Units=1/GPa)
#
#
# Indices 1 2 3 4 5 6 
#
# 1 0.015792 -0.005853 -0.006826 0.000000 -0.004528 0.000000
# 2 -0.005853 0.018261 -0.001750 0.000000 -0.000534 0.000000
# 3 -0.006826 -0.001750 0.010189 0.000000 0.001960 0.000000
# 4 0.000000 0.000000 0.000000 0.058158 0.000000 0.000821
# 5 -0.004528 -0.000534 0.001960 0.000000 0.019782 0.000000
# 6 0.000000 0.000000 0.000000 0.000821 0.000000 0.025283
#
#
# Mechanical properties :
#
#
# Convention : Reuss Voigt Hill
#
# Bulk Modulus (GPa) = 65.00585 81.38522 73.19553
# Shear Modulus (GPa) = 27.55539 34.57704 31.06622
#
# Velocity S-wave (km/s) = 3.54178 3.96746 3.76065
# Velocity P-wave (km/s) = 6.80579 7.61822 7.22343
#
# Compressibility (1/GPa) = 0.01538323
#
# Stress axis : x y z
#
# Youngs Moduli (GPa) = 63.32194 54.76222 98.14328
#
# Poissons Ratio (x) = 0.32055 0.66994
# Poissons Ratio (y) = 0.37065 0.17174
# Poissons Ratio (z) = 0.43224 0.09583
#
# Static dielectric constant tensor:
#      x y z
#    x 4.392810 0.000000 0.233630 
#    y 0.000000 3.459870 0.000000 
#    z 0.233630 0.000000 4.269090 
# 
# 
# High freq. dielectric constant tensor:
#      x y z
#    x 1.883900 0.000000 0.006410 
#    y 0.000000 1.817750 0.000000 
#    z 0.006410 0.000000 1.879390 
# 
# From -- ./inp_files/77598.got.cif
#   From: 2010.06.25/outbox.cif.g09.slc.cpg/sg15_39_cif.got.tgz:77598.got - 2010.06.28 07:06:18.
