data_PCOD8145034
_publ_section_title
;
Structure prediction by ZEFSAII (Michael W. Deem and Ramdas Pophale) SiO2 
 PCOD8145034
Probable space group: C 2/C
;
_chemical_formula_sum "Si O2"
_cell_formula_units_Z 64
_cell_length_a 15.471738
_cell_length_b 10.728287
_cell_length_c 28.285833
_cell_angle_alpha 90.000000
_cell_angle_beta 140.839778
_cell_angle_gamma 90.000000
_cell_volume 2964.870439
_symmetry_space_group_name_H-M "C 2/C"
_symmetry_group_IT_number 15
_symmetry_cell_setting 'monoclinic'
loop_
_space_group_symop_operation_xyz
x,y,z
-x,y,1/2-z
-x,-y,-z
x,-y,1/2+z
1/2+x,1/2+y,z
1/2-x,1/2+y,1/2-z
1/2-x,1/2-y,-z
1/2+x,1/2-y,1/2+z
loop_
_atom_site_type_symbol
_atom_site_label
_atom_site_fract_x
_atom_site_fract_y
_atom_site_fract_z
Si Si1 0.093200 0.321048 0.518515
Si Si2 0.086137 0.419428 0.974458
Si Si3 0.131889 0.496554 0.772222
Si Si4 0.145710 0.808229 0.626937
Si Si5 0.322678 0.640192 0.639124
Si Si6 0.850409 0.864970 0.681005
Si Si7 0.216511 0.744517 0.759232
Si Si8 0.487388 0.798713 0.841444
O O1 0.081697 0.429394 0.473644
O O2 0.253136 0.294127 0.600178
O O3 0.034933 0.369992 0.543634
O O4 0.006507 0.201823 0.462025
O O5 0.085252 0.359765 0.921983
O O6 0.230933 0.372551 0.054077
O O7 0.276060 0.438111 0.854231
O O8 0.149357 0.635469 0.761567
O O9 0.105451 0.411738 0.715811
O O10 0.000000 0.489348 0.750000
O O11 0.238689 0.695598 0.647081
O O12 0.129098 0.783343 0.675929
O O13 0.377994 0.506672 0.677641
O O14 0.443053 0.732291 0.673788
O O15 0.781473 0.861669 0.703710
O O16 0.000000 0.800079 0.750000
O O17 0.373925 0.705040 0.815129
#
# Coordination Sequence:
#
# PCOD8145034 Si02
#       8
#     8   8   8   8   8   8   8   8
#     4   9  18  38  60  94 124 171 203 264 322 383
#     4   9  17  34  62  92 132 154 203 254 331 378
#     4  11  23  40  57  89 127 168 209 256 325 368
#     4  10  22  38  64  89 125 162 212 263 318 371
#     4  10  22  36  63  98 123 156 202 277 318 363
#     4  11  24  40  65  89 129 165 212 260 325 384
#     4  11  25  38  62  91 129 170 212 252 316 395
#     4  11  21  37  63  97 122 160 217 270 301 371
#
# _framework density 21.586102
#
# number of rings (size 3 to 8) (size 9 to 14) (size 15 to 20)
#    0.000    1.750    2.500    2.250    7.000    0.000 
#    0.000    1.250    0.000    3.000    0.000    0.000 
#    0.000    0.000    0.000    0.000    0.000    0.000 
#
# Total GULP energy -396438.831724 kJ/mol
# GULP energy per Si atom -12388.713491 kJ/mol
# Density = 2.153697 g / cm^3
# Si number density = 21.586102 Si / 1000 Ang^3
#
#
#
# Elastic Constant Matrix: (Units=GPa)
#
#
# Indices 1 2 3 4 5 6 
#
# 1 82.8561 38.6900 44.8863 0.0000 -6.4627 0.0000
# 2 38.6900 59.2798 33.0669 0.0000 -1.1413 0.0000
# 3 44.8863 33.0669 137.5720 0.0000 6.8243 0.0000
# 4 0.0000 0.0000 0.0000 21.4232 0.0000 -2.9515
# 5 -6.4627 -1.1413 6.8243 0.0000 32.6509 0.0000
# 6 0.0000 0.0000 0.0000 -2.9515 0.0000 30.6149
#
#
#
# Elastic Compliance Matrix: (Units=1/GPa)
#
#
# Indices 1 2 3 4 5 6 
#
# 1 0.019439 -0.010331 -0.004074 0.000000 0.004338 0.000000
# 2 -0.010331 0.025063 -0.002623 0.000000 -0.000621 0.000000
# 3 -0.004074 -0.002623 0.009370 0.000000 -0.002857 0.000000
# 4 0.000000 0.000000 0.000000 0.047307 0.000000 0.004561
# 5 0.004338 -0.000621 -0.002857 0.000000 0.032061 0.000000
# 6 0.000000 0.000000 0.000000 0.004561 0.000000 0.033103
#
#
# Mechanical properties :
#
#
# Convention : Reuss Voigt Hill
#
# Bulk Modulus (GPa) = 50.46387 56.99936 53.73162
# Shear Modulus (GPa) = 24.15409 27.80878 25.98143
#
# Velocity S-wave (km/s) = 3.34872 3.59314 3.47308
# Velocity P-wave (km/s) = 6.19521 6.60887 6.40538
#
# Compressibility (1/GPa) = 0.01981616
#
# Stress axis : x y z
#
# Youngs Moduli (GPa) = 51.44357 39.89994 106.71901
#
# Poissons Ratio (x) = 0.41220 0.43482
# Poissons Ratio (y) = 0.53145 0.27988
# Poissons Ratio (z) = 0.20961 0.10464
#
# Static dielectric constant tensor:
#      x y z
#    x 3.809300 0.000000 0.089760 
#    y 0.000000 3.674860 0.000000 
#    z 0.089760 0.000000 4.162500 
# 
# 
# High freq. dielectric constant tensor:
#      x y z
#    x 1.840020 0.000000 0.001850 
#    y 0.000000 1.820650 0.000000 
#    z 0.001850 0.000000 1.858640 
# 
# From -- ./inp_files/313602.got.cif
#   From: 2010.06.25/outbox.cif.g09.slc.cpg/sg15_157_cif.got.tgz:313602.got - 2010.06.28 07:06:18.
