data_PCOD8145894
_publ_section_title
;
Structure prediction by ZEFSAII (Michael W. Deem and Ramdas Pophale) SiO2 
 PCOD8145894
Probable space group: C 2/C
;
_chemical_formula_sum "Si O2"
_cell_formula_units_Z 44
_cell_length_a 14.672127
_cell_length_b 5.093262
_cell_length_c 27.955539
_cell_angle_alpha 90.000000
_cell_angle_beta 68.622244
_cell_angle_gamma 90.000000
_cell_volume 1945.354350
_symmetry_space_group_name_H-M "C 2/C"
_symmetry_group_IT_number 15
_symmetry_cell_setting 'monoclinic'
loop_
_space_group_symop_operation_xyz
x,y,z
-x,y,1/2-z
-x,-y,-z
x,-y,1/2+z
1/2+x,1/2+y,z
1/2-x,1/2+y,1/2-z
1/2-x,1/2-y,-z
1/2+x,1/2-y,1/2+z
loop_
_atom_site_type_symbol
_atom_site_label
_atom_site_fract_x
_atom_site_fract_y
_atom_site_fract_z
Si Si1 0.000000 0.554828 0.750000
Si Si2 0.088114 0.804419 0.643366
Si Si3 0.212230 0.696261 0.126494
Si Si4 0.872537 0.247130 0.017873
Si Si5 0.932015 0.748000 0.958978
Si Si6 0.213659 0.639141 0.229804
O O1 0.015124 0.738296 0.700674
O O2 0.096266 0.381409 0.743199
O O3 0.179707 0.605061 0.626056
O O4 0.035160 0.772468 0.602381
O O5 0.120777 0.105025 0.642902
O O6 0.285057 0.783432 0.071369
O O7 0.262485 0.713853 0.169400
O O8 0.971343 0.246608 0.028509
O O9 0.871274 0.482656 0.979849
O O10 0.861283 0.985070 0.988664
O O11 0.260831 0.364800 0.237348
#
# Coordination Sequence:
#
# PCOD8145894 Si02
#       6
#     4   8   8   8   8   8
#     4  10  26  48  66 104 142 170 232 290 310 430
#     4  11  24  42  66  93 131 172 212 268 341 371
#     4  11  24  42  63  98 128 163 224 271 316 407
#     4  10  22  41  61  92 132 157 223 265 307 409
#     4  10  22  40  62  93 123 177 205 260 338 377
#     4  11  25  45  69 100 132 184 226 274 347 392
#
# _framework density 22.617985000000001
#
# number of rings (size 3 to 8) (size 9 to 14) (size 15 to 20)
#    0.000    1.455    0.000    4.364    2.545   10.909 
#    6.545    0.000    0.000    0.000    0.000    0.000 
#    0.000    0.000    0.000    0.000    0.000    0.000 
#
# Total GULP energy -272818.242760 kJ/mol
# GULP energy per Si atom -12400.829216 kJ/mol
# Density = 2.256651 g / cm^3
# Si number density = 22.617985 Si / 1000 Ang^3
#
#
#
# Elastic Constant Matrix: (Units=GPa)
#
#
# Indices 1 2 3 4 5 6 
#
# 1 66.8265 30.9283 32.7857 -0.0004 -1.1854 0.0039
# 2 30.9283 132.2108 39.8028 -0.0049 7.4262 0.0192
# 3 32.7857 39.8028 180.0192 -0.0009 3.0454 0.0040
# 4 -0.0004 -0.0049 -0.0009 22.8319 0.0003 19.9009
# 5 -1.1854 7.4262 3.0454 0.0003 34.1999 -0.0003
# 6 0.0039 0.0192 0.0040 19.9009 -0.0003 9.3258
#
#
#
# Elastic Compliance Matrix: (Units=1/GPa)
#
#
# Indices 1 2 3 4 5 6 
#
# 1 0.017845 -0.003512 -0.002501 0.000002 0.001604 -0.000002
# 2 -0.003512 0.008883 -0.001292 -0.000019 -0.001936 0.000024
# 3 -0.002501 -0.001292 0.006302 0.000001 -0.000367 -0.000001
# 4 0.000002 -0.000019 0.000001 -0.050928 0.000005 0.108678
# 5 0.001604 -0.001936 -0.000367 0.000005 0.029748 -0.000007
# 6 -0.000002 0.000024 -0.000001 0.108678 -0.000007 -0.124684
#
#
# Mechanical properties :
#
#
# Convention : Reuss Voigt Hill
#
# Bulk Modulus (GPa) = 54.28408 65.12113 59.70260
# Shear Modulus (GPa) = -54.29746 31.64085 -11.32831
#
# Velocity S-wave (km/s) = -4.90494 3.74428 -2.24040
# Velocity P-wave (km/s) = 2.83292 6.89544 4.44532
#
# Compressibility (1/GPa) = 0.01842161
#
# Stress axis : x y z
#
# Youngs Moduli (GPa) = 56.03915 112.57755 158.67479
#
# Poissons Ratio (x) = 0.39534 0.39678
# Poissons Ratio (y) = 0.19679 0.20496
# Poissons Ratio (z) = 0.14013 0.14542
#
# Static dielectric constant tensor:
#      x y z
#    x 3.864690 -0.000010 0.146640 
#    y -0.000010 4.266390 -0.000010 
#    z 0.146640 -0.000010 4.424880 
# 
# 
# High freq. dielectric constant tensor:
#      x y z
#    x 1.871510 0.000000 0.014740 
#    y 0.000000 1.903480 0.000000 
#    z 0.014740 0.000000 1.914880 
# 
# From -- ./inp_files/294230.got.cif
#   From: 2010.06.25/outbox.cif.g09.slc.cpg/sg15_148_cif.got.tgz:294230.got - 2010.06.28 07:06:18.
