data_PCOD8145701
_publ_section_title
;
Structure prediction by ZEFSAII (Michael W. Deem and Ramdas Pophale) SiO2 
 PCOD8145701
Probable space group: C 2/C
;
_chemical_formula_sum "Si O2"
_cell_formula_units_Z 64
_cell_length_a 9.194316
_cell_length_b 13.431408
_cell_length_c 21.864754
_cell_angle_alpha 90.000000
_cell_angle_beta 87.402421
_cell_angle_gamma 90.000000
_cell_volume 2697.361099
_symmetry_space_group_name_H-M "C 2/C"
_symmetry_group_IT_number 15
_symmetry_cell_setting 'monoclinic'
loop_
_space_group_symop_operation_xyz
x,y,z
-x,y,1/2-z
-x,-y,-z
x,-y,1/2+z
1/2+x,1/2+y,z
1/2-x,1/2+y,1/2-z
1/2-x,1/2-y,-z
1/2+x,1/2-y,1/2+z
loop_
_atom_site_type_symbol
_atom_site_label
_atom_site_fract_x
_atom_site_fract_y
_atom_site_fract_z
Si Si1 0.099589 0.428553 0.955904
Si Si2 0.641480 0.750234 0.410618
Si Si3 0.648838 0.528252 0.369703
Si Si4 0.565290 0.250682 0.050239
Si Si5 0.785447 0.145858 0.554908
Si Si6 0.871588 0.742482 0.838849
Si Si7 0.166195 0.551965 0.739036
Si Si8 0.324760 0.471825 0.848989
O O1 0.214353 0.483017 0.909040
O O2 0.998526 0.352353 0.919527
O O3 0.193624 0.350073 0.994899
O O4 0.000000 0.500000 0.000000
O O5 0.635297 0.632834 0.402204
O O6 0.607123 0.781457 0.480517
O O7 0.809868 0.785825 0.403987
O O8 0.532835 0.792989 0.360639
O O9 0.738481 0.462397 0.416059
O O10 0.747367 0.523672 0.307012
O O11 0.485264 0.486233 0.360935
O O12 0.456920 0.341984 0.042536
O O13 0.735752 0.231554 0.602221
O O14 0.831522 0.667952 0.784064
O O15 0.853076 0.858725 0.821625
O O16 0.251850 0.544137 0.800895
O O17 0.000000 0.515017 0.750000
#
# Coordination Sequence:
#
# PCOD8145701 Si02
#       8
#     8   8   8   8   8   8   8   8
#     4  12  25  39  71 105 152 185 231 288 360 435
#     4  10  22  39  66 100 141 180 228 279 353 421
#     4  10  24  44  68  98 140 181 232 289 348 424
#     4  11  22  37  65 106 142 182 230 280 341 439
#     4  11  21  40  66 101 143 180 229 277 355 419
#     4  10  22  45  71  97 138 192 231 296 353 430
#     4  11  27  44  71 100 134 184 245 297 356 421
#     4  11  25  47  72 103 139 191 237 295 361 420
#
# _framework density 23.726894999999999
#
# number of rings (size 3 to 8) (size 9 to 14) (size 15 to 20)
#    0.000    1.250    2.500    3.000    5.250    7.000 
#    0.000    2.500    0.000    0.000    0.000    0.000 
#    0.000    0.000    0.000    0.000    0.000    0.000 
#
# Total GULP energy -396478.590183 kJ/mol
# GULP energy per Si atom -12389.955943 kJ/mol
# Density = 2.367289 g / cm^3
# Si number density = 23.726895 Si / 1000 Ang^3
#
#
#
# Elastic Constant Matrix: (Units=GPa)
#
#
# Indices 1 2 3 4 5 6 
#
# 1 158.1779 19.0912 48.1632 0.0000 -1.8853 0.0000
# 2 19.0912 51.2972 16.1871 0.0000 6.8445 0.0000
# 3 48.1632 16.1871 88.1611 0.0000 0.6663 0.0000
# 4 0.0000 0.0000 0.0000 28.2402 0.0000 2.9710
# 5 -1.8853 6.8445 0.6663 0.0000 43.3464 0.0000
# 6 0.0000 0.0000 0.0000 2.9710 0.0000 43.9593
#
#
#
# Elastic Compliance Matrix: (Units=1/GPa)
#
#
# Indices 1 2 3 4 5 6 
#
# 1 0.007730 -0.001732 -0.003910 0.000000 0.000670 0.000000
# 2 -0.001732 0.021538 -0.002982 0.000000 -0.003430 0.000000
# 3 -0.003910 -0.002982 0.014026 0.000000 0.000085 0.000000
# 4 0.000000 0.000000 0.000000 0.035664 0.000000 -0.002410
# 5 0.000670 -0.003430 0.000085 0.000000 0.023639 0.000000
# 6 0.000000 0.000000 0.000000 -0.002410 0.000000 0.022911
#
#
# Mechanical properties :
#
#
# Convention : Reuss Voigt Hill
#
# Bulk Modulus (GPa) = 38.39589 51.61326 45.00457
# Shear Modulus (GPa) = 33.01690 37.38883 35.20286
#
# Velocity S-wave (km/s) = 3.73438 3.97394 3.85602
# Velocity P-wave (km/s) = 5.90014 6.54649 6.23170
#
# Compressibility (1/GPa) = 0.02604446
#
# Stress axis : x y z
#
# Youngs Moduli (GPa) = 129.37422 46.43024 71.29773
#
# Poissons Ratio (x) = 0.08043 0.27875
# Poissons Ratio (y) = 0.22412 0.21262
# Poissons Ratio (z) = 0.50581 0.13846
#
# Static dielectric constant tensor:
#      x y z
#    x 4.911200 0.000000 0.017360 
#    y 0.000000 3.957670 0.000000 
#    z 0.017360 0.000000 4.058610 
# 
# 
# High freq. dielectric constant tensor:
#      x y z
#    x 1.963380 0.000000 -0.000270 
#    y 0.000000 1.934870 0.000000 
#    z -0.000270 0.000000 1.919030 
# 
# From -- ./inp_files/264704.got.cif
#   From: 2010.06.25/outbox.cif.g09.slc.cpg/sg15_133_cif.got.tgz:264704.got - 2010.06.28 07:06:18.
