data_PCOD8145665
_publ_section_title
;
Structure prediction by ZEFSAII (Michael W. Deem and Ramdas Pophale) SiO2 
 PCOD8145665
Probable space group: C 2/C
;
_chemical_formula_sum "Si O2"
_cell_formula_units_Z 52
_cell_length_a 11.226135
_cell_length_b 25.221801
_cell_length_c 8.750269
_cell_angle_alpha 90.000000
_cell_angle_beta 91.409206
_cell_angle_gamma 90.000000
_cell_volume 2476.831075
_symmetry_space_group_name_H-M "C 2/C"
_symmetry_group_IT_number 15
_symmetry_cell_setting 'monoclinic'
loop_
_space_group_symop_operation_xyz
x,y,z
-x,y,1/2-z
-x,-y,-z
x,-y,1/2+z
1/2+x,1/2+y,z
1/2-x,1/2+y,1/2-z
1/2-x,1/2-y,-z
1/2+x,1/2-y,1/2+z
loop_
_atom_site_type_symbol
_atom_site_label
_atom_site_fract_x
_atom_site_fract_y
_atom_site_fract_z
Si Si1 0.741835 0.259688 0.673804
Si Si2 0.653408 0.609729 0.440747
Si Si3 0.627166 0.509031 0.273941
Si Si4 0.138115 0.631295 0.278111
Si Si5 0.634515 0.655064 0.759143
Si Si6 0.280967 0.572257 0.513826
Si Si7 0.000000 0.810363 0.750000
O O1 0.750000 0.250000 0.500000
O O2 0.832227 0.306747 0.715780
O O3 0.780638 0.206094 0.761287
O O4 0.604003 0.272161 0.697125
O O5 0.600241 0.551939 0.406598
O O6 0.781424 0.610034 0.358904
O O7 0.670713 0.615729 0.622327
O O8 0.558220 0.653486 0.382962
O O9 0.500000 0.478283 0.250000
O O10 0.657734 0.539827 0.120245
O O11 0.729351 0.468390 0.341525
O O12 0.162937 0.598392 0.436552
O O13 0.000000 0.622043 0.250000
O O14 0.500000 0.675708 0.750000
O O15 0.647972 0.623817 0.920861
#
# Coordination Sequence:
#
# PCOD8145665 Si02
#       7
#     8   8   8   8   8   8   4
#     4  11  22  39  63  92 127 171 207 259 318 365
#     4  10  22  39  64  93 128 165 208 261 318 371
#     4  11  20  37  64  92 128 164 199 265 330 375
#     4  10  23  43  63  87 128 171 214 259 311 375
#     4  12  23  37  62  96 130 165 213 256 310 382
#     4  11  23  39  60  95 125 162 214 262 318 374
#     4  10  22  40  62  90 134 162 214 260 308 376
#
# _framework density 20.994567
#
# number of rings (size 3 to 8) (size 9 to 14) (size 15 to 20)
#    0.000    1.231    2.308    4.154    2.154    3.692 
#    0.000    3.077    0.000    0.000    0.000    0.000 
#    0.000    0.000    0.000    0.000    0.000    0.000 
#
# Total GULP energy -322100.578480 kJ/mol
# GULP energy per Si atom -12388.483788 kJ/mol
# Density = 2.094678 g / cm^3
# Si number density = 20.994567 Si / 1000 Ang^3
#
#
#
# Elastic Constant Matrix: (Units=GPa)
#
#
# Indices 1 2 3 4 5 6 
#
# 1 134.0958 47.1161 54.5599 0.0000 26.2153 0.0000
# 2 47.1161 103.9904 45.1544 0.0000 6.5490 0.0000
# 3 54.5599 45.1544 108.2265 0.0000 11.8635 0.0000
# 4 0.0000 0.0000 0.0000 35.6213 0.0000 -0.2491
# 5 26.2153 6.5490 11.8635 0.0000 22.1075 0.0000
# 6 0.0000 0.0000 0.0000 -0.2491 0.0000 19.9619
#
#
#
# Elastic Compliance Matrix: (Units=1/GPa)
#
#
# Indices 1 2 3 4 5 6 
#
# 1 0.012376 -0.003318 -0.003563 0.000000 -0.011781 0.000000
# 2 -0.003318 0.012650 -0.003852 0.000000 0.002255 0.000000
# 3 -0.003563 -0.003852 0.012809 0.000000 -0.001507 0.000000
# 4 0.000000 0.000000 0.000000 0.028076 0.000000 0.000350
# 5 -0.011781 0.002255 -0.001507 0.000000 0.059344 0.000000
# 6 0.000000 0.000000 0.000000 0.000350 0.000000 0.050100
#
#
# Mechanical properties :
#
#
# Convention : Reuss Voigt Hill
#
# Bulk Modulus (GPa) = 61.09687 71.10815 66.10251
# Shear Modulus (GPa) = 24.71842 28.83696 26.77769
#
# Velocity S-wave (km/s) = 3.43501 3.71016 3.57523
# Velocity P-wave (km/s) = 6.70051 7.23167 6.97115
#
# Compressibility (1/GPa) = 0.01636745
#
# Stress axis : x y z
#
# Youngs Moduli (GPa) = 80.80050 79.04840 78.07166
#
# Poissons Ratio (x) = 0.26230 0.27820
# Poissons Ratio (y) = 0.26811 0.30076
# Poissons Ratio (z) = 0.28792 0.30452
#
# Static dielectric constant tensor:
#      x y z
#    x 3.295130 0.000000 0.144850 
#    y 0.000000 3.246080 0.000000 
#    z 0.144850 0.000000 4.031740 
# 
# 
# High freq. dielectric constant tensor:
#      x y z
#    x 1.786940 0.000000 0.005790 
#    y 0.000000 1.838250 0.000000 
#    z 0.005790 0.000000 1.837030 
# 
# From -- ./inp_files/33745.got.cif
#   From: 2010.06.25/outbox.cif.g09.slc.cpg/sg15_17_cif.got.tgz:33745.got - 2010.06.28 07:06:18.
