data_PCOD8145870
_publ_section_title
;
Structure prediction by ZEFSAII (Michael W. Deem and Ramdas Pophale) SiO2 
 PCOD8145870
Probable space group: C 2/C
;
_chemical_formula_sum "Si O2"
_cell_formula_units_Z 56
_cell_length_a 22.093122
_cell_length_b 18.170118
_cell_length_c 8.387170
_cell_angle_alpha 90.000000
_cell_angle_beta 55.548481
_cell_angle_gamma 90.000000
_cell_volume 2776.363539
_symmetry_space_group_name_H-M "C 2/C"
_symmetry_group_IT_number 15
_symmetry_cell_setting 'monoclinic'
loop_
_space_group_symop_operation_xyz
x,y,z
-x,y,1/2-z
-x,-y,-z
x,-y,1/2+z
1/2+x,1/2+y,z
1/2-x,1/2+y,1/2-z
1/2-x,1/2-y,-z
1/2+x,1/2-y,1/2+z
loop_
_atom_site_type_symbol
_atom_site_label
_atom_site_fract_x
_atom_site_fract_y
_atom_site_fract_z
Si Si1 0.152080 0.917266 0.534562
Si Si2 0.735091 0.471883 0.713752
Si Si3 0.462120 0.211987 0.966298
Si Si4 0.197976 0.333264 0.727002
Si Si5 0.000000 0.853421 0.750000
Si Si6 0.000000 0.356177 0.750000
Si Si7 0.842511 0.395849 0.029693
Si Si8 0.252134 0.208187 0.831724
O O1 0.203127 0.930084 0.610795
O O2 0.066228 0.907963 0.702518
O O3 0.178738 0.840522 0.417489
O O4 0.166281 0.985320 0.394711
O O5 0.770499 0.412706 0.776260
O O6 0.801837 0.526838 0.573056
O O7 0.378432 0.186171 0.072135
O O8 0.493528 0.190354 0.095022
O O9 0.500000 0.176028 0.750000
O O10 0.474768 0.300851 0.935242
O O11 0.186412 0.337049 0.556441
O O12 0.255523 0.269690 0.687793
O O13 0.070586 0.408899 0.620146
O O14 0.821257 0.349289 0.221009
O O15 0.250000 0.250000 0.000000
#
# Coordination Sequence:
#
# PCOD8145870 Si02
#       8
#     8   8   8   8   4   4   8   8
#     4  11  23  41  63  90 129 169 219 264 325 388
#     4  11  23  40  63  90 128 174 215 262 320 393
#     4   9  21  38  63  96 130 165 211 273 330 384
#     4  11  20  40  61  93 124 165 215 269 321 376
#     4  10  22  42  63  93 130 166 220 266 326 394
#     4  10  22  40  61  93 138 166 210 268 338 388
#     4  10  24  40  59  94 133 163 212 264 320 400
#     4  11  21  35  67  94 117 165 215 268 318 378
#
# _framework density 20.170268
#
# number of rings (size 3 to 8) (size 9 to 14) (size 15 to 20)
#    0.429    1.143    4.286    0.429    4.000    0.571 
#    1.286    2.857    0.000    0.857    0.000    0.000 
#    0.000    0.000    0.000    0.000    0.000    0.000 
#
# Total GULP energy -346889.313782 kJ/mol
# GULP energy per Si atom -12388.904064 kJ/mol
# Density = 2.012436 g / cm^3
# Si number density = 20.170268 Si / 1000 Ang^3
#
#
#
# Elastic Constant Matrix: (Units=GPa)
#
#
# Indices 1 2 3 4 5 6 
#
# 1 89.0023 44.8220 36.4639 0.0000 -15.4553 0.0000
# 2 44.8220 107.4569 40.6293 0.0000 -20.0549 0.0000
# 3 36.4639 40.6293 81.1828 0.0000 -14.6694 0.0000
# 4 0.0000 0.0000 0.0000 23.4761 0.0000 -0.9046
# 5 -15.4553 -20.0549 -14.6694 0.0000 44.1850 0.0000
# 6 0.0000 0.0000 0.0000 -0.9046 0.0000 26.4897
#
#
#
# Elastic Compliance Matrix: (Units=1/GPa)
#
#
# Indices 1 2 3 4 5 6 
#
# 1 0.015651 -0.004487 -0.004429 0.000000 0.001968 0.000000
# 2 -0.004487 0.013301 -0.004079 0.000000 0.003113 0.000000
# 3 -0.004429 -0.004079 0.016738 0.000000 0.002157 0.000000
# 4 0.000000 0.000000 0.000000 0.042653 0.000000 0.001456
# 5 0.001968 0.003113 0.002157 0.000000 0.025450 0.000000
# 6 0.000000 0.000000 0.000000 0.001456 0.000000 0.037800
#
#
# Mechanical properties :
#
#
# Convention : Reuss Voigt Hill
#
# Bulk Modulus (GPa) = 50.75736 57.94136 54.34936
# Shear Modulus (GPa) = 27.15197 29.21195 28.18196
#
# Velocity S-wave (km/s) = 3.67296 3.80974 3.74197
# Velocity P-wave (km/s) = 6.57317 6.93835 6.75822
#
# Compressibility (1/GPa) = 0.01970158
#
# Stress axis : x y z
#
# Youngs Moduli (GPa) = 63.89212 75.18371 59.74366
#
# Poissons Ratio (x) = 0.33732 0.26460
# Poissons Ratio (y) = 0.28666 0.24368
# Poissons Ratio (z) = 0.28298 0.30666
#
# Static dielectric constant tensor:
#      x y z
#    x 3.572850 0.000000 -0.023260 
#    y 0.000000 3.612730 0.000000 
#    z -0.023260 0.000000 3.792240 
# 
# 
# High freq. dielectric constant tensor:
#      x y z
#    x 1.777710 0.000000 0.001250 
#    y 0.000000 1.784410 0.000000 
#    z 0.001250 0.000000 1.790860 
# 
# From -- ./inp_files/62705.got.cif
#   From: 2010.06.25/outbox.cif.g09.slc.cpg/sg15_32_cif.got.tgz:62705.got - 2010.06.28 07:06:18.
