data_PCOD8145237
_publ_section_title
;
Structure prediction by ZEFSAII (Michael W. Deem and Ramdas Pophale) SiO2 
 PCOD8145237
Probable space group: C 2/C
;
_chemical_formula_sum "Si O2"
_cell_formula_units_Z 36
_cell_length_a 13.683497
_cell_length_b 26.877300
_cell_length_c 14.133060
_cell_angle_alpha 90.000000
_cell_angle_beta 159.529226
_cell_angle_gamma 90.000000
_cell_volume 1817.821645
_symmetry_space_group_name_H-M "C 2/C"
_symmetry_group_IT_number 15
_symmetry_cell_setting 'monoclinic'
loop_
_space_group_symop_operation_xyz
x,y,z
-x,y,1/2-z
-x,-y,-z
x,-y,1/2+z
1/2+x,1/2+y,z
1/2-x,1/2+y,1/2-z
1/2-x,1/2-y,-z
1/2+x,1/2-y,1/2+z
loop_
_atom_site_type_symbol
_atom_site_label
_atom_site_fract_x
_atom_site_fract_y
_atom_site_fract_z
Si Si1 0.797783 0.141260 0.330708
Si Si2 0.218894 0.471613 0.760623
Si Si3 0.000000 0.559450 0.250000
Si Si4 0.716928 0.356516 0.378501
Si Si5 0.883389 0.216961 0.244103
O O1 0.717629 0.085814 0.225425
O O2 0.889265 0.172262 0.323138
O O3 0.063206 0.135819 0.639639
O O4 0.525444 0.166654 0.136138
O O5 0.153888 0.475159 0.813543
O O6 0.000000 0.500000 0.500000
O O7 0.500000 0.500000 0.000000
O O8 0.228530 0.592837 0.512936
O O9 0.500000 0.325034 0.250000
O O10 0.000000 0.196483 0.250000
O O11 0.069662 0.263029 0.449020
#
# Coordination Sequence:
#
# PCOD8145237 Si02
#       5
#     8   8   4   8   8
#     4  11  22  37  64  92 119 158 209 253 296 372
#     4  11  23  37  58  88 122 159 206 251 303 360
#     4  10  22  38  60  80 120 172 206 232 308 372
#     4  11  18  35  63  87 110 161 206 232 292 371
#     4  10  22  43  68  92 122 163 203 252 319 379
#
# _framework density 19.803923000000001
#
# number of rings (size 3 to 8) (size 9 to 14) (size 15 to 20)
#    0.000    1.333    4.444    4.000    0.000    0.000 
#    4.000    0.000    0.000   13.333    0.000    0.000 
#    0.000    0.000    0.000    0.000    0.000    0.000 
#
# Total GULP energy -223041.271726 kJ/mol
# GULP energy per Si atom -12391.181763 kJ/mol
# Density = 1.975885 g / cm^3
# Si number density = 19.803923 Si / 1000 Ang^3
#
#
#
# Elastic Constant Matrix: (Units=GPa)
#
#
# Indices 1 2 3 4 5 6 
#
# 1 174.3202 68.5727 56.9546 -0.0207 -5.3055 -0.0079
# 2 68.5727 65.3561 22.8579 -0.0158 -7.9936 -0.0059
# 3 56.9546 22.8579 138.8021 -0.0490 -7.3351 -0.0229
# 4 -0.0207 -0.0158 -0.0490 18.4428 -0.0185 -10.3425
# 5 -5.3055 -7.9936 -7.3351 -0.0185 42.6776 -0.0071
# 6 -0.0079 -0.0059 -0.0229 -10.3425 -0.0071 39.7433
#
#
#
# Elastic Compliance Matrix: (Units=1/GPa)
#
#
# Indices 1 2 3 4 5 6 
#
# 1 0.010680 -0.010384 -0.002730 -0.000007 -0.001086 -0.000003
# 2 -0.010384 0.026624 0.000072 0.000019 0.003708 0.000008
# 3 -0.002730 0.000072 0.008372 0.000027 0.001113 0.000011
# 4 -0.000007 0.000019 0.000027 0.063487 0.000038 0.016521
# 5 -0.001086 0.003708 0.001113 0.000038 0.024182 0.000015
# 6 -0.000003 0.000008 0.000011 0.016521 0.000015 0.029461
#
#
# Mechanical properties :
#
#
# Convention : Reuss Voigt Hill
#
# Bulk Modulus (GPa) = 51.03856 75.02767 63.03311
# Shear Modulus (GPa) = 25.58603 35.51231 30.54917
#
# Velocity S-wave (km/s) = 3.59829 4.23921 3.93183
# Velocity P-wave (km/s) = 6.56441 7.86948 7.24639
#
# Compressibility (1/GPa) = 0.01959303
#
# Stress axis : x y z
#
# Youngs Moduli (GPa) = 93.63178 37.56004 119.45260
#
# Poissons Ratio (x) = 0.39002 0.32608
# Poissons Ratio (y) = 0.97227 -0.00864
# Poissons Ratio (z) = 0.25559 -0.00272
#
# Static dielectric constant tensor:
#      x y z
#    x 4.042320 -0.000010 0.216900 
#    y -0.000010 3.198140 0.000000 
#    z 0.216900 0.000000 3.854040 
# 
# 
# High freq. dielectric constant tensor:
#      x y z
#    x 1.787940 0.000000 0.006390 
#    y 0.000000 1.716950 0.000000 
#    z 0.006390 0.000000 1.804260 
# 
# From -- ./inp_files/156870.got.cif
#   From: 2010.06.25/outbox.cif.g09.slc.cpg/sg15_79_cif.got.tgz:156870.got - 2010.06.28 07:06:18.
