data_PCOD8145087
_publ_section_title
;
Structure prediction by ZEFSAII (Michael W. Deem and Ramdas Pophale) SiO2 
 PCOD8145087
Probable space group: C 2/C
;
_chemical_formula_sum "Si O2"
_cell_formula_units_Z 52
_cell_length_a 16.079308
_cell_length_b 21.875680
_cell_length_c 8.803862
_cell_angle_alpha 90.000000
_cell_angle_beta 53.186810
_cell_angle_gamma 90.000000
_cell_volume 2479.214907
_symmetry_space_group_name_H-M "C 2/C"
_symmetry_group_IT_number 15
_symmetry_cell_setting 'monoclinic'
loop_
_space_group_symop_operation_xyz
x,y,z
-x,y,1/2-z
-x,-y,-z
x,-y,1/2+z
1/2+x,1/2+y,z
1/2-x,1/2+y,1/2-z
1/2-x,1/2-y,-z
1/2+x,1/2-y,1/2+z
loop_
_atom_site_type_symbol
_atom_site_label
_atom_site_fract_x
_atom_site_fract_y
_atom_site_fract_z
Si Si1 0.519977 0.098124 0.908475
Si Si2 0.341833 0.656048 0.641773
Si Si3 0.803852 0.577311 0.304321
Si Si4 0.368734 0.221368 0.681280
Si Si5 0.819092 0.195469 0.986464
Si Si6 0.286288 0.959217 0.171663
Si Si7 0.000000 0.205093 0.250000
O O1 0.500000 0.099124 0.750000
O O2 0.563790 0.161771 0.925356
O O3 0.605294 0.046973 0.854759
O O4 0.418514 0.086411 0.116214
O O5 0.253366 0.704216 0.682871
O O6 0.376624 0.666612 0.778415
O O7 0.298704 0.587678 0.670267
O O8 0.447487 0.661768 0.432101
O O9 0.746219 0.642264 0.357875
O O10 0.747427 0.527889 0.254680
O O11 0.805944 0.551094 0.472551
O O12 0.395078 0.272687 0.524572
O O13 0.406431 0.251542 0.796078
O O14 0.750000 0.250000 0.000000
#
# Coordination Sequence:
#
# PCOD8145087 Si02
#       7
#     8   8   8   8   8   8   4
#     4  11  22  36  57  94 128 164 200 253 314 383
#     4   9  22  41  58  88 121 162 209 258 311 364
#     4  11  22  39  65  88 120 172 204 255 318 368
#     4  10  22  37  58  89 128 158 208 259 305 376
#     4   9  21  40  61  87 124 163 208 259 307 373
#     4  10  22  40  59  88 123 157 210 258 306 373
#     4  12  22  36  62  90 124 166 202 258 314 372
#
# _framework density 20.974381000000001
#
# number of rings (size 3 to 8) (size 9 to 14) (size 15 to 20)
#    0.000    1.846    0.769    3.231    4.308    4.308 
#    5.538    0.000    0.000    8.308    0.000    0.000 
#    0.000    0.000    0.000    0.000    0.000    0.000 
#
# Total GULP energy -322264.517531 kJ/mol
# GULP energy per Si atom -12394.789136 kJ/mol
# Density = 2.092664 g / cm^3
# Si number density = 20.974381 Si / 1000 Ang^3
#
#
#
# Elastic Constant Matrix: (Units=GPa)
#
#
# Indices 1 2 3 4 5 6 
#
# 1 55.6656 19.8295 23.6934 0.0000 19.3687 0.0000
# 2 19.8295 121.2564 56.8854 0.0000 2.5199 0.0000
# 3 23.6934 56.8854 115.7357 0.0000 -3.6160 0.0000
# 4 0.0000 0.0000 0.0000 29.3437 0.0000 11.9139
# 5 19.3687 2.5199 -3.6160 0.0000 25.9354 0.0000
# 6 0.0000 0.0000 0.0000 11.9139 0.0000 30.8971
#
#
#
# Elastic Compliance Matrix: (Units=1/GPa)
#
#
# Indices 1 2 3 4 5 6 
#
# 1 0.028651 -0.001497 -0.005819 0.000000 -0.022063 0.000000
# 2 -0.001497 0.010880 -0.005061 0.000000 -0.000645 0.000000
# 3 -0.005819 -0.005061 0.012525 0.000000 0.006584 0.000000
# 4 0.000000 0.000000 0.000000 0.040405 0.000000 -0.015580
# 5 -0.022063 -0.000645 0.006584 0.000000 0.056014 0.000000
# 6 0.000000 0.000000 0.000000 -0.015580 0.000000 0.038373
#
#
# Mechanical properties :
#
#
# Convention : Reuss Voigt Hill
#
# Bulk Modulus (GPa) = 36.62817 54.83047 45.72932
# Shear Modulus (GPa) = 22.65498 30.05188 26.35343
#
# Velocity S-wave (km/s) = 3.29009 3.78933 3.54850
# Velocity P-wave (km/s) = 5.65103 6.73378 6.21602
#
# Compressibility (1/GPa) = 0.02730139
#
# Stress axis : x y z
#
# Youngs Moduli (GPa) = 34.90264 91.91584 79.84105
#
# Poissons Ratio (x) = 0.13760 0.46459
# Poissons Ratio (y) = 0.05225 0.40408
# Poissons Ratio (z) = 0.20310 0.46519
#
# Static dielectric constant tensor:
#      x y z
#    x 4.266920 0.000000 0.598630 
#    y 0.000000 4.105700 0.000000 
#    z 0.598630 0.000000 3.806780 
# 
# 
# High freq. dielectric constant tensor:
#      x y z
#    x 1.804870 0.000000 0.021400 
#    y 0.000000 1.831940 0.000000 
#    z 0.021400 0.000000 1.815310 
# 
# From -- ./inp_files/50588.got.cif
#   From: 2010.06.25/outbox.cif.g09.slc.cpg/sg15_26_cif.got.tgz:50588.got - 2010.06.28 07:06:18.
