data_PCOD8145202
_publ_section_title
;
Structure prediction by ZEFSAII (Michael W. Deem and Ramdas Pophale) SiO2 
 PCOD8145202
Probable space group: C 2/C
;
_chemical_formula_sum "Si O2"
_cell_formula_units_Z 60
_cell_length_a 20.198351
_cell_length_b 28.206966
_cell_length_c 14.479705
_cell_angle_alpha 90.000000
_cell_angle_beta 158.929102
_cell_angle_gamma 90.000000
_cell_volume 2965.913978
_symmetry_space_group_name_H-M "C 2/C"
_symmetry_group_IT_number 15
_symmetry_cell_setting 'monoclinic'
loop_
_space_group_symop_operation_xyz
x,y,z
-x,y,1/2-z
-x,-y,-z
x,-y,1/2+z
1/2+x,1/2+y,z
1/2-x,1/2+y,1/2-z
1/2-x,1/2-y,-z
1/2+x,1/2-y,1/2+z
loop_
_atom_site_type_symbol
_atom_site_label
_atom_site_fract_x
_atom_site_fract_y
_atom_site_fract_z
Si Si1 0.602864 0.550324 0.135869
Si Si2 0.675729 0.697327 0.914735
Si Si3 0.658009 0.315827 0.833434
Si Si4 0.192496 0.912587 0.953778
Si Si5 0.516040 0.121457 0.162302
Si Si6 0.116010 0.139667 0.660543
Si Si7 0.538834 0.052757 0.023648
Si Si8 0.500000 0.762419 0.250000
O O1 0.687131 0.562852 0.346079
O O2 0.772128 0.554455 0.286252
O O3 0.500000 0.500000 0.000000
O O4 0.444978 0.586317 0.892790
O O5 0.500000 0.697669 0.750000
O O6 0.602035 0.677139 0.723431
O O7 0.750000 0.750000 0.000000
O O8 0.838081 0.663539 0.162684
O O9 0.718208 0.354997 0.987501
O O10 0.527487 0.345521 0.600991
O O11 0.551025 0.270043 0.730438
O O12 0.832521 0.296626 0.003644
O O13 0.000000 0.926957 0.750000
O O14 0.366713 0.929695 0.239255
O O15 0.500000 0.104810 0.250000
O O16 0.567406 0.080158 0.158073
O O17 0.316336 0.141014 0.874801
O O18 0.500000 0.000000 0.000000
#
# Coordination Sequence:
#
# PCOD8145202 Si02
#       8
#     8   8   8   8   8   8   8   4
#     4  11  24  43  67  98 129 167 215 264 324 391
#     4  11  23  42  63  93 128 170 221 269 321 382
#     4  10  22  39  60  91 127 163 208 256 317 368
#     4  11  23  42  66  92 134 167 209 268 317 382
#     4  10  23  43  67  93 129 170 216 272 321 387
#     4  10  22  41  64  91 127 168 210 267 322 377
#     4  12  25  42  67  98 126 171 214 260 331 387
#     4  10  22  38  58  90 126 164 210 254 302 384
#
# _framework density 20.229852999999999
#
# number of rings (size 3 to 8) (size 9 to 14) (size 15 to 20)
#    0.000    1.333    0.667    5.600    3.733    5.333 
#    2.400    4.000    0.000    0.000    0.000    0.000 
#    0.000    0.000    0.000    0.000    0.000    0.000 
#
# Total GULP energy -371838.983434 kJ/mol
# GULP energy per Si atom -12394.632781 kJ/mol
# Density = 2.018381 g / cm^3
# Si number density = 20.229853 Si / 1000 Ang^3
#
#
#
# Elastic Constant Matrix: (Units=GPa)
#
#
# Indices 1 2 3 4 5 6 
#
# 1 137.7851 71.4016 60.3461 -0.0001 28.5101 0.0000
# 2 71.4016 125.9487 72.5623 0.0000 -4.5379 0.0000
# 3 60.3461 72.5623 133.6960 -0.0003 24.7227 0.0000
# 4 -0.0001 0.0000 -0.0003 29.6719 -0.0001 4.1312
# 5 28.5101 -4.5379 24.7227 -0.0001 42.5263 0.0001
# 6 0.0000 0.0000 0.0000 4.1312 0.0001 37.2716
#
#
#
# Elastic Compliance Matrix: (Units=1/GPa)
#
#
# Indices 1 2 3 4 5 6 
#
# 1 0.013424 -0.008057 0.000153 0.000000 -0.009949 0.000000
# 2 -0.008057 0.017645 -0.008164 0.000000 0.012031 0.000000
# 3 0.000153 -0.008164 0.013470 0.000000 -0.008805 0.000000
# 4 0.000000 0.000000 0.000000 0.034230 0.000000 -0.003794
# 5 -0.009949 0.012031 -0.008805 0.000000 0.036587 0.000000
# 6 0.000000 0.000000 0.000000 -0.003794 0.000000 0.027251
#
#
# Mechanical properties :
#
#
# Convention : Reuss Voigt Hill
#
# Bulk Modulus (GPa) = 80.63083 89.56106 85.09595
# Shear Modulus (GPa) = 27.95212 34.76863 31.36037
#
# Velocity S-wave (km/s) = 3.72119 4.15019 3.94153
# Velocity P-wave (km/s) = 7.64244 8.20569 7.92907
#
# Compressibility (1/GPa) = 0.01240220
#
# Stress axis : x y z
#
# Youngs Moduli (GPa) = 74.49099 56.67433 74.24050
#
# Poissons Ratio (x) = 0.45664 -0.01138
# Poissons Ratio (y) = 0.60019 0.60613
# Poissons Ratio (z) = -0.01142 0.46271
#
# Static dielectric constant tensor:
#      x y z
#    x 3.715180 0.000000 0.163450 
#    y 0.000000 4.568840 0.000000 
#    z 0.163450 0.000000 3.969640 
# 
# 
# High freq. dielectric constant tensor:
#      x y z
#    x 1.794280 0.000000 0.015230 
#    y 0.000000 1.804100 0.000000 
#    z 0.015230 0.000000 1.804780 
# 
# From -- ./inp_files/169958.got.cif
#   From: 2010.06.25/outbox.cif.g09.slc.cpg/sg15_85_cif.got.tgz:169958.got - 2010.06.28 07:06:18.
