data_PCOD8145508
_publ_section_title
;
Structure prediction by ZEFSAII (Michael W. Deem and Ramdas Pophale) SiO2 
 PCOD8145508
Probable space group: C 2/C
;
_chemical_formula_sum "Si O2"
_cell_formula_units_Z 48
_cell_length_a 26.119637
_cell_length_b 13.602850
_cell_length_c 11.791381
_cell_angle_alpha 90.000000
_cell_angle_beta 144.299688
_cell_angle_gamma 90.000000
_cell_volume 2444.761750
_symmetry_space_group_name_H-M "C 2/C"
_symmetry_group_IT_number 15
_symmetry_cell_setting 'monoclinic'
loop_
_space_group_symop_operation_xyz
x,y,z
-x,y,1/2-z
-x,-y,-z
x,-y,1/2+z
1/2+x,1/2+y,z
1/2-x,1/2+y,1/2-z
1/2-x,1/2-y,-z
1/2+x,1/2-y,1/2+z
loop_
_atom_site_type_symbol
_atom_site_label
_atom_site_fract_x
_atom_site_fract_y
_atom_site_fract_z
Si Si1 0.630531 0.395402 0.033531
Si Si2 0.083574 0.372777 0.161752
Si Si3 0.413722 0.388177 0.016414
Si Si4 0.318335 0.186814 0.876285
Si Si5 0.541453 0.665039 0.155526
Si Si6 0.062768 0.555289 0.262053
O O1 0.715924 0.329930 0.211888
O O2 0.641999 0.511335 0.079448
O O3 0.558440 0.347370 0.985442
O O4 0.604441 0.392669 0.854592
O O5 0.159950 0.359486 0.207033
O O6 0.070632 0.278034 0.216294
O O7 0.110979 0.461553 0.293833
O O8 0.991738 0.390044 0.933124
O O9 0.500000 0.390630 0.250000
O O10 0.347642 0.300711 0.932974
O O11 0.448279 0.376060 0.951587
O O12 0.367024 0.132013 0.065923
O O13 0.000000 0.517963 0.250000
#
# Coordination Sequence:
#
# PCOD8145508 Si02
#       6
#     8   8   8   8   8   8
#     4  11  24  38  61  96 117 161 209 257 301 362
#     4   9  19  37  62  85 119 163 193 251 308 362
#     4  11  22  44  68  83 124 171 201 250 308 374
#     4  10  22  39  59  92 123 155 206 250 309 352
#     4  10  22  41  63  86 121 162 213 241 306 371
#     4   9  18  36  59  88 120 158 199 239 306 376
#
# _framework density 19.633815999999999
#
# number of rings (size 3 to 8) (size 9 to 14) (size 15 to 20)
#    0.000    2.000    1.667    3.000    2.333    5.333 
#    6.000    1.667    0.000    0.000    0.000    0.000 
#    0.000    0.000    0.000    0.000    0.000    0.000 
#
# Total GULP energy -297612.255259 kJ/mol
# GULP energy per Si atom -12400.510636 kJ/mol
# Density = 1.958913 g / cm^3
# Si number density = 19.633816 Si / 1000 Ang^3
#
#
#
# Elastic Constant Matrix: (Units=GPa)
#
#
# Indices 1 2 3 4 5 6 
#
# 1 74.1927 53.1184 46.5895 0.0000 -6.8516 0.0000
# 2 53.1184 112.2172 26.5056 0.0000 2.8465 0.0000
# 3 46.5895 26.5056 77.3282 0.0000 11.3338 0.0000
# 4 0.0000 0.0000 0.0000 26.8651 0.0000 -4.2613
# 5 -6.8516 2.8465 11.3338 0.0000 34.5779 0.0000
# 6 0.0000 0.0000 0.0000 -4.2613 0.0000 35.5972
#
#
#
# Elastic Compliance Matrix: (Units=1/GPa)
#
#
# Indices 1 2 3 4 5 6 
#
# 1 0.036548 -0.013016 -0.019725 0.000000 0.014779 0.000000
# 2 -0.013016 0.014335 0.003655 0.000000 -0.004957 0.000000
# 3 -0.019725 0.003655 0.025400 0.000000 -0.012535 0.000000
# 4 0.000000 0.000000 0.000000 0.037943 0.000000 0.004542
# 5 0.014779 -0.004957 -0.012535 0.000000 0.036365 0.000000
# 6 0.000000 0.000000 0.000000 0.004542 0.000000 0.028636
#
#
# Mechanical properties :
#
#
# Convention : Reuss Voigt Hill
#
# Bulk Modulus (GPa) = 55.21165 57.35169 56.28167
# Shear Modulus (GPa) = 20.53926 28.57635 24.55780
#
# Velocity S-wave (km/s) = 3.23788 3.81920 3.54049
# Velocity P-wave (km/s) = 6.49309 6.98015 6.74102
#
# Compressibility (1/GPa) = 0.01811212
#
# Stress axis : x y z
#
# Youngs Moduli (GPa) = 27.36111 69.75960 39.37003
#
# Poissons Ratio (x) = 0.90800 0.77655
# Poissons Ratio (y) = 0.35614 -0.14390
# Poissons Ratio (z) = 0.53968 -0.25498
#
# Static dielectric constant tensor:
#      x y z
#    x 3.577430 0.000000 -0.162720 
#    y 0.000000 3.823020 0.000000 
#    z -0.162720 0.000000 3.452120 
# 
# 
# High freq. dielectric constant tensor:
#      x y z
#    x 1.764140 0.000000 -0.015190 
#    y 0.000000 1.776370 0.000000 
#    z -0.015190 0.000000 1.755410 
# 
# From -- ./inp_files/123600.got.cif
#   From: 2010.06.25/outbox.cif.g09.slc.cpg/sg15_62_cif.got.tgz:123600.got - 2010.06.28 07:06:18.
