data_PCOD8145724
_publ_section_title
;
Structure prediction by ZEFSAII (Michael W. Deem and Ramdas Pophale) SiO2 
 PCOD8145724
Probable space group: C 2/C
;
_chemical_formula_sum "Si O2"
_cell_formula_units_Z 44
_cell_length_a 6.559157
_cell_length_b 28.224233
_cell_length_c 10.950764
_cell_angle_alpha 90.000000
_cell_angle_beta 74.454653
_cell_angle_gamma 90.000000
_cell_volume 1953.123211
_symmetry_space_group_name_H-M "C 2/C"
_symmetry_group_IT_number 15
_symmetry_cell_setting 'monoclinic'
loop_
_space_group_symop_operation_xyz
x,y,z
-x,y,1/2-z
-x,-y,-z
x,-y,1/2+z
1/2+x,1/2+y,z
1/2-x,1/2+y,1/2-z
1/2-x,1/2-y,-z
1/2+x,1/2-y,1/2+z
loop_
_atom_site_type_symbol
_atom_site_label
_atom_site_fract_x
_atom_site_fract_y
_atom_site_fract_z
Si Si1 0.930188 0.533062 0.124989
Si Si2 0.620287 0.336229 0.883914
Si Si3 0.721903 0.174721 0.596156
Si Si4 0.132985 0.617662 0.965882
Si Si5 0.500000 0.576829 0.250000
Si Si6 0.000000 0.241911 0.250000
Si Si7 0.500000 0.372646 0.250000
O O1 0.677403 0.542318 0.162146
O O2 0.000000 0.514101 0.250000
O O3 0.000000 0.500000 0.000000
O O4 0.049123 0.581850 0.080180
O O5 0.617495 0.389204 0.828210
O O6 0.676958 0.293321 0.782985
O O7 0.379267 0.323226 0.957794
O O8 0.781857 0.336687 0.971391
O O9 0.546128 0.134315 0.598907
O O10 0.613216 0.225464 0.631332
O O11 0.847038 0.161120 0.697718
O O12 0.339545 0.596135 0.859889
#
# Coordination Sequence:
#
# PCOD8145724 Si02
#       7
#     8   8   8   8   4   4   4
#     4  12  28  49  76 112 144 185 243 302 366 444
#     4  10  23  40  68  94 133 192 233 289 352 438
#     4  11  21  41  61  97 140 183 244 301 349 428
#     4  11  22  44  71  95 138 192 235 290 374 431
#     4  11  22  49  74 100 146 180 240 278 367 439
#     4  11  22  40  58 101 138 182 245 306 352 405
#     4  10  22  39  66  97 138 190 239 292 369 426
#
# _framework density 22.528020999999999
#
# number of rings (size 3 to 8) (size 9 to 14) (size 15 to 20)
#    0.000    1.091    5.455    0.545    0.000    3.636 
#    3.273    0.000    0.000    0.000    0.000    0.000 
#    0.000    0.000    0.000    0.000    0.000    0.000 
#
# Total GULP energy -272595.839535 kJ/mol
# GULP energy per Si atom -12390.719979 kJ/mol
# Density = 2.247675 g / cm^3
# Si number density = 22.528021 Si / 1000 Ang^3
#
#
#
# Elastic Constant Matrix: (Units=GPa)
#
#
# Indices 1 2 3 4 5 6 
#
# 1 107.4522 43.8865 47.7875 0.0000 6.5850 0.0000
# 2 43.8865 79.3538 45.7199 0.0000 -8.5794 0.0000
# 3 47.7875 45.7199 124.4112 0.0000 0.9742 0.0000
# 4 0.0000 0.0000 0.0000 44.5134 0.0000 -4.6539
# 5 6.5850 -8.5794 0.9742 0.0000 48.9153 0.0000
# 6 0.0000 0.0000 0.0000 -4.6539 0.0000 13.2526
#
#
#
# Elastic Compliance Matrix: (Units=1/GPa)
#
#
# Indices 1 2 3 4 5 6 
#
# 1 0.013170 -0.005937 -0.002856 0.000000 -0.002757 0.000000
# 2 -0.005937 0.019091 -0.004769 0.000000 0.004243 0.000000
# 3 -0.002856 -0.004769 0.010892 0.000000 -0.000669 0.000000
# 4 0.000000 0.000000 0.000000 0.023321 0.000000 0.008190
# 5 -0.002757 0.004243 -0.000669 0.000000 0.021572 0.000000
# 6 0.000000 0.000000 0.000000 0.008190 0.000000 0.078333
#
#
# Mechanical properties :
#
#
# Convention : Reuss Voigt Hill
#
# Bulk Modulus (GPa) = 62.37534 65.11166 63.74350
# Shear Modulus (GPa) = 25.14510 32.92447 29.03478
#
# Velocity S-wave (km/s) = 3.34454 3.82709 3.59392
# Velocity P-wave (km/s) = 6.53166 6.96377 6.75117
#
# Compressibility (1/GPa) = 0.01603198
#
# Stress axis : x y z
#
# Youngs Moduli (GPa) = 75.92997 52.38008 91.80705
#
# Poissons Ratio (x) = 0.31096 0.26216
# Poissons Ratio (y) = 0.45076 0.43781
# Poissons Ratio (z) = 0.21682 0.24979
#
# Static dielectric constant tensor:
#      x y z
#    x 4.120350 0.000000 -0.221220 
#    y 0.000000 3.685290 0.000000 
#    z -0.221220 0.000000 4.404770 
# 
# 
# High freq. dielectric constant tensor:
#      x y z
#    x 1.891590 0.000000 -0.004570 
#    y 0.000000 1.851660 0.000000 
#    z -0.004570 0.000000 1.912410 
# 
# From -- ./inp_files/73930.got.cif
#   From: 2010.06.25/outbox.cif.g09.slc.cpg/sg15_37_cif.got.tgz:73930.got - 2010.06.28 07:06:18.
