data_PCOD8145177
_publ_section_title
;
Structure prediction by ZEFSAII (Michael W. Deem and Ramdas Pophale) SiO2 
 PCOD8145177
Probable space group: C 2/C
;
_chemical_formula_sum "Si O2"
_cell_formula_units_Z 48
_cell_length_a 28.232192
_cell_length_b 8.780612
_cell_length_c 10.338918
_cell_angle_alpha 90.000000
_cell_angle_beta 90.774864
_cell_angle_gamma 90.000000
_cell_volume 2562.741253
_symmetry_space_group_name_H-M "C 2/C"
_symmetry_group_IT_number 15
_symmetry_cell_setting 'monoclinic'
loop_
_space_group_symop_operation_xyz
x,y,z
-x,y,1/2-z
-x,-y,-z
x,-y,1/2+z
1/2+x,1/2+y,z
1/2-x,1/2+y,1/2-z
1/2-x,1/2-y,-z
1/2+x,1/2-y,1/2+z
loop_
_atom_site_type_symbol
_atom_site_label
_atom_site_fract_x
_atom_site_fract_y
_atom_site_fract_z
Si Si1 0.947188 0.108656 0.391747
Si Si2 0.225563 0.179491 0.121165
Si Si3 0.556687 0.362234 0.899235
Si Si4 0.129146 0.408243 0.369959
Si Si5 0.236730 0.658738 0.875366
Si Si6 0.128092 0.346984 0.088576
O O1 0.935330 0.062556 0.242452
O O2 0.919887 0.257594 0.432870
O O3 0.000846 0.164573 0.413763
O O4 0.929000 0.973866 0.483913
O O5 0.251277 0.251131 0.246965
O O6 0.170319 0.224364 0.109721
O O7 0.235081 0.999863 0.124930
O O8 0.250000 0.250000 0.000000
O O9 0.587775 0.208476 0.913304
O O10 0.180519 0.337637 0.383512
O O11 0.122895 0.451925 0.217665
O O12 0.131556 0.555616 0.459468
O O13 0.250000 0.750000 0.000000
#
# Coordination Sequence:
#
# PCOD8145177 Si02
#       6
#     8   8   8   8   8   8
#     4   9  19  37  58  84 114 147 188 237 287 346
#     4  11  22  40  59  83 117 153 195 241 292 345
#     4   9  19  37  59  83 114 147 188 237 288 346
#     4  10  22  38  56  83 115 149 190 236 287 343
#     4  11  24  39  59  85 115 155 194 241 291 346
#     4  10  22  38  57  84 115 150 192 238 286 345
#
# _framework density 18.729944
#
# number of rings (size 3 to 8) (size 9 to 14) (size 15 to 20)
#    0.000    2.000    1.667    1.000    4.667    2.000 
#    3.000    0.000    0.000    0.000    0.000    0.000 
#    0.000    0.000    0.000    0.000    0.000    0.000 
#
# Total GULP energy -297385.566933 kJ/mol
# GULP energy per Si atom -12391.065289 kJ/mol
# Density = 1.868731 g / cm^3
# Si number density = 18.729944 Si / 1000 Ang^3
#
#
#
# Elastic Constant Matrix: (Units=GPa)
#
#
# Indices 1 2 3 4 5 6 
#
# 1 66.2034 38.7051 42.5773 0.0000 -0.5576 0.0000
# 2 38.7051 115.5580 74.4730 0.0000 3.7625 0.0000
# 3 42.5773 74.4730 141.3555 0.0000 -1.8071 0.0000
# 4 0.0000 0.0000 0.0000 40.7488 0.0000 -5.3894
# 5 -0.5576 3.7625 -1.8071 0.0000 24.4017 0.0000
# 6 0.0000 0.0000 0.0000 -5.3894 0.0000 25.4316
#
#
#
# Elastic Compliance Matrix: (Units=1/GPa)
#
#
# Indices 1 2 3 4 5 6 
#
# 1 0.020054 -0.004328 -0.003749 0.000000 0.000848 0.000000
# 2 -0.004328 0.014195 -0.006210 0.000000 -0.002748 0.000000
# 3 -0.003749 -0.006210 0.011497 0.000000 0.001723 0.000000
# 4 0.000000 0.000000 0.000000 0.025248 0.000000 0.005351
# 5 0.000848 -0.002748 0.001723 0.000000 0.041551 0.000000
# 6 0.000000 0.000000 0.000000 0.005351 0.000000 0.040455
#
#
# Mechanical properties :
#
#
# Convention : Reuss Voigt Hill
#
# Bulk Modulus (GPa) = 58.23681 70.51421 64.37551
# Shear Modulus (GPa) = 26.69521 29.27384 27.98452
#
# Velocity S-wave (km/s) = 3.77937 3.95770 3.86956
# Velocity P-wave (km/s) = 7.08556 7.65598 7.37629
#
# Compressibility (1/GPa) = 0.01717127
#
# Stress axis : x y z
#
# Youngs Moduli (GPa) = 49.86597 70.44750 86.97594
#
# Poissons Ratio (x) = 0.30491 0.32609
# Poissons Ratio (y) = 0.21583 0.54012
# Poissons Ratio (z) = 0.18696 0.43748
#
# Static dielectric constant tensor:
#      x y z
#    x 3.941870 0.000000 -0.150760 
#    y 0.000000 2.820770 0.000000 
#    z -0.150760 0.000000 3.889050 
# 
# 
# High freq. dielectric constant tensor:
#      x y z
#    x 1.737750 0.000000 -0.003220 
#    y 0.000000 1.706230 0.000000 
#    z -0.003220 0.000000 1.752190 
# 
# From -- ./inp_files/68543.got.cif
#   From: 2010.06.25/outbox.cif.g09.slc.cpg/sg15_35_cif.got.tgz:68543.got - 2010.06.28 07:06:18.
