data_PCOD8145279
_publ_section_title
;
Structure prediction by ZEFSAII (Michael W. Deem and Ramdas Pophale) SiO2 
 PCOD8145279
Probable space group: C 2/C
;
_chemical_formula_sum "Si O2"
_cell_formula_units_Z 52
_cell_length_a 11.265446
_cell_length_b 26.324707
_cell_length_c 8.580795
_cell_angle_alpha 90.000000
_cell_angle_beta 84.836246
_cell_angle_gamma 90.000000
_cell_volume 2534.389189
_symmetry_space_group_name_H-M "C 2/C"
_symmetry_group_IT_number 15
_symmetry_cell_setting 'monoclinic'
loop_
_space_group_symop_operation_xyz
x,y,z
-x,y,1/2-z
-x,-y,-z
x,-y,1/2+z
1/2+x,1/2+y,z
1/2-x,1/2+y,1/2-z
1/2-x,1/2-y,-z
1/2+x,1/2-y,1/2+z
loop_
_atom_site_type_symbol
_atom_site_label
_atom_site_fract_x
_atom_site_fract_y
_atom_site_fract_z
Si Si1 0.332315 0.631189 0.883748
Si Si2 0.219192 0.943464 0.554003
Si Si3 0.125478 0.375325 0.162472
Si Si4 0.636778 0.647763 0.264082
Si Si5 0.328759 0.788145 0.581261
Si Si6 0.000000 0.218796 0.750000
Si Si7 0.125309 0.976143 0.258447
O O1 0.210324 0.637360 0.799789
O O2 0.408032 0.682035 0.847114
O O3 0.388575 0.578631 0.821563
O O4 0.326144 0.626965 0.070928
O O5 0.335420 0.924543 0.445038
O O6 0.151669 0.895886 0.634719
O O7 0.133853 0.969835 0.440504
O O8 0.235164 0.988623 0.680072
O O9 0.000000 0.389415 0.250000
O O10 0.115927 0.328817 0.044278
O O11 0.500000 0.667750 0.250000
O O12 0.739189 0.689339 0.221156
O O13 0.250000 0.750000 0.500000
O O14 0.438030 0.756830 0.637721
O O15 0.000000 0.005679 0.250000
#
# Coordination Sequence:
#
# PCOD8145279 Si02
#       7
#     8   8   8   8   8   4   8
#     4  11  23  40  66  93 131 170 210 267 328 376
#     4  10  22  38  61  98 126 167 213 263 321 382
#     4  10  24  45  65  89 134 172 220 267 317 377
#     4  11  23  39  62  95 132 164 211 266 322 386
#     4  11  24  42  63  91 127 172 216 269 321 381
#     4  12  24  42  64  94 134 164 224 270 316 378
#     4  11  19  35  64  94 131 167 204 264 328 384
#
# _framework density 20.517764
#
# number of rings (size 3 to 8) (size 9 to 14) (size 15 to 20)
#    0.000    1.231    2.308    3.692    4.308    2.462 
#    0.000    3.077    0.000    0.000    0.000    0.000 
#    0.000    0.000    0.000    0.000    0.000    0.000 
#
# Total GULP energy -322095.411910 kJ/mol
# GULP energy per Si atom -12388.285073 kJ/mol
# Density = 2.047107 g / cm^3
# Si number density = 20.517764 Si / 1000 Ang^3
#
#
#
# Elastic Constant Matrix: (Units=GPa)
#
#
# Indices 1 2 3 4 5 6 
#
# 1 122.2578 42.2015 44.7094 0.0000 -5.7140 0.0000
# 2 42.2015 93.3760 27.7318 0.0000 -0.1124 0.0000
# 3 44.7094 27.7318 107.0492 0.0000 -0.9237 0.0000
# 4 0.0000 0.0000 0.0000 31.6688 0.0000 1.7172
# 5 -5.7140 -0.1124 -0.9237 0.0000 32.4206 0.0000
# 6 0.0000 0.0000 0.0000 1.7172 0.0000 20.6115
#
#
#
# Elastic Compliance Matrix: (Units=1/GPa)
#
#
# Indices 1 2 3 4 5 6 
#
# 1 0.010891 -0.003872 -0.003530 0.000000 0.001806 0.000000
# 2 -0.003872 0.012978 -0.001751 0.000000 -0.000687 0.000000
# 3 -0.003530 -0.001751 0.011267 0.000000 -0.000307 0.000000
# 4 0.000000 0.000000 0.000000 0.031720 0.000000 -0.002643
# 5 0.001806 -0.000687 -0.000307 0.000000 0.031152 0.000000
# 6 0.000000 0.000000 0.000000 -0.002643 0.000000 0.048737
#
#
# Mechanical properties :
#
#
# Convention : Reuss Voigt Hill
#
# Bulk Modulus (GPa) = 59.41544 61.32983 60.37263
# Shear Modulus (GPa) = 29.29779 30.80953 30.05366
#
# Velocity S-wave (km/s) = 3.78289 3.87926 3.83137
# Velocity P-wave (km/s) = 6.93550 7.07254 7.00436
#
# Compressibility (1/GPa) = 0.01683064
#
# Stress axis : x y z
#
# Youngs Moduli (GPa) = 91.81673 77.05091 88.75588
#
# Poissons Ratio (x) = 0.29832 0.31333
# Poissons Ratio (y) = 0.35549 0.15542
# Poissons Ratio (z) = 0.32413 0.13492
#
# Static dielectric constant tensor:
#      x y z
#    x 3.524610 0.000000 0.050620 
#    y 0.000000 3.445050 0.000000 
#    z 0.050620 0.000000 3.793900 
# 
# 
# High freq. dielectric constant tensor:
#      x y z
#    x 1.780220 0.000000 0.001670 
#    y 0.000000 1.811440 0.000000 
#    z 0.001670 0.000000 1.823060 
# 
# From -- ./inp_files/33554.got.cif
#   From: 2010.06.25/outbox.cif.g09.slc.cpg/sg15_17_cif.got.tgz:33554.got - 2010.06.28 07:06:18.
