data_PCOD8145750
_publ_section_title
;
Structure prediction by ZEFSAII (Michael W. Deem and Ramdas Pophale) SiO2 
 PCOD8145750
Probable space group: C 2/C
;
_chemical_formula_sum "Si O2"
_cell_formula_units_Z 64
_cell_length_a 14.377511
_cell_length_b 16.432346
_cell_length_c 15.246942
_cell_angle_alpha 90.000000
_cell_angle_beta 62.050077
_cell_angle_gamma 90.000000
_cell_volume 3182.017520
_symmetry_space_group_name_H-M "C 2/C"
_symmetry_group_IT_number 15
_symmetry_cell_setting 'monoclinic'
loop_
_space_group_symop_operation_xyz
x,y,z
-x,y,1/2-z
-x,-y,-z
x,-y,1/2+z
1/2+x,1/2+y,z
1/2-x,1/2+y,1/2-z
1/2-x,1/2-y,-z
1/2+x,1/2-y,1/2+z
loop_
_atom_site_type_symbol
_atom_site_label
_atom_site_fract_x
_atom_site_fract_y
_atom_site_fract_z
Si Si1 0.093671 0.815190 0.829283
Si Si2 0.443866 0.081495 0.557532
Si Si3 0.403553 0.201497 0.938570
Si Si4 0.752755 0.736939 0.858346
Si Si5 0.270852 0.598860 0.769757
Si Si6 0.959641 0.997610 0.616225
Si Si7 0.353925 0.241133 0.514109
Si Si8 0.918429 0.864786 0.353876
O O1 0.170364 0.807969 0.711330
O O2 0.053320 0.906014 0.849959
O O3 0.986092 0.766132 0.865074
O O4 0.159302 0.781252 0.884136
O O5 0.535131 0.117639 0.577788
O O6 0.344271 0.059487 0.663844
O O7 0.405284 0.149963 0.501632
O O8 0.500000 0.000000 0.500000
O O9 0.310361 0.187316 0.910672
O O10 0.355478 0.227527 0.054512
O O11 0.731663 0.678933 0.786796
O O12 0.345826 0.537666 0.684461
O O13 0.306835 0.626627 0.852547
O O14 0.000000 0.000000 0.500000
O O15 0.047618 0.043726 0.634364
O O16 0.250000 0.250000 0.500000
O O17 0.430568 0.303505 0.429761
O O18 0.000000 0.826911 0.250000
#
# Coordination Sequence:
#
# PCOD8145750 Si02
#       8
#     8   8   8   8   8   8   8   8
#     4  11  22  40  69  95 128 167 221 273 326 397
#     4  11  25  44  64  94 137 174 222 274 334 406
#     4  10  24  42  68  93 127 173 220 273 326 405
#     4  11  22  42  67  95 123 176 221 261 333 395
#     4  11  23  42  65  93 136 175 212 274 337 394
#     4  11  23  40  63 102 134 162 219 280 333 383
#     4  11  20  43  68  93 128 176 222 271 328 402
#     4  10  22  39  67  96 131 170 217 279 336 386
#
# _framework density 20.113026000000001
#
# number of rings (size 3 to 8) (size 9 to 14) (size 15 to 20)
#    0.000    1.250    5.000    1.125    7.000    3.000 
#    6.750    0.000    0.000    0.000    0.000    0.000 
#    0.000    0.000    0.000    0.000    0.000    0.000 
#
# Total GULP energy -396469.781987 kJ/mol
# GULP energy per Si atom -12389.680687 kJ/mol
# Density = 2.006725 g / cm^3
# Si number density = 20.113026 Si / 1000 Ang^3
#
#
#
# Elastic Constant Matrix: (Units=GPa)
#
#
# Indices 1 2 3 4 5 6 
#
# 1 99.1762 30.0002 18.2000 0.0000 2.7782 0.0000
# 2 30.0002 127.2090 21.0496 0.0000 0.6802 0.0000
# 3 18.2000 21.0496 93.2550 0.0000 -9.3186 0.0000
# 4 0.0000 0.0000 0.0000 31.0239 0.0000 2.2151
# 5 2.7782 0.6802 -9.3186 0.0000 34.7293 0.0000
# 6 0.0000 0.0000 0.0000 2.2151 0.0000 17.1829
#
#
#
# Elastic Compliance Matrix: (Units=1/GPa)
#
#
# Indices 1 2 3 4 5 6 
#
# 1 0.011152 -0.002328 -0.001783 0.000000 -0.001325 0.000000
# 2 -0.002328 0.008667 -0.001542 0.000000 -0.000397 0.000000
# 3 -0.001783 -0.001542 0.011752 0.000000 0.003326 0.000000
# 4 0.000000 0.000000 0.000000 0.032533 0.000000 -0.004194
# 5 -0.001325 -0.000397 0.003326 0.000000 0.029800 0.000000
# 6 0.000000 0.000000 0.000000 -0.004194 0.000000 0.058738
#
#
# Mechanical properties :
#
#
# Convention : Reuss Voigt Hill
#
# Bulk Modulus (GPa) = 49.34667 50.90440 50.12553
# Shear Modulus (GPa) = 29.29074 33.27991 31.28533
#
# Velocity S-wave (km/s) = 3.82030 4.07215 3.94823
# Velocity P-wave (km/s) = 6.63683 6.89013 6.76467
#
# Compressibility (1/GPa) = 0.02026479
#
# Stress axis : x y z
#
# Youngs Moduli (GPa) = 89.67341 115.37642 85.09400
#
# Poissons Ratio (x) = 0.26857 0.15175
# Poissons Ratio (y) = 0.20874 0.13120
# Poissons Ratio (z) = 0.15992 0.17789
#
# Static dielectric constant tensor:
#      x y z
#    x 3.834450 0.000000 -0.195800 
#    y 0.000000 3.726670 0.000000 
#    z -0.195800 0.000000 3.337980 
# 
# 
# High freq. dielectric constant tensor:
#      x y z
#    x 1.793450 0.000000 -0.006960 
#    y 0.000000 1.771570 0.000000 
#    z -0.006960 0.000000 1.799470 
# 
# From -- ./inp_files/155190.got.cif
#   From: 2010.06.25/outbox.cif.g09.slc.cpg/sg15_78_cif.got.tgz:155190.got - 2010.06.28 07:06:18.
