data_PCOD8145782
_publ_section_title
;
Structure prediction by ZEFSAII (Michael W. Deem and Ramdas Pophale) SiO2 
 PCOD8145782
Probable space group: C 2/C
;
_chemical_formula_sum "Si O2"
_cell_formula_units_Z 36
_cell_length_a 10.884553
_cell_length_b 9.304051
_cell_length_c 21.895883
_cell_angle_alpha 90.000000
_cell_angle_beta 127.774649
_cell_angle_gamma 90.000000
_cell_volume 1752.695325
_symmetry_space_group_name_H-M "C 2/C"
_symmetry_group_IT_number 15
_symmetry_cell_setting 'monoclinic'
loop_
_space_group_symop_operation_xyz
x,y,z
-x,y,1/2-z
-x,-y,-z
x,-y,1/2+z
1/2+x,1/2+y,z
1/2-x,1/2+y,1/2-z
1/2-x,1/2-y,-z
1/2+x,1/2-y,1/2+z
loop_
_atom_site_type_symbol
_atom_site_label
_atom_site_fract_x
_atom_site_fract_y
_atom_site_fract_z
Si Si1 0.835142 0.753010 0.863385
Si Si2 0.375671 0.442578 0.415061
Si Si3 0.048073 0.462307 0.370894
Si Si4 0.000000 0.322335 0.750000
Si Si5 0.088556 0.695272 0.476204
O O1 0.651010 0.719469 0.802063
O O2 0.930465 0.672486 0.839294
O O3 0.850638 0.926497 0.859673
O O4 0.903557 0.696293 0.948302
O O5 0.500000 0.500000 0.500000
O O6 0.214986 0.403702 0.400047
O O7 0.448285 0.298044 0.408288
O O8 0.980641 0.577691 0.303368
O O9 0.060107 0.536263 0.441350
O O10 0.250000 0.750000 0.500000
#
# Coordination Sequence:
#
# PCOD8145782 Si02
#       5
#     8   8   8   4   8
#     4  10  22  40  62  87 118 158 195 246 292 349
#     4   9  19  36  58  85 116 150 180 242 294 337
#     4  11  22  40  60  87 118 153 204 241 294 354
#     4  10  22  40  56  82 124 162 188 242 302 344
#     4  11  19  39  64  89 118 150 194 247 298 345
#
# _framework density 20.539794000000001
#
# number of rings (size 3 to 8) (size 9 to 14) (size 15 to 20)
#    0.000    1.778    6.667    0.667    0.000    7.111 
#    4.000    0.000    0.000    0.000    0.000    0.000 
#    0.000    0.000    0.000    0.000    0.000    0.000 
#
# Total GULP energy -223105.925294 kJ/mol
# GULP energy per Si atom -12394.773627 kJ/mol
# Density = 2.049304 g / cm^3
# Si number density = 20.539794 Si / 1000 Ang^3
#
#
#
# Elastic Constant Matrix: (Units=GPa)
#
#
# Indices 1 2 3 4 5 6 
#
# 1 142.5525 84.2045 31.9211 0.0000 28.3807 0.0000
# 2 84.2045 84.4504 18.7497 0.0000 26.5670 0.0000
# 3 31.9211 18.7497 69.2961 0.0000 16.9543 0.0000
# 4 0.0000 0.0000 0.0000 11.9632 0.0000 2.3733
# 5 28.3807 26.5670 16.9543 0.0000 33.6315 0.0000
# 6 0.0000 0.0000 0.0000 2.3733 0.0000 53.4126
#
#
#
# Elastic Compliance Matrix: (Units=1/GPa)
#
#
# Indices 1 2 3 4 5 6 
#
# 1 0.017888 -0.017105 -0.003678 0.000000 0.000271 0.000000
# 2 -0.017105 0.032231 0.002117 0.000000 -0.012094 0.000000
# 3 -0.003678 0.002117 0.017341 0.000000 -0.007310 0.000000
# 4 0.000000 0.000000 0.000000 0.084333 0.000000 -0.003747
# 5 0.000271 -0.012094 -0.007310 0.000000 0.042744 0.000000
# 6 0.000000 0.000000 0.000000 -0.003747 0.000000 0.018889
#
#
# Mechanical properties :
#
#
# Convention : Reuss Voigt Hill
#
# Bulk Modulus (GPa) = 33.19122 62.89441 48.04282
# Shear Modulus (GPa) = 19.17175 30.56303 24.86739
#
# Velocity S-wave (km/s) = 3.05847 3.86163 3.48328
# Velocity P-wave (km/s) = 5.35414 7.11127 6.29432
#
# Compressibility (1/GPa) = 0.03012845
#
# Stress axis : x y z
#
# Youngs Moduli (GPa) = 55.90212 31.02644 57.66691
#
# Poissons Ratio (x) = 0.53070 0.21212
# Poissons Ratio (y) = 0.95619 -0.12210
# Poissons Ratio (z) = 0.20563 -0.06570
#
# Static dielectric constant tensor:
#      x y z
#    x 3.987820 0.000000 0.116560 
#    y 0.000000 4.534900 0.000000 
#    z 0.116560 0.000000 4.182110 
# 
# 
# High freq. dielectric constant tensor:
#      x y z
#    x 1.803180 0.000000 0.019760 
#    y 0.000000 1.786230 0.000000 
#    z 0.019760 0.000000 1.795080 
# 
# From -- ./inp_files/187587.got.cif
#   From: 2010.06.25/outbox.cif.g09.slc.cpg/sg15_94_cif.got.tgz:187587.got - 2010.06.28 07:06:18.
