data_PCOD8145129
_publ_section_title
;
Structure prediction by ZEFSAII (Michael W. Deem and Ramdas Pophale) SiO2 
 PCOD8145129
Probable space group: C 2/C
;
_chemical_formula_sum "Si O2"
_cell_formula_units_Z 32
_cell_length_a 13.128161
_cell_length_b 13.417955
_cell_length_c 18.860086
_cell_angle_alpha 90.000000
_cell_angle_beta 29.024965
_cell_angle_gamma 90.000000
_cell_volume 1611.930565
_symmetry_space_group_name_H-M "C 2/C"
_symmetry_group_IT_number 15
_symmetry_cell_setting 'monoclinic'
loop_
_space_group_symop_operation_xyz
x,y,z
-x,y,1/2-z
-x,-y,-z
x,-y,1/2+z
1/2+x,1/2+y,z
1/2-x,1/2+y,1/2-z
1/2-x,1/2-y,-z
1/2+x,1/2-y,1/2+z
loop_
_atom_site_type_symbol
_atom_site_label
_atom_site_fract_x
_atom_site_fract_y
_atom_site_fract_z
Si Si1 0.328527 0.404355 0.404677
Si Si2 0.357478 0.636903 0.665361
Si Si3 0.427055 0.032626 0.218727
Si Si4 0.690059 0.264141 0.884496
O O1 0.500000 0.461447 0.250000
O O2 0.432233 0.385181 0.417697
O O3 0.273250 0.300066 0.400272
O O4 0.119573 0.469001 0.545153
O O5 0.257710 0.535109 0.699164
O O6 0.449417 0.700828 0.543547
O O7 0.187721 0.697799 0.814477
O O8 0.500000 0.988946 0.250000
O O9 0.346837 0.144467 0.276798
#
# Coordination Sequence:
#
# PCOD8145129 Si02
#       4
#     8   8   8   8
#     4  10  22  37  63  91 120 148 200 254 291 344
#     4  11  23  38  64  92 118 157 200 248 297 348
#     4  12  23  39  62  90 123 158 199 242 300 357
#     4  11  21  40  63  90 120 152 203 246 294 349
#
# _framework density 19.851973000000001
#
# number of rings (size 3 to 8) (size 9 to 14) (size 15 to 20)
#    0.000    1.000    5.000    3.750    0.000    4.000 
#    0.000    1.250    0.000    0.000    0.000    0.000 
#    0.000    0.000    0.000    0.000    0.000    0.000 
#
# Total GULP energy -198370.568926 kJ/mol
# GULP energy per Si atom -12398.160558 kJ/mol
# Density = 1.980679 g / cm^3
# Si number density = 19.851973 Si / 1000 Ang^3
#
#
#
# Elastic Constant Matrix: (Units=GPa)
#
#
# Indices 1 2 3 4 5 6 
#
# 1 52.9108 42.8288 36.6489 -0.0025 3.1559 0.0000
# 2 42.8288 65.8212 44.0301 -0.0015 -8.0274 0.0058
# 3 36.6489 44.0301 147.3449 -0.0043 8.5638 0.0111
# 4 -0.0025 -0.0015 -0.0043 35.1762 0.0067 -4.3349
# 5 3.1559 -8.0274 8.5638 0.0067 19.9095 0.0004
# 6 0.0000 0.0058 0.0111 -4.3349 0.0004 24.8626
#
#
#
# Elastic Compliance Matrix: (Units=1/GPa)
#
#
# Indices 1 2 3 4 5 6 
#
# 1 0.046942 -0.032473 -0.000799 0.000007 -0.020190 0.000009
# 2 -0.032473 0.043789 -0.006496 -0.000007 0.025597 -0.000009
# 3 -0.000799 -0.006496 0.009304 0.000002 -0.006495 -0.000002
# 4 0.000007 -0.000007 0.000002 0.029053 -0.000015 0.005065
# 5 -0.020190 0.025597 -0.006495 -0.000015 0.066542 -0.000007
# 6 0.000009 -0.000009 -0.000002 0.005065 -0.000007 0.041104
#
#
# Mechanical properties :
#
#
# Convention : Reuss Voigt Hill
#
# Bulk Modulus (GPa) = 48.77893 57.01027 52.89460
# Shear Modulus (GPa) = 15.47491 25.49426 20.48458
#
# Velocity S-wave (km/s) = 2.79501 3.58749 3.21575
# Velocity P-wave (km/s) = 5.91952 6.77791 6.36321
#
# Compressibility (1/GPa) = 0.02050065
#
# Stress axis : x y z
#
# Youngs Moduli (GPa) = 21.30270 22.83657 107.47865
#
# Poissons Ratio (x) = 0.74156 0.08586
# Poissons Ratio (y) = 0.69176 0.69820
# Poissons Ratio (z) = 0.01702 0.14835
#
# Static dielectric constant tensor:
#      x y z
#    x 3.421820 0.000000 0.343060 
#    y 0.000000 3.281490 0.000010 
#    z 0.343060 0.000010 4.107620 
# 
# 
# High freq. dielectric constant tensor:
#      x y z
#    x 1.744810 0.000000 0.022180 
#    y 0.000000 1.742460 0.000000 
#    z 0.022180 0.000000 1.806100 
# 
# From -- ./inp_files/27888.got.cif
#   From: 2010.06.25/outbox.cif.g09.slc.cpg/sg15_14_cif.got.tgz:27888.got - 2010.06.28 07:06:18.
