data_PCOD8145292
_publ_section_title
;
Structure prediction by ZEFSAII (Michael W. Deem and Ramdas Pophale) SiO2 
 PCOD8145292
Probable space group: C 2/C
;
_chemical_formula_sum "Si O2"
_cell_formula_units_Z 48
_cell_length_a 25.302437
_cell_length_b 7.795599
_cell_length_c 12.877223
_cell_angle_alpha 90.000000
_cell_angle_beta 75.299052
_cell_angle_gamma 90.000000
_cell_volume 2456.851370
_symmetry_space_group_name_H-M "C 2/C"
_symmetry_group_IT_number 15
_symmetry_cell_setting 'monoclinic'
loop_
_space_group_symop_operation_xyz
x,y,z
-x,y,1/2-z
-x,-y,-z
x,-y,1/2+z
1/2+x,1/2+y,z
1/2-x,1/2+y,1/2-z
1/2-x,1/2-y,-z
1/2+x,1/2-y,1/2+z
loop_
_atom_site_type_symbol
_atom_site_label
_atom_site_fract_x
_atom_site_fract_y
_atom_site_fract_z
Si Si1 0.000000 0.540733 0.250000
Si Si2 0.814255 0.730594 0.277329
Si Si3 0.439850 0.797117 0.419971
Si Si4 0.237368 0.909684 0.639834
Si Si5 0.000000 0.045255 0.250000
Si Si6 0.178005 0.596872 0.585679
Si Si7 0.433153 0.715029 0.657029
O O1 0.981598 0.441768 0.361849
O O2 0.947950 0.643453 0.235357
O O3 0.772946 0.635042 0.221848
O O4 0.828787 0.586553 0.355014
O O5 0.867736 0.798048 0.189831
O O6 0.789073 0.902389 0.338463
O O7 0.451956 0.642866 0.334903
O O8 0.377766 0.858763 0.444701
O O9 0.454065 0.752369 0.530968
O O10 0.192281 0.757785 0.653676
O O11 0.273627 0.921184 0.519812
O O12 0.965896 0.950711 0.177942
#
# Coordination Sequence:
#
# PCOD8145292 Si02
#       7
#     4   8   8   8   4   8   8
#     4  10  22  38  62  88 120 158 206 252 306 374
#     4  12  22  41  65  91 126 166 212 256 319 375
#     4  11  21  40  64  90 122 163 205 256 317 374
#     4  11  24  40  63  93 125 165 210 265 311 375
#     4  10  24  40  62  94 126 160 210 260 318 370
#     4  11  23  42  64  91 127 165 211 260 317 376
#     4  11  22  40  62  89 124 162 204 259 312 374
#
# _framework density 19.537201
#
# number of rings (size 3 to 8) (size 9 to 14) (size 15 to 20)
#    0.000    1.000    5.000    2.500    0.000    0.000 
#    0.000    0.000    0.000    0.000    0.000    0.000 
#    0.000    0.000    0.000    0.000    0.000    0.000 
#
# Total GULP energy -297471.377777 kJ/mol
# GULP energy per Si atom -12394.640741 kJ/mol
# Density = 1.949273 g / cm^3
# Si number density = 19.537201 Si / 1000 Ang^3
#
#
#
# Elastic Constant Matrix: (Units=GPa)
#
#
# Indices 1 2 3 4 5 6 
#
# 1 79.5565 35.4891 22.7296 0.0000 0.7766 0.0000
# 2 35.4891 123.3150 39.0760 0.0000 4.8540 0.0000
# 3 22.7296 39.0760 103.5678 0.0000 5.9578 0.0000
# 4 0.0000 0.0000 0.0000 27.9177 0.0000 51.5750
# 5 0.7766 4.8540 5.9578 0.0000 33.8151 0.0000
# 6 0.0000 0.0000 0.0000 51.5750 0.0000 244.9210
#
#
#
# Elastic Compliance Matrix: (Units=1/GPa)
#
#
# Indices 1 2 3 4 5 6 
#
# 1 0.014737 -0.003666 -0.001881 0.000000 0.000519 0.000000
# 2 -0.003666 0.010139 -0.002972 0.000000 -0.000848 0.000000
# 3 -0.001881 -0.002972 0.011277 0.000000 -0.001517 0.000000
# 4 0.000000 0.000000 0.000000 0.058626 0.000000 -0.012345
# 5 0.000519 -0.000848 -0.001517 0.000000 0.029950 0.000000
# 6 0.000000 0.000000 0.000000 -0.012345 0.000000 0.006683
#
#
# Mechanical properties :
#
#
# Convention : Reuss Voigt Hill
#
# Bulk Modulus (GPa) = 52.31343 55.66986 53.99165
# Shear Modulus (GPa) = 32.29502 75.27374 53.78438
#
# Velocity S-wave (km/s) = 4.07012 6.21386 5.25252
# Velocity P-wave (km/s) = 6.99445 8.94645 8.02998
#
# Compressibility (1/GPa) = 0.01911555
#
# Stress axis : x y z
#
# Youngs Moduli (GPa) = 67.85533 98.62422 88.67515
#
# Poissons Ratio (x) = 0.36152 0.16681
# Poissons Ratio (y) = 0.24873 0.26358
# Poissons Ratio (z) = 0.12765 0.29315
#
# Static dielectric constant tensor:
#      x y z
#    x 3.787400 0.000000 -0.009020 
#    y 0.000000 3.733860 0.000000 
#    z -0.009020 0.000000 3.487820 
# 
# 
# High freq. dielectric constant tensor:
#      x y z
#    x 1.770190 0.000000 -0.001120 
#    y 0.000000 1.769920 0.000000 
#    z -0.001120 0.000000 1.765550 
# 
# From -- ./inp_files/116303.got.cif
#   From: 2010.06.25/outbox.cif.g09.slc.cpg/sg15_59_cif.got.tgz:116303.got - 2010.06.28 07:06:18.
