data_PCOD8145150
_publ_section_title
;
Structure prediction by ZEFSAII (Michael W. Deem and Ramdas Pophale) SiO2 
 PCOD8145150
Probable space group: C 2/C
;
_chemical_formula_sum "Si O2"
_cell_formula_units_Z 40
_cell_length_a 23.473454
_cell_length_b 7.842185
_cell_length_c 14.169780
_cell_angle_alpha 90.000000
_cell_angle_beta 138.264453
_cell_angle_gamma 90.000000
_cell_volume 1736.406780
_symmetry_space_group_name_H-M "C 2/C"
_symmetry_group_IT_number 15
_symmetry_cell_setting 'monoclinic'
loop_
_space_group_symop_operation_xyz
x,y,z
-x,y,1/2-z
-x,-y,-z
x,-y,1/2+z
1/2+x,1/2+y,z
1/2-x,1/2+y,1/2-z
1/2-x,1/2-y,-z
1/2+x,1/2-y,1/2+z
loop_
_atom_site_type_symbol
_atom_site_label
_atom_site_fract_x
_atom_site_fract_y
_atom_site_fract_z
Si Si1 0.839457 0.124102 0.404016
Si Si2 0.294977 0.130786 0.420980
Si Si3 0.461014 0.679294 0.099602
Si Si4 0.076959 0.617262 0.617708
Si Si5 0.229540 0.492227 0.414031
O O1 0.763340 0.068177 0.238010
O O2 0.876670 0.308164 0.419305
O O3 0.915238 0.985720 0.498534
O O4 0.794989 0.135019 0.453012
O O5 0.395262 0.157724 0.518096
O O6 0.266561 0.311545 0.426640
O O7 0.280208 0.991273 0.485408
O O8 0.500000 0.637518 0.250000
O O9 0.543545 0.722202 0.137627
O O10 0.136838 0.493348 0.752550
O O11 0.000000 0.500000 0.500000
#
# Coordination Sequence:
#
# PCOD8145150 Si02
#       5
#     8   8   8   8   8
#     4  10  22  37  65  96 125 170 226 267 321 401
#     4   9  18  36  63  91 123 172 215 256 325 392
#     4  11  21  39  68  96 129 174 224 270 329 391
#     4  11  22  39  64  94 133 170 213 277 335 388
#     4   9  18  36  62  88 122 168 218 255 314 404
#
# _framework density 23.036076999999999
#
# number of rings (size 3 to 8) (size 9 to 14) (size 15 to 20)
#    0.000    2.000    2.000    1.800    2.800    0.000 
#    0.000    1.000    8.800   13.200    0.000    0.000 
#    0.000    0.000    0.000    0.000    0.000    0.000 
#
# Total GULP energy -247902.209893 kJ/mol
# GULP energy per Si atom -12395.110495 kJ/mol
# Density = 2.298365 g / cm^3
# Si number density = 23.036077 Si / 1000 Ang^3
#
#
#
# Elastic Constant Matrix: (Units=GPa)
#
#
# Indices 1 2 3 4 5 6 
#
# 1 80.4270 8.6726 20.8061 0.0000 3.2707 0.0000
# 2 8.6726 47.8180 27.8553 0.0000 -1.5300 0.0000
# 3 20.8061 27.8553 112.2415 0.0000 6.4823 0.0000
# 4 0.0000 0.0000 0.0000 40.0147 0.0000 12.8405
# 5 3.2707 -1.5300 6.4823 0.0000 33.8257 0.0000
# 6 0.0000 0.0000 0.0000 12.8405 0.0000 37.5127
#
#
#
# Elastic Compliance Matrix: (Units=1/GPa)
#
#
# Indices 1 2 3 4 5 6 
#
# 1 0.013140 -0.001198 -0.002085 0.000000 -0.000925 0.000000
# 2 -0.001198 0.024733 -0.006054 0.000000 0.002395 0.000000
# 3 -0.002085 -0.006054 0.010923 0.000000 -0.002166 0.000000
# 4 0.000000 0.000000 0.000000 0.028075 0.000000 -0.009610
# 5 -0.000925 0.002395 -0.002166 0.000000 0.030176 0.000000
# 6 0.000000 0.000000 0.000000 -0.009610 0.000000 0.029947
#
#
# Mechanical properties :
#
#
# Convention : Reuss Voigt Hill
#
# Bulk Modulus (GPa) = 33.19867 39.46162 36.33014
# Shear Modulus (GPa) = 30.17319 34.48078 32.32698
#
# Velocity S-wave (km/s) = 3.62307 3.87307 3.75015
# Velocity P-wave (km/s) = 5.65200 6.09659 5.87850
#
# Compressibility (1/GPa) = 0.03012169
#
# Stress axis : x y z
#
# Youngs Moduli (GPa) = 76.10450 40.43115 91.54623
#
# Poissons Ratio (x) = 0.04844 0.19087
# Poissons Ratio (y) = 0.09119 0.55425
# Poissons Ratio (z) = 0.15867 0.24479
#
# Static dielectric constant tensor:
#      x y z
#    x 2.642710 0.000000 -1.002470 
#    y 0.000000 3.967020 0.000000 
#    z -1.002470 0.000000 3.731280 
# 
# 
# High freq. dielectric constant tensor:
#      x y z
#    x 1.929670 0.000000 0.010070 
#    y 0.000000 1.875630 0.000000 
#    z 0.010070 0.000000 1.913740 
# 
# From -- ./inp_files/172133.got.cif
#   From: 2010.06.25/outbox.cif.g09.slc.cpg/sg15_87_cif.got.tgz:172133.got - 2010.06.28 07:06:18.
