data_PCOD8145627
_publ_section_title
;
Structure prediction by ZEFSAII (Michael W. Deem and Ramdas Pophale) SiO2 
 PCOD8145627
Probable space group: C 2/C
;
_chemical_formula_sum "Si O2"
_cell_formula_units_Z 56
_cell_length_a 20.814947
_cell_length_b 19.569102
_cell_length_c 8.481153
_cell_angle_alpha 90.000000
_cell_angle_beta 47.390718
_cell_angle_gamma 90.000000
_cell_volume 2542.561678
_symmetry_space_group_name_H-M "C 2/C"
_symmetry_group_IT_number 15
_symmetry_cell_setting 'monoclinic'
loop_
_space_group_symop_operation_xyz
x,y,z
-x,y,1/2-z
-x,-y,-z
x,-y,1/2+z
1/2+x,1/2+y,z
1/2-x,1/2+y,1/2-z
1/2-x,1/2-y,-z
1/2+x,1/2-y,1/2+z
loop_
_atom_site_type_symbol
_atom_site_label
_atom_site_fract_x
_atom_site_fract_y
_atom_site_fract_z
Si Si1 0.249142 0.463245 0.632957
Si Si2 0.369650 0.641333 0.057695
Si Si3 0.550849 0.942339 0.004355
Si Si4 0.192839 0.280072 0.235214
Si Si5 0.495737 0.199716 0.572225
Si Si6 0.541570 0.345859 0.413318
Si Si7 0.796429 0.904273 0.211819
O O1 0.294713 0.415557 0.689586
O O2 0.260100 0.435218 0.437182
O O3 0.288592 0.539445 0.586742
O O4 0.149606 0.466462 0.855057
O O5 0.327377 0.716221 0.118264
O O6 0.420724 0.628156 0.812670
O O7 0.438230 0.632929 0.090729
O O8 0.500000 0.930816 0.250000
O O9 0.547312 0.867908 0.927071
O O10 0.500000 0.000000 0.000000
O O11 0.104065 0.310902 0.313504
O O12 0.241506 0.337660 0.255572
O O13 0.250000 0.250000 0.000000
O O14 0.500000 0.213251 0.750000
O O15 0.544536 0.263610 0.411751
O O16 0.601299 0.381444 0.447914
#
# Coordination Sequence:
#
# PCOD8145627 Si02
#       7
#     8   8   8   8   8   8   8
#     4  11  25  42  66  96 134 178 225 272 339 399
#     4   9  22  40  67  93 128 172 217 283 324 401
#     4  11  24  40  61  87 129 168 219 268 332 393
#     4  11  24  39  67  98 131 169 226 274 335 392
#     4  10  22  39  63  93 128 171 212 279 325 394
#     4   9  20  43  63  96 127 166 227 265 339 386
#     4  11  25  42  69  97 136 176 221 273 336 402
#
# _framework density 22.025031999999999
#
# number of rings (size 3 to 8) (size 9 to 14) (size 15 to 20)
#    0.000    1.714    0.000    2.571   10.000    1.714 
#    2.571    0.000    0.000    0.000    0.000    0.000 
#    0.000    0.000    0.000    0.000    0.000    0.000 
#
# Total GULP energy -347073.100415 kJ/mol
# GULP energy per Si atom -12395.467872 kJ/mol
# Density = 2.197490 g / cm^3
# Si number density = 22.025032 Si / 1000 Ang^3
#
#
#
# Elastic Constant Matrix: (Units=GPa)
#
#
# Indices 1 2 3 4 5 6 
#
# 1 158.5234 84.4907 41.1099 0.0000 -32.7839 0.0000
# 2 84.4907 138.5026 29.9636 0.0000 -27.7239 0.0000
# 3 41.1099 29.9636 47.6321 0.0000 -6.3764 0.0000
# 4 0.0000 0.0000 0.0000 29.7493 0.0000 -0.7789
# 5 -32.7839 -27.7239 -6.3764 0.0000 27.2180 0.0000
# 6 0.0000 0.0000 0.0000 -0.7789 0.0000 54.1534
#
#
#
# Elastic Compliance Matrix: (Units=1/GPa)
#
#
# Indices 1 2 3 4 5 6 
#
# 1 0.012049 -0.004178 -0.006605 0.000000 0.008710 0.000000
# 2 -0.004178 0.011619 -0.002883 0.000000 0.006127 0.000000
# 3 -0.006605 -0.002883 0.027926 0.000000 -0.004350 0.000000
# 4 0.000000 0.000000 0.000000 0.033627 0.000000 0.000484
# 5 0.008710 0.006127 -0.004350 0.000000 0.052454 0.000000
# 6 0.000000 0.000000 0.000000 0.000484 0.000000 0.018473
#
#
# Mechanical properties :
#
#
# Convention : Reuss Voigt Hill
#
# Bulk Modulus (GPa) = 41.21620 72.86516 57.04068
# Shear Modulus (GPa) = 26.10045 34.83040 30.46542
#
# Velocity S-wave (km/s) = 3.44617 3.98100 3.72320
# Velocity P-wave (km/s) = 5.88122 7.36789 6.66613
#
# Compressibility (1/GPa) = 0.02426231
#
# Stress axis : x y z
#
# Youngs Moduli (GPa) = 82.99259 86.06663 35.80865
#
# Poissons Ratio (x) = 0.35958 0.23652
# Poissons Ratio (y) = 0.34674 0.10323
# Poissons Ratio (z) = 0.54818 0.24812
#
# Static dielectric constant tensor:
#      x y z
#    x 4.540650 0.000000 -0.139030 
#    y 0.000000 3.137580 0.000000 
#    z -0.139030 0.000000 3.673840 
# 
# 
# High freq. dielectric constant tensor:
#      x y z
#    x 1.883440 0.000000 -0.013030 
#    y 0.000000 1.878350 0.000000 
#    z -0.013030 0.000000 1.847880 
# 
# From -- ./inp_files/57801.got.cif
#   From: 2010.06.25/outbox.cif.g09.slc.cpg/sg15_29_cif.got.tgz:57801.got - 2010.06.28 07:06:18.
