data_PCOD8145685
_publ_section_title
;
Structure prediction by ZEFSAII (Michael W. Deem and Ramdas Pophale) SiO2 
 PCOD8145685
Probable space group: C 2/C
;
_chemical_formula_sum "Si O2"
_cell_formula_units_Z 40
_cell_length_a 16.698622
_cell_length_b 26.323824
_cell_length_c 9.829107
_cell_angle_alpha 90.000000
_cell_angle_beta 155.335742
_cell_angle_gamma 90.000000
_cell_volume 1802.985861
_symmetry_space_group_name_H-M "C 2/C"
_symmetry_group_IT_number 15
_symmetry_cell_setting 'monoclinic'
loop_
_space_group_symop_operation_xyz
x,y,z
-x,y,1/2-z
-x,-y,-z
x,-y,1/2+z
1/2+x,1/2+y,z
1/2-x,1/2+y,1/2-z
1/2-x,1/2-y,-z
1/2+x,1/2-y,1/2+z
loop_
_atom_site_type_symbol
_atom_site_label
_atom_site_fract_x
_atom_site_fract_y
_atom_site_fract_z
Si Si1 0.706596 0.811828 0.306185
Si Si2 0.500000 0.504714 0.250000
Si Si3 0.000000 0.162132 0.750000
Si Si4 0.251791 0.922284 0.746268
Si Si5 0.476956 0.280826 0.495513
Si Si6 0.832366 0.579279 0.672290
O O1 0.513564 0.779986 0.040694
O O2 0.850951 0.806303 0.655318
O O3 0.670241 0.871886 0.232133
O O4 0.783865 0.789295 0.283104
O O5 0.594313 0.467653 0.508700
O O6 0.674024 0.538140 0.465042
O O7 0.815947 0.125910 0.445615
O O8 0.044385 0.195963 0.686976
O O9 0.451648 0.943535 0.990329
O O10 0.284467 0.901630 0.947531
#
# Coordination Sequence:
#
# PCOD8145685 Si02
#       6
#     8   4   4   8   8   8
#     4  10  22  40  65  96 125 187 226 264 328 410
#     4  11  22  42  70 100 132 168 230 289 338 386
#     4  11  22  42  66  96 142 174 224 287 330 380
#     4  10  24  40  67 100 133 179 223 276 345 401
#     4  10  22  39  65  93 136 175 226 274 326 390
#     4  11  22  42  69  95 136 180 227 271 337 415
#
# _framework density 22.185421000000002
#
# number of rings (size 3 to 8) (size 9 to 14) (size 15 to 20)
#    0.000    1.600    2.000    2.400    2.800    2.400 
#    0.000    0.000    0.000    0.000    0.000    0.000 
#    0.000    0.000    0.000    0.000    0.000    0.000 
#
# Total GULP energy -247907.452975 kJ/mol
# GULP energy per Si atom -12395.372649 kJ/mol
# Density = 2.213493 g / cm^3
# Si number density = 22.185421 Si / 1000 Ang^3
#
#
#
# Elastic Constant Matrix: (Units=GPa)
#
#
# Indices 1 2 3 4 5 6 
#
# 1 111.7695 38.6573 31.6342 0.0000 -1.9315 0.0000
# 2 38.6573 122.0567 32.8889 0.0000 12.6938 0.0000
# 3 31.6342 32.8889 75.1234 0.0000 3.9165 0.0000
# 4 0.0000 0.0000 0.0000 25.7138 0.0000 2.8815
# 5 -1.9315 12.6938 3.9165 0.0000 36.3065 0.0000
# 6 0.0000 0.0000 0.0000 2.8815 0.0000 35.8502
#
#
#
# Elastic Compliance Matrix: (Units=1/GPa)
#
#
# Indices 1 2 3 4 5 6 
#
# 1 0.010909 -0.002708 -0.003508 0.000000 0.001906 0.000000
# 2 -0.002708 0.010258 -0.003174 0.000000 -0.003388 0.000000
# 3 -0.003508 -0.003174 0.016221 0.000000 -0.000827 0.000000
# 4 0.000000 0.000000 0.000000 0.039243 0.000000 -0.003154
# 5 0.001906 -0.003388 -0.000827 0.000000 0.028918 0.000000
# 6 0.000000 0.000000 0.000000 -0.003154 0.000000 0.028147
#
#
# Mechanical properties :
#
#
# Convention : Reuss Voigt Hill
#
# Bulk Modulus (GPa) = 53.73691 57.25670 55.49680
# Shear Modulus (GPa) = 31.50991 33.29205 32.40098
#
# Velocity S-wave (km/s) = 3.77277 3.87800 3.82575
# Velocity P-wave (km/s) = 6.57668 6.77614 6.67716
#
# Compressibility (1/GPa) = 0.01860918
#
# Stress axis : x y z
#
# Youngs Moduli (GPa) = 91.66453 97.48225 61.64798
#
# Poissons Ratio (x) = 0.26400 0.21624
# Poissons Ratio (y) = 0.24825 0.19567
# Poissons Ratio (z) = 0.32152 0.30941
#
# Static dielectric constant tensor:
#      x y z
#    x 3.859750 0.000000 0.073420 
#    y 0.000000 3.900790 0.000000 
#    z 0.073420 0.000000 4.080660 
# 
# 
# High freq. dielectric constant tensor:
#      x y z
#    x 1.860540 0.000000 0.006250 
#    y 0.000000 1.876250 0.000000 
#    z 0.006250 0.000000 1.874310 
# 
# From -- ./inp_files/44968.got.cif
#   From: 2010.06.25/outbox.cif.g09.slc.cpg/sg15_23_cif.got.tgz:44968.got - 2010.06.28 07:06:18.
