data_PCOD8145127
_publ_section_title
;
Structure prediction by ZEFSAII (Michael W. Deem and Ramdas Pophale) SiO2 
 PCOD8145127
Probable space group: C 2/C
;
_chemical_formula_sum "Si O2"
_cell_formula_units_Z 56
_cell_length_a 24.406452
_cell_length_b 17.222160
_cell_length_c 9.684297
_cell_angle_alpha 90.000000
_cell_angle_beta 133.805080
_cell_angle_gamma 90.000000
_cell_volume 2937.760504
_symmetry_space_group_name_H-M "C 2/C"
_symmetry_group_IT_number 15
_symmetry_cell_setting 'monoclinic'
loop_
_space_group_symop_operation_xyz
x,y,z
-x,y,1/2-z
-x,-y,-z
x,-y,1/2+z
1/2+x,1/2+y,z
1/2-x,1/2+y,1/2-z
1/2-x,1/2-y,-z
1/2+x,1/2-y,1/2+z
loop_
_atom_site_type_symbol
_atom_site_label
_atom_site_fract_x
_atom_site_fract_y
_atom_site_fract_z
Si Si1 0.145795 0.036202 0.935679
Si Si2 0.000000 0.686586 0.750000
Si Si3 0.908203 0.813925 0.458373
Si Si4 0.500000 0.442288 0.750000
Si Si5 0.991458 0.410115 0.511661
Si Si6 0.414697 0.300280 0.153138
Si Si7 0.117498 0.366216 0.947501
Si Si8 0.716961 0.427033 0.270939
O O1 0.133717 0.123654 0.970837
O O2 0.178538 0.037834 0.839656
O O3 0.064371 0.994066 0.790297
O O4 0.207040 0.991996 0.136203
O O5 0.018492 0.633848 0.650723
O O6 0.927720 0.742862 0.595106
O O7 0.916628 0.783966 0.318951
O O8 0.823660 0.845884 0.343269
O O9 0.964788 0.887489 0.570552
O O10 0.915542 0.400195 0.468658
O O11 0.000000 0.500000 0.500000
O O12 0.062974 0.378546 0.721404
O O13 0.500000 0.307882 0.250000
O O14 0.372689 0.226261 0.012356
O O15 0.195395 0.409703 0.050832
#
# Coordination Sequence:
#
# PCOD8145127 Si02
#       8
#     8   4   8   4   8   8   8   8
#     4  10  22  37  63  90 125 168 203 245 307 366
#     4  11  18  42  66  89 116 152 218 243 306 366
#     4   9  20  34  60  91 125 160 191 252 305 364
#     4   9  18  34  58  93 128 154 206 253 284 366
#     4  11  24  42  65  89 110 165 211 264 301 353
#     4  11  19  36  62  92 117 162 207 251 300 362
#     4  11  23  44  60  87 131 152 210 260 306 365
#     4  10  24  41  57  93 131 163 195 251 314 367
#
# _framework density 19.062138999999998
#
# number of rings (size 3 to 8) (size 9 to 14) (size 15 to 20)
#    0.000    1.714    3.571    0.857    4.000    4.000 
#    2.571    0.714    0.000    0.000    0.000    0.000 
#    0.000    0.000    0.000    0.000    0.000    0.000 
#
# Total GULP energy -347186.079565 kJ/mol
# GULP energy per Si atom -12399.502842 kJ/mol
# Density = 1.901875 g / cm^3
# Si number density = 19.062139 Si / 1000 Ang^3
#
#
#
# Elastic Constant Matrix: (Units=GPa)
#
#
# Indices 1 2 3 4 5 6 
#
# 1 104.0248 46.7265 50.9681 0.0000 0.4633 0.0000
# 2 46.7265 133.0236 41.3765 0.0000 -12.0817 0.0000
# 3 50.9681 41.3765 68.7650 0.0000 -3.5782 0.0000
# 4 0.0000 0.0000 0.0000 37.6143 0.0000 -14.6884
# 5 0.4633 -12.0817 -3.5782 0.0000 31.2917 0.0000
# 6 0.0000 0.0000 0.0000 -14.6884 0.0000 33.8491
#
#
#
# Elastic Compliance Matrix: (Units=1/GPa)
#
#
# Indices 1 2 3 4 5 6 
#
# 1 0.015832 -0.002572 -0.010312 0.000000 -0.002407 0.000000
# 2 -0.002572 0.009946 -0.003899 0.000000 0.003432 0.000000
# 3 -0.010312 -0.003899 0.024607 0.000000 0.001461 0.000000
# 4 0.000000 0.000000 0.000000 0.032010 0.000000 0.013890
# 5 -0.002407 0.003432 0.001461 0.000000 0.033485 0.000000
# 6 0.000000 0.000000 0.000000 0.013890 0.000000 0.035570
#
#
# Mechanical properties :
#
#
# Convention : Reuss Voigt Hill
#
# Bulk Modulus (GPa) = 59.45926 64.88395 62.17161
# Shear Modulus (GPa) = 26.22986 31.66716 28.94851
#
# Velocity S-wave (km/s) = 3.71350 4.08028 3.90120
# Velocity P-wave (km/s) = 7.04605 7.50401 7.27863
#
# Compressibility (1/GPa) = 0.01681824
#
# Stress axis : x y z
#
# Youngs Moduli (GPa) = 63.16490 100.54741 40.63808
#
# Poissons Ratio (x) = 0.25863 0.41905
# Poissons Ratio (y) = 0.16248 0.15846
# Poissons Ratio (z) = 0.65134 0.39206
#
# Static dielectric constant tensor:
#      x y z
#    x 3.370510 0.000000 0.003230 
#    y 0.000000 3.852410 0.000000 
#    z 0.003230 0.000000 3.509500 
# 
# 
# High freq. dielectric constant tensor:
#      x y z
#    x 1.730750 0.000000 -0.008820 
#    y 0.000000 1.759990 0.000000 
#    z -0.008820 0.000000 1.731260 
# 
# From -- ./inp_files/62800.got.cif
#   From: 2010.06.25/outbox.cif.g09.slc.cpg/sg15_32_cif.got.tgz:62800.got - 2010.06.28 07:06:18.
