data_PCOD8145369
_publ_section_title
;
Structure prediction by ZEFSAII (Michael W. Deem and Ramdas Pophale) SiO2 
 PCOD8145369
Probable space group: C 2/C
;
_chemical_formula_sum "Si O2"
_cell_formula_units_Z 52
_cell_length_a 23.155297
_cell_length_b 22.489632
_cell_length_c 5.166172
_cell_angle_alpha 90.000000
_cell_angle_beta 60.612958
_cell_angle_gamma 90.000000
_cell_volume 2344.129753
_symmetry_space_group_name_H-M "C 2/C"
_symmetry_group_IT_number 15
_symmetry_cell_setting 'monoclinic'
loop_
_space_group_symop_operation_xyz
x,y,z
-x,y,1/2-z
-x,-y,-z
x,-y,1/2+z
1/2+x,1/2+y,z
1/2-x,1/2+y,1/2-z
1/2-x,1/2-y,-z
1/2+x,1/2-y,1/2+z
loop_
_atom_site_type_symbol
_atom_site_label
_atom_site_fract_x
_atom_site_fract_y
_atom_site_fract_z
Si Si1 0.937845 0.754423 0.263785
Si Si2 0.843105 0.847015 0.271032
Si Si3 0.578512 0.965418 0.601843
Si Si4 0.238401 0.819708 0.544984
Si Si5 0.577078 0.536673 0.062624
Si Si6 0.381804 0.150350 0.685567
Si Si7 0.500000 0.164713 0.750000
O O1 0.897178 0.794007 0.150525
O O2 0.891033 0.719249 0.571316
O O3 0.000000 0.792328 0.250000
O O4 0.976440 0.702407 0.040423
O O5 0.812858 0.843308 0.626484
O O6 0.786935 0.837760 0.182809
O O7 0.880169 0.907453 0.121532
O O8 0.500000 0.959317 0.750000
O O9 0.610235 0.899316 0.554334
O O10 0.604994 0.000113 0.293054
O O11 0.250000 0.750000 0.500000
O O12 0.307472 0.852219 0.459594
O O13 0.500000 0.554411 0.250000
O O14 0.594613 0.514034 0.312194
O O15 0.435944 0.128645 0.785051
#
# Coordination Sequence:
#
# PCOD8145369 Si02
#       7
#     8   8   8   8   8   8   4
#     4  10  23  38  64 100 130 169 222 288 350 403
#     4  12  26  44  70 102 139 187 228 284 341 426
#     4  10  23  40  63  92 124 165 216 273 333 385
#     4  12  26  45  67 100 141 191 227 271 347 429
#     4  10  23  46  74 105 139 183 233 294 357 411
#     4  11  24  42  65  93 133 175 229 276 347 397
#     4  10  22  38  64  96 126 170 218 296 348 392
#
# _framework density 22.183071999999999
#
# number of rings (size 3 to 8) (size 9 to 14) (size 15 to 20)
#    0.000    1.231    1.538    3.692   10.769    1.846 
#    0.000    4.615    0.000    0.000    0.000    0.000 
#    0.000    0.000    0.000    0.000    0.000    0.000 
#
# Total GULP energy -322180.862501 kJ/mol
# GULP energy per Si atom -12391.571635 kJ/mol
# Density = 2.213258 g / cm^3
# Si number density = 22.183072 Si / 1000 Ang^3
#
#
#
# Elastic Constant Matrix: (Units=GPa)
#
#
# Indices 1 2 3 4 5 6 
#
# 1 115.5224 41.8826 38.7804 0.0000 -5.0341 0.0000
# 2 41.8826 100.5952 32.1178 0.0000 -8.7152 0.0000
# 3 38.7804 32.1178 104.7869 0.0000 5.9950 0.0000
# 4 0.0000 0.0000 0.0000 686.6808 0.0000 -334.8844
# 5 -5.0341 -8.7152 5.9950 0.0000 30.8930 0.0000
# 6 0.0000 0.0000 0.0000 -334.8844 0.0000 186.6694
#
#
#
# Elastic Compliance Matrix: (Units=1/GPa)
#
#
# Indices 1 2 3 4 5 6 
#
# 1 0.011017 -0.003477 -0.003092 0.000000 0.001414 0.000000
# 2 -0.003477 0.012578 -0.002770 0.000000 0.003519 0.000000
# 3 -0.003092 -0.002770 0.011740 0.000000 -0.003564 0.000000
# 4 0.000000 0.000000 0.000000 0.011642 0.000000 0.020885
# 5 0.001414 0.003519 -0.003564 0.000000 0.034285 0.000000
# 6 0.000000 0.000000 0.000000 0.020885 0.000000 0.042825
#
#
# Mechanical properties :
#
#
# Convention : Reuss Voigt Hill
#
# Bulk Modulus (GPa) = 60.03561 60.71847 60.37704
# Shear Modulus (GPa) = 33.71191 194.72355 114.21773
#
# Velocity S-wave (km/s) = 3.90258 9.37928 7.18335
# Velocity P-wave (km/s) = 6.88689 12.03019 9.80190
#
# Compressibility (1/GPa) = 0.01665678
#
# Stress axis : x y z
#
# Youngs Moduli (GPa) = 90.77216 79.50635 85.17581
#
# Poissons Ratio (x) = 0.27643 0.26339
# Poissons Ratio (y) = 0.31560 0.23591
# Poissons Ratio (z) = 0.28070 0.22021
#
# Static dielectric constant tensor:
#      x y z
#    x 5.037250 0.000000 -0.879910 
#    y 0.000000 3.871650 0.000000 
#    z -0.879910 0.000000 4.995340 
# 
# 
# High freq. dielectric constant tensor:
#      x y z
#    x 1.870560 0.000000 0.004030 
#    y 0.000000 1.859050 0.000000 
#    z 0.004030 0.000000 1.883080 
# 
# From -- ./inp_files/15803.got.cif
#   From: 2010.06.25/outbox.cif.g09.slc.cpg/sg15_8_cif.got.tgz:15803.got - 2010.06.28 07:06:18.
