data_PCOD8145778
_publ_section_title
;
Structure prediction by ZEFSAII (Michael W. Deem and Ramdas Pophale) SiO2 
 PCOD8145778
Probable space group: C 2/C
;
_chemical_formula_sum "Si O2"
_cell_formula_units_Z 52
_cell_length_a 19.759433
_cell_length_b 8.612772
_cell_length_c 13.981082
_cell_angle_alpha 90.000000
_cell_angle_beta 72.908330
_cell_angle_gamma 90.000000
_cell_volume 2274.267177
_symmetry_space_group_name_H-M "C 2/C"
_symmetry_group_IT_number 15
_symmetry_cell_setting 'monoclinic'
loop_
_space_group_symop_operation_xyz
x,y,z
-x,y,1/2-z
-x,-y,-z
x,-y,1/2+z
1/2+x,1/2+y,z
1/2-x,1/2+y,1/2-z
1/2-x,1/2-y,-z
1/2+x,1/2-y,1/2+z
loop_
_atom_site_type_symbol
_atom_site_label
_atom_site_fract_x
_atom_site_fract_y
_atom_site_fract_z
Si Si1 0.000000 0.422198 0.250000
Si Si2 0.252421 0.962215 0.418942
Si Si3 0.885865 0.946452 0.271026
Si Si4 0.512755 0.336165 0.891340
Si Si5 0.900558 0.926665 0.480512
Si Si6 0.637559 0.889066 0.753278
Si Si7 0.241817 0.380766 0.868912
O O1 0.984887 0.316985 0.349561
O O2 0.066525 0.523522 0.253490
O O3 0.252297 0.805108 0.356242
O O4 0.276535 0.926748 0.516120
O O5 0.176712 0.043198 0.446505
O O6 0.307293 0.088367 0.356109
O O7 0.903229 0.875976 0.369168
O O8 0.877787 0.789972 0.214277
O O9 0.948327 0.051448 0.201922
O O10 0.814709 0.046252 0.301240
O O11 0.443260 0.411510 0.966772
O O12 0.564354 0.301754 0.960783
O O13 0.676975 0.948596 0.832867
#
# Coordination Sequence:
#
# PCOD8145778 Si02
#       7
#     4   8   8   8   8   8   8
#     4  12  28  42  64  94 138 178 216 268 316 398
#     4  10  23  43  69 101 128 163 224 273 325 390
#     4  11  23  43  69  95 131 167 219 274 321 395
#     4  11  22  43  67  94 128 175 220 258 328 390
#     4  10  22  39  73  95 123 173 217 269 321 387
#     4  12  26  42  64 101 134 174 213 274 328 382
#     4  10  22  42  72  95 129 174 216 268 330 386
#
# _framework density 22.864507
#
# number of rings (size 3 to 8) (size 9 to 14) (size 15 to 20)
#    0.000    1.231    1.538    3.692    6.462    4.923 
#    0.000    1.538    0.000    0.000    0.000    0.000 
#    0.000    0.000    0.000    0.000    0.000    0.000 
#
# Total GULP energy -322301.189436 kJ/mol
# GULP energy per Si atom -12396.199594 kJ/mol
# Density = 2.281247 g / cm^3
# Si number density = 22.864507 Si / 1000 Ang^3
#
#
#
# Elastic Constant Matrix: (Units=GPa)
#
#
# Indices 1 2 3 4 5 6 
#
# 1 121.1651 4.5619 41.5515 0.0000 14.4617 0.0000
# 2 4.5619 45.0013 11.8312 0.0000 -1.3904 0.0000
# 3 41.5515 11.8312 74.1920 0.0000 12.1347 0.0000
# 4 0.0000 0.0000 0.0000 21.5908 0.0000 -5.0260
# 5 14.4617 -1.3904 12.1347 0.0000 44.5812 0.0000
# 6 0.0000 0.0000 0.0000 -5.0260 0.0000 15.8554
#
#
#
# Elastic Compliance Matrix: (Units=1/GPa)
#
#
# Indices 1 2 3 4 5 6 
#
# 1 0.010367 0.000355 -0.005562 0.000000 -0.001838 0.000000
# 2 0.000355 0.023347 -0.004209 0.000000 0.001759 0.000000
# 3 -0.005562 -0.004209 0.017783 0.000000 -0.003167 0.000000
# 4 0.000000 0.000000 0.000000 0.050006 0.000000 0.015851
# 5 -0.001838 0.001759 -0.003167 0.000000 0.023944 0.000000
# 6 0.000000 0.000000 0.000000 0.015851 0.000000 0.068095
#
#
# Mechanical properties :
#
#
# Convention : Reuss Voigt Hill
#
# Bulk Modulus (GPa) = 30.61572 39.58307 35.09940
# Shear Modulus (GPa) = 22.39529 28.56641 25.48085
#
# Velocity S-wave (km/s) = 3.13306 3.53849 3.34193
# Velocity P-wave (km/s) = 5.14851 5.83474 5.50233
#
# Compressibility (1/GPa) = 0.03266295
#
# Stress axis : x y z
#
# Youngs Moduli (GPa) = 96.46439 42.83268 56.23440
#
# Poissons Ratio (x) = -0.01519 0.31276
# Poissons Ratio (y) = -0.03420 0.23671
# Poissons Ratio (z) = 0.53651 0.18030
#
# Static dielectric constant tensor:
#      x y z
#    x 4.354910 0.000000 0.324830 
#    y 0.000000 3.874110 0.000000 
#    z 0.324830 0.000000 4.291210 
# 
# 
# High freq. dielectric constant tensor:
#      x y z
#    x 1.922720 0.000000 0.016620 
#    y 0.000000 1.874700 0.000000 
#    z 0.016620 0.000000 1.911590 
# 
# From -- ./inp_files/166250.got.cif
#   From: 2010.06.25/outbox.cif.g09.slc.cpg/sg15_84_cif.got.tgz:166250.got - 2010.06.28 07:06:18.
