data_PCOD8145922
_publ_section_title
;
Structure prediction by ZEFSAII (Michael W. Deem and Ramdas Pophale) SiO2 
 PCOD8145922
Probable space group: C 2/C
;
_chemical_formula_sum "Si O2"
_cell_formula_units_Z 64
_cell_length_a 14.099716
_cell_length_b 11.816927
_cell_length_c 29.969255
_cell_angle_alpha 90.000000
_cell_angle_beta 139.536576
_cell_angle_gamma 90.000000
_cell_volume 3240.488340
_symmetry_space_group_name_H-M "C 2/C"
_symmetry_group_IT_number 15
_symmetry_cell_setting 'monoclinic'
loop_
_space_group_symop_operation_xyz
x,y,z
-x,y,1/2-z
-x,-y,-z
x,-y,1/2+z
1/2+x,1/2+y,z
1/2-x,1/2+y,1/2-z
1/2-x,1/2-y,-z
1/2+x,1/2-y,1/2+z
loop_
_atom_site_type_symbol
_atom_site_label
_atom_site_fract_x
_atom_site_fract_y
_atom_site_fract_z
Si Si1 0.373658 0.404229 0.811629
Si Si2 0.865665 0.916831 0.451416
Si Si3 0.203093 0.528885 0.561609
Si Si4 0.494829 0.610393 0.801755
Si Si5 0.326226 0.029818 0.696137
Si Si6 0.319062 0.371204 0.531355
Si Si7 0.571778 0.831843 0.564561
Si Si8 0.316878 0.258717 0.306324
O O1 0.406679 0.502425 0.787918
O O2 0.238788 0.427705 0.797397
O O3 0.516694 0.366577 0.890253
O O4 0.324399 0.305168 0.761895
O O5 0.741133 0.972574 0.376901
O O6 0.809268 0.929378 0.480667
O O7 0.897271 0.785519 0.450356
O O8 0.000000 0.000000 0.500000
O O9 0.340971 0.604516 0.622404
O O10 0.215943 0.450720 0.523140
O O11 0.179785 0.437319 0.592948
O O12 0.082531 0.623349 0.508599
O O13 0.500000 0.624435 0.750000
O O14 0.420139 0.715069 0.800789
O O15 0.500000 0.025518 0.750000
O O16 0.261565 0.138336 0.697566
O O17 0.250000 0.250000 0.500000
O O18 0.584256 0.809436 0.622145
#
# Coordination Sequence:
#
# PCOD8145922 Si02
#       8
#     8   8   8   8   8   8   8   8
#     4  10  22  41  60  86 126 159 203 260 302 369
#     4  11  22  42  63  90 129 163 199 265 316 368
#     4  10  22  40  63  91 124 163 210 254 303 375
#     4  10  22  41  61  88 122 164 207 252 310 371
#     4  10  23  40  61  89 121 162 207 249 316 371
#     4  11  22  39  64  96 120 162 214 250 308 371
#     4  10  22  41  62  91 124 165 207 252 313 364
#     4  10  23  40  61  88 122 161 205 256 307 364
#
# _framework density 19.750109999999999
#
# number of rings (size 3 to 8) (size 9 to 14) (size 15 to 20)
#    0.000    1.750    2.500    0.750    3.500    4.500 
#    4.500    0.000    0.000    0.000    0.000    0.000 
#    0.000    0.000    0.000    0.000    0.000    0.000 
#
# Total GULP energy -396431.671929 kJ/mol
# GULP energy per Si atom -12388.489748 kJ/mol
# Density = 1.970516 g / cm^3
# Si number density = 19.750110 Si / 1000 Ang^3
#
#
#
# Elastic Constant Matrix: (Units=GPa)
#
#
# Indices 1 2 3 4 5 6 
#
# 1 118.3974 13.9216 43.3526 0.0000 -10.1926 0.0000
# 2 13.9216 46.8482 28.0314 0.0000 0.9680 0.0000
# 3 43.3526 28.0314 99.1688 0.0000 -10.9187 0.0000
# 4 0.0000 0.0000 0.0000 28.0284 0.0000 3.7021
# 5 -10.1926 0.9680 -10.9187 0.0000 44.3548 0.0000
# 6 0.0000 0.0000 0.0000 3.7021 0.0000 19.8502
#
#
#
# Elastic Compliance Matrix: (Units=1/GPa)
#
#
# Indices 1 2 3 4 5 6 
#
# 1 0.010138 -0.000572 -0.004124 0.000000 0.001327 0.000000
# 2 -0.000572 0.025977 -0.007369 0.000000 -0.002512 0.000000
# 3 -0.004124 -0.007369 0.014270 0.000000 0.002726 0.000000
# 4 0.000000 0.000000 0.000000 0.036579 0.000000 -0.006822
# 5 0.001327 -0.002512 0.002726 0.000000 0.023576 0.000000
# 6 0.000000 0.000000 0.000000 -0.006822 0.000000 0.051650
#
#
# Mechanical properties :
#
#
# Convention : Reuss Voigt Hill
#
# Bulk Modulus (GPa) = 38.09035 48.33619 43.21327
# Shear Modulus (GPa) = 25.63166 30.38726 28.00946
#
# Velocity S-wave (km/s) = 3.60641 3.92674 3.76998
# Velocity P-wave (km/s) = 6.05554 6.71461 6.39357
#
# Compressibility (1/GPa) = 0.02625337
#
# Stress axis : x y z
#
# Youngs Moduli (GPa) = 98.64187 38.49588 70.07860
#
# Poissons Ratio (x) = 0.02204 0.28900
# Poissons Ratio (y) = 0.05647 0.51641
# Poissons Ratio (z) = 0.40679 0.28368
#
# Static dielectric constant tensor:
#      x y z
#    x 3.699240 0.000000 -0.138360 
#    y 0.000000 5.879250 0.000000 
#    z -0.138360 0.000000 3.556760 
# 
# 
# High freq. dielectric constant tensor:
#      x y z
#    x 1.779460 0.000000 -0.008170 
#    y 0.000000 1.770490 0.000000 
#    z -0.008170 0.000000 1.779310 
# 
# From -- ./inp_files/313617.got.cif
#   From: 2010.06.25/outbox.cif.g09.slc.cpg/sg15_157_cif.got.tgz:313617.got - 2010.06.28 07:06:18.
