data_PCOD8145927
_publ_section_title
;
Structure prediction by ZEFSAII (Michael W. Deem and Ramdas Pophale) SiO2 
 PCOD8145927
Probable space group: C 2/C
;
_chemical_formula_sum "Si O2"
_cell_formula_units_Z 40
_cell_length_a 9.135879
_cell_length_b 24.374146
_cell_length_c 8.610515
_cell_angle_alpha 90.000000
_cell_angle_beta 76.352219
_cell_angle_gamma 90.000000
_cell_volume 1863.244875
_symmetry_space_group_name_H-M "C 2/C"
_symmetry_group_IT_number 15
_symmetry_cell_setting 'monoclinic'
loop_
_space_group_symop_operation_xyz
x,y,z
-x,y,1/2-z
-x,-y,-z
x,-y,1/2+z
1/2+x,1/2+y,z
1/2-x,1/2+y,1/2-z
1/2-x,1/2-y,-z
1/2+x,1/2-y,1/2+z
loop_
_atom_site_type_symbol
_atom_site_label
_atom_site_fract_x
_atom_site_fract_y
_atom_site_fract_z
Si Si1 0.844737 0.220313 0.715016
Si Si2 0.844949 0.887899 0.380523
Si Si3 0.386047 0.979305 0.155807
Si Si4 0.658352 0.317753 0.634870
Si Si5 0.660660 0.575984 0.272253
O O1 0.783801 0.172910 0.846958
O O2 0.734276 0.271207 0.722450
O O3 0.863128 0.195101 0.539420
O O4 0.000000 0.242505 0.750000
O O5 0.873009 0.894017 0.555775
O O6 0.000000 0.898971 0.250000
O O7 0.718540 0.930886 0.371690
O O8 0.500000 0.953743 0.250000
O O9 0.281188 0.027314 0.253943
O O10 0.500000 0.000000 0.000000
O O11 0.500000 0.328280 0.750000
O O12 0.735674 0.377628 0.639157
O O13 0.500000 0.552443 0.250000
#
# Coordination Sequence:
#
# PCOD8145927 Si02
#       5
#     8   8   8   8   8
#     4  10  22  40  63  94 124 165 210 258 313 373
#     4  11  24  42  67  92 126 171 214 257 316 383
#     4  12  27  44  63  97 131 165 213 267 323 373
#     4  10  22  40  63  92 126 163 211 258 311 376
#     4  11  24  42  67  92 126 172 213 259 315 383
#
# _framework density 21.467925000000001
#
# number of rings (size 3 to 8) (size 9 to 14) (size 15 to 20)
#    0.000    1.200    2.000    5.400    5.600    6.400 
#    3.600    0.000    0.000    0.000    0.000    0.000 
#    0.000    0.000    0.000    0.000    0.000    0.000 
#
# Total GULP energy -247811.358924 kJ/mol
# GULP energy per Si atom -12390.567946 kJ/mol
# Density = 2.141906 g / cm^3
# Si number density = 21.467925 Si / 1000 Ang^3
#
#
#
# Elastic Constant Matrix: (Units=GPa)
#
#
# Indices 1 2 3 4 5 6 
#
# 1 84.5350 35.9205 31.2067 0.0000 20.0103 0.0000
# 2 35.9205 61.4537 0.5835 0.0000 10.7389 0.0000
# 3 31.2067 0.5835 85.8477 0.0000 21.6329 0.0000
# 4 0.0000 0.0000 0.0000 -163.2228 0.0000 -200.0567
# 5 20.0103 10.7389 21.6329 0.0000 39.8092 0.0000
# 6 0.0000 0.0000 0.0000 -200.0567 0.0000 -201.8174
#
#
#
# Elastic Compliance Matrix: (Units=1/GPa)
#
#
# Indices 1 2 3 4 5 6 
#
# 1 0.019479 -0.010701 -0.006104 0.000000 -0.003588 0.000000
# 2 -0.010701 0.023065 0.004572 0.000000 -0.003328 0.000000
# 3 -0.006104 0.004572 0.015496 0.000000 -0.006586 0.000000
# 4 0.000000 0.000000 0.000000 0.028499 0.000000 -0.028251
# 5 -0.003588 -0.003328 -0.006586 0.000000 0.031400 0.000000
# 6 0.000000 0.000000 0.000000 -0.028251 0.000000 0.023049
#
#
# Mechanical properties :
#
#
# Convention : Reuss Voigt Hill
#
# Bulk Modulus (GPa) = 29.78535 40.80641 35.29588
# Shear Modulus (GPa) = 28.30520 -54.10450 -12.89965
#
# Velocity S-wave (km/s) = 3.63504 -5.02565 -2.45395
# Velocity P-wave (km/s) = 5.61449 3.82451 2.90651
#
# Compressibility (1/GPa) = 0.03357355
#
# Stress axis : x y z
#
# Youngs Moduli (GPa) = 51.33741 43.35520 64.53318
#
# Poissons Ratio (x) = 0.46394 0.39392
# Poissons Ratio (y) = 0.54935 -0.29502
# Poissons Ratio (z) = 0.31337 -0.19820
#
# Static dielectric constant tensor:
#      x y z
#    x 3.827530 0.000000 0.146810 
#    y 0.000000 4.257710 0.000000 
#    z 0.146810 0.000000 3.909290 
# 
# 
# High freq. dielectric constant tensor:
#      x y z
#    x 1.841610 0.000000 0.022140 
#    y 0.000000 1.852220 0.000000 
#    z 0.022140 0.000000 1.857310 
# 
# From -- ./inp_files/23650.got.cif
#   From: 2010.06.25/outbox.cif.g09.slc.cpg/sg15_12_cif.got.tgz:23650.got - 2010.06.28 07:06:18.
