data_PCOD8145960
_publ_section_title
;
Structure prediction by ZEFSAII (Michael W. Deem and Ramdas Pophale) SiO2 
 PCOD8145960
Probable space group: C 2/C
;
_chemical_formula_sum "Si O2"
_cell_formula_units_Z 56
_cell_length_a 17.711832
_cell_length_b 23.593677
_cell_length_c 15.010533
_cell_angle_alpha 90.000000
_cell_angle_beta 155.516209
_cell_angle_gamma 90.000000
_cell_volume 2599.635678
_symmetry_space_group_name_H-M "C 2/C"
_symmetry_group_IT_number 15
_symmetry_cell_setting 'monoclinic'
loop_
_space_group_symop_operation_xyz
x,y,z
-x,y,1/2-z
-x,-y,-z
x,-y,1/2+z
1/2+x,1/2+y,z
1/2-x,1/2+y,1/2-z
1/2-x,1/2-y,-z
1/2+x,1/2-y,1/2+z
loop_
_atom_site_type_symbol
_atom_site_label
_atom_site_fract_x
_atom_site_fract_y
_atom_site_fract_z
Si Si1 0.302496 0.500857 0.067198
Si Si2 0.165725 0.358174 0.622902
Si Si3 0.553445 0.443623 0.607795
Si Si4 0.640458 0.183934 0.284700
Si Si5 0.290219 0.813893 0.016963
Si Si6 0.000000 0.218728 0.750000
Si Si7 0.500000 0.089502 0.250000
Si Si8 0.775029 0.598193 0.642631
O O1 0.500000 0.477404 0.250000
O O2 0.328467 0.542593 0.178035
O O3 0.177246 0.448234 0.958554
O O4 0.205734 0.537291 0.885400
O O5 0.309354 0.406951 0.806171
O O6 0.151607 0.314555 0.689738
O O7 0.259734 0.326033 0.639631
O O8 0.967892 0.384074 0.390453
O O9 0.500000 0.500000 0.500000
O O10 0.372387 0.407734 0.436798
O O11 0.835616 0.178645 0.543201
O O12 0.547396 0.242240 0.215627
O O13 0.524191 0.129083 0.189183
O O14 0.500000 0.828223 0.250000
O O15 0.194292 0.855516 0.985494
O O16 0.250000 0.750000 0.000000
#
# Coordination Sequence:
#
# PCOD8145960 Si02
#       8
#     8   8   8   8   8   4   4   8
#     4  10  22  40  64  89 135 180 217 259 338 388
#     4  11  24  42  65 102 131 165 230 276 324 398
#     4  11  25  39  65  96 130 185 220 274 328 385
#     4  10  24  43  71  96 126 173 218 281 331 403
#     4  10  23  40  67  96 131 180 219 269 344 405
#     4   9  22  52  68  88 136 174 211 268 372 384
#     4  11  24  38  66  98 122 176 217 274 330 400
#     4  10  23  45  63  92 142 184 211 276 341 401
#
# _framework density 21.54148
#
# number of rings (size 3 to 8) (size 9 to 14) (size 15 to 20)
#    0.000    1.714    1.429    0.857   10.000    2.857 
#    5.143    0.000    0.000    0.000    0.000    0.000 
#    0.000    0.000    0.000    0.000    0.000    0.000 
#
# Total GULP energy -347226.928009 kJ/mol
# GULP energy per Si atom -12400.961715 kJ/mol
# Density = 2.149245 g / cm^3
# Si number density = 21.541480 Si / 1000 Ang^3
#
#
#
# Elastic Constant Matrix: (Units=GPa)
#
#
# Indices 1 2 3 4 5 6 
#
# 1 130.1016 53.9217 45.4781 0.0000 1.3513 0.0000
# 2 53.9217 106.4853 47.5042 0.0000 5.1954 0.0000
# 3 45.4781 47.5042 92.2446 0.0000 7.7613 0.0000
# 4 0.0000 0.0000 0.0000 29.3132 0.0000 4.7697
# 5 1.3513 5.1954 7.7613 0.0000 25.6116 0.0000
# 6 0.0000 0.0000 0.0000 4.7697 0.0000 30.6437
#
#
#
# Elastic Compliance Matrix: (Units=1/GPa)
#
#
# Indices 1 2 3 4 5 6 
#
# 1 0.010417 -0.003892 -0.003234 0.000000 0.001220 0.000000
# 2 -0.003892 0.013654 -0.005025 0.000000 -0.001042 0.000000
# 3 -0.003234 -0.005025 0.015314 0.000000 -0.003451 0.000000
# 4 0.000000 0.000000 0.000000 0.035001 0.000000 -0.005448
# 5 0.001220 -0.001042 -0.003451 0.000000 0.040237 0.000000
# 6 0.000000 0.000000 0.000000 -0.005448 0.000000 0.033481
#
#
# Mechanical properties :
#
#
# Convention : Reuss Voigt Hill
#
# Bulk Modulus (GPa) = 66.30298 69.18216 67.74257
# Shear Modulus (GPa) = 28.17940 29.24221 28.71080
#
# Velocity S-wave (km/s) = 3.62075 3.68840 3.65473
# Velocity P-wave (km/s) = 6.95168 7.09398 7.02319
#
# Compressibility (1/GPa) = 0.01508228
#
# Stress axis : x y z
#
# Youngs Moduli (GPa) = 95.99556 73.23696 65.30121
#
# Poissons Ratio (x) = 0.28501 0.21121
# Poissons Ratio (y) = 0.37358 0.32817
# Poissons Ratio (z) = 0.31048 0.36805
#
# Static dielectric constant tensor:
#      x y z
#    x 4.228090 0.000000 0.250310 
#    y 0.000000 3.692280 0.000000 
#    z 0.250310 0.000000 3.865940 
# 
# 
# High freq. dielectric constant tensor:
#      x y z
#    x 1.847620 0.000000 0.015010 
#    y 0.000000 1.840360 0.000000 
#    z 0.015010 0.000000 1.843400 
# 
# From -- ./inp_files/216693.got.cif
#   From: 2010.06.25/outbox.cif.g09.slc.cpg/sg15_109_cif.got.tgz:216693.got - 2010.06.28 07:06:18.
