data_PCOD8145029
_publ_section_title
;
Structure prediction by ZEFSAII (Michael W. Deem and Ramdas Pophale) SiO2 
 PCOD8145029
Probable space group: C 2/C
;
_chemical_formula_sum "Si O2"
_cell_formula_units_Z 52
_cell_length_a 8.931209
_cell_length_b 23.232517
_cell_length_c 14.862160
_cell_angle_alpha 90.000000
_cell_angle_beta 58.741227
_cell_angle_gamma 90.000000
_cell_volume 2636.145862
_symmetry_space_group_name_H-M "C 2/C"
_symmetry_group_IT_number 15
_symmetry_cell_setting 'monoclinic'
loop_
_space_group_symop_operation_xyz
x,y,z
-x,y,1/2-z
-x,-y,-z
x,-y,1/2+z
1/2+x,1/2+y,z
1/2-x,1/2+y,1/2-z
1/2-x,1/2-y,-z
1/2+x,1/2-y,1/2+z
loop_
_atom_site_type_symbol
_atom_site_label
_atom_site_fract_x
_atom_site_fract_y
_atom_site_fract_z
Si Si1 0.500000 0.599156 0.250000
Si Si2 0.272126 0.825688 0.572720
Si Si3 0.453417 0.090070 0.538803
Si Si4 0.160215 0.880652 0.258534
Si Si5 0.226641 0.499709 0.526143
Si Si6 0.307768 0.201422 0.853039
Si Si7 0.887808 0.009026 0.158843
O O1 0.405658 0.639486 0.352428
O O2 0.356329 0.557765 0.245054
O O3 0.437132 0.863857 0.554097
O O4 0.302294 0.818489 0.457292
O O5 0.268323 0.766099 0.628282
O O6 0.338609 0.124095 0.647021
O O7 0.324980 0.057315 0.511383
O O8 0.582657 0.048451 0.554421
O O9 0.177377 0.840678 0.340556
O O10 0.123879 0.946329 0.295370
O O11 0.000000 0.856365 0.250000
O O12 0.416378 0.522050 0.437068
O O13 0.240405 0.484532 0.627766
O O14 0.500000 0.199343 0.750000
#
# Coordination Sequence:
#
# PCOD8145029 Si02
#       7
#     4   8   8   8   8   8   8
#     4  12  22  40  64  98 140 166 206 270 332 380
#     4  11  24  42  69  95 126 167 222 274 320 381
#     4  11  21  41  62  93 129 167 213 269 318 393
#     4  12  24  41  64  94 130 172 214 267 325 388
#     4  10  22  36  62  93 133 171 210 255 328 393
#     4  11  24  45  70  93 120 174 230 267 318 388
#     4  11  22  38  59  98 132 173 208 259 329 391
#
# _framework density 19.725767000000001
#
# number of rings (size 3 to 8) (size 9 to 14) (size 15 to 20)
#    0.000    0.923    6.154    0.923    4.308    0.000 
#    0.000    2.308    0.000    0.000    0.000    0.000 
#    0.000    0.000    0.000    0.000    0.000    0.000 
#
# Total GULP energy -322418.407844 kJ/mol
# GULP energy per Si atom -12400.707994 kJ/mol
# Density = 1.968087 g / cm^3
# Si number density = 19.725767 Si / 1000 Ang^3
#
#
#
# Elastic Constant Matrix: (Units=GPa)
#
#
# Indices 1 2 3 4 5 6 
#
# 1 92.6531 28.8389 34.2526 0.0000 5.4377 0.0000
# 2 28.8389 114.2978 42.2406 0.0000 1.3461 0.0000
# 3 34.2526 42.2406 95.2332 0.0000 -3.0316 0.0000
# 4 0.0000 0.0000 0.0000 37.0771 0.0000 -1.0363
# 5 5.4377 1.3461 -3.0316 0.0000 28.0744 0.0000
# 6 0.0000 0.0000 0.0000 -1.0363 0.0000 23.4156
#
#
#
# Elastic Compliance Matrix: (Units=1/GPa)
#
#
# Indices 1 2 3 4 5 6 
#
# 1 0.012982 -0.001773 -0.003974 0.000000 -0.002858 0.000000
# 2 -0.001773 0.010735 -0.004143 0.000000 -0.000619 0.000000
# 3 -0.003974 -0.004143 0.013846 0.000000 0.002463 0.000000
# 4 0.000000 0.000000 0.000000 0.027004 0.000000 0.001195
# 5 -0.002858 -0.000619 0.002463 0.000000 0.036469 0.000000
# 6 0.000000 0.000000 0.000000 0.001195 0.000000 0.042760
#
#
# Mechanical properties :
#
#
# Convention : Reuss Voigt Hill
#
# Bulk Modulus (GPa) = 56.23640 56.98317 56.60979
# Shear Modulus (GPa) = 29.49793 30.83686 30.16739
#
# Velocity S-wave (km/s) = 3.87124 3.95812 3.91492
# Velocity P-wave (km/s) = 6.96800 7.05970 7.01400
#
# Compressibility (1/GPa) = 0.01778208
#
# Stress axis : x y z
#
# Youngs Moduli (GPa) = 77.03194 93.15283 72.22327
#
# Poissons Ratio (x) = 0.16519 0.28698
# Poissons Ratio (y) = 0.13660 0.29925
# Poissons Ratio (z) = 0.30609 0.38597
#
# Static dielectric constant tensor:
#      x y z
#    x 3.602640 0.000000 0.016850 
#    y 0.000000 3.766000 0.000000 
#    z 0.016850 0.000000 3.766270 
# 
# 
# High freq. dielectric constant tensor:
#      x y z
#    x 1.757060 0.000000 -0.003920 
#    y 0.000000 1.769400 0.000000 
#    z -0.003920 0.000000 1.778990 
# 
# From -- ./inp_files/137224.got.cif
#   From: 2010.06.25/outbox.cif.g09.slc.cpg/sg15_69_cif.got.tgz:137224.got - 2010.06.28 07:06:18.
