data_PCOD8145089
_publ_section_title
;
Structure prediction by ZEFSAII (Michael W. Deem and Ramdas Pophale) SiO2 
 PCOD8145089
Probable space group: C 2/C
;
_chemical_formula_sum "Si O2"
_cell_formula_units_Z 48
_cell_length_a 7.019720
_cell_length_b 20.729369
_cell_length_c 18.682145
_cell_angle_alpha 90.000000
_cell_angle_beta 79.429333
_cell_angle_gamma 90.000000
_cell_volume 2672.385552
_symmetry_space_group_name_H-M "C 2/C"
_symmetry_group_IT_number 15
_symmetry_cell_setting 'monoclinic'
loop_
_space_group_symop_operation_xyz
x,y,z
-x,y,1/2-z
-x,-y,-z
x,-y,1/2+z
1/2+x,1/2+y,z
1/2-x,1/2+y,1/2-z
1/2-x,1/2-y,-z
1/2+x,1/2-y,1/2+z
loop_
_atom_site_type_symbol
_atom_site_label
_atom_site_fract_x
_atom_site_fract_y
_atom_site_fract_z
Si Si1 0.657920 0.417643 0.186761
Si Si2 0.721115 0.850430 0.722742
Si Si3 0.109405 0.184338 0.575275
Si Si4 0.500000 0.865122 0.250000
Si Si5 0.500000 0.540799 0.250000
Si Si6 0.089452 0.788307 0.920482
Si Si7 0.730168 0.755274 0.160668
O O1 0.500000 0.383248 0.250000
O O2 0.636179 0.384893 0.110914
O O3 0.869969 0.409462 0.207126
O O4 0.606064 0.494026 0.184188
O O5 0.500000 0.868848 0.750000
O O6 0.840078 0.915720 0.723807
O O7 0.761458 0.827001 0.639770
O O8 0.783616 0.793825 0.772246
O O9 0.054659 0.171927 0.496182
O O10 0.316327 0.219467 0.566968
O O11 0.949755 0.230048 0.623608
O O12 0.631577 0.821902 0.189533
O O13 0.882084 0.777497 0.897695
#
# Coordination Sequence:
#
# PCOD8145089 Si02
#       7
#     8   8   8   4   4   8   8
#     4  10  22  37  59  81 111 152 191 241 275 327
#     4  12  22  37  62  84 115 152 198 234 279 330
#     4  11  22  37  55  90 121 148 181 233 306 348
#     4  12  19  32  62  88 111 138 196 232 290 336
#     4  10  23  40  60  80 107 154 216 238 256 328
#     4  11  22  35  57  89 121 148 180 235 299 356
#     4  12  19  34  60  86 116 150 183 235 283 356
#
# _framework density 17.961480000000002
#
# number of rings (size 3 to 8) (size 9 to 14) (size 15 to 20)
#    0.500    0.333    8.333    0.500    1.167    0.000 
#    0.000    0.833    0.000    1.000    0.000    0.000 
#    0.000    0.000    0.000    0.000    0.000    0.000 
#
# Total GULP energy -297571.402327 kJ/mol
# GULP energy per Si atom -12398.808430 kJ/mol
# Density = 1.792060 g / cm^3
# Si number density = 17.961480 Si / 1000 Ang^3
#
#
#
# Elastic Constant Matrix: (Units=GPa)
#
#
# Indices 1 2 3 4 5 6 
#
# 1 91.2788 32.2987 16.2486 0.0000 8.3549 0.0000
# 2 32.2987 95.1480 36.9707 0.0000 5.3085 0.0000
# 3 16.2486 36.9707 101.6790 0.0000 6.8875 0.0000
# 4 0.0000 0.0000 0.0000 14.3370 0.0000 0.3910
# 5 8.3549 5.3085 6.8875 0.0000 19.6629 0.0000
# 6 0.0000 0.0000 0.0000 0.3910 0.0000 24.8521
#
#
#
# Elastic Compliance Matrix: (Units=1/GPa)
#
#
# Indices 1 2 3 4 5 6 
#
# 1 0.012813 -0.003992 -0.000307 0.000000 -0.004259 0.000000
# 2 -0.003992 0.013545 -0.004255 0.000000 -0.000470 0.000000
# 3 -0.000307 -0.004255 0.011620 0.000000 -0.002791 0.000000
# 4 0.000000 0.000000 0.000000 0.069780 0.000000 -0.001098
# 5 -0.004259 -0.000470 -0.002791 0.000000 0.053771 0.000000
# 6 0.000000 0.000000 0.000000 -0.001098 0.000000 0.040255
#
#
# Mechanical properties :
#
#
# Convention : Reuss Voigt Hill
#
# Bulk Modulus (GPa) = 47.92028 51.01576 49.46802
# Shear Modulus (GPa) = 22.13864 25.27624 23.70744
#
# Velocity S-wave (km/s) = 3.51460 3.75540 3.63699
# Velocity P-wave (km/s) = 6.57322 6.87521 6.72591
#
# Compressibility (1/GPa) = 0.02086799
#
# Stress axis : x y z
#
# Youngs Moduli (GPa) = 78.04793 73.82947 86.05703
#
# Poissons Ratio (x) = 0.29475 0.02646
# Poissons Ratio (y) = 0.31159 0.36618
# Poissons Ratio (z) = 0.02399 0.31415
#
# Static dielectric constant tensor:
#      x y z
#    x 3.523010 0.000000 0.026880 
#    y 0.000000 3.068440 0.000000 
#    z 0.026880 0.000000 3.292460 
# 
# 
# High freq. dielectric constant tensor:
#      x y z
#    x 1.713330 0.000000 0.004650 
#    y 0.000000 1.669850 0.000000 
#    z 0.004650 0.000000 1.683470 
# 
# From -- ./inp_files/191305.got.cif
#   From: 2010.06.25/outbox.cif.g09.slc.cpg/sg15_96_cif.got.tgz:191305.got - 2010.06.28 07:06:18.
