data_PCOD8145379
_publ_section_title
;
Structure prediction by ZEFSAII (Michael W. Deem and Ramdas Pophale) SiO2 
 PCOD8145379
Probable space group: C 2/C
;
_chemical_formula_sum "Si O2"
_cell_formula_units_Z 60
_cell_length_a 17.167668
_cell_length_b 28.960206
_cell_length_c 11.754849
_cell_angle_alpha 90.000000
_cell_angle_beta 152.058815
_cell_angle_gamma 90.000000
_cell_volume 2738.418451
_symmetry_space_group_name_H-M "C 2/C"
_symmetry_group_IT_number 15
_symmetry_cell_setting 'monoclinic'
loop_
_space_group_symop_operation_xyz
x,y,z
-x,y,1/2-z
-x,-y,-z
x,-y,1/2+z
1/2+x,1/2+y,z
1/2-x,1/2+y,1/2-z
1/2-x,1/2-y,-z
1/2+x,1/2-y,1/2+z
loop_
_atom_site_type_symbol
_atom_site_label
_atom_site_fract_x
_atom_site_fract_y
_atom_site_fract_z
Si Si1 0.811783 0.959733 0.704884
Si Si2 0.923978 0.694223 0.354447
Si Si3 0.154874 0.853236 0.362754
Si Si4 0.440718 0.118465 0.555521
Si Si5 0.184581 0.791215 0.197030
Si Si6 0.844932 0.058815 0.772905
Si Si7 0.000000 0.827317 0.750000
Si Si8 0.782739 0.911164 0.445179
O O1 0.695133 0.920029 0.600204
O O2 0.850265 0.950084 0.620134
O O3 0.735586 0.011864 0.616733
O O4 0.964364 0.957158 0.989685
O O5 0.881107 0.660496 0.402684
O O6 0.834700 0.741929 0.268880
O O7 0.120987 0.699366 0.583187
O O8 0.824703 0.671788 0.121302
O O9 0.108530 0.828758 0.184805
O O10 0.196786 0.906308 0.384207
O O11 0.000000 0.849280 0.250000
O O12 0.500000 0.140753 0.750000
O O13 0.585672 0.089574 0.682840
O O14 0.060569 0.793697 0.929164
O O15 0.836540 0.082074 0.885549
O O16 0.845850 0.861755 0.576742
#
# Coordination Sequence:
#
# PCOD8145379 Si02
#       8
#     8   8   8   8   8   8   4   8
#     4  10  22  38  65 100 137 173 231 292 343 413
#     4  12  26  45  69 101 142 183 237 292 354 434
#     4  12  25  46  70 100 146 187 235 287 352 426
#     4  10  23  42  64  95 134 174 223 289 353 404
#     4  12  27  46  71 106 135 190 235 297 360 421
#     4  11  22  40  68  98 131 185 232 277 349 417
#     4  12  22  44  76  96 138 176 240 288 354 424
#     4  11  20  42  66  92 133 177 221 287 348 409
#
# _framework density 21.910456
#
# number of rings (size 3 to 8) (size 9 to 14) (size 15 to 20)
#    0.000    0.800    4.000    2.400    0.933    7.467 
#    0.000    6.667    0.000    0.000    0.000    0.000 
#    0.000    0.000    0.000    0.000    0.000    0.000 
#
# Total GULP energy -371763.648054 kJ/mol
# GULP energy per Si atom -12392.121602 kJ/mol
# Density = 2.186059 g / cm^3
# Si number density = 21.910456 Si / 1000 Ang^3
#
#
#
# Elastic Constant Matrix: (Units=GPa)
#
#
# Indices 1 2 3 4 5 6 
#
# 1 105.3871 52.5018 40.5815 0.0000 6.2912 0.0000
# 2 52.5018 136.9127 17.3597 0.0000 -11.8211 0.0000
# 3 40.5815 17.3597 59.4928 0.0000 -15.1971 0.0000
# 4 0.0000 0.0000 0.0000 21.9464 0.0000 -22.7561
# 5 6.2912 -11.8211 -15.1971 0.0000 28.6926 0.0000
# 6 0.0000 0.0000 0.0000 -22.7561 0.0000 13.9118
#
#
#
# Elastic Compliance Matrix: (Units=1/GPa)
#
#
# Indices 1 2 3 4 5 6 
#
# 1 0.019814 -0.006972 -0.015410 0.000000 -0.015379 0.000000
# 2 -0.006972 0.010166 0.003758 0.000000 0.007708 0.000000
# 3 -0.015410 0.003758 0.031782 0.000000 0.021760 0.000000
# 4 0.000000 0.000000 0.000000 -0.065459 0.000000 -0.107074
# 5 -0.015379 0.007708 0.021760 0.000000 0.052925 0.000000
# 6 0.000000 0.000000 0.000000 -0.107074 0.000000 -0.103264
#
#
# Mechanical properties :
#
#
# Convention : Reuss Voigt Hill
#
# Bulk Modulus (GPa) = 40.79046 58.07540 49.43293
# Shear Modulus (GPa) = -580.29099 25.66679 -277.31210
#
# Velocity S-wave (km/s) = -16.29176 3.42634 -11.26237
# Velocity P-wave (km/s) = 18.30951 6.49742 12.10417
#
# Compressibility (1/GPa) = 0.02451554
#
# Stress axis : x y z
#
# Youngs Moduli (GPa) = 50.46955 98.36280 31.46439
#
# Poissons Ratio (x) = 0.68578 0.48485
# Poissons Ratio (y) = 0.35187 -0.11825
# Poissons Ratio (z) = 0.77771 -0.36966
#
# Static dielectric constant tensor:
#      x y z
#    x 4.047550 0.000000 -0.193800 
#    y 0.000000 4.057860 0.000000 
#    z -0.193800 0.000000 4.453070 
# 
# 
# High freq. dielectric constant tensor:
#      x y z
#    x 1.862320 0.000000 -0.004260 
#    y 0.000000 1.867250 0.000000 
#    z -0.004260 0.000000 1.864140 
# 
# From -- ./inp_files/108607.got.cif
#   From: 2010.06.25/outbox.cif.g09.slc.cpg/sg15_55_cif.got.tgz:108607.got - 2010.06.28 07:06:18.
