data_PCOD8145779
_publ_section_title
;
Structure prediction by ZEFSAII (Michael W. Deem and Ramdas Pophale) SiO2 
 PCOD8145779
Probable space group: C 2/C
;
_chemical_formula_sum "Si O2"
_cell_formula_units_Z 40
_cell_length_a 25.412983
_cell_length_b 7.396033
_cell_length_c 13.640494
_cell_angle_alpha 90.000000
_cell_angle_beta 136.730508
_cell_angle_gamma 90.000000
_cell_volume 1757.309125
_symmetry_space_group_name_H-M "C 2/C"
_symmetry_group_IT_number 15
_symmetry_cell_setting 'monoclinic'
loop_
_space_group_symop_operation_xyz
x,y,z
-x,y,1/2-z
-x,-y,-z
x,-y,1/2+z
1/2+x,1/2+y,z
1/2-x,1/2+y,1/2-z
1/2-x,1/2-y,-z
1/2+x,1/2-y,1/2+z
loop_
_atom_site_type_symbol
_atom_site_label
_atom_site_fract_x
_atom_site_fract_y
_atom_site_fract_z
Si Si1 0.762799 0.321192 0.407056
Si Si2 0.673827 0.610329 0.168742
Si Si3 0.453372 0.632050 0.095999
Si Si4 0.940528 0.352563 0.378650
Si Si5 0.916752 0.499195 0.644392
O O1 0.750000 0.250000 0.500000
O O2 0.708626 0.492678 0.306767
O O3 0.756880 0.170769 0.311758
O O4 0.852256 0.367069 0.519191
O O5 0.628032 0.787930 0.143761
O O6 0.615823 0.492136 0.027596
O O7 0.500000 0.543240 0.250000
O O8 0.512249 0.671211 0.086624
O O9 0.418966 0.825108 0.079400
O O10 0.897247 0.443153 0.228546
O O11 0.000000 0.500000 0.500000
O O12 0.000000 0.400518 0.750000
#
# Coordination Sequence:
#
# PCOD8145779 Si02
#       5
#     8   8   8   8   8
#     4  12  30  44  70 105 145 196 237 300 373 437
#     4  12  26  45  68 100 151 187 246 297 364 446
#     4   9  21  41  70 102 134 181 240 298 365 421
#     4  10  22  39  74 101 132 182 236 303 360 430
#     4   9  21  45  69  96 136 182 241 296 358 429
#
# _framework density 22.762073000000001
#
# number of rings (size 3 to 8) (size 9 to 14) (size 15 to 20)
#    0.000    2.000    0.000    4.200   11.200    3.200 
#    0.000    0.000    0.000    0.000    0.000    0.000 
#    0.000    0.000    0.000    0.000    0.000    0.000 
#
# Total GULP energy -247845.740229 kJ/mol
# GULP energy per Si atom -12392.287011 kJ/mol
# Density = 2.271027 g / cm^3
# Si number density = 22.762073 Si / 1000 Ang^3
#
#
#
# Elastic Constant Matrix: (Units=GPa)
#
#
# Indices 1 2 3 4 5 6 
#
# 1 137.4678 37.5397 39.2085 0.0000 -18.6347 0.0000
# 2 37.5397 62.5844 48.1361 0.0000 -1.4811 0.0000
# 3 39.2085 48.1361 110.8354 0.0000 8.1445 0.0000
# 4 0.0000 0.0000 0.0000 43.7964 0.0000 9.8945
# 5 -18.6347 -1.4811 8.1445 0.0000 29.8990 0.0000
# 6 0.0000 0.0000 0.0000 9.8945 0.0000 31.4728
#
#
#
# Elastic Compliance Matrix: (Units=1/GPa)
#
#
# Indices 1 2 3 4 5 6 
#
# 1 0.009915 -0.004087 -0.002216 0.000000 0.006580 0.000000
# 2 -0.004087 0.026183 -0.010035 0.000000 0.001483 0.000000
# 3 -0.002216 -0.010035 0.014594 0.000000 -0.005854 0.000000
# 4 0.000000 0.000000 0.000000 0.024579 0.000000 -0.007727
# 5 0.006580 0.001483 -0.005854 0.000000 0.039215 0.000000
# 6 0.000000 0.000000 0.000000 -0.007727 0.000000 0.034203
#
#
# Mechanical properties :
#
#
# Convention : Reuss Voigt Hill
#
# Bulk Modulus (GPa) = 55.50259 62.29513 58.89886
# Shear Modulus (GPa) = 26.68532 33.43387 30.05960
#
# Velocity S-wave (km/s) = 3.42769 3.83670 3.63795
# Velocity P-wave (km/s) = 6.33262 6.85962 6.60138
#
# Compressibility (1/GPa) = 0.01801718
#
# Stress axis : x y z
#
# Youngs Moduli (GPa) = 100.86211 38.19287 68.51925
#
# Poissons Ratio (x) = 0.15609 0.15183
# Poissons Ratio (y) = 0.41221 0.68756
# Poissons Ratio (z) = 0.22350 0.38325
#
# Static dielectric constant tensor:
#      x y z
#    x 4.892980 0.000000 -0.135960 
#    y 0.000000 4.030810 0.000000 
#    z -0.135960 0.000000 4.216930 
# 
# 
# High freq. dielectric constant tensor:
#      x y z
#    x 1.906850 0.000000 -0.012450 
#    y 0.000000 1.885120 0.000000 
#    z -0.012450 0.000000 1.903240 
# 
# From -- ./inp_files/172136.got.cif
#   From: 2010.06.25/outbox.cif.g09.slc.cpg/sg15_87_cif.got.tgz:172136.got - 2010.06.28 07:06:18.
