data_PCOD8145578
_publ_section_title
;
Structure prediction by ZEFSAII (Michael W. Deem and Ramdas Pophale) SiO2 
 PCOD8145578
Probable space group: C 2/C
;
_chemical_formula_sum "Si O2"
_cell_formula_units_Z 64
_cell_length_a 9.517827
_cell_length_b 15.312789
_cell_length_c 26.108452
_cell_angle_alpha 90.000000
_cell_angle_beta 121.339086
_cell_angle_gamma 90.000000
_cell_volume 3250.005519
_symmetry_space_group_name_H-M "C 2/C"
_symmetry_group_IT_number 15
_symmetry_cell_setting 'monoclinic'
loop_
_space_group_symop_operation_xyz
x,y,z
-x,y,1/2-z
-x,-y,-z
x,-y,1/2+z
1/2+x,1/2+y,z
1/2-x,1/2+y,1/2-z
1/2-x,1/2-y,-z
1/2+x,1/2-y,1/2+z
loop_
_atom_site_type_symbol
_atom_site_label
_atom_site_fract_x
_atom_site_fract_y
_atom_site_fract_z
Si Si1 0.631245 0.616320 0.539362
Si Si2 0.488046 0.870579 0.829146
Si Si3 0.339305 0.787342 0.897985
Si Si4 0.157398 0.479989 0.563010
Si Si5 0.997519 0.031964 0.416650
Si Si6 0.989549 0.288084 0.307550
Si Si7 0.979752 0.447049 0.118837
Si Si8 0.760574 0.142950 0.303501
O O1 0.583051 0.712434 0.550938
O O2 0.522853 0.600724 0.468085
O O3 0.598318 0.551082 0.580144
O O4 0.822806 0.598719 0.561065
O O5 0.433761 0.799999 0.861834
O O6 0.335422 0.898716 0.763414
O O7 0.633712 0.827773 0.823665
O O8 0.567247 0.957684 0.868326
O O9 0.340940 0.876974 0.928378
O O10 0.152289 0.760629 0.855703
O O11 0.329014 0.506498 0.570062
O O12 0.133451 0.537272 0.609854
O O13 0.000000 0.500000 0.500000
O O14 0.896862 0.075680 0.351002
O O15 0.962828 0.384030 0.325184
O O16 0.837429 0.231254 0.297013
O O17 0.000000 0.301612 0.250000
#
# Coordination Sequence:
#
# PCOD8145578 Si02
#       8
#     8   8   8   8   8   8   8   8
#     4  10  22  39  62  93 121 165 203 248 307 370
#     4  10  22  40  62  87 121 158 204 251 306 362
#     4  10  22  39  62  89 124 157 203 258 299 359
#     4  11  22  39  61  90 124 159 201 256 301 360
#     4  11  22  39  62  90 127 159 206 249 306 370
#     4  11  22  38  61  90 120 155 205 250 302 368
#     4  10  22  39  62  90 119 160 205 245 309 363
#     4  11  22  38  61  88 119 162 198 250 309 361
#
# _framework density 19.692273
#
# number of rings (size 3 to 8) (size 9 to 14) (size 15 to 20)
#    0.000    1.500    5.000    0.000    1.750    2.500 
#    0.000    1.250    0.000    0.000    0.000    0.000 
#    0.000    0.000    0.000    0.000    0.000    0.000 
#
# Total GULP energy -396723.230616 kJ/mol
# GULP energy per Si atom -12397.600957 kJ/mol
# Density = 1.964745 g / cm^3
# Si number density = 19.692273 Si / 1000 Ang^3
#
#
#
# Elastic Constant Matrix: (Units=GPa)
#
#
# Indices 1 2 3 4 5 6 
#
# 1 102.4292 33.6794 14.9612 0.0000 -7.7471 0.0000
# 2 33.6794 93.3880 27.2223 0.0000 -9.7308 0.0000
# 3 14.9612 27.2223 73.4526 0.0000 -2.7769 0.0000
# 4 0.0000 0.0000 0.0000 31.6029 0.0000 -2.6914
# 5 -7.7471 -9.7308 -2.7769 0.0000 29.0349 0.0000
# 6 0.0000 0.0000 0.0000 -2.6914 0.0000 29.6130
#
#
#
# Elastic Compliance Matrix: (Units=1/GPa)
#
#
# Indices 1 2 3 4 5 6 
#
# 1 0.011206 -0.003608 -0.000881 0.000000 0.001697 0.000000
# 2 -0.003608 0.013556 -0.004169 0.000000 0.003182 0.000000
# 3 -0.000881 -0.004169 0.015332 0.000000 -0.000166 0.000000
# 4 0.000000 0.000000 0.000000 0.031890 0.000000 0.002898
# 5 0.001697 0.003182 -0.000166 0.000000 0.035945 0.000000
# 6 0.000000 0.000000 0.000000 0.002898 0.000000 0.034032
#
#
# Mechanical properties :
#
#
# Convention : Reuss Voigt Hill
#
# Bulk Modulus (GPa) = 43.90053 46.77728 45.33890
# Shear Modulus (GPa) = 29.96354 30.94393 30.45374
#
# Velocity S-wave (km/s) = 3.90499 3.96836 3.93680
# Velocity P-wave (km/s) = 6.53250 6.69349 6.61349
#
# Compressibility (1/GPa) = 0.02277877
#
# Stress axis : x y z
#
# Youngs Moduli (GPa) = 89.23697 73.76904 65.22104
#
# Poissons Ratio (x) = 0.26613 0.05748
# Poissons Ratio (y) = 0.32194 0.27189
# Poissons Ratio (z) = 0.07865 0.30753
#
# Static dielectric constant tensor:
#      x y z
#    x 3.904150 0.000000 -0.158850 
#    y 0.000000 3.644810 0.000000 
#    z -0.158850 0.000000 3.679520 
# 
# 
# High freq. dielectric constant tensor:
#      x y z
#    x 1.779060 0.000000 -0.007890 
#    y 0.000000 1.755080 0.000000 
#    z -0.007890 0.000000 1.770380 
# 
# From -- ./inp_files/288802.got.cif
#   From: 2010.06.25/outbox.cif.g09.slc.cpg/sg15_145_cif.got.tgz:288802.got - 2010.06.28 07:06:18.
