data_PCOD8145961
_publ_section_title
;
Structure prediction by ZEFSAII (Michael W. Deem and Ramdas Pophale) SiO2 
 PCOD8145961
Probable space group: C 2/C
;
_chemical_formula_sum "Si O2"
_cell_formula_units_Z 56
_cell_length_a 15.147880
_cell_length_b 6.800558
_cell_length_c 27.856248
_cell_angle_alpha 90.000000
_cell_angle_beta 65.978225
_cell_angle_gamma 90.000000
_cell_volume 2621.052165
_symmetry_space_group_name_H-M "C 2/C"
_symmetry_group_IT_number 15
_symmetry_cell_setting 'monoclinic'
loop_
_space_group_symop_operation_xyz
x,y,z
-x,y,1/2-z
-x,-y,-z
x,-y,1/2+z
1/2+x,1/2+y,z
1/2-x,1/2+y,1/2-z
1/2-x,1/2-y,-z
1/2+x,1/2-y,1/2+z
loop_
_atom_site_type_symbol
_atom_site_label
_atom_site_fract_x
_atom_site_fract_y
_atom_site_fract_z
Si Si1 0.355185 0.773974 0.205714
Si Si2 0.843470 0.625297 0.270279
Si Si3 0.579785 0.058473 0.384749
Si Si4 0.365563 0.922257 0.438318
Si Si5 0.966912 0.884002 0.181703
Si Si6 0.215951 0.392977 0.937720
Si Si7 0.172372 0.242723 0.623938
O O1 0.252495 0.673762 0.239073
O O2 0.435556 0.607974 0.182178
O O3 0.382242 0.911209 0.245472
O O4 0.349093 0.908996 0.159206
O O5 0.923973 0.789587 0.240180
O O6 0.812417 0.618860 0.332906
O O7 0.562419 0.248230 0.356222
O O8 0.627452 0.161490 0.421416
O O9 0.482781 0.924390 0.414502
O O10 0.310492 0.750106 0.419711
O O11 0.327205 0.916613 0.500393
O O12 0.337845 0.126911 0.420838
O O13 0.081717 0.893066 0.157270
O O14 0.240772 0.601648 0.908789
#
# Coordination Sequence:
#
# PCOD8145961 Si02
#       7
#     8   8   8   8   8   8   8
#     4  11  21  38  62  88 121 159 209 251 309 378
#     4  11  22  36  61  87 119 161 204 254 304 375
#     4  10  22  40  64  90 124 166 207 260 317 380
#     4  10  24  41  60  95 126 158 216 266 312 382
#     4  10  23  40  58  90 124 159 203 258 308 376
#     4  11  22  40  67  90 123 169 208 262 324 371
#     4  11  23  41  61  87 125 161 207 257 316 374
#
# _framework density 21.365466000000001
#
# number of rings (size 3 to 8) (size 9 to 14) (size 15 to 20)
#    0.000    1.429    2.857    2.143    2.000    1.143 
#    0.000    4.286    0.000    9.429    0.000    0.000 
#    0.000    0.000    0.000    0.000    0.000    0.000 
#
# Total GULP energy -346940.013932 kJ/mol
# GULP energy per Si atom -12390.714783 kJ/mol
# Density = 2.131684 g / cm^3
# Si number density = 21.365466 Si / 1000 Ang^3
#
#
#
# Elastic Constant Matrix: (Units=GPa)
#
#
# Indices 1 2 3 4 5 6 
#
# 1 83.1026 22.1726 22.0549 0.0000 3.0679 0.0004
# 2 22.1726 98.7756 34.8759 -0.0002 0.9989 0.0008
# 3 22.0549 34.8759 85.6648 -0.0001 6.3035 0.0000
# 4 0.0000 -0.0002 -0.0001 26.6537 0.0000 -10.3907
# 5 3.0679 0.9989 6.3035 0.0000 31.0511 -0.0002
# 6 0.0004 0.0008 0.0000 -10.3907 -0.0002 25.3766
#
#
#
# Elastic Compliance Matrix: (Units=1/GPa)
#
#
# Indices 1 2 3 4 5 6 
#
# 1 0.013285 -0.002086 -0.002517 0.000000 -0.000735 0.000000
# 2 -0.002086 0.012162 -0.004468 0.000000 0.000722 0.000000
# 3 -0.002517 -0.004468 0.014325 0.000000 -0.002516 0.000000
# 4 0.000000 0.000000 0.000000 0.044645 0.000000 0.018280
# 5 -0.000735 0.000722 -0.002516 0.000000 0.032765 0.000000
# 6 0.000000 0.000000 0.000000 0.018280 0.000000 0.046891
#
#
# Mechanical properties :
#
#
# Convention : Reuss Voigt Hill
#
# Bulk Modulus (GPa) = 46.22883 47.30555 46.76719
# Shear Modulus (GPa) = 26.39561 29.17893 27.78727
#
# Velocity S-wave (km/s) = 3.51869 3.69955 3.61025
# Velocity P-wave (km/s) = 6.18000 6.35910 6.27019
#
# Compressibility (1/GPa) = 0.02163152
#
# Stress axis : x y z
#
# Youngs Moduli (GPa) = 75.27284 82.22105 69.80612
#
# Poissons Ratio (x) = 0.17151 0.17570
# Poissons Ratio (y) = 0.15702 0.31187
# Poissons Ratio (z) = 0.18946 0.36733
#
# Static dielectric constant tensor:
#      x y z
#    x 3.916050 0.000000 -0.086900 
#    y 0.000000 3.712520 0.000000 
#    z -0.086900 0.000000 3.906560 
# 
# 
# High freq. dielectric constant tensor:
#      x y z
#    x 1.841010 0.000000 -0.003110 
#    y 0.000000 1.829410 0.000000 
#    z -0.003110 0.000000 1.844390 
# 
# From -- ./inp_files/315010.got.cif
#   From: 2010.06.25/outbox.cif.g09.slc.cpg/sg15_158_cif.got.tgz:315010.got - 2010.06.28 07:06:18.
