data_PCOD8145039
_publ_section_title
;
Structure prediction by ZEFSAII (Michael W. Deem and Ramdas Pophale) SiO2 
 PCOD8145039
Probable space group: C 2/C
;
_chemical_formula_sum "Si O2"
_cell_formula_units_Z 60
_cell_length_a 19.056418
_cell_length_b 24.624665
_cell_length_c 13.023648
_cell_angle_alpha 90.000000
_cell_angle_beta 152.434231
_cell_angle_gamma 90.000000
_cell_volume 2828.174223
_symmetry_space_group_name_H-M "C 2/C"
_symmetry_group_IT_number 15
_symmetry_cell_setting 'monoclinic'
loop_
_space_group_symop_operation_xyz
x,y,z
-x,y,1/2-z
-x,-y,-z
x,-y,1/2+z
1/2+x,1/2+y,z
1/2-x,1/2+y,1/2-z
1/2-x,1/2-y,-z
1/2+x,1/2-y,1/2+z
loop_
_atom_site_type_symbol
_atom_site_label
_atom_site_fract_x
_atom_site_fract_y
_atom_site_fract_z
Si Si1 0.500000 0.609511 0.750000
Si Si2 0.191724 0.781752 0.194627
Si Si3 0.243528 0.685571 0.506187
Si Si4 0.448458 0.381806 0.568870
Si Si5 0.594358 0.447333 0.586058
Si Si6 0.061839 0.516063 0.939889
Si Si7 0.996643 0.309450 0.956039
Si Si8 0.620261 0.922151 0.137101
O O1 0.360198 0.649712 0.591814
O O2 0.459251 0.572092 0.597862
O O3 0.224424 0.823662 0.332137
O O4 0.357729 0.769935 0.363380
O O5 0.082960 0.816760 0.980047
O O6 0.124080 0.722924 0.131481
O O7 0.250000 0.750000 0.500000
O O8 0.074336 0.672752 0.245980
O O9 0.500000 0.394495 0.750000
O O10 0.567842 0.400057 0.636517
O O11 0.299077 0.417187 0.360070
O O12 0.500000 0.500000 0.500000
O O13 0.774794 0.458005 0.819809
O O14 0.069861 0.450449 0.964240
O O15 0.000000 0.532058 0.750000
O O16 0.925633 0.536450 0.834403
O O17 0.043837 0.365388 0.069448
#
# Coordination Sequence:
#
# PCOD8145039 Si02
#       8
#     4   8   8   8   8   8   8   8
#     4  12  26  44  68 108 148 178 242 290 352 432
#     4  10  22  39  61  96 128 177 222 272 346 411
#     4  10  22  36  64  96 136 172 215 281 352 411
#     4  11  23  44  67  94 136 174 230 279 345 409
#     4  12  26  43  70 102 135 189 233 292 347 415
#     4  11  24  43  68  93 134 174 230 283 347 410
#     4  10  22  37  64  89 136 171 218 277 338 417
#     4  10  23  43  61  97 125 175 222 278 344 402
#
# _framework density 21.2151
#
# number of rings (size 3 to 8) (size 9 to 14) (size 15 to 20)
#    0.000    1.333    2.667    2.000    8.400    6.400 
#    0.000    3.333    0.000    0.000    0.000    0.000 
#    0.000    0.000    0.000    0.000    0.000    0.000 
#
# Total GULP energy -371691.767059 kJ/mol
# GULP energy per Si atom -12389.725569 kJ/mol
# Density = 2.116681 g / cm^3
# Si number density = 21.215100 Si / 1000 Ang^3
#
#
#
# Elastic Constant Matrix: (Units=GPa)
#
#
# Indices 1 2 3 4 5 6 
#
# 1 63.0110 35.0379 30.5779 0.0000 -8.9124 0.0000
# 2 35.0379 97.0164 47.9702 0.0000 7.2440 0.0000
# 3 30.5779 47.9702 71.1513 0.0000 -7.0172 0.0000
# 4 0.0000 0.0000 0.0000 21.6188 0.0000 12.7531
# 5 -8.9124 7.2440 -7.0172 0.0000 40.8948 0.0000
# 6 0.0000 0.0000 0.0000 12.7531 0.0000 32.0455
#
#
#
# Elastic Compliance Matrix: (Units=1/GPa)
#
#
# Indices 1 2 3 4 5 6 
#
# 1 0.022361 -0.005920 -0.005121 0.000000 0.005043 0.000000
# 2 -0.005920 0.017932 -0.010158 0.000000 -0.006210 0.000000
# 3 -0.005121 -0.010158 0.023570 0.000000 0.004728 0.000000
# 4 0.000000 0.000000 0.000000 0.060447 0.000000 -0.024056
# 5 0.005043 -0.006210 0.004728 0.000000 0.027463 0.000000
# 6 0.000000 0.000000 0.000000 -0.024056 0.000000 0.040779
#
#
# Mechanical properties :
#
#
# Convention : Reuss Voigt Hill
#
# Bulk Modulus (GPa) = 46.58826 50.92786 48.75806
# Shear Modulus (GPa) = 20.65223 26.75132 23.70178
#
# Velocity S-wave (km/s) = 3.12343 3.55485 3.34610
# Velocity P-wave (km/s) = 5.91738 6.39585 6.16126
#
# Compressibility (1/GPa) = 0.02146464
#
# Stress axis : x y z
#
# Youngs Moduli (GPa) = 44.72155 55.76668 42.42674
#
# Poissons Ratio (x) = 0.33014 0.21727
# Poissons Ratio (y) = 0.26476 0.43096
# Poissons Ratio (z) = 0.22902 0.56647
#
# Static dielectric constant tensor:
#      x y z
#    x 3.974940 0.000000 -0.137180 
#    y 0.000000 3.809020 0.000000 
#    z -0.137180 0.000000 4.437410 
# 
# 
# High freq. dielectric constant tensor:
#      x y z
#    x 1.828480 0.000000 0.013490 
#    y 0.000000 1.834650 0.000000 
#    z 0.013490 0.000000 1.834230 
# 
# From -- ./inp_files/108464.got.cif
#   From: 2010.06.25/outbox.cif.g09.slc.cpg/sg15_55_cif.got.tgz:108464.got - 2010.06.28 07:06:18.
