data_PCOD8145196
_publ_section_title
;
Structure prediction by ZEFSAII (Michael W. Deem and Ramdas Pophale) SiO2 
 PCOD8145196
Probable space group: C 2/C
;
_chemical_formula_sum "Si O2"
_cell_formula_units_Z 40
_cell_length_a 14.079859
_cell_length_b 24.067298
_cell_length_c 5.318643
_cell_angle_alpha 90.000000
_cell_angle_beta 97.231206
_cell_angle_gamma 90.000000
_cell_volume 1787.962556
_symmetry_space_group_name_H-M "C 2/C"
_symmetry_group_IT_number 15
_symmetry_cell_setting 'monoclinic'
loop_
_space_group_symop_operation_xyz
x,y,z
-x,y,1/2-z
-x,-y,-z
x,-y,1/2+z
1/2+x,1/2+y,z
1/2-x,1/2+y,1/2-z
1/2-x,1/2-y,-z
1/2+x,1/2-y,1/2+z
loop_
_atom_site_type_symbol
_atom_site_label
_atom_site_fract_x
_atom_site_fract_y
_atom_site_fract_z
Si Si1 0.390034 0.189788 0.704220
Si Si2 0.296180 0.525299 0.433153
Si Si3 0.390285 0.258821 0.204105
Si Si4 0.284991 0.626759 0.731634
Si Si5 0.050318 0.060256 0.516112
O O1 0.500000 0.169867 0.750000
O O2 0.365742 0.220527 0.435449
O O3 0.322869 0.135253 0.701088
O O4 0.366550 0.228696 0.934813
O O5 0.247965 0.494474 0.658641
O O6 0.285331 0.590992 0.470515
O O7 0.413558 0.506549 0.469047
O O8 0.500000 0.277344 0.250000
O O9 0.327166 0.313344 0.191248
O O10 0.345410 0.590792 0.954411
O O11 0.000000 0.082104 0.250000
O O12 0.000000 0.082351 0.750000
#
# Coordination Sequence:
#
# PCOD8145196 Si02
#       5
#     8   8   8   8   8
#     4  10  23  42  60  83 116 151 194 245 287 327
#     4  10  23  37  54  83 119 152 186 227 277 340
#     4  10  22  38  58  87 118 149 190 238 287 341
#     4  11  23  38  63  86 115 157 195 229 284 347
#     4  11  24  39  56  86 124 154 184 230 286 346
#
# _framework density 22.371835000000001
#
# number of rings (size 3 to 8) (size 9 to 14) (size 15 to 20)
#    0.000    1.600    0.000    4.200    0.000   22.400 
#    0.000    3.000    0.000    4.800    0.000    0.000 
#    0.000    1.600    0.000    0.000    0.000    0.200 
#
# Total GULP energy -247890.219072 kJ/mol
# GULP energy per Si atom -12394.510954 kJ/mol
# Density = 2.232092 g / cm^3
# Si number density = 22.371835 Si / 1000 Ang^3
#
#
#
# Elastic Constant Matrix: (Units=GPa)
#
#
# Indices 1 2 3 4 5 6 
#
# 1 107.2990 66.8621 41.4585 0.0000 -15.3558 0.0000
# 2 66.8621 78.2257 29.2058 0.0000 -12.1533 0.0000
# 3 41.4585 29.2058 155.9615 0.0000 -28.4500 0.0000
# 4 0.0000 0.0000 0.0000 15.6781 0.0000 -7.0352
# 5 -15.3558 -12.1533 -28.4500 0.0000 27.5842 0.0000
# 6 0.0000 0.0000 0.0000 -7.0352 0.0000 36.4465
#
#
#
# Elastic Compliance Matrix: (Units=1/GPa)
#
#
# Indices 1 2 3 4 5 6 
#
# 1 0.020815 -0.016706 -0.002012 0.000000 0.002152 0.000000
# 2 -0.016706 0.027557 -0.000248 0.000000 0.002586 0.000000
# 3 -0.002012 -0.000248 0.008338 0.000000 0.007370 0.000000
# 4 0.000000 0.000000 0.000000 0.069832 0.000000 0.013479
# 5 0.002152 0.002586 0.007370 0.000000 0.046191 0.000000
# 6 0.000000 0.000000 0.000000 0.013479 0.000000 0.030039
#
#
# Mechanical properties :
#
#
# Convention : Reuss Voigt Hill
#
# Bulk Modulus (GPa) = 53.25524 68.50433 60.87979
# Shear Modulus (GPa) = 20.24595 29.53909 24.89252
#
# Velocity S-wave (km/s) = 3.01154 3.63763 3.33929
# Velocity P-wave (km/s) = 5.99573 6.95201 6.49150
#
# Compressibility (1/GPa) = 0.01877750
#
# Stress axis : x y z
#
# Youngs Moduli (GPa) = 48.04156 36.28862 119.93925
#
# Poissons Ratio (x) = 0.60623 0.24136
# Poissons Ratio (y) = 0.80258 0.02973
# Poissons Ratio (z) = 0.09668 0.00899
#
# Static dielectric constant tensor:
#      x y z
#    x 4.299000 0.000000 -0.125550 
#    y 0.000000 4.096620 0.000000 
#    z -0.125550 0.000000 4.361950 
# 
# 
# High freq. dielectric constant tensor:
#      x y z
#    x 1.861790 0.000000 -0.016590 
#    y 0.000000 1.866530 0.000000 
#    z -0.016590 0.000000 1.904730 
# 
# From -- ./inp_files/7387.got.cif
#   From: 2010.06.25/outbox.cif.g09.slc.cpg/sg15_4_cif.got.tgz:7387.got - 2010.06.28 07:06:18.
