data_PCOD8145168
_publ_section_title
;
Structure prediction by ZEFSAII (Michael W. Deem and Ramdas Pophale) SiO2 
 PCOD8145168
Probable space group: C 2/C
;
_chemical_formula_sum "Si O2"
_cell_formula_units_Z 60
_cell_length_a 28.081812
_cell_length_b 20.414649
_cell_length_c 15.555470
_cell_angle_alpha 90.000000
_cell_angle_beta 161.333935
_cell_angle_gamma 90.000000
_cell_volume 2854.109450
_symmetry_space_group_name_H-M "C 2/C"
_symmetry_group_IT_number 15
_symmetry_cell_setting 'monoclinic'
loop_
_space_group_symop_operation_xyz
x,y,z
-x,y,1/2-z
-x,-y,-z
x,-y,1/2+z
1/2+x,1/2+y,z
1/2-x,1/2+y,1/2-z
1/2-x,1/2-y,-z
1/2+x,1/2-y,1/2+z
loop_
_atom_site_type_symbol
_atom_site_label
_atom_site_fract_x
_atom_site_fract_y
_atom_site_fract_z
Si Si1 0.198990 0.544088 0.005809
Si Si2 0.500000 0.774869 0.750000
Si Si3 0.138069 0.517115 0.084488
Si Si4 0.397774 0.875836 0.433418
Si Si5 0.862971 0.208247 0.081672
Si Si6 0.352419 0.679085 0.253222
Si Si7 0.309704 0.068714 0.142829
Si Si8 0.359774 0.699654 0.644148
O O1 0.239212 0.480244 0.017428
O O2 0.021774 0.552874 0.692366
O O3 0.237681 0.538462 0.173738
O O4 0.297822 0.604973 0.145825
O O5 0.447381 0.818094 0.580593
O O6 0.372426 0.726695 0.568220
O O7 0.135551 0.438945 0.065933
O O8 0.207719 0.531812 0.296321
O O9 0.525953 0.899709 0.586365
O O10 0.254421 0.850339 0.136902
O O11 0.919410 0.200325 0.275737
O O12 0.000000 0.205223 0.250000
O O13 0.786644 0.279309 0.948816
O O14 0.479867 0.695205 0.538472
O O15 0.193959 0.126318 0.945443
O O16 0.250000 0.750000 0.500000
#
# Coordination Sequence:
#
# PCOD8145168 Si02
#       8
#     8   4   8   8   8   8   8   8
#     4  10  22  41  64 100 131 176 219 280 327 400
#     4  12  24  42  70  96 136 172 230 268 342 408
#     4  10  22  37  72  98 130 176 224 271 338 399
#     4  11  21  44  67 101 130 173 229 275 322 420
#     4  11  25  41  68  94 131 178 216 280 341 392
#     4  11  25  45  62  99 136 167 230 278 330 407
#     4  11  22  43  70  98 137 178 222 277 339 400
#     4  12  27  43  68  97 134 181 220 281 338 401
#
# _framework density 21.022319
#
# number of rings (size 3 to 8) (size 9 to 14) (size 15 to 20)
#    0.000    1.067    2.667    4.800    5.600    1.600 
#    0.000    1.333    1.467    0.000    0.000    0.000 
#    0.000    0.000    0.000    0.000    0.000    0.000 
#
# Total GULP energy -371812.896010 kJ/mol
# GULP energy per Si atom -12393.763200 kJ/mol
# Density = 2.097447 g / cm^3
# Si number density = 21.022319 Si / 1000 Ang^3
#
#
#
# Elastic Constant Matrix: (Units=GPa)
#
#
# Indices 1 2 3 4 5 6 
#
# 1 144.1198 63.3944 37.3170 0.0000 3.6609 0.0000
# 2 63.3944 136.6540 47.3311 0.0000 12.6375 0.0000
# 3 37.3170 47.3311 58.6718 0.0000 1.9642 0.0000
# 4 0.0000 0.0000 0.0000 23.9733 0.0000 7.1246
# 5 3.6609 12.6375 1.9642 0.0000 27.9287 0.0000
# 6 0.0000 0.0000 0.0000 7.1246 0.0000 16.7473
#
#
#
# Elastic Compliance Matrix: (Units=1/GPa)
#
#
# Indices 1 2 3 4 5 6 
#
# 1 0.009169 -0.003151 -0.003305 0.000000 0.000456 0.000000
# 2 -0.003151 0.011711 -0.007297 0.000000 -0.004373 0.000000
# 3 -0.003305 -0.007297 0.024966 0.000000 0.001979 0.000000
# 4 0.000000 0.000000 0.000000 0.047750 0.000000 -0.020314
# 5 0.000456 -0.004373 0.001979 0.000000 0.037585 0.000000
# 6 0.000000 0.000000 0.000000 -0.020314 0.000000 0.068353
#
#
# Mechanical properties :
#
#
# Convention : Reuss Voigt Hill
#
# Bulk Modulus (GPa) = 54.52445 70.61452 62.56948
# Shear Modulus (GPa) = 21.44499 26.49006 23.96753
#
# Velocity S-wave (km/s) = 3.19737 3.55363 3.38020
# Velocity P-wave (km/s) = 6.29474 7.10640 6.71285
#
# Compressibility (1/GPa) = 0.01834040
#
# Stress axis : x y z
#
# Youngs Moduli (GPa) = 109.06458 85.38741 40.05369
#
# Poissons Ratio (x) = 0.26905 0.13238
# Poissons Ratio (y) = 0.34366 0.29228
# Poissons Ratio (z) = 0.36046 0.62308
#
# Static dielectric constant tensor:
#      x y z
#    x 4.156920 0.000000 -0.248390 
#    y 0.000000 3.932800 0.000000 
#    z -0.248390 0.000000 3.736170 
# 
# 
# High freq. dielectric constant tensor:
#      x y z
#    x 1.839190 0.000000 -0.010760 
#    y 0.000000 1.840200 0.000000 
#    z -0.010760 0.000000 1.796640 
# 
# From -- ./inp_files/179115.got.cif
#   From: 2010.06.25/outbox.cif.g09.slc.cpg/sg15_90_cif.got.tgz:179115.got - 2010.06.28 07:06:18.
