data_PCOD8145688
_publ_section_title
;
Structure prediction by ZEFSAII (Michael W. Deem and Ramdas Pophale) SiO2 
 PCOD8145688
Probable space group: C 2/C
;
_chemical_formula_sum "Si O2"
_cell_formula_units_Z 52
_cell_length_a 23.257358
_cell_length_b 11.953143
_cell_length_c 11.471128
_cell_angle_alpha 90.000000
_cell_angle_beta 49.291331
_cell_angle_gamma 90.000000
_cell_volume 2417.342889
_symmetry_space_group_name_H-M "C 2/C"
_symmetry_group_IT_number 15
_symmetry_cell_setting 'monoclinic'
loop_
_space_group_symop_operation_xyz
x,y,z
-x,y,1/2-z
-x,-y,-z
x,-y,1/2+z
1/2+x,1/2+y,z
1/2-x,1/2+y,1/2-z
1/2-x,1/2-y,-z
1/2+x,1/2-y,1/2+z
loop_
_atom_site_type_symbol
_atom_site_label
_atom_site_fract_x
_atom_site_fract_y
_atom_site_fract_z
Si Si1 0.722741 0.390100 0.950517
Si Si2 0.727883 0.735115 0.206976
Si Si3 0.601519 0.093103 0.945003
Si Si4 0.548112 0.857857 0.984309
Si Si5 0.840036 0.871984 0.921568
Si Si6 0.128959 0.307860 0.646653
Si Si7 0.000000 0.198726 0.250000
O O1 0.746802 0.336314 0.795745
O O2 0.796346 0.385570 0.936421
O O3 0.693741 0.515368 0.979956
O O4 0.653341 0.319589 0.094299
O O5 0.677899 0.846801 0.298575
O O6 0.685324 0.650219 0.177035
O O7 0.807960 0.772839 0.046357
O O8 0.605330 0.957766 0.949174
O O9 0.537701 0.106656 0.930830
O O10 0.582016 0.142940 0.098674
O O11 0.577754 0.801072 0.827849
O O12 0.540838 0.771188 0.097689
O O13 0.931406 0.878481 0.795253
#
# Coordination Sequence:
#
# PCOD8145688 Si02
#       7
#     8   8   8   8   8   8   4
#     4  10  23  42  66  94 122 167 218 258 321 374
#     4  10  22  43  67  94 124 166 219 268 309 382
#     4  10  22  39  65  95 125 160 212 268 326 365
#     4  11  23  38  63  92 132 166 204 263 324 379
#     4  11  24  43  65  91 133 171 211 261 319 379
#     4  10  22  41  65  94 124 163 215 271 312 378
#     4  12  26  42  60 100 132 174 210 254 316 398
#
# _framework density 21.511223000000001
#
# number of rings (size 3 to 8) (size 9 to 14) (size 15 to 20)
#    0.000    1.538    1.538    2.308    4.308    8.615 
#    5.538    1.538    0.000    0.000    0.000    0.000 
#    0.000    0.000    0.000    0.000    0.000    0.000 
#
# Total GULP energy -322353.033383 kJ/mol
# GULP energy per Si atom -12398.193592 kJ/mol
# Density = 2.146226 g / cm^3
# Si number density = 21.511223 Si / 1000 Ang^3
#
#
#
# Elastic Constant Matrix: (Units=GPa)
#
#
# Indices 1 2 3 4 5 6 
#
# 1 80.9421 26.6837 8.4907 0.0000 -6.8876 0.0000
# 2 26.6837 76.1019 8.4958 0.0000 -2.7688 0.0000
# 3 8.4907 8.4958 81.8204 0.0000 13.4562 0.0000
# 4 0.0000 0.0000 0.0000 18.4925 0.0000 3.6740
# 5 -6.8876 -2.7688 13.4562 0.0000 30.3576 0.0000
# 6 0.0000 0.0000 0.0000 3.6740 0.0000 14.8897
#
#
#
# Elastic Compliance Matrix: (Units=1/GPa)
#
#
# Indices 1 2 3 4 5 6 
#
# 1 0.014383 -0.004738 -0.001581 0.000000 0.003532 0.000000
# 2 -0.004738 0.014965 -0.001197 0.000000 0.000821 0.000000
# 3 -0.001581 -0.001197 0.013577 0.000000 -0.006486 0.000000
# 4 0.000000 0.000000 0.000000 0.056864 0.000000 -0.014031
# 5 0.003532 0.000821 -0.006486 0.000000 0.036692 0.000000
# 6 0.000000 0.000000 0.000000 -0.014031 0.000000 0.070623
#
#
# Mechanical properties :
#
#
# Convention : Reuss Voigt Hill
#
# Bulk Modulus (GPa) = 35.85301 36.24498 36.04899
# Shear Modulus (GPa) = 21.60445 25.76091 23.68268
#
# Velocity S-wave (km/s) = 3.17256 3.46433 3.32165
# Velocity P-wave (km/s) = 5.48849 5.73481 5.61300
#
# Compressibility (1/GPa) = 0.02789166
#
# Stress axis : x y z
#
# Youngs Moduli (GPa) = 69.52694 66.82219 73.65393
#
# Poissons Ratio (x) = 0.31661 0.11648
# Poissons Ratio (y) = 0.32942 0.08818
# Poissons Ratio (z) = 0.10995 0.08000
#
# Static dielectric constant tensor:
#      x y z
#    x 3.952350 0.000000 0.050130 
#    y 0.000000 3.722200 0.000000 
#    z 0.050130 0.000000 3.845930 
# 
# 
# High freq. dielectric constant tensor:
#      x y z
#    x 1.852890 0.000000 0.002850 
#    y 0.000000 1.828800 0.000000 
#    z 0.002850 0.000000 1.851590 
# 
# From -- ./inp_files/117922.got.cif
#   From: 2010.06.25/outbox.cif.g09.slc.cpg/sg15_59_cif.got.tgz:117922.got - 2010.06.28 07:06:18.
