data_PCOD8145331
_publ_section_title
;
Structure prediction by ZEFSAII (Michael W. Deem and Ramdas Pophale) SiO2 
 PCOD8145331
Probable space group: C 2/C
;
_chemical_formula_sum "Si O2"
_cell_formula_units_Z 48
_cell_length_a 31.015444
_cell_length_b 5.166430
_cell_length_c 15.796375
_cell_angle_alpha 90.000000
_cell_angle_beta 118.749378
_cell_angle_gamma 90.000000
_cell_volume 2219.181556
_symmetry_space_group_name_H-M "C 2/C"
_symmetry_group_IT_number 15
_symmetry_cell_setting 'monoclinic'
loop_
_space_group_symop_operation_xyz
x,y,z
-x,y,1/2-z
-x,-y,-z
x,-y,1/2+z
1/2+x,1/2+y,z
1/2-x,1/2+y,1/2-z
1/2-x,1/2-y,-z
1/2+x,1/2-y,1/2+z
loop_
_atom_site_type_symbol
_atom_site_label
_atom_site_fract_x
_atom_site_fract_y
_atom_site_fract_z
Si Si1 0.281566 0.031846 0.282766
Si Si2 0.392744 0.617190 0.640287
Si Si3 0.359235 0.728339 0.432281
Si Si4 0.862318 0.837745 0.289275
Si Si5 0.555422 0.972876 0.084109
Si Si6 0.447405 0.864046 0.231009
O O1 0.249588 0.786263 0.221028
O O2 0.315887 0.944043 0.394905
O O3 0.321966 0.105535 0.248646
O O4 0.360417 0.594804 0.524976
O O5 0.361826 0.537796 0.695002
O O6 0.435758 0.404423 0.672099
O O7 0.410220 0.911336 0.668012
O O8 0.343305 0.534416 0.342507
O O9 0.413456 0.837890 0.461053
O O10 0.917588 0.743372 0.366953
O O11 0.554624 0.807543 0.170086
O O12 0.500000 0.000000 0.000000
O O13 0.500000 0.961480 0.250000
#
# Coordination Sequence:
#
# PCOD8145331 Si02
#       6
#     8   8   8   8   8   8
#     4  11  23  43  74  97 128 169 213 273 337 399
#     4  11  25  41  63  93 134 171 222 271 322 388
#     4  11  23  42  69  95 130 178 220 266 334 389
#     4  10  23  44  65  97 131 177 212 277 327 386
#     4  10  22  38  63  95 133 179 227 265 323 387
#     4  11  23  40  58  93 133 178 223 277 316 368
#
# _framework density 21.629598000000001
#
# number of rings (size 3 to 8) (size 9 to 14) (size 15 to 20)
#    0.000    1.333    3.333    1.500    7.000    2.000 
#    0.000    1.667    0.000    0.000    0.000    0.000 
#    0.000    0.000    0.000    0.000    0.000    0.000 
#
# Total GULP energy -297432.738452 kJ/mol
# GULP energy per Si atom -12393.030769 kJ/mol
# Density = 2.158037 g / cm^3
# Si number density = 21.629598 Si / 1000 Ang^3
#
#
#
# Elastic Constant Matrix: (Units=GPa)
#
#
# Indices 1 2 3 4 5 6 
#
# 1 98.7139 35.5150 54.5192 0.0001 20.6348 -0.0001
# 2 35.5150 103.0950 40.2360 0.0003 5.0251 0.0002
# 3 54.5192 40.2360 130.1755 0.0001 -16.7627 -0.0002
# 4 0.0001 0.0003 0.0001 25.6496 0.0000 -0.5098
# 5 20.6348 5.0251 -16.7627 0.0000 35.0402 0.0000
# 6 -0.0001 0.0002 -0.0002 -0.5098 0.0000 26.1989
#
#
#
# Elastic Compliance Matrix: (Units=1/GPa)
#
#
# Indices 1 2 3 4 5 6 
#
# 1 0.019433 -0.002239 -0.009462 0.000000 -0.015649 0.000000
# 2 -0.002239 0.011688 -0.002900 0.000000 -0.001745 0.000000
# 3 -0.009462 -0.002900 0.014186 0.000000 0.012774 0.000000
# 4 0.000000 0.000000 0.000000 0.039002 0.000000 0.000759
# 5 -0.015649 -0.001745 0.012774 0.000000 0.044115 0.000000
# 6 0.000000 0.000000 0.000000 0.000759 0.000000 0.038184
#
#
# Mechanical properties :
#
#
# Convention : Reuss Voigt Hill
#
# Bulk Modulus (GPa) = 62.08936 65.83610 63.96273
# Shear Modulus (GPa) = 24.85373 30.82534 27.83953
#
# Velocity S-wave (km/s) = 3.39346 3.77921 3.59151
# Velocity P-wave (km/s) = 6.64245 7.03898 6.84359
#
# Compressibility (1/GPa) = 0.01610582
#
# Stress axis : x y z
#
# Youngs Moduli (GPa) = 51.45971 85.55965 70.49288
#
# Poissons Ratio (x) = 0.19155 0.66699
# Poissons Ratio (y) = 0.11521 0.20440
# Poissons Ratio (z) = 0.48690 0.24809
#
# Static dielectric constant tensor:
#      x y z
#    x 3.986490 0.000000 -0.072950 
#    y 0.000000 4.000730 0.000000 
#    z -0.072950 0.000000 3.810740 
# 
# 
# High freq. dielectric constant tensor:
#      x y z
#    x 1.846190 0.000000 0.002700 
#    y 0.000000 1.856550 0.000000 
#    z 0.002700 0.000000 1.828780 
# 
# From -- ./inp_files/179788.got.cif
#   From: 2010.06.25/outbox.cif.g09.slc.cpg/sg15_90_cif.got.tgz:179788.got - 2010.06.28 07:06:18.
