data_PCOD8145355
_publ_section_title
;
Structure prediction by ZEFSAII (Michael W. Deem and Ramdas Pophale) SiO2 
 PCOD8145355
Probable space group: C 2/C
;
_chemical_formula_sum "Si O2"
_cell_formula_units_Z 64
_cell_length_a 28.662594
_cell_length_b 14.702540
_cell_length_c 11.289822
_cell_angle_alpha 90.000000
_cell_angle_beta 43.074516
_cell_angle_gamma 90.000000
_cell_volume 3249.250502
_symmetry_space_group_name_H-M "C 2/C"
_symmetry_group_IT_number 15
_symmetry_cell_setting 'monoclinic'
loop_
_space_group_symop_operation_xyz
x,y,z
-x,y,1/2-z
-x,-y,-z
x,-y,1/2+z
1/2+x,1/2+y,z
1/2-x,1/2+y,1/2-z
1/2-x,1/2-y,-z
1/2+x,1/2-y,1/2+z
loop_
_atom_site_type_symbol
_atom_site_label
_atom_site_fract_x
_atom_site_fract_y
_atom_site_fract_z
Si Si1 0.395279 0.278654 0.869259
Si Si2 0.235805 0.128838 0.421749
Si Si3 0.646833 0.202090 0.143417
Si Si4 0.712903 0.575739 0.981635
Si Si5 0.465644 0.984062 0.435403
Si Si6 0.037134 0.723623 0.527775
Si Si7 0.208576 0.617721 0.435351
Si Si8 0.162901 0.565104 0.916696
O O1 0.461060 0.265433 0.661352
O O2 0.418023 0.282849 0.964106
O O3 0.358365 0.374677 0.914456
O O4 0.346356 0.194286 0.933594
O O5 0.308645 0.137469 0.352957
O O6 0.182705 0.201742 0.565729
O O7 0.248528 0.143548 0.260028
O O8 0.201427 0.032064 0.513864
O O9 0.571723 0.222025 0.334790
O O10 0.636579 0.152037 0.037879
O O11 0.767239 0.594264 0.776361
O O12 0.738329 0.617154 0.056803
O O13 0.500000 0.024168 0.250000
O O14 0.461079 0.877233 0.421727
O O15 0.500000 0.000000 0.500000
O O16 0.392144 0.034009 0.579888
O O17 0.172830 0.519684 0.487510
#
# Coordination Sequence:
#
# PCOD8145355 Si02
#       8
#     8   8   8   8   8   8   8   8
#     4  11  22  38  59  91 124 166 210 258 312 378
#     4  10  22  38  64  92 123 163 210 259 317 376
#     4  11  21  40  64  91 125 166 208 257 317 384
#     4  11  24  38  63  94 125 160 214 268 313 369
#     4  12  24  40  64  95 136 173 210 261 319 399
#     4  11  22  39  63  87 127 171 214 252 314 391
#     4  11  20  39  59  92 129 158 202 264 318 378
#     4  11  23  37  65  98 125 165 208 254 332 379
#
# _framework density 19.696850000000001
#
# number of rings (size 3 to 8) (size 9 to 14) (size 15 to 20)
#    0.000    1.000    5.000    2.625    5.250    0.000 
#    0.000    0.625    0.000    0.000    0.000    0.000 
#    0.000    0.000    0.000    0.000    0.000    0.000 
#
# Total GULP energy -396809.948968 kJ/mol
# GULP energy per Si atom -12400.310905 kJ/mol
# Density = 1.965202 g / cm^3
# Si number density = 19.696850 Si / 1000 Ang^3
#
#
#
# Elastic Constant Matrix: (Units=GPa)
#
#
# Indices 1 2 3 4 5 6 
#
# 1 106.8439 56.9019 40.8472 0.0000 -3.1018 0.0000
# 2 56.9019 95.6582 57.4947 0.0000 -10.0515 0.0000
# 3 40.8472 57.4947 117.6149 0.0000 -4.0053 0.0000
# 4 0.0000 0.0000 0.0000 23.4215 0.0000 -5.2646
# 5 -3.1018 -10.0515 -4.0053 0.0000 31.8303 0.0000
# 6 0.0000 0.0000 0.0000 -5.2646 0.0000 32.6210
#
#
#
# Elastic Compliance Matrix: (Units=1/GPa)
#
#
# Indices 1 2 3 4 5 6 
#
# 1 0.013846 -0.007717 -0.001078 0.000000 -0.001223 0.000000
# 2 -0.007717 0.019571 -0.006731 0.000000 0.004581 0.000000
# 3 -0.001078 -0.006731 0.012143 0.000000 -0.000703 0.000000
# 4 0.000000 0.000000 0.000000 0.044303 0.000000 0.007150
# 5 -0.001223 0.004581 -0.000703 0.000000 0.032656 0.000000
# 6 0.000000 0.000000 0.000000 0.007150 0.000000 0.031809
#
#
# Mechanical properties :
#
#
# Convention : Reuss Voigt Hill
#
# Bulk Modulus (GPa) = 68.92529 70.06719 69.49624
# Shear Modulus (GPa) = 26.28593 28.56612 27.42602
#
# Velocity S-wave (km/s) = 3.65708 3.81240 3.73554
# Velocity P-wave (km/s) = 7.27333 7.41817 7.34610
#
# Compressibility (1/GPa) = 0.01450846
#
# Stress axis : x y z
#
# Youngs Moduli (GPa) = 72.22432 51.09530 82.35030
#
# Poissons Ratio (x) = 0.39429 0.08877
# Poissons Ratio (y) = 0.55733 0.55432
# Poissons Ratio (z) = 0.07786 0.34393
#
# Static dielectric constant tensor:
#      x y z
#    x 3.510620 0.000000 -0.001170 
#    y 0.000000 3.519820 0.000000 
#    z -0.001170 0.000000 3.606460 
# 
# 
# High freq. dielectric constant tensor:
#      x y z
#    x 1.758350 0.000000 0.008060 
#    y 0.000000 1.757600 0.000000 
#    z 0.008060 0.000000 1.770760 
# 
# From -- ./inp_files/126862.got.cif
#   From: 2010.06.25/outbox.cif.g09.slc.cpg/sg15_64_cif.got.tgz:126862.got - 2010.06.28 07:06:18.
