data_PCOD8145702
_publ_section_title
;
Structure prediction by ZEFSAII (Michael W. Deem and Ramdas Pophale) SiO2 
 PCOD8145702
Probable space group: C 2/C
;
_chemical_formula_sum "Si O2"
_cell_formula_units_Z 56
_cell_length_a 18.282469
_cell_length_b 15.690802
_cell_length_c 11.349897
_cell_angle_alpha 90.000000
_cell_angle_beta 124.862938
_cell_angle_gamma 90.000000
_cell_volume 2671.542157
_symmetry_space_group_name_H-M "C 2/C"
_symmetry_group_IT_number 15
_symmetry_cell_setting 'monoclinic'
loop_
_space_group_symop_operation_xyz
x,y,z
-x,y,1/2-z
-x,-y,-z
x,-y,1/2+z
1/2+x,1/2+y,z
1/2-x,1/2+y,1/2-z
1/2-x,1/2-y,-z
1/2+x,1/2-y,1/2+z
loop_
_atom_site_type_symbol
_atom_site_label
_atom_site_fract_x
_atom_site_fract_y
_atom_site_fract_z
Si Si1 0.730966 0.834947 0.048670
Si Si2 0.236885 0.998765 0.035336
Si Si3 0.454775 0.132560 0.007028
Si Si4 0.918363 0.041778 0.266116
Si Si5 0.931518 0.492692 0.279010
Si Si6 0.146511 0.897864 0.143186
Si Si7 0.497659 0.706968 0.110269
O O1 0.625581 0.845842 0.977643
O O2 0.787054 0.839429 0.220684
O O3 0.750000 0.750000 0.000000
O O4 0.774173 0.901335 0.996906
O O5 0.204773 0.970598 0.133563
O O6 0.342043 0.984938 0.120582
O O7 0.178925 0.949824 0.883426
O O8 0.485304 0.216102 0.963914
O O9 0.419026 0.062244 0.884109
O O10 0.536869 0.089419 0.155696
O O11 0.000000 0.035119 0.250000
O O12 0.930400 0.131189 0.347035
O O13 0.924278 0.955182 0.348632
O O14 0.000000 0.451205 0.250000
O O15 0.098505 0.834139 0.008263
O O16 0.500000 0.736779 0.250000
#
# Coordination Sequence:
#
# PCOD8145702 Si02
#       7
#     8   8   8   8   8   8   8
#     4  11  26  43  64 105 138 174 237 286 340 415
#     4  11  22  43  70  95 137 180 232 277 345 418
#     4  11  25  41  67  97 133 182 223 286 344 402
#     4  10  22  39  66 101 133 176 225 276 340 418
#     4  11  23  45  69  94 132 181 235 279 337 413
#     4  11  23  42  68  97 138 183 224 282 353 407
#     4  11  23  42  64 100 139 170 227 279 346 415
#
# _framework density 20.961676000000001
#
# number of rings (size 3 to 8) (size 9 to 14) (size 15 to 20)
#    0.000    1.143    5.714    0.857    4.000    1.143 
#    0.000    4.286    0.000    0.000    0.000    0.000 
#    0.000    0.000    0.000    0.000    0.000    0.000 
#
# Total GULP energy -346937.123546 kJ/mol
# GULP energy per Si atom -12390.611555 kJ/mol
# Density = 2.091397 g / cm^3
# Si number density = 20.961676 Si / 1000 Ang^3
#
#
#
# Elastic Constant Matrix: (Units=GPa)
#
#
# Indices 1 2 3 4 5 6 
#
# 1 109.9961 59.3032 53.5820 0.0000 7.6634 0.0000
# 2 59.3032 119.4494 44.7016 0.0000 1.1419 0.0000
# 3 53.5820 44.7016 116.4545 0.0000 18.8217 0.0000
# 4 0.0000 0.0000 0.0000 26.1964 0.0000 -12.0403
# 5 7.6634 1.1419 18.8217 0.0000 41.4932 0.0000
# 6 0.0000 0.0000 0.0000 -12.0403 0.0000 34.9394
#
#
#
# Elastic Compliance Matrix: (Units=1/GPa)
#
#
# Indices 1 2 3 4 5 6 
#
# 1 0.014158 -0.005390 -0.004367 0.000000 -0.000486 0.000000
# 2 -0.005390 0.011921 -0.002378 0.000000 0.001746 0.000000
# 3 -0.004367 -0.002378 0.012268 0.000000 -0.004693 0.000000
# 4 0.000000 0.000000 0.000000 0.045357 0.000000 0.015630
# 5 -0.000486 0.001746 -0.004693 0.000000 0.026271 0.000000
# 6 0.000000 0.000000 0.000000 0.015630 0.000000 0.034007
#
#
# Mechanical properties :
#
#
# Convention : Reuss Voigt Hill
#
# Bulk Modulus (GPa) = 71.03973 73.45261 72.24617
# Shear Modulus (GPa) = 28.91093 33.08001 30.99547
#
# Velocity S-wave (km/s) = 3.71782 3.97686 3.84952
# Velocity P-wave (km/s) = 7.23833 7.49698 7.36879
#
# Compressibility (1/GPa) = 0.01407663
#
# Stress axis : x y z
#
# Youngs Moduli (GPa) = 70.62918 83.88432 81.51601
#
# Poissons Ratio (x) = 0.45217 0.35596
# Poissons Ratio (y) = 0.38072 0.19385
# Poissons Ratio (z) = 0.30842 0.19948
#
# Static dielectric constant tensor:
#      x y z
#    x 3.673240 0.000000 0.128480 
#    y 0.000000 3.869220 0.000000 
#    z 0.128480 0.000000 4.028760 
# 
# 
# High freq. dielectric constant tensor:
#      x y z
#    x 1.811660 0.000000 0.002060 
#    y 0.000000 1.813030 0.000000 
#    z 0.002060 0.000000 1.840270 
# 
# From -- ./inp_files/105786.got.cif
#   From: 2010.06.25/outbox.cif.g09.slc.cpg/sg15_53_cif.got.tgz:105786.got - 2010.06.28 07:06:18.
