data_PCOD8145623
_publ_section_title
;
Structure prediction by ZEFSAII (Michael W. Deem and Ramdas Pophale) SiO2 
 PCOD8145623
Probable space group: C 2/C
;
_chemical_formula_sum "Si O2"
_cell_formula_units_Z 36
_cell_length_a 23.262882
_cell_length_b 9.088382
_cell_length_c 15.477905
_cell_angle_alpha 90.000000
_cell_angle_beta 146.218118
_cell_angle_gamma 90.000000
_cell_volume 1819.544536
_symmetry_space_group_name_H-M "C 2/C"
_symmetry_group_IT_number 15
_symmetry_cell_setting 'monoclinic'
loop_
_space_group_symop_operation_xyz
x,y,z
-x,y,1/2-z
-x,-y,-z
x,-y,1/2+z
1/2+x,1/2+y,z
1/2-x,1/2+y,1/2-z
1/2-x,1/2-y,-z
1/2+x,1/2-y,1/2+z
loop_
_atom_site_type_symbol
_atom_site_label
_atom_site_fract_x
_atom_site_fract_y
_atom_site_fract_z
Si Si1 0.000000 0.749860 0.250000
Si Si2 0.153108 0.922461 0.737058
Si Si3 0.760531 0.841763 0.424904
Si Si4 0.799543 0.596399 0.044317
Si Si5 0.558442 0.486009 0.942482
O O1 0.960324 0.854710 0.123508
O O2 0.082588 0.629296 0.325882
O O3 0.196958 0.756342 0.776274
O O4 0.127373 0.993624 0.613520
O O5 0.242250 0.019977 0.892255
O O6 0.052233 0.915224 0.672866
O O7 0.750000 0.750000 0.500000
O O8 0.707987 0.999152 0.377599
O O9 0.878805 0.874281 0.542008
O O10 0.750000 0.750000 0.000000
#
# Coordination Sequence:
#
# PCOD8145623 Si02
#       5
#     4   8   8   8   8
#     4  12  22  38  66  92 124 172 210 258 320 384
#     4  10  24  41  63  95 126 171 214 266 322 383
#     4  10  22  39  63  92 126 167 214 261 320 387
#     4  11  21  39  64  90 123 167 213 256 321 385
#     4  11  22  40  65  90 135 168 210 266 331 378
#
# _framework density 19.785170000000001
#
# number of rings (size 3 to 8) (size 9 to 14) (size 15 to 20)
#    0.000    1.333    4.444    1.333    3.111    3.556 
#    0.000    1.111    0.000    0.000    0.000    0.000 
#    0.000    0.000    0.000    0.000    0.000    0.000 
#
# Total GULP energy -223069.751960 kJ/mol
# GULP energy per Si atom -12392.763998 kJ/mol
# Density = 1.974014 g / cm^3
# Si number density = 19.785170 Si / 1000 Ang^3
#
#
#
# Elastic Constant Matrix: (Units=GPa)
#
#
# Indices 1 2 3 4 5 6 
#
# 1 115.8331 42.9011 36.7050 0.0000 29.2282 0.0000
# 2 42.9011 129.9138 36.6679 0.0000 19.1383 0.0000
# 3 36.7050 36.6679 48.5374 0.0000 18.4713 0.0000
# 4 0.0000 0.0000 0.0000 35.4660 0.0000 14.1180
# 5 29.2282 19.1383 18.4713 0.0000 43.5632 0.0000
# 6 0.0000 0.0000 0.0000 14.1180 0.0000 33.0331
#
#
#
# Elastic Compliance Matrix: (Units=1/GPa)
#
#
# Indices 1 2 3 4 5 6 
#
# 1 0.012495 -0.001601 -0.006339 0.000000 -0.004992 0.000000
# 2 -0.001601 0.010060 -0.006100 0.000000 -0.000759 0.000000
# 3 -0.006339 -0.006100 0.032632 0.000000 -0.006903 0.000000
# 4 0.000000 0.000000 0.000000 0.033976 0.000000 -0.014521
# 5 -0.004992 -0.000759 -0.006903 0.000000 0.029565 0.000000
# 6 0.000000 0.000000 0.000000 -0.014521 0.000000 0.036479
#
#
# Mechanical properties :
#
#
# Convention : Reuss Voigt Hill
#
# Bulk Modulus (GPa) = 36.89373 58.53692 47.71532
# Shear Modulus (GPa) = 25.99807 34.27982 30.13895
#
# Velocity S-wave (km/s) = 3.62887 4.16697 3.90719
# Velocity P-wave (km/s) = 6.02046 7.26650 6.67263
#
# Compressibility (1/GPa) = 0.02710488
#
# Stress axis : x y z
#
# Youngs Moduli (GPa) = 80.03504 99.40654 30.64491
#
# Poissons Ratio (x) = 0.15920 0.19426
# Poissons Ratio (y) = 0.12817 0.18693
# Poissons Ratio (z) = 0.50736 0.60637
#
# Static dielectric constant tensor:
#      x y z
#    x 3.630390 0.000000 0.041520 
#    y 0.000000 3.972540 0.000000 
#    z 0.041520 0.000000 3.729330 
# 
# 
# High freq. dielectric constant tensor:
#      x y z
#    x 1.777950 0.000000 0.011030 
#    y 0.000000 1.776970 0.000000 
#    z 0.011030 0.000000 1.766900 
# 
# From -- ./inp_files/102594.got.cif
#   From: 2010.06.25/outbox.cif.g09.slc.cpg/sg15_52_cif.got.tgz:102594.got - 2010.06.28 07:06:18.
