data_PCOD8145804
_publ_section_title
;
Structure prediction by ZEFSAII (Michael W. Deem and Ramdas Pophale) SiO2 
 PCOD8145804
Probable space group: C 2/C
;
_chemical_formula_sum "Si O2"
_cell_formula_units_Z 48
_cell_length_a 14.208666
_cell_length_b 23.172681
_cell_length_c 11.099290
_cell_angle_alpha 90.000000
_cell_angle_beta 39.106830
_cell_angle_gamma 90.000000
_cell_volume 2305.125924
_symmetry_space_group_name_H-M "C 2/C"
_symmetry_group_IT_number 15
_symmetry_cell_setting 'monoclinic'
loop_
_space_group_symop_operation_xyz
x,y,z
-x,y,1/2-z
-x,-y,-z
x,-y,1/2+z
1/2+x,1/2+y,z
1/2-x,1/2+y,1/2-z
1/2-x,1/2-y,-z
1/2+x,1/2-y,1/2+z
loop_
_atom_site_type_symbol
_atom_site_label
_atom_site_fract_x
_atom_site_fract_y
_atom_site_fract_z
Si Si1 0.791360 0.591139 0.033989
Si Si2 0.894604 0.605405 0.677807
Si Si3 0.695915 0.295730 0.274017
Si Si4 0.667401 0.364738 0.075501
Si Si5 0.143684 0.821170 0.841319
Si Si6 0.132814 0.533574 0.024103
O O1 0.664050 0.633708 0.211417
O O2 0.784613 0.587599 0.895811
O O3 0.773421 0.524759 0.094369
O O4 0.943919 0.620097 0.929831
O O5 0.821940 0.660662 0.691101
O O6 0.919065 0.554474 0.556204
O O7 0.688083 0.306586 0.136842
O O8 0.751630 0.234845 0.268534
O O9 0.530585 0.305745 0.489586
O O10 0.500000 0.387952 0.250000
O O11 0.703534 0.350956 0.902654
O O12 0.770708 0.416636 0.012670
O O13 0.000000 0.518088 0.250000
#
# Coordination Sequence:
#
# PCOD8145804 Si02
#       6
#     8   8   8   8   8   8
#     4  11  23  37  59  90 121 166 197 250 296 365
#     4  10  22  40  59  89 125 154 208 243 306 357
#     4  10  22  41  63  90 122 160 202 259 298 364
#     4   9  21  40  61  94 124 157 200 253 309 357
#     4  11  22  39  64  90 122 161 205 248 310 358
#     4  11  21  38  64  91 121 161 202 255 295 358
#
# _framework density 20.823157999999999
#
# number of rings (size 3 to 8) (size 9 to 14) (size 15 to 20)
#    0.000    1.667    1.667    3.000    2.333    2.667 
#    3.000    3.333    0.000    0.000    0.000    0.000 
#    0.000    0.000    0.000    0.000    0.000    0.000 
#
# Total GULP energy -297447.223596 kJ/mol
# GULP energy per Si atom -12393.634316 kJ/mol
# Density = 2.077576 g / cm^3
# Si number density = 20.823158 Si / 1000 Ang^3
#
#
#
# Elastic Constant Matrix: (Units=GPa)
#
#
# Indices 1 2 3 4 5 6 
#
# 1 48.8279 8.9784 18.9344 -0.0001 11.8074 0.0001
# 2 8.9784 118.1643 47.7614 0.0000 1.1528 0.0000
# 3 18.9344 47.7614 94.1335 -0.0001 17.8772 -0.0001
# 4 -0.0001 0.0000 -0.0001 15.4145 0.0001 -12.5213
# 5 11.8074 1.1528 17.8772 0.0001 37.2906 0.0000
# 6 0.0001 0.0000 -0.0001 -12.5213 0.0000 -0.1806
#
#
#
# Elastic Compliance Matrix: (Units=1/GPa)
#
#
# Indices 1 2 3 4 5 6 
#
# 1 0.023249 -0.000326 -0.003427 0.000000 -0.005708 0.000000
# 2 -0.000326 0.010864 -0.005944 0.000000 0.002617 0.000000
# 3 -0.003427 -0.005944 0.015498 0.000000 -0.006161 0.000000
# 4 0.000000 0.000000 0.000000 0.001132 0.000000 -0.078471
# 5 -0.005708 0.002617 -0.006161 0.000000 0.031497 0.000000
# 6 0.000000 0.000000 0.000000 -0.078471 0.000000 -0.096603
#
#
# Mechanical properties :
#
#
# Convention : Reuss Voigt Hill
#
# Bulk Modulus (GPa) = 33.09177 45.83049 39.46113
# Shear Modulus (GPa) = 331.03714 22.86833 176.95274
#
# Velocity S-wave (km/s) = 12.62223 3.31753 9.22840
# Velocity P-wave (km/s) = 15.11138 6.06068 11.51272
#
# Compressibility (1/GPa) = 0.03021899
#
# Stress axis : x y z
#
# Youngs Moduli (GPa) = 43.01191 92.04301 64.52267
#
# Poissons Ratio (x) = 0.02997 0.22113
# Poissons Ratio (y) = 0.01401 0.38351
# Poissons Ratio (z) = 0.14741 0.54709
#
# Static dielectric constant tensor:
#      x y z
#    x 3.960350 0.000000 0.197200 
#    y 0.000000 3.715680 0.000000 
#    z 0.197200 0.000000 3.794570 
# 
# 
# High freq. dielectric constant tensor:
#      x y z
#    x 1.822660 0.000000 0.008720 
#    y 0.000000 1.817110 0.000000 
#    z 0.008720 0.000000 1.808390 
# 
# From -- ./inp_files/99978.got.cif
#   From: 2010.06.25/outbox.cif.g09.slc.cpg/sg15_50_cif.got.tgz:99978.got - 2010.06.28 07:06:18.
