data_PCOD8145536
_publ_section_title
;
Structure prediction by ZEFSAII (Michael W. Deem and Ramdas Pophale) SiO2 
 PCOD8145536
Probable space group: C 2/C
;
_chemical_formula_sum "Si O2"
_cell_formula_units_Z 48
_cell_length_a 10.910916
_cell_length_b 10.195465
_cell_length_c 21.763060
_cell_angle_alpha 90.000000
_cell_angle_beta 70.152615
_cell_angle_gamma 90.000000
_cell_volume 2277.158833
_symmetry_space_group_name_H-M "C 2/C"
_symmetry_group_IT_number 15
_symmetry_cell_setting 'monoclinic'
loop_
_space_group_symop_operation_xyz
x,y,z
-x,y,1/2-z
-x,-y,-z
x,-y,1/2+z
1/2+x,1/2+y,z
1/2-x,1/2+y,1/2-z
1/2-x,1/2-y,-z
1/2+x,1/2-y,1/2+z
loop_
_atom_site_type_symbol
_atom_site_label
_atom_site_fract_x
_atom_site_fract_y
_atom_site_fract_z
Si Si1 0.882334 0.657897 0.561839
Si Si2 0.117242 0.511298 0.559576
Si Si3 0.037227 0.347739 0.815519
Si Si4 0.717428 0.499535 0.186971
Si Si5 0.541395 0.447990 0.325387
Si Si6 0.621160 0.540989 0.440342
O O1 0.860351 0.579886 0.503146
O O2 0.794491 0.603568 0.632113
O O3 0.845737 0.807036 0.555142
O O4 0.034360 0.639866 0.555265
O O5 0.260473 0.551645 0.557732
O O6 0.050307 0.440723 0.628268
O O7 0.189343 0.380628 0.806829
O O8 0.999230 0.201944 0.844293
O O9 0.000000 0.369446 0.750000
O O10 0.659978 0.430923 0.257304
O O11 0.583433 0.537836 0.173506
O O12 0.598601 0.520366 0.373298
O O13 0.500000 0.500000 0.500000
#
# Coordination Sequence:
#
# PCOD8145536 Si02
#       6
#     8   8   8   8   8   8
#     4  10  22  41  63  87 127 159 214 267 306 384
#     4  10  22  40  64  91 117 170 212 253 324 378
#     4  11  21  40  65  86 122 166 210 260 313 384
#     4  10  22  39  61  87 116 167 205 254 321 368
#     4  11  23  38  60  90 128 161 202 264 318 370
#     4  12  24  37  62  94 126 162 208 260 324 383
#
# _framework density 21.078899
#
# number of rings (size 3 to 8) (size 9 to 14) (size 15 to 20)
#    0.000    1.333    1.667    4.500    2.333    2.000 
#    0.000    0.000    0.000    0.000    0.000    0.000 
#    0.000    0.000    0.000    0.000    0.000    0.000 
#
# Total GULP energy -297415.013643 kJ/mol
# GULP energy per Si atom -12392.292235 kJ/mol
# Density = 2.103092 g / cm^3
# Si number density = 21.078899 Si / 1000 Ang^3
#
#
#
# Elastic Constant Matrix: (Units=GPa)
#
#
# Indices 1 2 3 4 5 6 
#
# 1 165.1898 15.0260 41.6289 0.0000 0.9208 0.0000
# 2 15.0260 36.2169 3.5643 0.0000 0.9751 0.0000
# 3 41.6289 3.5643 100.7071 0.0000 -4.7209 0.0000
# 4 0.0000 0.0000 0.0000 26.4184 0.0000 -1.6757
# 5 0.9208 0.9751 -4.7209 0.0000 30.2797 0.0000
# 6 0.0000 0.0000 0.0000 -1.6757 0.0000 22.0185
#
#
#
# Elastic Compliance Matrix: (Units=1/GPa)
#
#
# Indices 1 2 3 4 5 6 
#
# 1 0.007008 -0.002614 -0.002831 0.000000 -0.000570 0.000000
# 2 -0.002614 0.028716 0.000025 0.000000 -0.000841 0.000000
# 3 -0.002831 0.000025 0.011185 0.000000 0.001829 0.000000
# 4 0.000000 0.000000 0.000000 0.038036 0.000000 0.002895
# 5 -0.000570 -0.000841 0.001829 0.000000 0.033355 0.000000
# 6 0.000000 0.000000 0.000000 0.002895 0.000000 0.045637
#
#
# Mechanical properties :
#
#
# Convention : Reuss Voigt Hill
#
# Bulk Modulus (GPa) = 27.72484 46.95026 37.33755
# Shear Modulus (GPa) = 26.76663 31.86962 29.31813
#
# Velocity S-wave (km/s) = 3.56733 3.89256 3.73349
# Velocity P-wave (km/s) = 5.49084 6.52109 6.02801
#
# Compressibility (1/GPa) = 0.03606874
#
# Stress axis : x y z
#
# Youngs Moduli (GPa) = 142.69363 34.82382 89.40584
#
# Poissons Ratio (x) = 0.09101 0.25312
# Poissons Ratio (y) = 0.37294 -0.00220
# Poissons Ratio (z) = 0.40398 -0.00086
#
# Static dielectric constant tensor:
#      x y z
#    x 4.131830 0.000000 -0.091210 
#    y 0.000000 3.485980 0.000000 
#    z -0.091210 0.000000 3.968450 
# 
# 
# High freq. dielectric constant tensor:
#      x y z
#    x 1.847200 0.000000 -0.000690 
#    y 0.000000 1.789740 0.000000 
#    z -0.000690 0.000000 1.851760 
# 
# From -- ./inp_files/236510.got.cif
#   From: 2010.06.25/outbox.cif.g09.slc.cpg/sg15_119_cif.got.tgz:236510.got - 2010.06.28 07:06:18.
