data_PCOD8145124
_publ_section_title
;
Structure prediction by ZEFSAII (Michael W. Deem and Ramdas Pophale) SiO2 
 PCOD8145124
Probable space group: C 2/C
;
_chemical_formula_sum "Si O2"
_cell_formula_units_Z 48
_cell_length_a 18.464883
_cell_length_b 8.926012
_cell_length_c 15.488580
_cell_angle_alpha 90.000000
_cell_angle_beta 124.809894
_cell_angle_gamma 90.000000
_cell_volume 2095.972480
_symmetry_space_group_name_H-M "C 2/C"
_symmetry_group_IT_number 15
_symmetry_cell_setting 'monoclinic'
loop_
_space_group_symop_operation_xyz
x,y,z
-x,y,1/2-z
-x,-y,-z
x,-y,1/2+z
1/2+x,1/2+y,z
1/2-x,1/2+y,1/2-z
1/2-x,1/2-y,-z
1/2+x,1/2-y,1/2+z
loop_
_atom_site_type_symbol
_atom_site_label
_atom_site_fract_x
_atom_site_fract_y
_atom_site_fract_z
Si Si1 0.233979 0.239786 0.719714
Si Si2 0.232823 0.084341 0.021773
Si Si3 0.585659 0.419827 0.023237
Si Si4 0.869443 0.581330 0.708023
Si Si5 0.304653 0.971548 0.397208
Si Si6 0.041318 0.607832 0.910834
O O1 0.148718 0.134897 0.644344
O O2 0.305351 0.215274 0.692749
O O3 0.278303 0.194215 0.842634
O O4 0.212246 0.416161 0.695594
O O5 0.137597 0.035399 0.994480
O O6 0.308244 0.062669 0.146322
O O7 0.250000 0.250000 0.000000
O O8 0.249472 0.985153 0.945888
O O9 0.500000 0.500000 0.000000
O O10 0.548899 0.274059 0.951612
O O11 0.918850 0.628040 0.656191
O O12 0.940145 0.550065 0.833177
O O13 0.407703 0.984594 0.495561
#
# Coordination Sequence:
#
# PCOD8145124 Si02
#       6
#     8   8   8   8   8   8
#     4  10  22  37  62  91 128 170 220 262 329 396
#     4  10  22  41  68  96 133 172 220 280 345 402
#     4  10  22  40  63  95 129 168 222 281 331 397
#     4   9  19  37  66  89 123 172 217 262 333 398
#     4  10  22  38  63  93 127 169 214 268 327 398
#     4   9  19  39  62  94 123 164 221 268 323 398
#
# _framework density 22.901064999999999
#
# number of rings (size 3 to 8) (size 9 to 14) (size 15 to 20)
#    0.000    2.333    0.000    1.000    7.000    4.667 
#    0.000    8.333    0.000    0.000    0.000    0.000 
#    0.000    0.000    0.000    0.000    0.000    0.000 
#
# Total GULP energy -297323.534246 kJ/mol
# GULP energy per Si atom -12388.480594 kJ/mol
# Density = 2.284894 g / cm^3
# Si number density = 22.901065 Si / 1000 Ang^3
#
#
#
# Elastic Constant Matrix: (Units=GPa)
#
#
# Indices 1 2 3 4 5 6 
#
# 1 78.0949 34.4294 55.9332 0.0000 29.1172 0.0000
# 2 34.4294 70.1637 50.6736 0.0000 17.9903 0.0000
# 3 55.9332 50.6736 162.3920 0.0000 20.6288 0.0000
# 4 0.0000 0.0000 0.0000 32.2129 0.0000 1.9288
# 5 29.1172 17.9903 20.6288 0.0000 32.4719 0.0000
# 6 0.0000 0.0000 0.0000 1.9288 0.0000 20.2391
#
#
#
# Elastic Compliance Matrix: (Units=1/GPa)
#
#
# Indices 1 2 3 4 5 6 
#
# 1 0.024293 -0.004119 -0.005009 0.000000 -0.016319 0.000000
# 2 -0.004119 0.020746 -0.004421 0.000000 -0.004992 0.000000
# 3 -0.005009 -0.004421 0.009117 0.000000 0.001149 0.000000
# 4 0.000000 0.000000 0.000000 0.031222 0.000000 -0.002975
# 5 -0.016319 -0.004992 0.001149 0.000000 0.047465 0.000000
# 6 0.000000 0.000000 0.000000 -0.002975 0.000000 0.049693
#
#
# Mechanical properties :
#
#
# Convention : Reuss Voigt Hill
#
# Bulk Modulus (GPa) = 36.95672 65.85809 51.40741
# Shear Modulus (GPa) = 22.86737 28.29240 25.57989
#
# Velocity S-wave (km/s) = 3.16338 3.51867 3.34574
# Velocity P-wave (km/s) = 5.43279 6.73261 6.11732
#
# Compressibility (1/GPa) = 0.02705868
#
# Stress axis : x y z
#
# Youngs Moduli (GPa) = 41.16461 48.20111 109.68774
#
# Poissons Ratio (x) = 0.19852 0.54943
# Poissons Ratio (y) = 0.16954 0.48494
# Poissons Ratio (z) = 0.20619 0.21310
#
# Static dielectric constant tensor:
#      x y z
#    x 4.397670 0.000000 0.056570 
#    y 0.000000 3.827920 0.000000 
#    z 0.056570 0.000000 4.928780 
# 
# 
# High freq. dielectric constant tensor:
#      x y z
#    x 1.914540 0.000000 -0.009260 
#    y 0.000000 1.886990 0.000000 
#    z -0.009260 0.000000 1.919230 
# 
# From -- ./inp_files/214073.got.cif
#   From: 2010.06.25/outbox.cif.g09.slc.cpg/sg15_108_cif.got.tgz:214073.got - 2010.06.28 07:06:18.
