data_PCOD8145055
_publ_section_title
;
Structure prediction by ZEFSAII (Michael W. Deem and Ramdas Pophale) SiO2 
 PCOD8145055
Probable space group: C 2/C
;
_chemical_formula_sum "Si O2"
_cell_formula_units_Z 52
_cell_length_a 28.696231
_cell_length_b 17.379887
_cell_length_c 5.473630
_cell_angle_alpha 90.000000
_cell_angle_beta 58.290333
_cell_angle_gamma 90.000000
_cell_volume 2322.389897
_symmetry_space_group_name_H-M "C 2/C"
_symmetry_group_IT_number 15
_symmetry_cell_setting 'monoclinic'
loop_
_space_group_symop_operation_xyz
x,y,z
-x,y,1/2-z
-x,-y,-z
x,-y,1/2+z
1/2+x,1/2+y,z
1/2-x,1/2+y,1/2-z
1/2-x,1/2-y,-z
1/2+x,1/2-y,1/2+z
loop_
_atom_site_type_symbol
_atom_site_label
_atom_site_fract_x
_atom_site_fract_y
_atom_site_fract_z
Si Si1 0.000000 0.221345 0.750000
Si Si2 0.152127 0.955920 0.301567
Si Si3 0.205204 0.255216 0.328495
Si Si4 0.760286 0.622780 0.446756
Si Si5 0.142527 0.547976 0.540236
Si Si6 0.556180 0.176252 0.717738
Si Si7 0.900662 0.805685 0.239567
O O1 0.042254 0.275024 0.493042
O O2 0.040366 0.169889 0.807048
O O3 0.118823 0.876392 0.374094
O O4 0.135662 0.995887 0.602923
O O5 0.218113 0.944977 0.133590
O O6 0.203218 0.344277 0.427214
O O7 0.222721 0.195277 0.487796
O O8 0.144320 0.222365 0.431304
O O9 0.250000 0.250000 0.000000
O O10 0.800816 0.596586 0.117167
O O11 0.142127 0.495261 0.779984
O O12 0.090046 0.602016 0.704269
O O13 0.500000 0.147172 0.750000
O O14 0.591959 0.229801 0.443585
#
# Coordination Sequence:
#
# PCOD8145055 Si02
#       7
#     4   8   8   8   8   8   8
#     4  10  24  42  78  96 132 184 244 310 338 422
#     4  11  26  44  68 103 146 184 223 286 355 426
#     4  10  22  36  70 101 137 177 237 293 337 413
#     4  10  23  40  61 101 136 189 227 280 342 422
#     4  12  28  43  68  99 142 186 227 286 350 419
#     4  10  24  45  69  98 131 180 242 291 346 406
#     4  10  23  44  71 102 135 183 242 287 355 416
#
# _framework density 22.390730000000001
#
# number of rings (size 3 to 8) (size 9 to 14) (size 15 to 20)
#    0.000    1.538    1.538    0.923   15.077    0.615 
#    0.000    0.769    0.000    0.000    0.000    0.000 
#    0.000    0.000    0.000    0.000    0.000    0.000 
#
# Total GULP energy -322139.889716 kJ/mol
# GULP energy per Si atom -12389.995758 kJ/mol
# Density = 2.233977 g / cm^3
# Si number density = 22.390730 Si / 1000 Ang^3
#
#
#
# Elastic Constant Matrix: (Units=GPa)
#
#
# Indices 1 2 3 4 5 6 
#
# 1 98.1258 46.3121 25.3628 0.0000 -10.2485 0.0000
# 2 46.3121 71.8795 24.3817 0.0000 -7.0737 0.0000
# 3 25.3628 24.3817 95.0371 0.0000 -4.3831 0.0000
# 4 0.0000 0.0000 0.0000 30.6783 0.0000 -6.3483
# 5 -10.2485 -7.0737 -4.3831 0.0000 37.3682 0.0000
# 6 0.0000 0.0000 0.0000 -6.3483 0.0000 30.1320
#
#
#
# Elastic Compliance Matrix: (Units=1/GPa)
#
#
# Indices 1 2 3 4 5 6 
#
# 1 0.015061 -0.008932 -0.001624 0.000000 0.002249 0.000000
# 2 -0.008932 0.020759 -0.002890 0.000000 0.001141 0.000000
# 3 -0.001624 -0.002890 0.011715 0.000000 0.000382 0.000000
# 4 0.000000 0.000000 0.000000 0.034082 0.000000 0.007181
# 5 0.002249 0.001141 0.000382 0.000000 0.027638 0.000000
# 6 0.000000 0.000000 0.000000 0.007181 0.000000 0.034700
#
#
# Mechanical properties :
#
#
# Convention : Reuss Voigt Hill
#
# Bulk Modulus (GPa) = 48.43982 50.79507 49.61745
# Shear Modulus (GPa) = 28.13285 30.90141 29.51713
#
# Velocity S-wave (km/s) = 3.54849 3.71900 3.63474
# Velocity P-wave (km/s) = 6.20241 6.41687 6.31055
#
# Compressibility (1/GPa) = 0.02064417
#
# Stress axis : x y z
#
# Youngs Moduli (GPa) = 66.39579 48.17126 85.36370
#
# Poissons Ratio (x) = 0.43025 0.13866
# Poissons Ratio (y) = 0.59302 0.24666
# Poissons Ratio (z) = 0.10785 0.13919
#
# Static dielectric constant tensor:
#      x y z
#    x 4.415990 0.000000 -0.230160 
#    y 0.000000 4.229350 0.000000 
#    z -0.230160 0.000000 3.967810 
# 
# 
# High freq. dielectric constant tensor:
#      x y z
#    x 1.889020 0.000000 -0.010610 
#    y 0.000000 1.875210 0.000000 
#    z -0.010610 0.000000 1.879030 
# 
# From -- ./inp_files/18195.got.cif
#   From: 2010.06.25/outbox.cif.g09.slc.cpg/sg15_10_cif.got.tgz:18195.got - 2010.06.28 07:06:18.
