data_PCOD8145050
_publ_section_title
;
Structure prediction by ZEFSAII (Michael W. Deem and Ramdas Pophale) SiO2 
 PCOD8145050
Probable space group: C 2/C
;
_chemical_formula_sum "Si O2"
_cell_formula_units_Z 36
_cell_length_a 4.933025
_cell_length_b 17.644937
_cell_length_c 19.772181
_cell_angle_alpha 90.000000
_cell_angle_beta 98.968214
_cell_angle_gamma 90.000000
_cell_volume 1699.988661
_symmetry_space_group_name_H-M "C 2/C"
_symmetry_group_IT_number 15
_symmetry_cell_setting 'monoclinic'
loop_
_space_group_symop_operation_xyz
x,y,z
-x,y,1/2-z
-x,-y,-z
x,-y,1/2+z
1/2+x,1/2+y,z
1/2-x,1/2+y,1/2-z
1/2-x,1/2-y,-z
1/2+x,1/2-y,1/2+z
loop_
_atom_site_type_symbol
_atom_site_label
_atom_site_fract_x
_atom_site_fract_y
_atom_site_fract_z
Si Si1 0.305198 0.441958 0.189076
Si Si2 0.623284 0.113879 0.396048
Si Si3 0.733943 0.941959 0.399834
Si Si4 0.327806 0.667514 0.027644
Si Si5 0.000000 0.571820 0.250000
O O1 0.500000 0.395013 0.250000
O O2 0.477221 0.450768 0.127064
O O3 0.238906 0.521040 0.224891
O O4 0.008749 0.405964 0.157595
O O5 0.337147 0.145680 0.411818
O O6 0.632116 0.122782 0.314663
O O7 0.854856 0.165086 0.439718
O O8 0.645134 0.026006 0.418672
O O9 0.766288 0.891384 0.466235
O O10 0.250000 0.750000 0.000000
#
# Coordination Sequence:
#
# PCOD8145050 Si02
#       5
#     8   8   8   8   4
#     4  11  18  35  62  97 128 148 194 270 317 358
#     4  11  22  40  69  92 124 158 213 263 303 377
#     4  11  22  37  66  97 118 159 214 256 308 367
#     4  12  26  43  62  89 133 171 207 253 313 364
#     4  10  22  36  68  98 124 154 208 262 328 346
#
# _framework density 21.176611999999999
#
# number of rings (size 3 to 8) (size 9 to 14) (size 15 to 20)
#    0.000    0.889    4.444    6.000    0.000    0.000 
#    0.000    0.000   14.667    0.000    0.000    0.000 
#    0.000    0.000    0.000    0.000    0.000    0.000 
#
# Total GULP energy -223080.807709 kJ/mol
# GULP energy per Si atom -12393.378206 kJ/mol
# Density = 2.112841 g / cm^3
# Si number density = 21.176612 Si / 1000 Ang^3
#
#
#
# Elastic Constant Matrix: (Units=GPa)
#
#
# Indices 1 2 3 4 5 6 
#
# 1 112.5822 7.9956 34.6587 0.0000 -0.8355 0.0000
# 2 7.9956 74.0903 40.9397 0.0000 -4.5337 0.0000
# 3 34.6587 40.9397 145.0653 0.0000 8.8878 0.0000
# 4 0.0000 0.0000 0.0000 3.3774 0.0000 1.8995
# 5 -0.8355 -4.5337 8.8878 0.0000 47.7643 0.0000
# 6 0.0000 0.0000 0.0000 1.8995 0.0000 10.8433
#
#
#
# Elastic Compliance Matrix: (Units=1/GPa)
#
#
# Indices 1 2 3 4 5 6 
#
# 1 0.009612 0.000348 -0.002435 0.000000 0.000654 0.000000
# 2 0.000348 0.016276 -0.004827 0.000000 0.002449 0.000000
# 3 -0.002435 -0.004827 0.008970 0.000000 -0.002170 0.000000
# 4 0.000000 0.000000 0.000000 0.328448 0.000000 -0.057538
# 5 0.000654 0.002449 -0.002170 0.000000 0.021584 0.000000
# 6 0.000000 0.000000 0.000000 -0.057538 0.000000 0.102302
#
#
# Mechanical properties :
#
#
# Convention : Reuss Voigt Hill
#
# Bulk Modulus (GPa) = 47.54657 55.43618 51.49138
# Shear Modulus (GPa) = 9.84194 28.93991 19.39092
#
# Velocity S-wave (km/s) = 2.15816 3.70076 3.02930
# Velocity P-wave (km/s) = 5.35830 6.67051 6.05008
#
# Compressibility (1/GPa) = 0.02103201
#
# Stress axis : x y z
#
# Youngs Moduli (GPa) = 104.03551 61.43864 111.47920
#
# Poissons Ratio (x) = -0.02139 0.27143
# Poissons Ratio (y) = -0.03622 0.53807
# Poissons Ratio (z) = 0.25331 0.29654
#
# Static dielectric constant tensor:
#      x y z
#    x 4.248000 0.000000 0.230740 
#    y 0.000000 3.332850 0.000000 
#    z 0.230740 0.000000 4.257690 
# 
# 
# High freq. dielectric constant tensor:
#      x y z
#    x 1.859690 0.000000 0.005340 
#    y 0.000000 1.759000 0.000000 
#    z 0.005340 0.000000 1.852760 
# 
# From -- ./inp_files/184141.got.cif
#   From: 2010.06.25/outbox.cif.g09.slc.cpg/sg15_93_cif.got.tgz:184141.got - 2010.06.28 07:06:18.
