data_PCOD8145916
_publ_section_title
;
Structure prediction by ZEFSAII (Michael W. Deem and Ramdas Pophale) SiO2 
 PCOD8145916
Probable space group: C 2/C
;
_chemical_formula_sum "Si O2"
_cell_formula_units_Z 48
_cell_length_a 25.851135
_cell_length_b 14.580251
_cell_length_c 8.182300
_cell_angle_alpha 90.000000
_cell_angle_beta 138.707530
_cell_angle_gamma 90.000000
_cell_volume 2035.167087
_symmetry_space_group_name_H-M "C 2/C"
_symmetry_group_IT_number 15
_symmetry_cell_setting 'monoclinic'
loop_
_space_group_symop_operation_xyz
x,y,z
-x,y,1/2-z
-x,-y,-z
x,-y,1/2+z
1/2+x,1/2+y,z
1/2-x,1/2+y,1/2-z
1/2-x,1/2-y,-z
1/2+x,1/2-y,1/2+z
loop_
_atom_site_type_symbol
_atom_site_label
_atom_site_fract_x
_atom_site_fract_y
_atom_site_fract_z
Si Si1 0.087675 0.778925 0.389294
Si Si2 0.088113 0.532752 0.175418
Si Si3 0.084597 0.719065 0.012689
Si Si4 0.829140 0.613269 0.816962
Si Si5 0.151619 0.881625 0.990943
Si Si6 0.913701 0.036870 0.482733
O O1 0.145227 0.719090 0.642453
O O2 0.118000 0.882729 0.474416
O O3 0.000000 0.768061 0.250000
O O4 0.096239 0.753721 0.222465
O O5 0.118680 0.579232 0.409668
O O6 0.143853 0.446083 0.273668
O O7 0.094660 0.607823 0.041214
O O8 0.000000 0.500000 0.000000
O O9 0.141956 0.775153 0.025159
O O10 0.000000 0.747189 0.750000
O O11 0.737291 0.604518 0.621995
O O12 0.089467 0.920304 0.708532
O O13 0.140151 0.946580 0.123309
O O14 0.000000 0.010710 0.750000
#
# Coordination Sequence:
#
# PCOD8145916 Si02
#       6
#     8   8   8   8   8   8
#     4  10  22  40  63  89 121 164 212 262 307 374
#     4  11  23  42  68  94 126 172 219 263 312 378
#     4  11  22  39  65  93 125 165 217 263 313 379
#     4  11  24  40  62  95 132 163 207 264 326 380
#     4  12  25  40  63  95 128 166 205 263 327 381
#     4  11  23  42  64  87 123 168 218 258 308 381
#
# _framework density 23.585287999999998
#
# number of rings (size 3 to 8) (size 9 to 14) (size 15 to 20)
#    0.000    1.000    0.000    8.500    0.000    6.000 
#    0.000    0.000    0.000    0.000    0.000    0.000 
#    0.000    0.000    0.000    0.000    0.000    0.000 
#
# Total GULP energy -297476.469096 kJ/mol
# GULP energy per Si atom -12394.852879 kJ/mol
# Density = 2.353161 g / cm^3
# Si number density = 23.585288 Si / 1000 Ang^3
#
#
#
# Elastic Constant Matrix: (Units=GPa)
#
#
# Indices 1 2 3 4 5 6 
#
# 1 91.8552 24.8097 16.7747 0.0000 23.1917 0.0000
# 2 24.8097 110.4860 5.0813 0.0000 25.9386 0.0000
# 3 16.7747 5.0813 59.2697 0.0000 9.5160 0.0000
# 4 0.0000 0.0000 0.0000 38.7934 0.0000 -5.3548
# 5 23.1917 25.9386 9.5160 0.0000 35.8825 0.0000
# 6 0.0000 0.0000 0.0000 -5.3548 0.0000 31.4732
#
#
#
# Elastic Compliance Matrix: (Units=1/GPa)
#
#
# Indices 1 2 3 4 5 6 
#
# 1 0.013493 -0.001234 -0.002565 0.000000 -0.007149 0.000000
# 2 -0.001234 0.011020 0.000580 0.000000 -0.007323 0.000000
# 3 -0.002565 0.000580 0.018121 0.000000 -0.003567 0.000000
# 4 0.000000 0.000000 0.000000 0.026398 0.000000 0.004491
# 5 -0.007149 -0.007323 -0.003567 0.000000 0.038729 0.000000
# 6 0.000000 0.000000 0.000000 0.004491 0.000000 0.032537
#
#
# Mechanical properties :
#
#
# Convention : Reuss Voigt Hill
#
# Bulk Modulus (GPa) = 27.62654 39.43802 33.53228
# Shear Modulus (GPa) = 31.48576 35.55950 33.52263
#
# Velocity S-wave (km/s) = 3.65769 3.88712 3.77415
# Velocity P-wave (km/s) = 5.43849 6.07487 5.76547
#
# Compressibility (1/GPa) = 0.03619708
#
# Stress axis : x y z
#
# Youngs Moduli (GPa) = 74.11048 90.74036 55.18446
#
# Poissons Ratio (x) = 0.11194 0.14157
# Poissons Ratio (y) = 0.09142 -0.03201
# Poissons Ratio (z) = 0.19012 -0.05264
#
# Static dielectric constant tensor:
#      x y z
#    x 4.011450 0.000000 -0.232930 
#    y 0.000000 5.159110 0.000000 
#    z -0.232930 0.000000 4.198580 
# 
# 
# High freq. dielectric constant tensor:
#      x y z
#    x 1.920580 0.000000 -0.012770 
#    y 0.000000 1.958650 0.000000 
#    z -0.012770 0.000000 1.925950 
# 
# From -- ./inp_files/66473.got.cif
#   From: 2010.06.25/outbox.cif.g09.slc.cpg/sg15_34_cif.got.tgz:66473.got - 2010.06.28 07:06:18.
