data_PCOD8145364
_publ_section_title
;
Structure prediction by ZEFSAII (Michael W. Deem and Ramdas Pophale) SiO2 
 PCOD8145364
Probable space group: C 2/C
;
_chemical_formula_sum "Si O2"
_cell_formula_units_Z 32
_cell_length_a 10.346490
_cell_length_b 8.655765
_cell_length_c 22.419606
_cell_angle_alpha 90.000000
_cell_angle_beta 134.090411
_cell_angle_gamma 90.000000
_cell_volume 1442.107812
_symmetry_space_group_name_H-M "C 2/C"
_symmetry_group_IT_number 15
_symmetry_cell_setting 'monoclinic'
loop_
_space_group_symop_operation_xyz
x,y,z
-x,y,1/2-z
-x,-y,-z
x,-y,1/2+z
1/2+x,1/2+y,z
1/2-x,1/2+y,1/2-z
1/2-x,1/2-y,-z
1/2+x,1/2-y,1/2+z
loop_
_atom_site_type_symbol
_atom_site_label
_atom_site_fract_x
_atom_site_fract_y
_atom_site_fract_z
Si Si1 0.440088 0.648309 0.148288
Si Si2 0.230878 0.209559 0.674528
Si Si3 0.898563 0.092752 0.416842
Si Si4 0.927608 0.212379 0.663585
O O1 0.602150 0.744235 0.230501
O O2 0.254500 0.719192 0.115328
O O3 0.457175 0.670925 0.082359
O O4 0.435036 0.471300 0.166028
O O5 0.050303 0.274734 0.648327
O O6 0.218528 0.024208 0.662198
O O7 0.773752 0.220875 0.408429
O O8 0.000000 0.000000 0.500000
O O9 0.000000 0.273346 0.750000
#
# Coordination Sequence:
#
# PCOD8145364 Si02
#       4
#     8   8   8   8
#     4  10  22  40  64  95 123 158 216 260 304 367
#     4  10  22  38  64  95 120 162 214 254 306 370
#     4  11  26  42  62  95 132 164 203 260 320 367
#     4  11  21  38  67  90 119 165 210 258 305 368
#
# _framework density 22.189741999999999
#
# number of rings (size 3 to 8) (size 9 to 14) (size 15 to 20)
#    0.000    1.500    5.000    0.000    3.500    7.000 
#    0.000    2.500    0.000    0.000    0.000    0.000 
#    0.000    0.000    0.000    0.000    0.000    0.000 
#
# Total GULP energy -198279.118865 kJ/mol
# GULP energy per Si atom -12392.444929 kJ/mol
# Density = 2.213924 g / cm^3
# Si number density = 22.189742 Si / 1000 Ang^3
#
#
#
# Elastic Constant Matrix: (Units=GPa)
#
#
# Indices 1 2 3 4 5 6 
#
# 1 236.1802 34.9271 5.6800 0.0000 -17.7406 0.0000
# 2 34.9271 64.3465 11.9115 0.0000 6.0482 0.0000
# 3 5.6800 11.9115 14.6175 0.0000 -4.8542 0.0000
# 4 0.0000 0.0000 0.0000 15.1379 0.0000 -3.6470
# 5 -17.7406 6.0482 -4.8542 0.0000 26.4635 0.0000
# 6 0.0000 0.0000 0.0000 -3.6470 0.0000 35.4430
#
#
#
# Elastic Compliance Matrix: (Units=1/GPa)
#
#
# Indices 1 2 3 4 5 6 
#
# 1 0.005069 -0.003674 0.002589 0.000000 0.004713 0.000000
# 2 -0.003674 0.022420 -0.020618 0.000000 -0.011369 0.000000
# 3 0.002589 -0.020618 0.091948 0.000000 0.023314 0.000000
# 4 0.000000 0.000000 0.000000 0.067738 0.000000 0.006970
# 5 0.004713 -0.011369 0.023314 0.000000 0.047822 0.000000
# 6 0.000000 0.000000 0.000000 0.006970 0.000000 0.028932
#
#
# Mechanical properties :
#
#
# Convention : Reuss Voigt Hill
#
# Bulk Modulus (GPa) = 13.15226 46.68683 29.91954
# Shear Modulus (GPa) = 15.02953 32.91725 23.97339
#
# Velocity S-wave (km/s) = 2.60536 3.85573 3.29048
# Velocity P-wave (km/s) = 3.87177 6.39591 5.28669
#
# Compressibility (1/GPa) = 0.07603254
#
# Stress axis : x y z
#
# Youngs Moduli (GPa) = 197.27512 44.60268 10.87570
#
# Poissons Ratio (x) = 0.16386 -0.02816
# Poissons Ratio (y) = 0.72473 0.22423
# Poissons Ratio (z) = -0.51073 0.91960
#
# Static dielectric constant tensor:
#      x y z
#    x 5.158010 0.000000 -0.153550 
#    y 0.000000 3.895350 0.000000 
#    z -0.153550 0.000000 3.481270 
# 
# 
# High freq. dielectric constant tensor:
#      x y z
#    x 1.911240 0.000000 -0.015930 
#    y 0.000000 1.864840 0.000000 
#    z -0.015930 0.000000 1.827470 
# 
# From -- ./inp_files/140722.got.cif
#   From: 2010.06.25/outbox.cif.g09.slc.cpg/sg15_71_cif.got.tgz:140722.got - 2010.06.28 07:06:18.
