data_PCOD8145176
_publ_section_title
;
Structure prediction by ZEFSAII (Michael W. Deem and Ramdas Pophale) SiO2 
 PCOD8145176
Probable space group: C 2/C
;
_chemical_formula_sum "Si O2"
_cell_formula_units_Z 56
_cell_length_a 10.051092
_cell_length_b 24.532464
_cell_length_c 13.629681
_cell_angle_alpha 90.000000
_cell_angle_beta 59.376851
_cell_angle_gamma 90.000000
_cell_volume 2892.073326
_symmetry_space_group_name_H-M "C 2/C"
_symmetry_group_IT_number 15
_symmetry_cell_setting 'monoclinic'
loop_
_space_group_symop_operation_xyz
x,y,z
-x,y,1/2-z
-x,-y,-z
x,-y,1/2+z
1/2+x,1/2+y,z
1/2-x,1/2+y,1/2-z
1/2-x,1/2-y,-z
1/2+x,1/2-y,1/2+z
loop_
_atom_site_type_symbol
_atom_site_label
_atom_site_fract_x
_atom_site_fract_y
_atom_site_fract_z
Si Si1 0.886397 0.211998 0.980077
Si Si2 0.791593 0.414427 0.222276
Si Si3 0.163851 0.368357 0.638345
Si Si4 0.648457 0.030530 0.258390
Si Si5 0.893209 0.714186 0.979632
Si Si6 0.477149 0.104485 0.030101
Si Si7 0.000000 0.660000 0.750000
Si Si8 0.000000 0.853303 0.250000
O O1 0.961162 0.183076 0.858347
O O2 0.750000 0.250000 0.000000
O O3 0.808468 0.172236 0.090245
O O4 0.016855 0.246620 0.981952
O O5 0.748496 0.476285 0.270056
O O6 0.644855 0.391022 0.221606
O O7 0.844217 0.377002 0.295137
O O8 0.946873 0.418583 0.097487
O O9 0.232756 0.422612 0.663547
O O10 0.000000 0.349835 0.750000
O O11 0.123961 0.375916 0.539152
O O12 0.500000 0.013983 0.250000
O O13 0.612514 0.056357 0.379362
O O14 0.991110 0.699329 0.846881
O O15 0.750000 0.750000 0.000000
O O16 0.863679 0.656336 0.047954
#
# Coordination Sequence:
#
# PCOD8145176 Si02
#       8
#     8   8   8   8   8   8   4   4
#     4  12  23  41  62  90 119 168 199 251 307 351
#     4  11  19  39  57  88 119 156 198 248 310 343
#     4   9  19  37  60  91 115 148 212 250 285 361
#     4   9  19  34  64  86 113 158 202 249 292 350
#     4  11  23  38  57  86 121 157 195 242 313 353
#     4   9  18  36  58  86 114 150 210 242 278 367
#     4  10  22  38  56  82 114 152 204 244 282 378
#     4  12  26  36  62  92 130 148 206 258 298 374
#
# _framework density 19.363271000000001
#
# number of rings (size 3 to 8) (size 9 to 14) (size 15 to 20)
#    0.000    2.000    3.571    2.143    1.000    2.286 
#    0.000    2.143    0.000    0.000    0.000    0.000 
#    0.000    0.000    0.000    0.000    0.000    0.000 
#
# Total GULP energy -346897.484288 kJ/mol
# GULP energy per Si atom -12389.195867 kJ/mol
# Density = 1.931920 g / cm^3
# Si number density = 19.363271 Si / 1000 Ang^3
#
#
#
# Elastic Constant Matrix: (Units=GPa)
#
#
# Indices 1 2 3 4 5 6 
#
# 1 99.7611 58.0168 23.6791 0.0000 9.3138 0.0000
# 2 58.0168 143.3910 53.3415 0.0000 0.8139 0.0000
# 3 23.6791 53.3415 84.9539 0.0000 8.4127 0.0000
# 4 0.0000 0.0000 0.0000 26.5713 0.0000 7.7210
# 5 9.3138 0.8139 8.4127 0.0000 23.4352 0.0000
# 6 0.0000 0.0000 0.0000 7.7210 0.0000 35.0918
#
#
#
# Elastic Compliance Matrix: (Units=1/GPa)
#
#
# Indices 1 2 3 4 5 6 
#
# 1 0.013731 -0.005609 0.000223 0.000000 -0.005343 0.000000
# 2 -0.005609 0.011464 -0.006030 0.000000 0.003996 0.000000
# 3 0.000223 -0.006030 0.016054 0.000000 -0.005642 0.000000
# 4 0.000000 0.000000 0.000000 0.040205 0.000000 -0.008846
# 5 -0.005343 0.003996 -0.005642 0.000000 0.046681 0.000000
# 6 0.000000 0.000000 0.000000 -0.008846 0.000000 0.030443
#
#
# Mechanical properties :
#
#
# Convention : Reuss Voigt Hill
#
# Bulk Modulus (GPa) = 54.29507 66.46455 60.37981
# Shear Modulus (GPa) = 26.65974 29.89090 28.27532
#
# Velocity S-wave (km/s) = 3.71458 3.93325 3.82547
# Velocity P-wave (km/s) = 6.81899 7.41801 7.12479
#
# Compressibility (1/GPa) = 0.01841788
#
# Stress axis : x y z
#
# Youngs Moduli (GPa) = 72.82566 87.23111 62.28972
#
# Poissons Ratio (x) = 0.48924 -0.01391
# Poissons Ratio (y) = 0.40844 0.37563
# Poissons Ratio (z) = -0.01626 0.52604
#
# Static dielectric constant tensor:
#      x y z
#    x 3.299140 0.000000 0.280870 
#    y 0.000000 3.769340 0.000000 
#    z 0.280870 0.000000 3.436580 
# 
# 
# High freq. dielectric constant tensor:
#      x y z
#    x 1.729660 0.000000 0.028900 
#    y 0.000000 1.768180 0.000000 
#    z 0.028900 0.000000 1.746600 
# 
# From -- ./inp_files/137329.got.cif
#   From: 2010.06.25/outbox.cif.g09.slc.cpg/sg15_69_cif.got.tgz:137329.got - 2010.06.28 07:06:18.
