data_PCOD8145135
_publ_section_title
;
Structure prediction by ZEFSAII (Michael W. Deem and Ramdas Pophale) SiO2 
 PCOD8145135
Probable space group: C 2/C
;
_chemical_formula_sum "Si O2"
_cell_formula_units_Z 64
_cell_length_a 20.465133
_cell_length_b 15.943736
_cell_length_c 18.226626
_cell_angle_alpha 90.000000
_cell_angle_beta 30.996948
_cell_angle_gamma 90.000000
_cell_volume 3062.751639
_symmetry_space_group_name_H-M "C 2/C"
_symmetry_group_IT_number 15
_symmetry_cell_setting 'monoclinic'
loop_
_space_group_symop_operation_xyz
x,y,z
-x,y,1/2-z
-x,-y,-z
x,-y,1/2+z
1/2+x,1/2+y,z
1/2-x,1/2+y,1/2-z
1/2-x,1/2-y,-z
1/2+x,1/2-y,1/2+z
loop_
_atom_site_type_symbol
_atom_site_label
_atom_site_fract_x
_atom_site_fract_y
_atom_site_fract_z
Si Si1 0.933053 0.201831 0.014090
Si Si2 0.971521 0.217290 0.419928
Si Si3 0.644388 0.160015 0.287015
Si Si4 0.942987 0.486183 0.725736
Si Si5 0.609720 0.896364 0.981240
Si Si6 0.864892 0.904760 0.813949
Si Si7 0.981404 0.977358 0.434426
Si Si8 0.792762 0.912383 0.045193
O O1 0.778429 0.212099 0.152616
O O2 0.964202 0.181124 0.068342
O O3 0.978775 0.122179 0.922926
O O4 0.019238 0.280460 0.905277
O O5 0.979450 0.316952 0.414455
O O6 0.827540 0.178623 0.548061
O O7 0.052537 0.179379 0.275749
O O8 0.629744 0.096130 0.233302
O O9 0.646580 0.105509 0.360059
O O10 0.855428 0.569024 0.821182
O O11 0.000000 0.462762 0.750000
O O12 0.044762 0.515460 0.566284
O O13 0.725107 0.882284 0.924076
O O14 0.867663 0.925897 0.896860
O O15 0.911671 0.983496 0.720880
O O16 0.843774 0.014468 0.548566
O O17 0.000000 0.000000 0.500000
#
# Coordination Sequence:
#
# PCOD8145135 Si02
#       8
#     8   8   8   8   8   8   8   8
#     4  11  22  42  69 102 126 172 224 285 334 401
#     4  10  22  37  63  96 130 168 213 266 327 401
#     4  11  25  46  69  98 135 170 229 285 341 399
#     4  12  26  45  64  94 133 181 221 276 343 401
#     4  11  24  40  65  95 131 174 217 267 334 404
#     4  11  22  39  59  96 133 166 220 261 326 404
#     4  11  19  39  70  93 122 167 220 275 328 388
#     4  11  23  40  64  91 136 172 215 268 328 400
#
# _framework density 20.896242000000001
#
# number of rings (size 3 to 8) (size 9 to 14) (size 15 to 20)
#    0.000    1.000    6.250    1.875    1.750    3.500 
#    0.000    1.875    0.000    0.000    0.000    0.000 
#    0.000    0.000    0.000    0.000    0.000    0.000 
#
# Total GULP energy -396541.889306 kJ/mol
# GULP energy per Si atom -12391.934041 kJ/mol
# Density = 2.084868 g / cm^3
# Si number density = 20.896242 Si / 1000 Ang^3
#
#
#
# Elastic Constant Matrix: (Units=GPa)
#
#
# Indices 1 2 3 4 5 6 
#
# 1 113.4313 32.8072 31.0772 -0.0002 -1.6767 0.0002
# 2 32.8072 72.6990 22.4798 -0.0001 3.5316 0.0001
# 3 31.0772 22.4798 80.9718 0.0000 -8.6112 0.0003
# 4 -0.0002 -0.0001 0.0000 27.6710 0.0001 -3.1170
# 5 -1.6767 3.5316 -8.6112 0.0001 30.4730 -0.0002
# 6 0.0002 0.0001 0.0003 -3.1170 -0.0002 28.0264
#
#
#
# Elastic Compliance Matrix: (Units=1/GPa)
#
#
# Indices 1 2 3 4 5 6 
#
# 1 0.010788 -0.003942 -0.003025 0.000000 0.000196 0.000000
# 2 -0.003942 0.016761 -0.003474 0.000000 -0.003141 0.000000
# 3 -0.003025 -0.003474 0.014950 0.000000 0.004461 0.000000
# 4 0.000000 0.000000 0.000000 0.036597 0.000000 0.004070
# 5 0.000196 -0.003141 0.004461 0.000000 0.034451 0.000000
# 6 0.000000 0.000000 0.000000 0.004070 0.000000 0.036133
#
#
# Mechanical properties :
#
#
# Convention : Reuss Voigt Hill
#
# Bulk Modulus (GPa) = 46.26297 48.87006 47.56651
# Shear Modulus (GPa) = 28.12622 29.28327 28.70475
#
# Velocity S-wave (km/s) = 3.67276 3.74754 3.71034
# Velocity P-wave (km/s) = 6.33822 6.49332 6.41624
#
# Compressibility (1/GPa) = 0.02161556
#
# Stress axis : x y z
#
# Youngs Moduli (GPa) = 92.69701 59.66101 66.88967
#
# Poissons Ratio (x) = 0.23521 0.20235
# Poissons Ratio (y) = 0.36545 0.23240
# Poissons Ratio (z) = 0.28042 0.20728
#
# Static dielectric constant tensor:
#      x y z
#    x 3.951950 0.000000 -0.158360 
#    y 0.000000 3.621480 0.000000 
#    z -0.158360 0.000000 3.724980 
# 
# 
# High freq. dielectric constant tensor:
#      x y z
#    x 1.830030 0.000000 -0.012310 
#    y 0.000000 1.805030 0.000000 
#    z -0.012310 0.000000 1.810740 
# 
# From -- ./inp_files/216161.got.cif
#   From: 2010.06.25/outbox.cif.g09.slc.cpg/sg15_109_cif.got.tgz:216161.got - 2010.06.28 07:06:18.
