data_PCOD8145892
_publ_section_title
;
Structure prediction by ZEFSAII (Michael W. Deem and Ramdas Pophale) SiO2 
 PCOD8145892
Probable space group: C 2/C
;
_chemical_formula_sum "Si O2"
_cell_formula_units_Z 48
_cell_length_a 23.903724
_cell_length_b 11.092526
_cell_length_c 12.770539
_cell_angle_alpha 90.000000
_cell_angle_beta 39.545024
_cell_angle_gamma 90.000000
_cell_volume 2155.904126
_symmetry_space_group_name_H-M "C 2/C"
_symmetry_group_IT_number 15
_symmetry_cell_setting 'monoclinic'
loop_
_space_group_symop_operation_xyz
x,y,z
-x,y,1/2-z
-x,-y,-z
x,-y,1/2+z
1/2+x,1/2+y,z
1/2-x,1/2+y,1/2-z
1/2-x,1/2-y,-z
1/2+x,1/2-y,1/2+z
loop_
_atom_site_type_symbol
_atom_site_label
_atom_site_fract_x
_atom_site_fract_y
_atom_site_fract_z
Si Si1 0.156244 0.868747 0.534002
Si Si2 0.894489 0.321454 0.544958
Si Si3 0.924688 0.094578 0.933022
Si Si4 0.071244 0.208266 0.362463
Si Si5 0.671860 0.081917 0.828187
Si Si6 0.261751 0.248376 0.604239
O O1 0.148928 0.733113 0.498121
O O2 0.139403 0.854878 0.683029
O O3 0.251035 0.929791 0.370971
O O4 0.082691 0.952868 0.584895
O O5 0.887920 0.466189 0.558924
O O6 0.837547 0.276618 0.722953
O O7 0.991904 0.268390 0.413363
O O8 0.000000 0.152724 0.750000
O O9 0.952964 0.107963 0.014332
O O10 0.830136 0.152412 0.046119
O O11 0.109193 0.315441 0.376555
O O12 0.712607 0.119852 0.881983
O O13 0.250000 0.250000 0.500000
#
# Coordination Sequence:
#
# PCOD8145892 Si02
#       6
#     8   8   8   8   8   8
#     4  11  24  43  66  98 135 180 226 278 345 407
#     4  11  22  42  64  97 132 174 225 280 340 403
#     4  11  23  42  65  97 133 175 229 282 337 405
#     4  11  24  42  70  99 134 179 229 284 340 409
#     4  10  23  43  65  96 136 173 229 279 339 407
#     4  10  22  40  62  92 129 176 220 272 337 401
#
# _framework density 22.264441000000001
#
# number of rings (size 3 to 8) (size 9 to 14) (size 15 to 20)
#    0.000    1.333    1.667    3.500    0.000    6.667 
#    0.000    8.333    0.000    0.000    0.000    0.000 
#    0.000    0.000    0.000    0.000    0.000    0.000 
#
# Total GULP energy -297402.357331 kJ/mol
# GULP energy per Si atom -12391.764889 kJ/mol
# Density = 2.221377 g / cm^3
# Si number density = 22.264441 Si / 1000 Ang^3
#
#
#
# Elastic Constant Matrix: (Units=GPa)
#
#
# Indices 1 2 3 4 5 6 
#
# 1 58.9307 23.2245 21.5069 0.0000 14.9694 0.0000
# 2 23.2245 97.7030 8.7622 0.0000 16.7390 0.0000
# 3 21.5069 8.7622 109.7522 0.0000 23.4202 0.0000
# 4 0.0000 0.0000 0.0000 24.0104 0.0000 -6.1674
# 5 14.9694 16.7390 23.4202 0.0000 49.2017 0.0000
# 6 0.0000 0.0000 0.0000 -6.1674 0.0000 26.0946
#
#
#
# Elastic Compliance Matrix: (Units=1/GPa)
#
#
# Indices 1 2 3 4 5 6 
#
# 1 0.020512 -0.004017 -0.002959 0.000000 -0.003466 0.000000
# 2 -0.004017 0.011656 0.000492 0.000000 -0.002978 0.000000
# 3 -0.002959 0.000492 0.010569 0.000000 -0.004298 0.000000
# 4 0.000000 0.000000 0.000000 0.044340 0.000000 0.010480
# 5 -0.003466 -0.002978 -0.004298 0.000000 0.024438 0.000000
# 6 0.000000 0.000000 0.000000 0.010480 0.000000 0.040799
#
#
# Mechanical properties :
#
#
# Convention : Reuss Voigt Hill
#
# Bulk Modulus (GPa) = 33.59177 41.48590 37.53883
# Shear Modulus (GPa) = 28.53781 34.05416 31.29598
#
# Velocity S-wave (km/s) = 3.58406 3.91517 3.75327
# Velocity P-wave (km/s) = 5.67871 6.25394 5.97325
#
# Compressibility (1/GPa) = 0.02976920
#
# Stress axis : x y z
#
# Youngs Moduli (GPa) = 48.75089 85.79335 94.61432
#
# Poissons Ratio (x) = 0.34461 0.28000
# Poissons Ratio (y) = 0.19582 -0.04654
# Poissons Ratio (z) = 0.14427 -0.04221
#
# Static dielectric constant tensor:
#      x y z
#    x 3.540770 0.000000 -0.457210 
#    y 0.000000 4.166950 0.000000 
#    z -0.457210 0.000000 4.272210 
# 
# 
# High freq. dielectric constant tensor:
#      x y z
#    x 1.869030 0.000000 -0.001170 
#    y 0.000000 1.875160 0.000000 
#    z -0.001170 0.000000 1.887940 
# 
# From -- ./inp_files/111451.got.cif
#   From: 2010.06.25/outbox.cif.g09.slc.cpg/sg15_56_cif.got.tgz:111451.got - 2010.06.28 07:06:18.
