data_PCOD8145643
_publ_section_title
;
Structure prediction by ZEFSAII (Michael W. Deem and Ramdas Pophale) SiO2 
 PCOD8145643
Probable space group: C 2/C
;
_chemical_formula_sum "Si O2"
_cell_formula_units_Z 60
_cell_length_a 15.282556
_cell_length_b 14.333881
_cell_length_c 27.774300
_cell_angle_alpha 90.000000
_cell_angle_beta 151.676211
_cell_angle_gamma 90.000000
_cell_volume 2886.667657
_symmetry_space_group_name_H-M "C 2/C"
_symmetry_group_IT_number 15
_symmetry_cell_setting 'monoclinic'
loop_
_space_group_symop_operation_xyz
x,y,z
-x,y,1/2-z
-x,-y,-z
x,-y,1/2+z
1/2+x,1/2+y,z
1/2-x,1/2+y,1/2-z
1/2-x,1/2-y,-z
1/2+x,1/2-y,1/2+z
loop_
_atom_site_type_symbol
_atom_site_label
_atom_site_fract_x
_atom_site_fract_y
_atom_site_fract_z
Si Si1 0.684007 0.696730 0.607960
Si Si2 0.843656 0.568386 0.604697
Si Si3 0.830126 0.788242 0.886163
Si Si4 0.500000 0.914524 0.750000
Si Si5 0.261596 0.084214 0.737825
Si Si6 0.830264 0.892604 0.701058
Si Si7 0.684287 0.405367 0.307395
Si Si8 0.460891 0.405553 0.870864
O O1 0.816762 0.652004 0.631061
O O2 0.471319 0.672828 0.494310
O O3 0.718411 0.660078 0.677254
O O4 0.707067 0.808213 0.622542
O O5 0.887489 0.475497 0.656721
O O6 0.666659 0.557715 0.484017
O O7 0.015035 0.583974 0.651320
O O8 0.640663 0.843845 0.793227
O O9 0.812824 0.677973 0.887905
O O10 0.924701 0.807889 0.880431
O O11 0.157059 0.112691 0.736643
O O12 0.184466 0.984502 0.682203
O O13 0.926011 0.879919 0.799061
O O14 0.000000 0.906153 0.750000
O O15 0.719393 0.991840 0.643607
O O16 0.500000 0.401240 0.250000
#
# Coordination Sequence:
#
# PCOD8145643 Si02
#       8
#     8   8   8   4   8   8   8   8
#     4  11  22  38  63 100 125 159 206 264 325 381
#     4  11  21  37  67 100 128 158 203 266 328 383
#     4  11  22  38  65  92 127 162 208 258 322 387
#     4  12  20  38  68  92 132 162 194 264 336 374
#     4  11  20  39  63  89 130 162 201 266 314 370
#     4  10  22  41  63  82 129 169 210 264 301 360
#     4  10  23  42  61  83 123 174 218 255 299 367
#     4  10  22  39  63  99 125 164 214 252 321 383
#
# _framework density 20.785212000000001
#
# number of rings (size 3 to 8) (size 9 to 14) (size 15 to 20)
#    0.000    1.333    3.333    2.400    0.000    3.733 
#    0.000   10.667    0.000    0.000    0.000    0.000 
#    0.000    0.000    0.000    0.000    0.000    0.000 
#
# Total GULP energy -371654.934304 kJ/mol
# GULP energy per Si atom -12388.497810 kJ/mol
# Density = 2.073790 g / cm^3
# Si number density = 20.785212 Si / 1000 Ang^3
#
#
#
# Elastic Constant Matrix: (Units=GPa)
#
#
# Indices 1 2 3 4 5 6 
#
# 1 111.7266 31.8589 38.0351 0.0000 7.8107 0.0000
# 2 31.8589 113.4138 38.8308 0.0002 11.0341 0.0000
# 3 38.0351 38.8308 103.9137 0.0005 16.8057 -0.0008
# 4 0.0000 0.0002 0.0005 28.0829 0.0002 3.9279
# 5 7.8107 11.0341 16.8057 0.0002 13.1218 -0.0002
# 6 0.0000 0.0000 -0.0008 3.9279 -0.0002 26.6714
#
#
#
# Elastic Compliance Matrix: (Units=1/GPa)
#
#
# Indices 1 2 3 4 5 6 
#
# 1 0.010572 -0.001846 -0.003044 0.000000 -0.000843 0.000000
# 2 -0.001846 0.010660 -0.002568 0.000000 -0.004577 0.000000
# 3 -0.003044 -0.002568 0.013943 0.000000 -0.013886 0.000000
# 4 0.000000 0.000000 0.000000 0.036358 0.000000 -0.005354
# 5 -0.000843 -0.004577 -0.013886 0.000000 0.098344 0.000000
# 6 0.000000 0.000000 0.000000 -0.005354 0.000000 0.038282
#
#
# Mechanical properties :
#
#
# Convention : Reuss Voigt Hill
#
# Bulk Modulus (GPa) = 49.35662 60.72259 55.03961
# Shear Modulus (GPa) = 21.75560 28.26383 25.00972
#
# Velocity S-wave (km/s) = 3.23876 3.69155 3.47255
# Velocity P-wave (km/s) = 6.14684 6.88824 6.52808
#
# Compressibility (1/GPa) = 0.02026071
#
# Stress axis : x y z
#
# Youngs Moduli (GPa) = 94.59180 93.80713 71.72223
#
# Poissons Ratio (x) = 0.17313 0.21829
# Poissons Ratio (y) = 0.17458 0.18417
# Poissons Ratio (z) = 0.28789 0.24087
#
# Static dielectric constant tensor:
#      x y z
#    x 3.792860 0.000000 0.061510 
#    y 0.000000 4.367330 0.000000 
#    z 0.061510 0.000000 3.462130 
# 
# 
# High freq. dielectric constant tensor:
#      x y z
#    x 1.816910 0.000000 0.000130 
#    y 0.000000 1.825100 0.000000 
#    z 0.000130 0.000000 1.798840 
# 
# From -- ./inp_files/296728.got.cif
#   From: 2010.06.25/outbox.cif.g09.slc.cpg/sg15_149_cif.got.tgz:296728.got - 2010.06.28 07:06:18.
