data_PCOD8145966
_publ_section_title
;
Structure prediction by ZEFSAII (Michael W. Deem and Ramdas Pophale) SiO2 
 PCOD8145966
Probable space group: C 2/C
;
_chemical_formula_sum "Si O2"
_cell_formula_units_Z 48
_cell_length_a 30.819463
_cell_length_b 11.480724
_cell_length_c 24.570821
_cell_angle_alpha 90.000000
_cell_angle_beta 14.719347
_cell_angle_gamma 90.000000
_cell_volume 2208.982440
_symmetry_space_group_name_H-M "C 2/C"
_symmetry_group_IT_number 15
_symmetry_cell_setting 'monoclinic'
loop_
_space_group_symop_operation_xyz
x,y,z
-x,y,1/2-z
-x,-y,-z
x,-y,1/2+z
1/2+x,1/2+y,z
1/2-x,1/2+y,1/2-z
1/2-x,1/2-y,-z
1/2+x,1/2-y,1/2+z
loop_
_atom_site_type_symbol
_atom_site_label
_atom_site_fract_x
_atom_site_fract_y
_atom_site_fract_z
Si Si1 0.358518 0.277224 0.262418
Si Si2 0.508100 0.844615 0.803417
Si Si3 0.644592 0.733671 0.927097
Si Si4 0.507787 0.138438 0.494622
Si Si5 0.562061 0.900418 0.115232
Si Si6 0.052333 0.018999 0.374015
O O1 0.351541 0.229356 0.333152
O O2 0.180962 0.308162 0.447920
O O3 0.469780 0.395045 0.128768
O O4 0.443353 0.175142 0.125233
O O5 0.500000 0.812834 0.750000
O O6 0.545102 0.981990 0.767892
O O7 0.834838 0.709873 0.718843
O O8 0.642925 0.818797 0.876276
O O9 0.525942 0.795106 0.117189
O O10 0.580601 0.605365 0.991703
O O11 0.500000 0.000000 0.500000
O O12 0.500000 0.857539 0.250000
O O13 0.760495 0.930569 0.865650
O O14 0.000000 0.000000 0.500000
#
# Coordination Sequence:
#
# PCOD8145966 Si02
#       6
#     8   8   8   8   8   8
#     4  11  22  39  64  90 128 167 214 270 337 389
#     4  10  22  40  64  91 126 171 219 267 327 401
#     4  12  24  44  65  98 136 170 227 277 341 412
#     4  12  27  39  68 100 132 172 226 282 346 406
#     4  10  23  45  68  95 135 182 223 273 344 413
#     4  11  23  42  66  96 137 180 214 280 351 400
#
# _framework density 21.729462000000002
#
# number of rings (size 3 to 8) (size 9 to 14) (size 15 to 20)
#    0.000    1.000    3.333    2.500    9.333    0.667 
#    0.000    0.833    0.000    0.000    0.000    0.000 
#    0.000    0.000    0.000    0.000    0.000    0.000 
#
# Total GULP energy -297438.473205 kJ/mol
# GULP energy per Si atom -12393.269717 kJ/mol
# Density = 2.168001 g / cm^3
# Si number density = 21.729462 Si / 1000 Ang^3
#
#
#
# Elastic Constant Matrix: (Units=GPa)
#
#
# Indices 1 2 3 4 5 6 
#
# 1 107.1964 56.6572 25.8695 0.0009 20.3901 -0.0015
# 2 56.6572 145.4303 13.2331 -0.0485 12.9979 0.0639
# 3 25.8695 13.2331 62.0575 -0.0167 21.6326 0.0260
# 4 0.0009 -0.0485 -0.0167 18.7801 0.0167 1.1876
# 5 20.3901 12.9979 21.6326 0.0167 39.0206 -0.0213
# 6 -0.0015 0.0639 0.0260 1.1876 -0.0213 45.9286
#
#
#
# Elastic Compliance Matrix: (Units=1/GPa)
#
#
# Indices 1 2 3 4 5 6 
#
# 1 0.013190 -0.004521 -0.003293 -0.000013 -0.003561 0.000007
# 2 -0.004521 0.008673 0.000271 0.000024 -0.000677 -0.000013
# 3 -0.003293 0.000271 0.020900 0.000029 -0.009956 -0.000018
# 4 -0.000013 0.000024 0.000029 0.053335 -0.000041 -0.001379
# 5 -0.003561 -0.000677 -0.009956 -0.000041 0.033233 0.000023
# 6 0.000007 -0.000013 -0.000018 -0.001379 0.000023 0.021809
#
#
# Mechanical properties :
#
#
# Convention : Reuss Voigt Hill
#
# Bulk Modulus (GPa) = 36.13073 56.24487 46.18780
# Shear Modulus (GPa) = 28.49789 35.34081 31.91935
#
# Velocity S-wave (km/s) = 3.62537 4.03724 3.83684
# Velocity P-wave (km/s) = 5.84706 6.90455 6.39769
#
# Compressibility (1/GPa) = 0.02767727
#
# Stress axis : x y z
#
# Youngs Moduli (GPa) = 75.81436 115.29746 47.84769
#
# Poissons Ratio (x) = 0.52123 0.15757
# Poissons Ratio (y) = 0.34274 -0.01297
# Poissons Ratio (z) = 0.24967 -0.03126
#
# Static dielectric constant tensor:
#      x y z
#    x 3.818840 -0.000010 0.109030 
#    y -0.000010 4.183280 0.000100 
#    z 0.109030 0.000100 4.090030 
# 
# 
# High freq. dielectric constant tensor:
#      x y z
#    x 1.845210 0.000000 0.011030 
#    y 0.000000 1.871460 0.000000 
#    z 0.011030 0.000000 1.845770 
# 
# From -- ./inp_files/252613.got.cif
#   From: 2010.06.25/outbox.cif.g09.slc.cpg/sg15_127_cif.got.tgz:252613.got - 2010.06.28 07:06:18.
