data_PCOD8145822
_publ_section_title
;
Structure prediction by ZEFSAII (Michael W. Deem and Ramdas Pophale) SiO2 
 PCOD8145822
Probable space group: C 2/C
;
_chemical_formula_sum "Si O2"
_cell_formula_units_Z 40
_cell_length_a 13.796964
_cell_length_b 12.030697
_cell_length_c 14.812683
_cell_angle_alpha 90.000000
_cell_angle_beta 58.559932
_cell_angle_gamma 90.000000
_cell_volume 2097.741113
_symmetry_space_group_name_H-M "C 2/C"
_symmetry_group_IT_number 15
_symmetry_cell_setting 'monoclinic'
loop_
_space_group_symop_operation_xyz
x,y,z
-x,y,1/2-z
-x,-y,-z
x,-y,1/2+z
1/2+x,1/2+y,z
1/2-x,1/2+y,1/2-z
1/2-x,1/2-y,-z
1/2+x,1/2-y,1/2+z
loop_
_atom_site_type_symbol
_atom_site_label
_atom_site_fract_x
_atom_site_fract_y
_atom_site_fract_z
Si Si1 0.514165 0.539047 0.847355
Si Si2 0.164007 0.212903 0.874937
Si Si3 0.730049 0.489000 0.453318
Si Si4 0.621006 0.946118 0.951327
Si Si5 0.224785 0.897583 0.776873
O O1 0.500000 0.567118 0.750000
O O2 0.565466 0.647253 0.870782
O O3 0.593953 0.431559 0.824430
O O4 0.394739 0.509693 0.948469
O O5 0.234948 0.132309 0.905242
O O6 0.252326 0.268577 0.759728
O O7 0.108496 0.311559 0.962188
O O8 0.822816 0.495896 0.486157
O O9 0.760281 0.581636 0.363446
O O10 0.698963 0.976284 0.826402
O O11 0.500000 0.000000 0.000000
#
# Coordination Sequence:
#
# PCOD8145822 Si02
#       5
#     8   8   8   8   8
#     4  11  20  40  64  90 121 162 203 251 300 366
#     4   9  21  39  59  89 123 151 203 249 293 365
#     4  11  21  42  67  85 125 164 200 255 300 357
#     4  10  22  40  60  88 126 156 205 249 303 358
#     4   9  21  39  60  91 122 153 205 244 303 358
#
# _framework density 19.068131000000001
#
# number of rings (size 3 to 8) (size 9 to 14) (size 15 to 20)
#    1.200    0.800    2.000    3.000    0.000    2.400 
#   14.400    2.000    8.800    0.000    0.000    0.000 
#    0.000    0.000    0.000    0.000    0.000    0.000 
#
# Total GULP energy -247883.726788 kJ/mol
# GULP energy per Si atom -12394.186339 kJ/mol
# Density = 1.902473 g / cm^3
# Si number density = 19.068131 Si / 1000 Ang^3
#
#
#
# Elastic Constant Matrix: (Units=GPa)
#
#
# Indices 1 2 3 4 5 6 
#
# 1 152.3839 37.0655 64.7895 0.0000 5.1953 0.0000
# 2 37.0655 70.4145 34.1066 0.0000 -12.7266 0.0000
# 3 64.7895 34.1066 128.3768 0.0000 11.5047 0.0000
# 4 0.0000 0.0000 0.0000 36.0191 0.0000 0.8264
# 5 5.1953 -12.7266 11.5047 0.0000 26.8755 0.0000
# 6 0.0000 0.0000 0.0000 0.8264 0.0000 16.3987
#
#
#
# Elastic Compliance Matrix: (Units=1/GPa)
#
#
# Indices 1 2 3 4 5 6 
#
# 1 0.008902 -0.003353 -0.003437 0.000000 -0.001837 0.000000
# 2 -0.003353 0.020600 -0.004901 0.000000 0.012501 0.000000
# 3 -0.003437 -0.004901 0.011413 0.000000 -0.006542 0.000000
# 4 0.000000 0.000000 0.000000 0.027795 0.000000 -0.001401
# 5 -0.001837 0.012501 -0.006542 0.000000 0.046284 0.000000
# 6 0.000000 0.000000 0.000000 -0.001401 0.000000 0.061051
#
#
# Mechanical properties :
#
#
# Convention : Reuss Voigt Hill
#
# Bulk Modulus (GPa) = 57.03854 69.23314 63.13584
# Shear Modulus (GPa) = 24.35803 30.20624 27.28214
#
# Velocity S-wave (km/s) = 3.57798 3.98442 3.78666
# Velocity P-wave (km/s) = 6.85910 7.58647 7.23194
#
# Compressibility (1/GPa) = 0.01753200
#
# Stress axis : x y z
#
# Youngs Moduli (GPa) = 112.33397 48.54383 87.62277
#
# Poissons Ratio (x) = 0.16277 0.30118
# Poissons Ratio (y) = 0.37667 0.42943
# Poissons Ratio (z) = 0.38611 0.23791
#
# Static dielectric constant tensor:
#      x y z
#    x 3.501880 0.000000 0.246330 
#    y 0.000000 3.444610 0.000000 
#    z 0.246330 0.000000 3.706610 
# 
# 
# High freq. dielectric constant tensor:
#      x y z
#    x 1.737760 0.000000 0.010550 
#    y 0.000000 1.727520 0.000000 
#    z 0.010550 0.000000 1.750560 
# 
# From -- ./inp_files/151205.got.cif
#   From: 2010.06.25/outbox.cif.g09.slc.cpg/sg15_76_cif.got.tgz:151205.got - 2010.06.28 07:06:18.
