data_PCOD8145038
_publ_section_title
;
Structure prediction by ZEFSAII (Michael W. Deem and Ramdas Pophale) SiO2 
 PCOD8145038
Probable space group: C 2/C
;
_chemical_formula_sum "Si O2"
_cell_formula_units_Z 52
_cell_length_a 6.667671
_cell_length_b 18.571131
_cell_length_c 22.500384
_cell_angle_alpha 90.000000
_cell_angle_beta 115.903500
_cell_angle_gamma 90.000000
_cell_volume 2506.216740
_symmetry_space_group_name_H-M "C 2/C"
_symmetry_group_IT_number 15
_symmetry_cell_setting 'monoclinic'
loop_
_space_group_symop_operation_xyz
x,y,z
-x,y,1/2-z
-x,-y,-z
x,-y,1/2+z
1/2+x,1/2+y,z
1/2-x,1/2+y,1/2-z
1/2-x,1/2-y,-z
1/2+x,1/2-y,1/2+z
loop_
_atom_site_type_symbol
_atom_site_label
_atom_site_fract_x
_atom_site_fract_y
_atom_site_fract_z
Si Si1 0.967723 0.183324 0.849876
Si Si2 0.356512 0.441391 0.677920
Si Si3 0.492288 0.842234 0.820120
Si Si4 0.500000 0.866096 0.250000
Si Si5 0.863550 0.585094 0.856217
Si Si6 0.390255 0.563879 0.407130
Si Si7 0.157695 0.097266 0.555963
O O1 0.050446 0.264893 0.855381
O O2 0.148855 0.135125 0.838534
O O3 0.721159 0.181480 0.788948
O O4 0.951161 0.158238 0.916132
O O5 0.500000 0.476846 0.750000
O O6 0.188769 0.503103 0.633125
O O7 0.500346 0.416687 0.641107
O O8 0.249500 0.368833 0.690462
O O9 0.500000 0.840680 0.750000
O O10 0.650853 0.899813 0.872549
O O11 0.552368 0.916535 0.200966
O O12 0.078492 0.611359 0.922310
O O13 0.533122 0.600563 0.477571
O O14 0.371477 0.478762 0.414310
#
# Coordination Sequence:
#
# PCOD8145038 Si02
#       7
#     8   8   8   4   8   8   8
#     4  11  24  43  66  96 134 174 218 266 337 394
#     4  12  24  38  68  97 129 171 222 273 333 385
#     4  12  26  42  64  99 137 171 213 281 334 389
#     4  10  22  36  64  94 130 168 218 274 320 392
#     4  11  22  39  66  98 127 173 224 270 323 390
#     4  11  24  45  67 100 134 170 224 279 324 388
#     4  10  24  44  69  96 133 176 224 271 324 395
#
# _framework density 20.748404000000001
#
# number of rings (size 3 to 8) (size 9 to 14) (size 15 to 20)
#    0.000    0.923    4.615    2.308    4.308    4.923 
#    0.000    1.538    0.000    0.000    0.000    0.000 
#    0.000    0.000    0.000    0.000    0.000    0.000 
#
# Total GULP energy -322413.407922 kJ/mol
# GULP energy per Si atom -12400.515689 kJ/mol
# Density = 2.070118 g / cm^3
# Si number density = 20.748404 Si / 1000 Ang^3
#
#
#
# Elastic Constant Matrix: (Units=GPa)
#
#
# Indices 1 2 3 4 5 6 
#
# 1 115.7137 26.5507 38.9894 0.0000 1.9701 0.0000
# 2 26.5507 97.1134 22.2480 0.0000 -3.9325 0.0000
# 3 38.9894 22.2480 121.2619 0.0000 -0.7810 0.0000
# 4 0.0000 0.0000 0.0000 26.2171 0.0000 -5.5114
# 5 1.9701 -3.9325 -0.7810 0.0000 24.4795 0.0000
# 6 0.0000 0.0000 0.0000 -5.5114 0.0000 25.2445
#
#
#
# Elastic Compliance Matrix: (Units=1/GPa)
#
#
# Indices 1 2 3 4 5 6 
#
# 1 0.010126 -0.002162 -0.002867 0.000000 -0.001254 0.000000
# 2 -0.002162 0.011279 -0.001362 0.000000 0.001942 0.000000
# 3 -0.002867 -0.001362 0.009420 0.000000 0.000313 0.000000
# 4 0.000000 0.000000 0.000000 0.039978 0.000000 0.008728
# 5 -0.001254 0.001942 0.000313 0.000000 0.041273 0.000000
# 6 0.000000 0.000000 0.000000 0.008728 0.000000 0.041518
#
#
# Mechanical properties :
#
#
# Convention : Reuss Voigt Hill
#
# Bulk Modulus (GPa) = 55.42320 56.62946 56.02633
# Shear Modulus (GPa) = 29.00396 31.60829 30.30613
#
# Velocity S-wave (km/s) = 3.74289 3.90732 3.82599
# Velocity P-wave (km/s) = 6.74159 6.90716 6.82488
#
# Compressibility (1/GPa) = 0.01804299
#
# Stress axis : x y z
#
# Youngs Moduli (GPa) = 98.76017 88.66036 106.15390
#
# Poissons Ratio (x) = 0.19171 0.30435
# Poissons Ratio (y) = 0.21355 0.14454
# Poissons Ratio (z) = 0.28315 0.12072
#
# Static dielectric constant tensor:
#      x y z
#    x 3.995600 0.000000 0.187090 
#    y 0.000000 3.487330 0.000000 
#    z 0.187090 0.000000 3.745190 
# 
# 
# High freq. dielectric constant tensor:
#      x y z
#    x 1.830260 0.000000 0.007260 
#    y 0.000000 1.797330 0.000000 
#    z 0.007260 0.000000 1.807230 
# 
# From -- ./inp_files/261432.got.cif
#   From: 2010.06.25/outbox.cif.g09.slc.cpg/sg15_131_cif.got.tgz:261432.got - 2010.06.28 07:06:18.
