data_PCOD8145754
_publ_section_title
;
Structure prediction by ZEFSAII (Michael W. Deem and Ramdas Pophale) SiO2 
 PCOD8145754
Probable space group: C 2/C
;
_chemical_formula_sum "Si O2"
_cell_formula_units_Z 64
_cell_length_a 11.783575
_cell_length_b 26.522106
_cell_length_c 15.015806
_cell_angle_alpha 90.000000
_cell_angle_beta 138.867275
_cell_angle_gamma 90.000000
_cell_volume 3086.961793
_symmetry_space_group_name_H-M "C 2/C"
_symmetry_group_IT_number 15
_symmetry_cell_setting 'monoclinic'
loop_
_space_group_symop_operation_xyz
x,y,z
-x,y,1/2-z
-x,-y,-z
x,-y,1/2+z
1/2+x,1/2+y,z
1/2-x,1/2+y,1/2-z
1/2-x,1/2-y,-z
1/2+x,1/2-y,1/2+z
loop_
_atom_site_type_symbol
_atom_site_label
_atom_site_fract_x
_atom_site_fract_y
_atom_site_fract_z
Si Si1 0.911916 0.506841 0.854076
Si Si2 0.869518 0.567999 0.102834
Si Si3 0.107708 0.048154 0.089312
Si Si4 0.216820 0.333566 0.582405
Si Si5 0.986441 0.757638 0.475655
Si Si6 0.831315 0.205738 0.709034
Si Si7 0.009973 0.850624 0.899336
Si Si8 0.623502 0.108817 0.591681
O O1 0.753237 0.468538 0.746266
O O2 0.844897 0.564508 0.816318
O O3 0.057221 0.489642 0.868139
O O4 0.000000 0.500000 0.000000
O O5 0.684778 0.567244 0.040880
O O6 0.000000 0.596106 0.250000
O O7 0.851046 0.595675 0.997602
O O8 0.996688 0.092136 0.069163
O O9 0.000000 0.000000 0.000000
O O10 0.123851 0.278992 0.525151
O O11 0.353707 0.337705 0.742011
O O12 0.307294 0.342994 0.541304
O O13 0.074114 0.375839 0.513346
O O14 0.881983 0.760519 0.322746
O O15 0.003170 0.812922 0.526036
O O16 0.176128 0.734790 0.567020
O O17 0.761353 0.151320 0.698810
O O18 0.000000 0.198014 0.750000
#
# Coordination Sequence:
#
# PCOD8145754 Si02
#       8
#     8   8   8   8   8   8   8   8
#     4   9  19  40  62  85 128 172 215 257 316 389
#     4   9  19  39  62  86 130 172 214 262 321 393
#     4  11  25  39  60 100 128 170 217 273 325 380
#     4  10  22  43  67 101 122 178 223 269 331 399
#     4  11  23  46  66  97 135 167 224 271 337 400
#     4  11  25  43  66 100 132 172 213 274 337 400
#     4  11  23  41  69  91 141 171 219 272 331 394
#     4  10  22  39  68  94 128 169 226 268 331 389
#
# _framework density 20.732358000000001
#
# number of rings (size 3 to 8) (size 9 to 14) (size 15 to 20)
#    0.000    1.750    1.250    3.000    5.250    0.000 
#    2.250    0.000    0.000    0.000    0.000    0.000 
#    0.000    0.000    0.000    0.000    0.000    0.000 
#
# Total GULP energy -396633.424838 kJ/mol
# GULP energy per Si atom -12394.794526 kJ/mol
# Density = 2.068517 g / cm^3
# Si number density = 20.732358 Si / 1000 Ang^3
#
#
#
# Elastic Constant Matrix: (Units=GPa)
#
#
# Indices 1 2 3 4 5 6 
#
# 1 109.5710 36.8485 26.5328 0.0000 27.0632 0.0000
# 2 36.8485 120.6720 33.2338 0.0000 10.8212 0.0000
# 3 26.5328 33.2338 62.2340 0.0000 12.6547 0.0000
# 4 0.0000 0.0000 0.0000 36.2170 0.0000 -2.5845
# 5 27.0632 10.8212 12.6547 0.0000 28.5503 0.0000
# 6 0.0000 0.0000 0.0000 -2.5845 0.0000 31.8576
#
#
#
# Elastic Compliance Matrix: (Units=1/GPa)
#
#
# Indices 1 2 3 4 5 6 
#
# 1 0.013064 -0.002464 -0.002117 0.000000 -0.010511 0.000000
# 2 -0.002464 0.010241 -0.004511 0.000000 0.000453 0.000000
# 3 -0.002117 -0.004511 0.020469 0.000000 -0.005357 0.000000
# 4 0.000000 0.000000 0.000000 0.027772 0.000000 0.002253
# 5 -0.010511 0.000453 -0.005357 0.000000 0.047192 0.000000
# 6 0.000000 0.000000 0.000000 0.002253 0.000000 0.031572
#
#
# Mechanical properties :
#
#
# Convention : Reuss Voigt Hill
#
# Bulk Modulus (GPa) = 39.07502 53.96745 46.52124
# Shear Modulus (GPa) = 28.24501 32.38244 30.31372
#
# Velocity S-wave (km/s) = 3.69503 3.95641 3.82795
# Velocity P-wave (km/s) = 6.09037 6.85259 6.48269
#
# Compressibility (1/GPa) = 0.02559179
#
# Stress axis : x y z
#
# Youngs Moduli (GPa) = 76.54737 97.64832 48.85510
#
# Poissons Ratio (x) = 0.24057 0.10341
# Poissons Ratio (y) = 0.18859 0.22036
# Poissons Ratio (z) = 0.16202 0.44045
#
# Static dielectric constant tensor:
#      x y z
#    x 3.921690 0.000000 0.062870 
#    y 0.000000 4.400700 0.000000 
#    z 0.062870 0.000000 3.761640 
# 
# 
# High freq. dielectric constant tensor:
#      x y z
#    x 1.810790 0.000000 0.006010 
#    y 0.000000 1.813140 0.000000 
#    z 0.006010 0.000000 1.813720 
# 
# From -- ./inp_files/148784.got.cif
#   From: 2010.06.25/outbox.cif.g09.slc.cpg/sg15_75_cif.got.tgz:148784.got - 2010.06.28 07:06:18.
