data_PCOD8145879
_publ_section_title
;
Structure prediction by ZEFSAII (Michael W. Deem and Ramdas Pophale) SiO2 
 PCOD8145879
Probable space group: C 2/C
;
_chemical_formula_sum "Si O2"
_cell_formula_units_Z 40
_cell_length_a 22.406674
_cell_length_b 8.456181
_cell_length_c 10.411924
_cell_angle_alpha 90.000000
_cell_angle_beta 88.969628
_cell_angle_gamma 90.000000
_cell_volume 1972.479170
_symmetry_space_group_name_H-M "C 2/C"
_symmetry_group_IT_number 15
_symmetry_cell_setting 'monoclinic'
loop_
_space_group_symop_operation_xyz
x,y,z
-x,y,1/2-z
-x,-y,-z
x,-y,1/2+z
1/2+x,1/2+y,z
1/2-x,1/2+y,1/2-z
1/2-x,1/2-y,-z
1/2+x,1/2-y,1/2+z
loop_
_atom_site_type_symbol
_atom_site_label
_atom_site_fract_x
_atom_site_fract_y
_atom_site_fract_z
Si Si1 0.240691 0.354612 0.124099
Si Si2 0.912150 0.627644 0.611044
Si Si3 0.103621 0.385828 0.109278
Si Si4 0.512857 0.371238 0.606114
Si Si5 0.786224 0.193569 0.120239
O O1 0.173562 0.411531 0.116783
O O2 0.249637 0.253092 0.252820
O O3 0.286570 0.502331 0.123966
O O4 0.250000 0.250000 0.000000
O O5 0.916087 0.487868 0.509981
O O6 0.921341 0.552666 0.752550
O O7 0.852933 0.737406 0.610453
O O8 0.968783 0.730437 0.574202
O O9 0.080076 0.203481 0.093379
O O10 0.500000 0.439636 0.750000
O O11 0.500000 0.500000 0.500000
O O12 0.750000 0.250000 0.000000
#
# Coordination Sequence:
#
# PCOD8145879 Si02
#       5
#     8   8   8   8   8
#     4  11  24  39  61  91 125 163 208 253 312 370
#     4  10  22  40  63  89 122 160 206 253 306 370
#     4  10  22  40  62  88 121 161 202 253 306 370
#     4  10  23  42  61  90 122 156 208 257 310 365
#     4  11  22  40  61  90 126 163 205 257 308 371
#
# _framework density 20.279046999999998
#
# number of rings (size 3 to 8) (size 9 to 14) (size 15 to 20)
#    0.000    1.600    2.000    1.800    5.600    1.600 
#    3.600    0.000    0.000    0.000    0.000    0.000 
#    0.000    0.000    0.000    0.000    0.000    0.000 
#
# Total GULP energy -247878.420351 kJ/mol
# GULP energy per Si atom -12393.921018 kJ/mol
# Density = 2.023289 g / cm^3
# Si number density = 20.279047 Si / 1000 Ang^3
#
#
#
# Elastic Constant Matrix: (Units=GPa)
#
#
# Indices 1 2 3 4 5 6 
#
# 1 41.6033 4.1852 9.8307 0.0000 -1.6364 0.0000
# 2 4.1852 99.8059 76.7024 0.0000 -0.7895 0.0000
# 3 9.8307 76.7024 182.2249 0.0000 15.0348 0.0000
# 4 0.0000 0.0000 0.0000 48.7042 0.0000 11.8373
# 5 -1.6364 -0.7895 15.0348 0.0000 29.5779 0.0000
# 6 0.0000 0.0000 0.0000 11.8373 0.0000 31.3175
#
#
#
# Elastic Compliance Matrix: (Units=1/GPa)
#
#
# Indices 1 2 3 4 5 6 
#
# 1 0.024476 0.000211 -0.001588 0.000000 0.002167 0.000000
# 2 0.000211 0.015215 -0.006733 0.000000 0.003840 0.000000
# 3 -0.001588 -0.006733 0.008798 0.000000 -0.004740 0.000000
# 4 0.000000 0.000000 0.000000 0.022609 0.000000 -0.008546
# 5 0.002167 0.003840 -0.004740 0.000000 0.036441 0.000000
# 6 0.000000 0.000000 0.000000 -0.008546 0.000000 0.035161
#
#
# Mechanical properties :
#
#
# Convention : Reuss Voigt Hill
#
# Bulk Modulus (GPa) = 30.98815 56.11896 43.55356
# Shear Modulus (GPa) = 29.46794 37.44764 33.45779
#
# Velocity S-wave (km/s) = 3.81612 4.30189 4.06627
# Velocity P-wave (km/s) = 5.89331 7.23937 6.60074
#
# Compressibility (1/GPa) = 0.03227040
#
# Stress axis : x y z
#
# Youngs Moduli (GPa) = 40.85664 65.72440 113.65746
#
# Poissons Ratio (x) = -0.01389 0.18051
# Poissons Ratio (y) = -0.00863 0.76521
# Poissons Ratio (z) = 0.06489 0.44249
#
# Static dielectric constant tensor:
#      x y z
#    x 3.947610 0.000000 0.258710 
#    y 0.000000 3.667710 0.000000 
#    z 0.258710 0.000000 3.568330 
# 
# 
# High freq. dielectric constant tensor:
#      x y z
#    x 1.797410 0.000000 0.006890 
#    y 0.000000 1.774070 0.000000 
#    z 0.006890 0.000000 1.817780 
# 
# From -- ./inp_files/59905.got.cif
#   From: 2010.06.25/outbox.cif.g09.slc.cpg/sg15_30_cif.got.tgz:59905.got - 2010.06.28 07:06:18.
