data_PCOD8145532
_publ_section_title
;
Structure prediction by ZEFSAII (Michael W. Deem and Ramdas Pophale) SiO2 
 PCOD8145532
Probable space group: C 2/C
;
_chemical_formula_sum "Si O2"
_cell_formula_units_Z 64
_cell_length_a 12.189047
_cell_length_b 22.048924
_cell_length_c 11.178016
_cell_angle_alpha 90.000000
_cell_angle_beta 85.259496
_cell_angle_gamma 90.000000
_cell_volume 2993.875273
_symmetry_space_group_name_H-M "C 2/C"
_symmetry_group_IT_number 15
_symmetry_cell_setting 'monoclinic'
loop_
_space_group_symop_operation_xyz
x,y,z
-x,y,1/2-z
-x,-y,-z
x,-y,1/2+z
1/2+x,1/2+y,z
1/2-x,1/2+y,1/2-z
1/2-x,1/2-y,-z
1/2+x,1/2-y,1/2+z
loop_
_atom_site_type_symbol
_atom_site_label
_atom_site_fract_x
_atom_site_fract_y
_atom_site_fract_z
Si Si1 0.004782 0.632714 0.615117
Si Si2 0.916509 0.740796 0.036671
Si Si3 0.300787 0.329065 0.877309
Si Si4 0.383932 0.281756 0.366470
Si Si5 0.871920 0.906530 0.258036
Si Si6 0.729674 0.932219 0.045062
Si Si7 0.203915 0.566443 0.969037
Si Si8 0.278660 0.673617 0.114516
O O1 0.904345 0.587748 0.593470
O O2 0.000000 0.657090 0.750000
O O3 0.002481 0.691400 0.530898
O O4 0.120545 0.600044 0.597894
O O5 0.808937 0.711123 0.101452
O O6 0.984684 0.767713 0.143624
O O7 0.893309 0.794897 0.945627
O O8 0.339880 0.336084 0.736180
O O9 0.280144 0.397104 0.926851
O O10 0.354493 0.333878 0.273246
O O11 0.361168 0.304602 0.504687
O O12 0.313538 0.222998 0.346295
O O13 0.821672 0.930419 0.139444
O O14 0.809839 0.937463 0.374067
O O15 0.000000 0.924761 0.250000
O O16 0.689550 0.999402 0.019723
O O17 0.221321 0.611097 0.079489
#
# Coordination Sequence:
#
# PCOD8145532 Si02
#       8
#     8   8   8   8   8   8   8   8
#     4  11  22  40  69 102 132 176 214 270 351 403
#     4  10  22  39  60  97 136 164 216 265 333 404
#     4  10  24  38  60  98 129 176 210 270 330 396
#     4  10  22  39  62  92 129 167 213 267 329 400
#     4  11  25  43  70  94 125 182 224 274 339 396
#     4  11  25  44  69  95 135 174 229 275 331 408
#     4  11  24  46  67  98 131 174 228 279 331 400
#     4  10  23  38  63  94 128 166 214 267 332 385
#
# _framework density 21.376975999999999
#
# number of rings (size 3 to 8) (size 9 to 14) (size 15 to 20)
#    0.000    1.500    2.500    1.125   10.500    0.500 
#    0.000    0.000    0.000    0.000    0.000    0.000 
#    0.000    0.000    0.000    0.000    0.000    0.000 
#
# Total GULP energy -396832.772077 kJ/mol
# GULP energy per Si atom -12401.024127 kJ/mol
# Density = 2.132832 g / cm^3
# Si number density = 21.376976 Si / 1000 Ang^3
#
#
#
# Elastic Constant Matrix: (Units=GPa)
#
#
# Indices 1 2 3 4 5 6 
#
# 1 84.9378 1.5876 4.5108 0.0000 14.2859 0.0000
# 2 1.5876 82.1514 13.9241 0.0000 7.0431 0.0000
# 3 4.5108 13.9241 100.6642 0.0000 13.0825 0.0000
# 4 0.0000 0.0000 0.0000 21.9221 0.0000 7.5907
# 5 14.2859 7.0431 13.0825 0.0000 32.7645 0.0000
# 6 0.0000 0.0000 0.0000 7.5907 0.0000 4.8688
#
#
#
# Elastic Compliance Matrix: (Units=1/GPa)
#
#
# Indices 1 2 3 4 5 6 
#
# 1 0.012711 0.000215 0.000134 0.000000 -0.005642 0.000000
# 2 0.000215 0.012607 -0.001465 0.000000 -0.002219 0.000000
# 3 0.000134 -0.001465 0.010650 0.000000 -0.003996 0.000000
# 4 0.000000 0.000000 0.000000 0.099130 0.000000 -0.154549
# 5 -0.005642 -0.002219 -0.003996 0.000000 0.035053 0.000000
# 6 0.000000 0.000000 0.000000 -0.154549 0.000000 0.446342
#
#
# Mechanical properties :
#
#
# Convention : Reuss Voigt Hill
#
# Bulk Modulus (GPa) = 29.64152 34.19979 31.92065
# Shear Modulus (GPa) = 7.93688 28.42646 18.18167
#
# Velocity S-wave (km/s) = 1.92896 3.65056 2.91954
# Velocity P-wave (km/s) = 4.34251 5.81394 5.13124
#
# Compressibility (1/GPa) = 0.03373647
#
# Stress axis : x y z
#
# Youngs Moduli (GPa) = 78.67114 79.32067 93.89689
#
# Poissons Ratio (x) = -0.01708 -0.01257
# Poissons Ratio (y) = -0.01694 0.13757
# Poissons Ratio (z) = -0.01053 0.11621
#
# Static dielectric constant tensor:
#      x y z
#    x 3.800560 0.000000 -0.050260 
#    y 0.000000 3.833630 0.000000 
#    z -0.050260 0.000000 3.918910 
# 
# 
# High freq. dielectric constant tensor:
#      x y z
#    x 1.840800 0.000000 -0.000700 
#    y 0.000000 1.830050 0.000000 
#    z -0.000700 0.000000 1.852580 
# 
# From -- ./inp_files/90865.got.cif
#   From: 2010.06.25/outbox.cif.g09.slc.cpg/sg15_46_cif.got.tgz:90865.got - 2010.06.28 07:06:18.
