data_PCOD8145420
_publ_section_title
;
Structure prediction by ZEFSAII (Michael W. Deem and Ramdas Pophale) SiO2 
 PCOD8145420
Probable space group: C 2/C
;
_chemical_formula_sum "Si O2"
_cell_formula_units_Z 60
_cell_length_a 14.077986
_cell_length_b 14.479587
_cell_length_c 13.713249
_cell_angle_alpha 90.000000
_cell_angle_beta 67.865257
_cell_angle_gamma 90.000000
_cell_volume 2589.338819
_symmetry_space_group_name_H-M "C 2/C"
_symmetry_group_IT_number 15
_symmetry_cell_setting 'monoclinic'
loop_
_space_group_symop_operation_xyz
x,y,z
-x,y,1/2-z
-x,-y,-z
x,-y,1/2+z
1/2+x,1/2+y,z
1/2-x,1/2+y,1/2-z
1/2-x,1/2-y,-z
1/2+x,1/2-y,1/2+z
loop_
_atom_site_type_symbol
_atom_site_label
_atom_site_fract_x
_atom_site_fract_y
_atom_site_fract_z
Si Si1 0.547060 0.097610 0.017375
Si Si2 0.201442 0.461115 0.155563
Si Si3 0.093281 0.257245 0.029936
Si Si4 0.960775 0.046857 0.419574
Si Si5 0.674064 0.588429 0.279550
Si Si6 0.751350 0.496307 0.066805
Si Si7 0.000000 0.557764 0.250000
Si Si8 0.215876 0.265861 0.169252
O O1 0.523241 0.116700 0.142401
O O2 0.503844 0.182479 0.969760
O O3 0.500000 0.000000 0.000000
O O4 0.672349 0.092696 0.955721
O O5 0.283480 0.545107 0.136506
O O6 0.238927 0.369454 0.199271
O O7 0.093184 0.490617 0.239662
O O8 0.199609 0.441082 0.039538
O O9 0.075881 0.147722 0.033030
O O10 0.120275 0.279613 0.131777
O O11 0.187666 0.280145 0.921809
O O12 0.870358 0.983116 0.408955
O O13 0.056354 0.058394 0.307503
O O14 0.000000 0.000000 0.500000
O O15 0.752644 0.550228 0.167738
O O16 0.682449 0.699905 0.271925
#
# Coordination Sequence:
#
# PCOD8145420 Si02
#       8
#     8   8   8   8   8   8   4   8
#     4  11  23  40  69 102 141 178 219 284 353 409
#     4  11  22  41  65  99 138 176 222 279 343 408
#     4  11  22  41  68  99 128 176 227 285 345 401
#     4  12  24  45  69  94 135 186 230 284 337 406
#     4  12  24  39  69 100 132 179 231 276 342 406
#     4  11  22  43  65  96 135 179 221 281 342 403
#     4  10  22  38  66  96 144 182 220 274 354 418
#     4  11  21  38  67  98 133 167 227 287 335 401
#
# _framework density 23.171938999999998
#
# number of rings (size 3 to 8) (size 9 to 14) (size 15 to 20)
#    0.000    0.800    4.000    5.200    0.000    3.200 
#    0.000    0.667   11.733    0.000    0.000    0.000 
#    0.000    0.000    0.000    0.000    0.000    0.000 
#
# Total GULP energy -371663.695544 kJ/mol
# GULP energy per Si atom -12388.789851 kJ/mol
# Density = 2.311920 g / cm^3
# Si number density = 23.171939 Si / 1000 Ang^3
#
#
#
# Elastic Constant Matrix: (Units=GPa)
#
#
# Indices 1 2 3 4 5 6 
#
# 1 133.3656 53.6963 22.7183 0.0000 -21.8690 0.0000
# 2 53.6963 97.0229 19.0935 0.0000 2.8439 0.0000
# 3 22.7183 19.0935 77.4944 0.0000 -17.5572 0.0000
# 4 0.0000 0.0000 0.0000 14.4720 0.0000 -2.5842
# 5 -21.8690 2.8439 -17.5572 0.0000 39.8296 0.0000
# 6 0.0000 0.0000 0.0000 -2.5842 0.0000 39.0670
#
#
#
# Elastic Compliance Matrix: (Units=1/GPa)
#
#
# Indices 1 2 3 4 5 6 
#
# 1 0.011137 -0.006304 -0.000249 0.000000 0.006455 0.000000
# 2 -0.006304 0.014571 -0.003068 0.000000 -0.005854 0.000000
# 3 -0.000249 -0.003068 0.015278 0.000000 0.006817 0.000000
# 4 0.000000 0.000000 0.000000 0.069925 0.000000 0.004625
# 5 0.006455 -0.005854 0.006817 0.000000 0.032074 0.000000
# 6 0.000000 0.000000 0.000000 0.004625 0.000000 0.025903
#
#
# Mechanical properties :
#
#
# Convention : Reuss Voigt Hill
#
# Bulk Modulus (GPa) = 45.99226 55.43324 50.71275
# Shear Modulus (GPa) = 25.59127 32.83204 29.21165
#
# Velocity S-wave (km/s) = 3.32687 3.76824 3.55441
# Velocity P-wave (km/s) = 5.88632 6.55037 6.22720
#
# Compressibility (1/GPa) = 0.02174279
#
# Stress axis : x y z
#
# Youngs Moduli (GPa) = 89.78817 68.62867 65.45504
#
# Poissons Ratio (x) = 0.43263 0.01632
# Poissons Ratio (y) = 0.56602 0.20084
# Poissons Ratio (z) = 0.02238 0.21058
#
# Static dielectric constant tensor:
#      x y z
#    x 4.230610 0.000000 0.145700 
#    y 0.000000 5.225870 0.000000 
#    z 0.145700 0.000000 3.841240 
# 
# 
# High freq. dielectric constant tensor:
#      x y z
#    x 1.920610 0.000000 -0.013490 
#    y 0.000000 1.884020 0.000000 
#    z -0.013490 0.000000 1.922240 
# 
# From -- ./inp_files/154251.got.cif
#   From: 2010.06.25/outbox.cif.g09.slc.cpg/sg15_78_cif.got.tgz:154251.got - 2010.06.28 07:06:18.
