data_PCOD8145862
_publ_section_title
;
Structure prediction by ZEFSAII (Michael W. Deem and Ramdas Pophale) SiO2 
 PCOD8145862
Probable space group: C 2/C
;
_chemical_formula_sum "Si O2"
_cell_formula_units_Z 56
_cell_length_a 27.914978
_cell_length_b 12.240869
_cell_length_c 9.354573
_cell_angle_alpha 90.000000
_cell_angle_beta 123.516005
_cell_angle_gamma 90.000000
_cell_volume 2665.015731
_symmetry_space_group_name_H-M "C 2/C"
_symmetry_group_IT_number 15
_symmetry_cell_setting 'monoclinic'
loop_
_space_group_symop_operation_xyz
x,y,z
-x,y,1/2-z
-x,-y,-z
x,-y,1/2+z
1/2+x,1/2+y,z
1/2-x,1/2+y,1/2-z
1/2-x,1/2-y,-z
1/2+x,1/2-y,1/2+z
loop_
_atom_site_type_symbol
_atom_site_label
_atom_site_fract_x
_atom_site_fract_y
_atom_site_fract_z
Si Si1 0.540921 0.015046 0.698895
Si Si2 0.881365 0.096431 0.764941
Si Si3 0.868781 0.104356 0.066103
Si Si4 0.626783 0.190680 0.735953
Si Si5 0.233643 0.428720 0.307646
Si Si6 0.934801 0.723777 0.158304
Si Si7 0.250722 0.121025 0.978251
O O1 0.500000 0.071454 0.750000
O O2 0.594643 0.085594 0.742000
O O3 0.500000 0.000000 0.500000
O O4 0.566607 0.901760 0.798065
O O5 0.904042 0.206080 0.729522
O O6 0.813795 0.084513 0.644218
O O7 0.901462 0.987936 0.713942
O O8 0.898841 0.097051 0.960095
O O9 0.881604 0.220003 0.156608
O O10 0.799932 0.097584 0.943901
O O11 0.693429 0.157862 0.824664
O O12 0.599601 0.237829 0.545630
O O13 0.221405 0.553401 0.343018
O O14 0.216669 0.416173 0.112825
O O15 0.000000 0.765987 0.250000
O O16 0.250000 0.250000 0.000000
#
# Coordination Sequence:
#
# PCOD8145862 Si02
#       7
#     8   8   8   8   8   8   8
#     4  11  24  44  63  92 130 164 212 271 321 372
#     4  10  22  41  66  86 129 168 211 258 322 367
#     4  10  23  43  64  97 127 170 208 265 312 389
#     4  12  24  39  69  92 130 170 211 262 325 377
#     4  10  24  40  61  98 131 167 215 260 315 393
#     4  11  24  44  64  93 128 168 213 271 316 375
#     4  10  22  40  61  91 130 171 211 266 315 385
#
# _framework density 21.013007999999999
#
# number of rings (size 3 to 8) (size 9 to 14) (size 15 to 20)
#    0.000    1.429    2.857    2.143    6.000    6.857 
#    0.000    3.571    0.000    0.000    0.000    0.000 
#    0.000    0.000    0.000    0.000    0.000    0.000 
#
# Total GULP energy -347111.248535 kJ/mol
# GULP energy per Si atom -12396.830305 kJ/mol
# Density = 2.096518 g / cm^3
# Si number density = 21.013008 Si / 1000 Ang^3
#
#
#
# Elastic Constant Matrix: (Units=GPa)
#
#
# Indices 1 2 3 4 5 6 
#
# 1 79.3755 25.8906 39.0898 0.0000 -30.1809 0.0000
# 2 25.8906 114.1955 63.0806 0.0000 -29.3482 0.0000
# 3 39.0898 63.0806 136.1557 0.0000 -36.6732 0.0000
# 4 0.0000 0.0000 0.0000 33.0309 0.0000 -12.9726
# 5 -30.1809 -29.3482 -36.6732 0.0000 39.3506 0.0000
# 6 0.0000 0.0000 0.0000 -12.9726 0.0000 31.9586
#
#
#
# Elastic Compliance Matrix: (Units=1/GPa)
#
#
# Indices 1 2 3 4 5 6 
#
# 1 0.018166 0.000105 -0.001990 0.000000 0.012157 0.000000
# 2 0.000105 0.012534 -0.004403 0.000000 0.005325 0.000000
# 3 -0.001990 -0.004403 0.011562 0.000000 0.005966 0.000000
# 4 0.000000 0.000000 0.000000 0.036016 0.000000 0.014620
# 5 0.012157 0.005325 0.005966 0.000000 0.044268 0.000000
# 6 0.000000 0.000000 0.000000 0.014620 0.000000 0.037225
#
#
# Mechanical properties :
#
#
# Convention : Reuss Voigt Hill
#
# Bulk Modulus (GPa) = 33.68413 65.09431 49.38922
# Shear Modulus (GPa) = 27.43587 34.31240 30.87413
#
# Velocity S-wave (km/s) = 3.61731 4.04531 3.83729
# Velocity P-wave (km/s) = 5.78892 7.27082 6.57177
#
# Compressibility (1/GPa) = 0.02968757
#
# Stress axis : x y z
#
# Youngs Moduli (GPa) = 55.04648 79.78520 86.48707
#
# Poissons Ratio (x) = -0.00835 0.17207
# Poissons Ratio (y) = -0.00576 0.38077
# Poissons Ratio (z) = 0.10952 0.35126
#
# Static dielectric constant tensor:
#      x y z
#    x 3.944660 0.000000 -0.287460 
#    y 0.000000 3.672450 0.000000 
#    z -0.287460 0.000000 4.058060 
# 
# 
# High freq. dielectric constant tensor:
#      x y z
#    x 1.824270 0.000000 -0.017410 
#    y 0.000000 1.823270 0.000000 
#    z -0.017410 0.000000 1.826200 
# 
# From -- ./inp_files/65428.got.cif
#   From: 2010.06.25/outbox.cif.g09.slc.cpg/sg15_33_cif.got.tgz:65428.got - 2010.06.28 07:06:18.
