data_PCOD8145639
_publ_section_title
;
Structure prediction by ZEFSAII (Michael W. Deem and Ramdas Pophale) SiO2 
 PCOD8145639
Probable space group: C 2/C
;
_chemical_formula_sum "Si O2"
_cell_formula_units_Z 56
_cell_length_a 18.106183
_cell_length_b 6.681078
_cell_length_c 22.416377
_cell_angle_alpha 90.000000
_cell_angle_beta 80.688487
_cell_angle_gamma 90.000000
_cell_volume 2675.951459
_symmetry_space_group_name_H-M "C 2/C"
_symmetry_group_IT_number 15
_symmetry_cell_setting 'monoclinic'
loop_
_space_group_symop_operation_xyz
x,y,z
-x,y,1/2-z
-x,-y,-z
x,-y,1/2+z
1/2+x,1/2+y,z
1/2-x,1/2+y,1/2-z
1/2-x,1/2-y,-z
1/2+x,1/2-y,1/2+z
loop_
_atom_site_type_symbol
_atom_site_label
_atom_site_fract_x
_atom_site_fract_y
_atom_site_fract_z
Si Si1 0.081228 0.030931 0.752743
Si Si2 0.317134 0.259450 0.072730
Si Si3 0.708939 0.554621 0.528876
Si Si4 0.437518 0.844327 0.641544
Si Si5 0.265437 0.971386 0.829980
Si Si6 0.893142 0.732450 0.369389
Si Si7 0.835177 0.666436 0.710715
O O1 0.081140 0.159907 0.812889
O O2 0.106663 0.167356 0.695163
O O3 0.000000 0.941290 0.750000
O O4 0.135940 0.845288 0.751559
O O5 0.400570 0.191026 0.081230
O O6 0.282168 0.345540 0.138250
O O7 0.269004 0.070399 0.058517
O O8 0.323562 0.426651 0.021368
O O9 0.750000 0.750000 0.500000
O O10 0.636363 0.612234 0.577369
O O11 0.527199 0.860883 0.622012
O O12 0.404839 0.051571 0.671791
O O13 0.289479 0.017299 0.759118
O O14 0.333597 0.947098 0.868315
O O15 0.218141 0.762940 0.833342
#
# Coordination Sequence:
#
# PCOD8145639 Si02
#       7
#     8   8   8   8   8   8   8
#     4  10  22  39  63  97 133 172 208 260 327 390
#     4  11  24  44  68  95 124 170 222 272 321 386
#     4  11  24  46  72  92 124 171 222 275 323 380
#     4  11  24  42  63  96 136 165 214 268 327 392
#     4  12  22  38  67  95 131 170 219 258 319 388
#     4  11  23  43  64  95 134 171 216 270 321 389
#     4  12  23  38  64  98 135 177 210 262 330 390
#
# _framework density 20.927136999999998
#
# number of rings (size 3 to 8) (size 9 to 14) (size 15 to 20)
#    0.000    0.857    4.286    3.429    2.000    0.571 
#    0.000    0.714    0.000    0.000    0.000    0.000 
#    0.000    0.000    0.000    0.000    0.000    0.000 
#
# Total GULP energy -347267.378589 kJ/mol
# GULP energy per Si atom -12402.406378 kJ/mol
# Density = 2.087951 g / cm^3
# Si number density = 20.927137 Si / 1000 Ang^3
#
#
#
# Elastic Constant Matrix: (Units=GPa)
#
#
# Indices 1 2 3 4 5 6 
#
# 1 153.9461 48.8409 40.5691 0.0000 20.0875 0.0000
# 2 48.8409 85.2071 15.0131 0.0000 7.8415 0.0000
# 3 40.5691 15.0131 66.8980 0.0000 9.2770 0.0000
# 4 0.0000 0.0000 0.0000 38.8921 0.0000 4.7813
# 5 20.0875 7.8415 9.2770 0.0000 30.7554 0.0000
# 6 0.0000 0.0000 0.0000 4.7813 0.0000 34.6732
#
#
#
# Elastic Compliance Matrix: (Units=1/GPa)
#
#
# Indices 1 2 3 4 5 6 
#
# 1 0.009491 -0.004340 -0.004253 0.000000 -0.003809 0.000000
# 2 -0.004340 0.014374 -0.000500 0.000000 -0.000680 0.000000
# 3 -0.004253 -0.000500 0.017989 0.000000 -0.002521 0.000000
# 4 0.000000 0.000000 0.000000 0.026156 0.000000 -0.003607
# 5 -0.003809 -0.000680 -0.002521 0.000000 0.035936 0.000000
# 6 0.000000 0.000000 0.000000 -0.003607 0.000000 0.029338
#
#
# Mechanical properties :
#
#
# Convention : Reuss Voigt Hill
#
# Bulk Modulus (GPa) = 42.25065 57.21082 49.73074
# Shear Modulus (GPa) = 31.37566 34.30602 32.84084
#
# Velocity S-wave (km/s) = 3.87626 4.05323 3.96573
# Velocity P-wave (km/s) = 6.34563 7.02156 6.69214
#
# Compressibility (1/GPa) = 0.02366827
#
# Stress axis : x y z
#
# Youngs Moduli (GPa) = 105.36765 69.56801 55.58921
#
# Poissons Ratio (x) = 0.30193 0.23643
# Poissons Ratio (y) = 0.45730 0.02778
# Poissons Ratio (z) = 0.44815 0.03476
#
# Static dielectric constant tensor:
#      x y z
#    x 4.049060 0.000000 0.083860 
#    y 0.000000 3.741440 0.000000 
#    z 0.083860 0.000000 3.716760 
# 
# 
# High freq. dielectric constant tensor:
#      x y z
#    x 1.829250 0.000000 0.012000 
#    y 0.000000 1.821700 0.000000 
#    z 0.012000 0.000000 1.811270 
# 
# From -- ./inp_files/278640.got.cif
#   From: 2010.06.25/outbox.cif.g09.slc.cpg/sg15_140_cif.got.tgz:278640.got - 2010.06.28 07:06:18.
