data_PCOD8145859
_publ_section_title
;
Structure prediction by ZEFSAII (Michael W. Deem and Ramdas Pophale) SiO2 
 PCOD8145859
Probable space group: C 2/C
;
_chemical_formula_sum "Si O2"
_cell_formula_units_Z 40
_cell_length_a 17.214607
_cell_length_b 24.441542
_cell_length_c 9.560075
_cell_angle_alpha 90.000000
_cell_angle_beta 29.788439
_cell_angle_gamma 90.000000
_cell_volume 1998.331803
_symmetry_space_group_name_H-M "C 2/C"
_symmetry_group_IT_number 15
_symmetry_cell_setting 'monoclinic'
loop_
_space_group_symop_operation_xyz
x,y,z
-x,y,1/2-z
-x,-y,-z
x,-y,1/2+z
1/2+x,1/2+y,z
1/2-x,1/2+y,1/2-z
1/2-x,1/2-y,-z
1/2+x,1/2-y,1/2+z
loop_
_atom_site_type_symbol
_atom_site_label
_atom_site_fract_x
_atom_site_fract_y
_atom_site_fract_z
Si Si1 0.820819 0.401967 0.562499
Si Si2 0.684315 0.614627 0.981263
Si Si3 0.325010 0.321743 0.504016
Si Si4 0.820934 0.302354 0.059480
Si Si5 0.610092 0.982431 0.454826
O O1 0.714614 0.383621 0.599081
O O2 0.791169 0.465509 0.644990
O O3 0.788219 0.364837 0.747064
O O4 0.000000 0.392602 0.250000
O O5 0.500000 0.611691 0.250000
O O6 0.756914 0.669117 0.799180
O O7 0.764846 0.562353 0.785111
O O8 0.500000 0.343318 0.250000
O O9 0.286619 0.321015 0.400597
O O10 0.304479 0.262556 0.607861
O O11 0.000000 0.318604 0.750000
O O12 0.500000 0.000000 0.500000
O O13 0.500000 0.958614 0.750000
#
# Coordination Sequence:
#
# PCOD8145859 Si02
#       5
#     8   8   8   8   8
#     4  11  23  40  62  89 121 162 205 248 305 367
#     4  12  25  39  62  95 123 157 205 256 307 353
#     4  10  22  40  61  91 123 158 206 253 302 361
#     4  10  22  40  64  88 120 167 204 243 308 370
#     4  11  23  44  65  89 123 165 208 247 304 376
#
# _framework density 20.016696
#
# number of rings (size 3 to 8) (size 9 to 14) (size 15 to 20)
#    0.000    1.200    4.000    3.000    2.800    3.200 
#    0.000    0.000    0.000    0.000    0.000    0.000 
#    0.000    0.000    0.000    0.000    0.000    0.000 
#
# Total GULP energy -248107.537088 kJ/mol
# GULP energy per Si atom -12405.376854 kJ/mol
# Density = 1.997114 g / cm^3
# Si number density = 20.016696 Si / 1000 Ang^3
#
#
#
# Elastic Constant Matrix: (Units=GPa)
#
#
# Indices 1 2 3 4 5 6 
#
# 1 83.6597 -5.6341 -2.9093 0.0058 -6.6209 -0.0053
# 2 -5.6341 74.5780 28.5737 0.0031 3.7905 -0.0027
# 3 -2.9093 28.5737 70.4540 0.0149 -5.8296 -0.0134
# 4 0.0058 0.0031 0.0149 36.3183 -0.0047 -10.4368
# 5 -6.6209 3.7905 -5.8296 -0.0047 38.4970 0.0033
# 6 -0.0053 -0.0027 -0.0134 -10.4368 0.0033 71.3366
#
#
#
# Elastic Compliance Matrix: (Units=1/GPa)
#
#
# Indices 1 2 3 4 5 6 
#
# 1 0.012177 0.000657 0.000410 -0.000002 0.002092 0.000001
# 2 0.000657 0.016166 -0.006736 0.000001 -0.002499 0.000000
# 3 0.000410 -0.006736 0.017219 -0.000006 0.003341 0.000002
# 4 -0.000002 0.000001 -0.000006 0.028743 0.000002 0.004205
# 5 0.002092 -0.002499 0.003341 0.000002 0.027088 0.000000
# 6 0.000001 0.000000 0.000002 0.004205 0.000000 0.014633
#
#
# Mechanical properties :
#
#
# Convention : Reuss Voigt Hill
#
# Bulk Modulus (GPa) = 29.22034 29.86137 29.54085
# Shear Modulus (GPa) = 36.02994 43.14115 39.58554
#
# Velocity S-wave (km/s) = 4.24724 4.64751 4.45188
# Velocity P-wave (km/s) = 6.21946 6.61436 6.41995
#
# Compressibility (1/GPa) = 0.03422274
#
# Stress axis : x y z
#
# Youngs Moduli (GPa) = 82.12073 61.85722 58.07551
#
# Poissons Ratio (x) = -0.04062 -0.02379
# Poissons Ratio (y) = -0.05393 0.39120
# Poissons Ratio (z) = -0.03363 0.41668
#
# Static dielectric constant tensor:
#      x y z
#    x 3.620450 0.000000 -0.183560 
#    y 0.000000 3.864170 0.000000 
#    z -0.183560 0.000000 3.487740 
# 
# 
# High freq. dielectric constant tensor:
#      x y z
#    x 1.795090 0.000000 0.001350 
#    y 0.000000 1.786580 0.000000 
#    z 0.001350 0.000000 1.779660 
# 
# From -- ./inp_files/23414.got.cif
#   From: 2010.06.25/outbox.cif.g09.slc.cpg/sg15_12_cif.got.tgz:23414.got - 2010.06.28 07:06:18.
