data_PCOD8145445
_publ_section_title
;
Structure prediction by ZEFSAII (Michael W. Deem and Ramdas Pophale) SiO2 
 PCOD8145445
Probable space group: C 2/C
;
_chemical_formula_sum "Si O2"
_cell_formula_units_Z 56
_cell_length_a 8.484134
_cell_length_b 18.694646
_cell_length_c 17.903533
_cell_angle_alpha 90.000000
_cell_angle_beta 111.819663
_cell_angle_gamma 90.000000
_cell_volume 2636.204774
_symmetry_space_group_name_H-M "C 2/C"
_symmetry_group_IT_number 15
_symmetry_cell_setting 'monoclinic'
loop_
_space_group_symop_operation_xyz
x,y,z
-x,y,1/2-z
-x,-y,-z
x,-y,1/2+z
1/2+x,1/2+y,z
1/2-x,1/2+y,1/2-z
1/2-x,1/2-y,-z
1/2+x,1/2-y,1/2+z
loop_
_atom_site_type_symbol
_atom_site_label
_atom_site_fract_x
_atom_site_fract_y
_atom_site_fract_z
Si Si1 0.566803 0.229248 0.501044
Si Si2 0.673626 0.677354 0.138454
Si Si3 0.000000 0.253339 0.750000
Si Si4 0.332673 0.545440 0.466495
Si Si5 0.911330 0.560667 0.656923
Si Si6 0.797156 0.199840 0.849333
Si Si7 0.000000 0.797951 0.750000
Si Si8 0.911278 0.427666 0.458772
O O1 0.750000 0.250000 0.500000
O O2 0.578011 0.251685 0.590453
O O3 0.417598 0.273310 0.436158
O O4 0.521267 0.144765 0.488457
O O5 0.633196 0.618196 0.070368
O O6 0.594257 0.653943 0.204308
O O7 0.873753 0.694337 0.182126
O O8 0.897389 0.202000 0.788199
O O9 0.500000 0.500000 0.500000
O O10 0.183186 0.507204 0.394241
O O11 0.281022 0.562894 0.543935
O O12 0.768179 0.620742 0.643543
O O13 0.000000 0.539673 0.750000
O O14 0.062579 0.582865 0.625570
O O15 0.634526 0.249681 0.816366
O O16 0.000000 0.500000 0.500000
#
# Coordination Sequence:
#
# PCOD8145445 Si02
#       8
#     8   8   4   8   8   8   4   8
#     4  12  22  39  73  99 125 177 225 279 331 395
#     4  11  23  43  64  99 133 170 226 275 340 390
#     4  10  22  38  68  92 138 172 214 288 332 406
#     4  11  24  45  67  95 131 175 231 278 323 409
#     4  11  25  43  65  96 138 180 214 276 347 404
#     4  11  22  42  64 100 133 171 228 273 335 406
#     4  10  24  40  62  94 136 168 212 284 336 394
#     4  10  24  45  66  95 136 177 219 269 342 404
#
# _framework density 21.242659
#
# number of rings (size 3 to 8) (size 9 to 14) (size 15 to 20)
#    0.000    1.143    3.571    1.714    3.000    4.571 
#    5.143    0.000    0.000    0.000    0.000    0.000 
#    0.000    0.000    0.000    0.000    0.000    0.000 
#
# Total GULP energy -346994.383551 kJ/mol
# GULP energy per Si atom -12392.656555 kJ/mol
# Density = 2.119431 g / cm^3
# Si number density = 21.242659 Si / 1000 Ang^3
#
#
#
# Elastic Constant Matrix: (Units=GPa)
#
#
# Indices 1 2 3 4 5 6 
#
# 1 125.9401 36.0280 57.0494 0.0000 -17.6612 0.0000
# 2 36.0280 105.1085 33.2452 0.0000 -5.5500 0.0000
# 3 57.0494 33.2452 115.1411 0.0000 3.0845 0.0000
# 4 0.0000 0.0000 0.0000 31.5453 0.0000 2.5592
# 5 -17.6612 -5.5500 3.0845 0.0000 53.0581 0.0000
# 6 0.0000 0.0000 0.0000 2.5592 0.0000 33.8866
#
#
#
# Elastic Compliance Matrix: (Units=1/GPa)
#
#
# Indices 1 2 3 4 5 6 
#
# 1 0.011417 -0.002076 -0.005161 0.000000 0.003883 0.000000
# 2 -0.002076 0.010934 -0.002144 0.000000 0.000577 0.000000
# 3 -0.005161 -0.002144 0.011932 0.000000 -0.002636 0.000000
# 4 0.000000 0.000000 0.000000 0.031896 0.000000 -0.002409
# 5 0.003883 0.000577 -0.002636 0.000000 0.020353 0.000000
# 6 0.000000 0.000000 0.000000 -0.002409 0.000000 0.029692
#
#
# Mechanical properties :
#
#
# Convention : Reuss Voigt Hill
#
# Bulk Modulus (GPa) = 64.43094 66.53722 65.48408
# Shear Modulus (GPa) = 35.67348 38.35578 37.01463
#
# Velocity S-wave (km/s) = 4.10241 4.25385 4.17882
# Velocity P-wave (km/s) = 7.26887 7.45100 7.36050
#
# Compressibility (1/GPa) = 0.01552049
#
# Stress axis : x y z
#
# Youngs Moduli (GPa) = 87.59109 91.45681 83.80828
#
# Poissons Ratio (x) = 0.18984 0.43256
# Poissons Ratio (y) = 0.18182 0.17969
# Poissons Ratio (z) = 0.45209 0.19609
#
# Static dielectric constant tensor:
#      x y z
#    x 4.564190 0.000000 -0.585330 
#    y 0.000000 3.827820 0.000000 
#    z -0.585330 0.000000 4.204990 
# 
# 
# High freq. dielectric constant tensor:
#      x y z
#    x 1.846210 0.000000 -0.017050 
#    y 0.000000 1.826480 0.000000 
#    z -0.017050 0.000000 1.834640 
# 
# From -- ./inp_files/191096.got.cif
#   From: 2010.06.25/outbox.cif.g09.slc.cpg/sg15_96_cif.got.tgz:191096.got - 2010.06.28 07:06:18.
