data_PCOD8145593
_publ_section_title
;
Structure prediction by ZEFSAII (Michael W. Deem and Ramdas Pophale) SiO2 
 PCOD8145593
Probable space group: C 2/C
;
_chemical_formula_sum "Si O2"
_cell_formula_units_Z 56
_cell_length_a 26.886376
_cell_length_b 6.772456
_cell_length_c 17.516426
_cell_angle_alpha 90.000000
_cell_angle_beta 56.872957
_cell_angle_gamma 90.000000
_cell_volume 2671.089758
_symmetry_space_group_name_H-M "C 2/C"
_symmetry_group_IT_number 15
_symmetry_cell_setting 'monoclinic'
loop_
_space_group_symop_operation_xyz
x,y,z
-x,y,1/2-z
-x,-y,-z
x,-y,1/2+z
1/2+x,1/2+y,z
1/2-x,1/2+y,1/2-z
1/2-x,1/2-y,-z
1/2+x,1/2-y,1/2+z
loop_
_atom_site_type_symbol
_atom_site_label
_atom_site_fract_x
_atom_site_fract_y
_atom_site_fract_z
Si Si1 0.415094 0.397872 0.451357
Si Si2 0.630313 0.828949 0.786626
Si Si3 0.865514 0.007660 0.827450
Si Si4 0.683542 0.526594 0.851326
Si Si5 0.199325 0.714490 0.706539
Si Si6 0.983412 0.155221 0.177149
Si Si7 0.498222 0.064099 0.089077
O O1 0.383620 0.454351 0.398513
O O2 0.366414 0.421512 0.556807
O O3 0.471365 0.541008 0.417041
O O4 0.441536 0.176221 0.435011
O O5 0.654631 0.717527 0.690486
O O6 0.658053 0.727821 0.837755
O O7 0.559298 0.800728 0.849902
O O8 0.647081 0.058735 0.768468
O O9 0.814324 0.839801 0.859885
O O10 0.916441 0.924881 0.726315
O O11 0.739768 0.592407 0.855473
O O12 0.705284 0.368793 0.770970
O O13 0.990289 0.382939 0.152711
O O14 0.000000 0.112582 0.250000
O O15 0.500000 0.000000 0.000000
#
# Coordination Sequence:
#
# PCOD8145593 Si02
#       7
#     8   8   8   8   8   8   8
#     4  11  25  41  61  99 134 163 216 273 324 379
#     4  11  22  39  65  89 128 166 215 264 328 390
#     4  10  23  41  65  93 127 174 212 261 327 392
#     4  11  24  42  66  90 126 166 218 277 319 387
#     4  11  22  43  67  92 121 174 223 262 332 384
#     4  10  22  39  62  92 130 172 208 254 325 394
#     4  12  24  36  63  97 131 169 212 268 324 385
#
# _framework density 20.965228
#
# number of rings (size 3 to 8) (size 9 to 14) (size 15 to 20)
#    0.000    1.143    4.286    1.714    4.000    1.714 
#    0.000    0.714    0.000    0.000    0.000    0.000 
#    0.000    0.000    0.000    0.000    0.000    0.000 
#
# Total GULP energy -347127.956820 kJ/mol
# GULP energy per Si atom -12397.427029 kJ/mol
# Density = 2.091751 g / cm^3
# Si number density = 20.965228 Si / 1000 Ang^3
#
#
#
# Elastic Constant Matrix: (Units=GPa)
#
#
# Indices 1 2 3 4 5 6 
#
# 1 76.4880 26.9934 1.7793 -0.0032 0.6115 -0.0045
# 2 26.9934 105.6316 9.5070 0.0138 6.2811 -0.0663
# 3 1.7793 9.5070 38.8142 -0.0063 -3.9053 0.0037
# 4 -0.0032 0.0138 -0.0063 17.2120 0.0041 -4.8142
# 5 0.6115 6.2811 -3.9053 0.0041 28.5078 -0.0013
# 6 -0.0045 -0.0663 0.0037 -4.8142 -0.0013 45.0672
#
#
#
# Elastic Compliance Matrix: (Units=1/GPa)
#
#
# Indices 1 2 3 4 5 6 
#
# 1 0.014381 -0.003736 0.000312 0.000005 0.000557 -0.000004
# 2 -0.003736 0.010829 -0.002751 -0.000006 -0.002683 0.000015
# 3 0.000312 -0.002751 0.026854 0.000010 0.004278 -0.000005
# 4 0.000005 -0.000006 0.000010 0.059888 -0.000006 0.006397
# 5 0.000557 -0.002683 0.004278 -0.000006 0.036243 -0.000004
# 6 -0.000004 0.000015 -0.000005 0.006397 -0.000004 0.022873
#
#
# Mechanical properties :
#
#
# Convention : Reuss Voigt Hill
#
# Bulk Modulus (GPa) = 25.18073 33.05479 29.11776
# Shear Modulus (GPa) = 25.42522 30.33435 27.87979
#
# Velocity S-wave (km/s) = 3.48621 3.80793 3.65061
# Velocity P-wave (km/s) = 5.31429 5.92743 5.62921
#
# Compressibility (1/GPa) = 0.03971290
#
# Stress axis : x y z
#
# Youngs Moduli (GPa) = 69.53740 92.34705 37.23881
#
# Poissons Ratio (x) = 0.34502 -0.01162
# Poissons Ratio (y) = 0.25980 0.10244
# Poissons Ratio (z) = -0.02169 0.25404
#
# Static dielectric constant tensor:
#      x y z
#    x 3.982870 0.000000 -0.124190 
#    y 0.000000 3.822090 0.000000 
#    z -0.124190 0.000000 3.465190 
# 
# 
# High freq. dielectric constant tensor:
#      x y z
#    x 1.831380 0.000000 -0.003090 
#    y 0.000000 1.836580 0.000000 
#    z -0.003090 0.000000 1.791460 
# 
# From -- ./inp_files/223832.got.cif
#   From: 2010.06.25/outbox.cif.g09.slc.cpg/sg15_112_cif.got.tgz:223832.got - 2010.06.28 07:06:18.
