data_PCOD8145489
_publ_section_title
;
Structure prediction by ZEFSAII (Michael W. Deem and Ramdas Pophale) SiO2 
 PCOD8145489
Probable space group: C 2/C
;
_chemical_formula_sum "Si O2"
_cell_formula_units_Z 40
_cell_length_a 17.235602
_cell_length_b 7.435481
_cell_length_c 15.103715
_cell_angle_alpha 90.000000
_cell_angle_beta 91.640335
_cell_angle_gamma 90.000000
_cell_volume 1934.823269
_symmetry_space_group_name_H-M "C 2/C"
_symmetry_group_IT_number 15
_symmetry_cell_setting 'monoclinic'
loop_
_space_group_symop_operation_xyz
x,y,z
-x,y,1/2-z
-x,-y,-z
x,-y,1/2+z
1/2+x,1/2+y,z
1/2-x,1/2+y,1/2-z
1/2-x,1/2-y,-z
1/2+x,1/2-y,1/2+z
loop_
_atom_site_type_symbol
_atom_site_label
_atom_site_fract_x
_atom_site_fract_y
_atom_site_fract_z
Si Si1 0.416842 0.188786 0.062046
Si Si2 0.084823 0.380954 0.573808
Si Si3 0.730271 0.001682 0.166921
Si Si4 0.759152 0.599257 0.137551
Si Si5 0.341834 0.442221 0.519630
O O1 0.501288 0.174216 0.112029
O O2 0.351410 0.112583 0.125515
O O3 0.400983 0.394456 0.035733
O O4 0.420144 0.074810 0.972219
O O5 0.148143 0.395288 0.654163
O O6 0.109067 0.233155 0.501823
O O7 0.721847 0.797116 0.133825
O O8 0.757485 0.004606 0.269342
O O9 0.794393 0.100189 0.107970
O O10 0.720306 0.483613 0.059285
#
# Coordination Sequence:
#
# PCOD8145489 Si02
#       5
#     8   8   8   8   8
#     4  10  22  39  58  89 119 154 190 247 294 354
#     4  11  21  37  64  85 118 155 195 237 305 348
#     4  11  22  37  62  91 118 158 201 248 293 349
#     4  11  22  39  61  87 124 153 204 248 293 351
#     4  11  21  41  62  90 117 157 201 248 291 354
#
# _framework density 20.673722000000001
#
# number of rings (size 3 to 8) (size 9 to 14) (size 15 to 20)
#    0.000    1.200    4.000    3.600    2.800    0.800 
#    0.000    0.000    0.000    3.600    0.000    0.000 
#    0.000    0.000    0.000    0.000    0.000    0.000 
#
# Total GULP energy -248065.297314 kJ/mol
# GULP energy per Si atom -12403.264866 kJ/mol
# Density = 2.062667 g / cm^3
# Si number density = 20.673722 Si / 1000 Ang^3
#
#
#
# Elastic Constant Matrix: (Units=GPa)
#
#
# Indices 1 2 3 4 5 6 
#
# 1 144.2290 32.2486 29.9702 0.0000 -7.4171 0.0000
# 2 32.2486 37.7203 -12.4923 0.0000 -1.2347 0.0000
# 3 29.9702 -12.4923 85.9966 0.0000 -9.8731 0.0000
# 4 0.0000 0.0000 0.0000 26.2005 0.0000 2.2072
# 5 -7.4171 -1.2347 -9.8731 0.0000 16.1363 0.0000
# 6 0.0000 0.0000 0.0000 2.2072 0.0000 28.5955
#
#
#
# Elastic Compliance Matrix: (Units=1/GPa)
#
#
# Indices 1 2 3 4 5 6 
#
# 1 0.010377 -0.010513 -0.005043 0.000000 0.000880 0.000000
# 2 -0.010513 0.038875 0.009785 0.000000 0.004129 0.000000
# 3 -0.005043 0.009785 0.015732 0.000000 0.008057 0.000000
# 4 0.000000 0.000000 0.000000 0.038417 0.000000 -0.002965
# 5 0.000880 0.004129 0.008057 0.000000 0.067622 0.000000
# 6 0.000000 0.000000 0.000000 -0.002965 0.000000 0.035199
#
#
# Mechanical properties :
#
#
# Convention : Reuss Voigt Hill
#
# Bulk Modulus (GPa) = 18.71159 40.82210 29.76685
# Shear Modulus (GPa) = 21.22439 28.73443 24.97941
#
# Velocity S-wave (km/s) = 3.20759 3.73218 3.47979
# Velocity P-wave (km/s) = 4.77376 6.19363 5.52946
#
# Compressibility (1/GPa) = 0.05344280
#
# Stress axis : x y z
#
# Youngs Moduli (GPa) = 96.36555 25.72363 63.56421
#
# Poissons Ratio (x) = 0.27043 0.32053
# Poissons Ratio (y) = 1.01310 -0.62198
# Poissons Ratio (z) = 0.48593 -0.25171
#
# Static dielectric constant tensor:
#      x y z
#    x 3.929510 0.000000 -0.045680 
#    y 0.000000 3.834950 0.000000 
#    z -0.045680 0.000000 3.459680 
# 
# 
# High freq. dielectric constant tensor:
#      x y z
#    x 1.810570 0.000000 -0.002930 
#    y 0.000000 1.822090 0.000000 
#    z -0.002930 0.000000 1.783720 
# 
# From -- ./inp_files/102673.got.cif
#   From: 2010.06.25/outbox.cif.g09.slc.cpg/sg15_52_cif.got.tgz:102673.got - 2010.06.28 07:06:18.
