data_PCOD8145351
_publ_section_title
;
Structure prediction by ZEFSAII (Michael W. Deem and Ramdas Pophale) SiO2 
 PCOD8145351
Probable space group: C 2/C
;
_chemical_formula_sum "Si O2"
_cell_formula_units_Z 56
_cell_length_a 19.408429
_cell_length_b 12.809384
_cell_length_c 10.712110
_cell_angle_alpha 90.000000
_cell_angle_beta 89.290751
_cell_angle_gamma 90.000000
_cell_volume 2662.933843
_symmetry_space_group_name_H-M "C 2/C"
_symmetry_group_IT_number 15
_symmetry_cell_setting 'monoclinic'
loop_
_space_group_symop_operation_xyz
x,y,z
-x,y,1/2-z
-x,-y,-z
x,-y,1/2+z
1/2+x,1/2+y,z
1/2-x,1/2+y,1/2-z
1/2-x,1/2-y,-z
1/2+x,1/2-y,1/2+z
loop_
_atom_site_type_symbol
_atom_site_label
_atom_site_fract_x
_atom_site_fract_y
_atom_site_fract_z
Si Si1 0.704197 0.068467 0.884016
Si Si2 0.175304 0.657795 0.429602
Si Si3 0.158867 0.936835 0.972970
Si Si4 0.543969 0.520223 0.122154
Si Si5 0.216313 0.868594 0.359205
Si Si6 0.093859 0.270389 0.376646
Si Si7 0.441094 0.758947 0.398697
O O1 0.731887 0.105108 0.751222
O O2 0.643558 0.143292 0.934913
O O3 0.672066 0.953651 0.861208
O O4 0.762639 0.080745 0.987810
O O5 0.182730 0.754665 0.332257
O O6 0.241793 0.647397 0.514934
O O7 0.104964 0.679823 0.502996
O O8 0.129349 0.843366 0.888973
O O9 0.158765 0.040861 0.884552
O O10 0.112293 0.948569 0.100654
O O11 0.500000 0.497046 0.250000
O O12 0.573202 0.636516 0.117527
O O13 0.500000 0.500000 0.000000
O O14 0.078288 0.304253 0.235434
O O15 0.019546 0.272971 0.444898
#
# Coordination Sequence:
#
# PCOD8145351 Si02
#       7
#     8   8   8   8   8   8   8
#     4  11  25  39  64  93 129 172 210 272 321 394
#     4  10  22  41  62  92 120 166 220 261 316 387
#     4  11  24  38  63  96 135 163 208 275 340 381
#     4  12  23  40  66 104 134 172 224 279 340 396
#     4  10  22  38  64  91 128 163 211 265 324 393
#     4  11  23  42  63  95 127 172 215 265 328 400
#     4  11  21  40  69  89 124 175 220 264 322 397
#
# _framework density 21.029437999999999
#
# number of rings (size 3 to 8) (size 9 to 14) (size 15 to 20)
#    0.000    1.143    5.714    0.429    6.000    0.571 
#    0.000    0.000    0.000    0.000    0.000    0.000 
#    0.000    0.000    0.000    0.000    0.000    0.000 
#
# Total GULP energy -347004.309075 kJ/mol
# GULP energy per Si atom -12393.011038 kJ/mol
# Density = 2.098157 g / cm^3
# Si number density = 21.029438 Si / 1000 Ang^3
#
#
#
# Elastic Constant Matrix: (Units=GPa)
#
#
# Indices 1 2 3 4 5 6 
#
# 1 125.7067 74.6462 22.4014 0.0000 -9.4524 0.0000
# 2 74.6462 150.6553 33.5780 0.0000 -19.0694 0.0000
# 3 22.4014 33.5780 61.4490 0.0000 -13.3393 0.0000
# 4 0.0000 0.0000 0.0000 17.5068 0.0000 -4.7906
# 5 -9.4524 -19.0694 -13.3393 0.0000 29.5241 0.0000
# 6 0.0000 0.0000 0.0000 -4.7906 0.0000 41.9923
#
#
#
# Elastic Compliance Matrix: (Units=1/GPa)
#
#
# Indices 1 2 3 4 5 6 
#
# 1 0.011355 -0.005394 -0.001285 0.000000 -0.000429 0.000000
# 2 -0.005394 0.010430 -0.002933 0.000000 0.003685 0.000000
# 3 -0.001285 -0.002933 0.019785 0.000000 0.006633 0.000000
# 4 0.000000 0.000000 0.000000 0.058961 0.000000 0.006727
# 5 -0.000429 0.003685 0.006633 0.000000 0.039110 0.000000
# 6 0.000000 0.000000 0.000000 0.006727 0.000000 0.024581
#
#
# Mechanical properties :
#
#
# Convention : Reuss Voigt Hill
#
# Bulk Modulus (GPa) = 44.75208 66.56247 55.65728
# Shear Modulus (GPa) = 26.19231 31.61701 28.90466
#
# Velocity S-wave (km/s) = 3.53300 3.88166 3.71143
# Velocity P-wave (km/s) = 6.16196 7.19795 6.70001
#
# Compressibility (1/GPa) = 0.02234533
#
# Stress axis : x y z
#
# Youngs Moduli (GPa) = 88.06898 95.87365 50.54349
#
# Poissons Ratio (x) = 0.51713 0.06496
# Poissons Ratio (y) = 0.47504 0.14826
# Poissons Ratio (z) = 0.11318 0.28123
#
# Static dielectric constant tensor:
#      x y z
#    x 4.116430 0.000000 -0.141900 
#    y 0.000000 4.185260 0.000000 
#    z -0.141900 0.000000 3.628260 
# 
# 
# High freq. dielectric constant tensor:
#      x y z
#    x 1.834560 0.000000 -0.010170 
#    y 0.000000 1.825200 0.000000 
#    z -0.010170 0.000000 1.797050 
# 
# From -- ./inp_files/111047.got.cif
#   From: 2010.06.25/outbox.cif.g09.slc.cpg/sg15_56_cif.got.tgz:111047.got - 2010.06.28 07:06:18.
