data_PCOD8145746
_publ_section_title
;
Structure prediction by ZEFSAII (Michael W. Deem and Ramdas Pophale) SiO2 
 PCOD8145746
Probable space group: C 2/C
;
_chemical_formula_sum "Si O2"
_cell_formula_units_Z 56
_cell_length_a 17.027945
_cell_length_b 7.309868
_cell_length_c 21.211966
_cell_angle_alpha 90.000000
_cell_angle_beta 120.064720
_cell_angle_gamma 90.000000
_cell_volume 2285.071152
_symmetry_space_group_name_H-M "C 2/C"
_symmetry_group_IT_number 15
_symmetry_cell_setting 'monoclinic'
loop_
_space_group_symop_operation_xyz
x,y,z
-x,y,1/2-z
-x,-y,-z
x,-y,1/2+z
1/2+x,1/2+y,z
1/2-x,1/2+y,1/2-z
1/2-x,1/2-y,-z
1/2+x,1/2-y,1/2+z
loop_
_atom_site_type_symbol
_atom_site_label
_atom_site_fract_x
_atom_site_fract_y
_atom_site_fract_z
Si Si1 0.851814 0.488065 0.779262
Si Si2 0.673814 0.066304 0.962260
Si Si3 0.499924 0.081607 0.430879
Si Si4 0.332996 0.569302 0.738275
Si Si5 0.362076 0.576859 0.993931
Si Si6 0.604238 0.748017 0.308521
Si Si7 0.057209 0.011462 0.600343
O O1 0.771702 0.518639 0.796861
O O2 0.853650 0.285178 0.748210
O O3 0.837614 0.630460 0.717272
O O4 0.942103 0.533908 0.856396
O O5 0.774159 0.979711 0.991354
O O6 0.636139 0.189470 0.889606
O O7 0.603854 0.902227 0.948062
O O8 0.670991 0.209115 0.020939
O O9 0.453772 0.274962 0.415080
O O10 0.500000 0.000000 0.500000
O O11 0.370835 0.468808 0.690496
O O12 0.385468 0.463325 0.815675
O O13 0.383302 0.463013 0.938095
O O14 0.458664 0.581015 0.069672
O O15 0.500000 0.787103 0.250000
#
# Coordination Sequence:
#
# PCOD8145746 Si02
#       7
#     8   8   8   8   8   8   8
#     4  11  24  43  69 102 133 179 231 278 334 413
#     4  11  23  41  64  96 133 175 219 273 343 400
#     4  11  23  42  67  96 133 175 225 276 338 406
#     4  11  24  42  70  99 132 178 232 276 338 409
#     4  10  22  39  67  94 130 173 217 273 333 403
#     4  12  24  43  67  97 140 179 220 287 348 391
#     4  10  22  42  67  97 129 172 230 274 331 406
#
# _framework density 24.506895
#
# number of rings (size 3 to 8) (size 9 to 14) (size 15 to 20)
#    0.000    1.143    4.286    1.714    2.000    1.143 
#    5.143    0.000    0.000    0.000    0.000    0.000 
#    0.000    0.000    0.000    0.000    0.000    0.000 
#
# Total GULP energy -346947.947757 kJ/mol
# GULP energy per Si atom -12390.998134 kJ/mol
# Density = 2.445112 g / cm^3
# Si number density = 24.506895 Si / 1000 Ang^3
#
#
#
# Elastic Constant Matrix: (Units=GPa)
#
#
# Indices 1 2 3 4 5 6 
#
# 1 154.7051 8.9859 31.5862 0.0000 30.6480 0.0000
# 2 8.9859 43.1494 11.8701 0.0000 -6.2484 0.0000
# 3 31.5862 11.8701 44.5473 0.0000 6.5721 0.0000
# 4 0.0000 0.0000 0.0000 25.4896 0.0000 2.7416
# 5 30.6480 -6.2484 6.5721 0.0000 40.0206 0.0000
# 6 0.0000 0.0000 0.0000 2.7416 0.0000 41.8506
#
#
#
# Elastic Compliance Matrix: (Units=1/GPa)
#
#
# Indices 1 2 3 4 5 6 
#
# 1 0.008764 -0.001347 -0.004954 0.000000 -0.006108 0.000000
# 2 -0.001347 0.026284 -0.006975 0.000000 0.006281 0.000000
# 3 -0.004954 -0.006975 0.028101 0.000000 -0.001910 0.000000
# 4 0.000000 0.000000 0.000000 0.039510 0.000000 -0.002588
# 5 -0.006108 0.006281 -0.001910 0.000000 0.030959 0.000000
# 6 0.000000 0.000000 0.000000 -0.002588 0.000000 0.024064
#
#
# Mechanical properties :
#
#
# Convention : Reuss Voigt Hill
#
# Bulk Modulus (GPa) = 27.32478 38.58735 32.95607
# Shear Modulus (GPa) = 25.45405 34.13615 29.79510
#
# Velocity S-wave (km/s) = 3.22630 3.73623 3.49059
# Velocity P-wave (km/s) = 5.00527 5.86449 5.45184
#
# Compressibility (1/GPa) = 0.03659682
#
# Stress axis : x y z
#
# Youngs Moduli (GPa) = 114.10864 38.04585 35.58594
#
# Poissons Ratio (x) = 0.05124 0.17629
# Poissons Ratio (y) = 0.15367 0.24822
# Poissons Ratio (z) = 0.56528 0.26538
#
# Static dielectric constant tensor:
#      x y z
#    x 4.671550 0.000000 0.268010 
#    y 0.000000 4.288070 0.000000 
#    z 0.268010 0.000000 4.869180 
# 
# 
# High freq. dielectric constant tensor:
#      x y z
#    x 1.989700 0.000000 0.015200 
#    y 0.000000 1.954670 0.000000 
#    z 0.015200 0.000000 1.970270 
# 
# From -- ./inp_files/273247.got.cif
#   From: 2010.06.25/outbox.cif.g09.slc.cpg/sg15_137_cif.got.tgz:273247.got - 2010.06.28 07:06:18.
