data_PCOD8145182
_publ_section_title
;
Structure prediction by ZEFSAII (Michael W. Deem and Ramdas Pophale) SiO2 
 PCOD8145182
Probable space group: C 2/C
;
_chemical_formula_sum "Si O2"
_cell_formula_units_Z 64
_cell_length_a 25.193193
_cell_length_b 9.000319
_cell_length_c 31.647308
_cell_angle_alpha 90.000000
_cell_angle_beta 152.515469
_cell_angle_gamma 90.000000
_cell_volume 3311.754801
_symmetry_space_group_name_H-M "C 2/C"
_symmetry_group_IT_number 15
_symmetry_cell_setting 'monoclinic'
loop_
_space_group_symop_operation_xyz
x,y,z
-x,y,1/2-z
-x,-y,-z
x,-y,1/2+z
1/2+x,1/2+y,z
1/2-x,1/2+y,1/2-z
1/2-x,1/2-y,-z
1/2+x,1/2-y,1/2+z
loop_
_atom_site_type_symbol
_atom_site_label
_atom_site_fract_x
_atom_site_fract_y
_atom_site_fract_z
Si Si1 0.070278 0.643292 0.562700
Si Si2 0.594499 0.428924 0.682000
Si Si3 0.176728 0.675589 0.795570
Si Si4 0.192731 0.491076 0.723662
Si Si5 0.667222 0.308676 0.558260
Si Si6 0.521940 0.756891 0.639644
Si Si7 0.087417 0.129224 0.509626
Si Si8 0.426372 0.093011 0.239484
O O1 0.137241 0.611812 0.653246
O O2 0.161744 0.683642 0.590822
O O3 0.000000 0.500000 0.500000
O O4 0.984980 0.783367 0.506270
O O5 0.628085 0.333260 0.746652
O O6 0.690820 0.423037 0.713265
O O7 0.577210 0.595833 0.685006
O O8 0.477063 0.356992 0.580935
O O9 0.219865 0.574415 0.786562
O O10 0.286804 0.705660 0.903326
O O11 0.082374 0.582332 0.755223
O O12 0.106020 0.354525 0.669689
O O13 0.602965 0.251095 0.470707
O O14 0.602260 0.454799 0.530298
O O15 0.799867 0.339946 0.641906
O O16 0.507200 0.826337 0.675495
O O17 0.500000 0.116161 0.250000
#
# Coordination Sequence:
#
# PCOD8145182 Si02
#       8
#     8   8   8   8   8   8   8   8
#     4  12  21  33  53  86 126 159 190 225 270 351
#     4  11  21  35  56  83 123 156 189 227 285 352
#     4  10  22  38  57  82 114 155 198 236 286 349
#     4  11  21  33  52  86 125 162 188 223 276 347
#     4  10  22  38  59  84 119 156 194 236 290 351
#     4  10  22  38  57  87 118 152 195 237 288 347
#     4  10  23  34  53  81 121 158 191 226 285 342
#     4  10  23  43  64  82 108 149 202 255 299 335
#
# _framework density 19.325102999999999
#
# number of rings (size 3 to 8) (size 9 to 14) (size 15 to 20)
#    0.000    1.500    2.500    2.625    8.750    0.500 
#    0.000    0.625    0.000    6.750    0.000    0.000 
#    0.000    0.000    0.000    0.000    0.000    0.000 
#
# Total GULP energy -396787.693856 kJ/mol
# GULP energy per Si atom -12399.615433 kJ/mol
# Density = 1.928112 g / cm^3
# Si number density = 19.325103 Si / 1000 Ang^3
#
#
#
# Elastic Constant Matrix: (Units=GPa)
#
#
# Indices 1 2 3 4 5 6 
#
# 1 111.5717 48.8322 42.2340 0.0000 1.5150 -0.0003
# 2 48.8322 93.6427 46.9775 0.0001 2.8214 -0.0015
# 3 42.2340 46.9775 114.5264 -0.0018 -6.7287 -0.0007
# 4 0.0000 0.0001 -0.0018 32.5080 -0.0004 -6.1233
# 5 1.5150 2.8214 -6.7287 -0.0004 19.7072 0.0000
# 6 -0.0003 -0.0015 -0.0007 -6.1233 0.0000 14.3949
#
#
#
# Elastic Compliance Matrix: (Units=1/GPa)
#
#
# Indices 1 2 3 4 5 6 
#
# 1 0.012120 -0.005056 -0.002457 0.000000 -0.001047 0.000000
# 2 -0.005056 0.015853 -0.004846 0.000000 -0.003536 0.000001
# 3 -0.002457 -0.004846 0.011916 0.000001 0.004951 0.000000
# 4 0.000000 0.000000 0.000001 0.033441 0.000001 0.014225
# 5 -0.001047 -0.003536 0.004951 0.000001 0.053020 0.000000
# 6 0.000000 0.000001 0.000000 0.014225 0.000000 0.075520
#
#
# Mechanical properties :
#
#
# Convention : Reuss Voigt Hill
#
# Bulk Modulus (GPa) = 65.91402 66.20311 66.05856
# Shear Modulus (GPa) = 21.58464 25.43516 23.50990
#
# Velocity S-wave (km/s) = 3.34566 3.63184 3.49169
# Velocity P-wave (km/s) = 7.00761 7.20548 7.10724
#
# Compressibility (1/GPa) = 0.01517128
#
# Stress axis : x y z
#
# Youngs Moduli (GPa) = 82.50749 63.07906 83.91828
#
# Poissons Ratio (x) = 0.31894 0.20619
# Poissons Ratio (y) = 0.41717 0.40666
# Poissons Ratio (z) = 0.20273 0.30568
#
# Static dielectric constant tensor:
#      x y z
#    x 3.017480 0.000000 -0.138100 
#    y 0.000000 3.679680 0.000000 
#    z -0.138100 0.000000 3.839100 
# 
# 
# High freq. dielectric constant tensor:
#      x y z
#    x 1.693510 0.000000 -0.013650 
#    y 0.000000 1.763710 0.000000 
#    z -0.013650 0.000000 1.772580 
# 
# From -- ./inp_files/318634.got.cif
#   From: 2010.06.25/outbox.cif.g09.slc.cpg/sg15_160_cif.got.tgz:318634.got - 2010.06.28 07:06:18.
