data_PCOD8145099
_publ_section_title
;
Structure prediction by ZEFSAII (Michael W. Deem and Ramdas Pophale) SiO2 
 PCOD8145099
Probable space group: C 2/C
;
_chemical_formula_sum "Si O2"
_cell_formula_units_Z 40
_cell_length_a 8.834419
_cell_length_b 11.619421
_cell_length_c 25.722164
_cell_angle_alpha 90.000000
_cell_angle_beta 131.696067
_cell_angle_gamma 90.000000
_cell_volume 1971.545201
_symmetry_space_group_name_H-M "C 2/C"
_symmetry_group_IT_number 15
_symmetry_cell_setting 'monoclinic'
loop_
_space_group_symop_operation_xyz
x,y,z
-x,y,1/2-z
-x,-y,-z
x,-y,1/2+z
1/2+x,1/2+y,z
1/2-x,1/2+y,1/2-z
1/2-x,1/2-y,-z
1/2+x,1/2-y,1/2+z
loop_
_atom_site_type_symbol
_atom_site_label
_atom_site_fract_x
_atom_site_fract_y
_atom_site_fract_z
Si Si1 0.883662 0.635650 0.033408
Si Si2 0.018992 0.553029 0.173069
Si Si3 0.788914 0.129918 0.322325
Si Si4 0.784363 0.887584 0.177404
Si Si5 0.233968 0.955887 0.926115
O O1 0.953524 0.627043 0.108616
O O2 0.084344 0.636371 0.041987
O O3 0.750000 0.750000 0.000000
O O4 0.755853 0.522646 0.986170
O O5 0.826402 0.536093 0.167489
O O6 0.199631 0.622461 0.243724
O O7 0.106881 0.429488 0.175986
O O8 0.735140 0.252271 0.334998
O O9 0.027228 0.113767 0.377814
O O10 0.000000 0.923263 0.250000
O O11 0.758185 0.946580 0.115997
#
# Coordination Sequence:
#
# PCOD8145099 Si02
#       5
#     8   8   8   8   8
#     4  10  22  40  62  87 125 161 198 247 303 356
#     4  10  22  37  59  94 118 153 202 248 295 356
#     4  11  22  39  63  90 123 155 201 251 301 349
#     4  11  20  38  63  85 119 156 193 250 298 344
#     4  10  23  41  62  90 118 161 205 243 298 364
#
# _framework density 20.288656
#
# number of rings (size 3 to 8) (size 9 to 14) (size 15 to 20)
#    0.000    1.600    4.000    1.200    0.000    2.400 
#    0.000   20.000    0.000    0.000    0.000    0.000 
#    0.000    0.000    0.000    0.000    0.000    0.000 
#
# Total GULP energy -247953.765653 kJ/mol
# GULP energy per Si atom -12397.688283 kJ/mol
# Density = 2.024248 g / cm^3
# Si number density = 20.288656 Si / 1000 Ang^3
#
#
#
# Elastic Constant Matrix: (Units=GPa)
#
#
# Indices 1 2 3 4 5 6 
#
# 1 96.9964 41.7588 53.1851 0.0000 14.0168 0.0000
# 2 41.7588 59.3452 29.9442 0.0000 6.4010 0.0000
# 3 53.1851 29.9442 110.2959 0.0000 20.7019 0.0000
# 4 0.0000 0.0000 0.0000 29.9132 0.0000 8.5950
# 5 14.0168 6.4010 20.7019 0.0000 35.8950 0.0000
# 6 0.0000 0.0000 0.0000 8.5950 0.0000 35.2991
#
#
#
# Elastic Compliance Matrix: (Units=1/GPa)
#
#
# Indices 1 2 3 4 5 6 
#
# 1 0.017740 -0.009433 -0.005617 0.000000 -0.002006 0.000000
# 2 -0.009433 0.024548 -0.002227 0.000000 0.000590 0.000000
# 3 -0.005617 -0.002227 0.013337 0.000000 -0.005101 0.000000
# 4 0.000000 0.000000 0.000000 0.035945 0.000000 -0.008752
# 5 -0.002006 0.000590 -0.005101 0.000000 0.031479 0.000000
# 6 0.000000 0.000000 0.000000 -0.008752 0.000000 0.030460
#
#
# Mechanical properties :
#
#
# Convention : Reuss Voigt Hill
#
# Bulk Modulus (GPa) = 47.45561 57.37931 52.41746
# Shear Modulus (GPa) = 25.62957 29.67143 27.65050
#
# Velocity S-wave (km/s) = 3.55807 3.82837 3.69569
# Velocity P-wave (km/s) = 6.34987 6.91988 6.64099
#
# Compressibility (1/GPa) = 0.02107232
#
# Stress axis : x y z
#
# Youngs Moduli (GPa) = 56.36847 40.73684 74.97818
#
# Poissons Ratio (x) = 0.38425 0.42116
# Poissons Ratio (y) = 0.53170 0.16696
# Poissons Ratio (z) = 0.31663 0.09071
#
# Static dielectric constant tensor:
#      x y z
#    x 3.765220 0.000000 0.086300 
#    y 0.000000 3.385550 0.000000 
#    z 0.086300 0.000000 4.015150 
# 
# 
# High freq. dielectric constant tensor:
#      x y z
#    x 1.789790 0.000000 0.004330 
#    y 0.000000 1.765750 0.000000 
#    z 0.004330 0.000000 1.818570 
# 
# From -- ./inp_files/187785.got.cif
#   From: 2010.06.25/outbox.cif.g09.slc.cpg/sg15_94_cif.got.tgz:187785.got - 2010.06.28 07:06:18.
