data_PCOD8145660
_publ_section_title
;
Structure prediction by ZEFSAII (Michael W. Deem and Ramdas Pophale) SiO2 
 PCOD8145660
Probable space group: C 2/C
;
_chemical_formula_sum "Si O2"
_cell_formula_units_Z 64
_cell_length_a 8.971718
_cell_length_b 17.723693
_cell_length_c 19.212714
_cell_angle_alpha 90.000000
_cell_angle_beta 86.028727
_cell_angle_gamma 90.000000
_cell_volume 3047.716122
_symmetry_space_group_name_H-M "C 2/C"
_symmetry_group_IT_number 15
_symmetry_cell_setting 'monoclinic'
loop_
_space_group_symop_operation_xyz
x,y,z
-x,y,1/2-z
-x,-y,-z
x,-y,1/2+z
1/2+x,1/2+y,z
1/2-x,1/2+y,1/2-z
1/2-x,1/2-y,-z
1/2+x,1/2-y,1/2+z
loop_
_atom_site_type_symbol
_atom_site_label
_atom_site_fract_x
_atom_site_fract_y
_atom_site_fract_z
Si Si1 0.901509 0.100413 0.688263
Si Si2 0.787593 0.254579 0.646497
Si Si3 0.208011 0.839092 0.783981
Si Si4 0.601916 0.787519 0.593818
Si Si5 0.156812 0.989701 0.106977
Si Si6 0.459408 0.653247 0.399274
Si Si7 0.827727 0.496866 0.734680
Si Si8 0.310552 0.353442 0.484660
O O1 0.840526 0.168011 0.642220
O O2 0.751581 0.058163 0.714980
O O3 0.000000 0.131703 0.750000
O O4 0.001653 0.041787 0.642435
O O5 0.731841 0.273890 0.726241
O O6 0.654236 0.275482 0.597552
O O7 0.929021 0.302604 0.615217
O O8 0.316337 0.822722 0.843659
O O9 0.040533 0.845444 0.820769
O O10 0.249575 0.916879 0.746506
O O11 0.646662 0.698710 0.583282
O O12 0.649160 0.830903 0.521320
O O13 0.296992 0.981371 0.155159
O O14 0.195667 0.940759 0.037180
O O15 0.132259 0.076173 0.087112
O O16 0.569391 0.664107 0.459512
O O17 0.000000 0.495286 0.750000
#
# Coordination Sequence:
#
# PCOD8145660 Si02
#       8
#     8   8   8   8   8   8   8   8
#     4  10  22  39  64  91 135 175 213 263 345 407
#     4  12  22  38  65 104 123 168 215 286 328 387
#     4  11  22  39  66  94 132 166 214 269 344 391
#     4  10  22  41  64  91 128 171 217 271 328 386
#     4  11  21  44  67  89 129 180 216 262 332 402
#     4  11  24  40  67  96 130 173 222 269 317 398
#     4  11  23  39  63  98 132 164 215 282 336 397
#     4  10  23  44  65  89 129 185 224 255 317 407
#
# _framework density 20.999331000000002
#
# number of rings (size 3 to 8) (size 9 to 14) (size 15 to 20)
#    0.000    1.250    3.750    2.625    1.750    1.500 
#    4.500    0.625    0.000    0.000    0.000    0.000 
#    0.000    0.000    0.000    0.000    0.000    0.000 
#
# Total GULP energy -396772.372486 kJ/mol
# GULP energy per Si atom -12399.136640 kJ/mol
# Density = 2.095154 g / cm^3
# Si number density = 20.999331 Si / 1000 Ang^3
#
#
#
# Elastic Constant Matrix: (Units=GPa)
#
#
# Indices 1 2 3 4 5 6 
#
# 1 60.2305 10.6511 -15.8864 0.0000 -3.2023 0.0000
# 2 10.6511 63.4764 -0.1849 0.0000 3.6989 0.0000
# 3 -15.8864 -0.1849 43.3193 0.0000 -3.0751 0.0000
# 4 0.0000 0.0000 0.0000 31.2083 0.0000 5.6982
# 5 -3.2023 3.6989 -3.0751 0.0000 23.2510 0.0000
# 6 0.0000 0.0000 0.0000 5.6982 0.0000 29.1181
#
#
#
# Elastic Compliance Matrix: (Units=1/GPa)
#
#
# Indices 1 2 3 4 5 6 
#
# 1 0.019392 -0.003477 0.007395 0.000000 0.004202 0.000000
# 2 -0.003477 0.016525 -0.001439 0.000000 -0.003298 0.000000
# 3 0.007395 -0.001439 0.026124 0.000000 0.004702 0.000000
# 4 0.000000 0.000000 0.000000 0.033230 0.000000 -0.006503
# 5 0.004202 -0.003298 0.004702 0.000000 0.044734 0.000000
# 6 0.000000 0.000000 0.000000 -0.006503 0.000000 0.035615
#
#
# Mechanical properties :
#
#
# Convention : Reuss Voigt Hill
#
# Bulk Modulus (GPa) = 14.92559 17.35397 16.13978
# Shear Modulus (GPa) = 25.90729 28.21191 27.05960
#
# Velocity S-wave (km/s) = 3.51625 3.66931 3.59359
# Velocity P-wave (km/s) = 4.85885 5.12189 4.99210
#
# Compressibility (1/GPa) = 0.06699902
#
# Stress axis : x y z
#
# Youngs Moduli (GPa) = 51.56850 60.51309 38.27894
#
# Poissons Ratio (x) = 0.21041 -0.28307
# Poissons Ratio (y) = 0.17931 0.05507
# Poissons Ratio (z) = -0.38135 0.08706
#
# Static dielectric constant tensor:
#      x y z
#    x 3.961230 0.000000 -0.194890 
#    y 0.000000 3.735120 0.000000 
#    z -0.194890 0.000000 3.818280 
# 
# 
# High freq. dielectric constant tensor:
#      x y z
#    x 1.823330 0.000000 -0.004210 
#    y 0.000000 1.819870 0.000000 
#    z -0.004210 0.000000 1.818110 
# 
# From -- ./inp_files/232700.got.cif
#   From: 2010.06.25/outbox.cif.g09.slc.cpg/sg15_117_cif.got.tgz:232700.got - 2010.06.28 07:06:18.
