data_PCOD8145518
_publ_section_title
;
Structure prediction by ZEFSAII (Michael W. Deem and Ramdas Pophale) SiO2 
 PCOD8145518
Probable space group: C 2/C
;
_chemical_formula_sum "Si O2"
_cell_formula_units_Z 48
_cell_length_a 9.166230
_cell_length_b 30.462676
_cell_length_c 8.580267
_cell_angle_alpha 90.000000
_cell_angle_beta 89.999754
_cell_angle_gamma 90.000000
_cell_volume 2395.849890
_symmetry_space_group_name_H-M "C 2/C"
_symmetry_group_IT_number 15
_symmetry_cell_setting 'monoclinic'
loop_
_space_group_symop_operation_xyz
x,y,z
-x,y,1/2-z
-x,-y,-z
x,-y,1/2+z
1/2+x,1/2+y,z
1/2-x,1/2+y,1/2-z
1/2-x,1/2-y,-z
1/2+x,1/2-y,1/2+z
loop_
_atom_site_type_symbol
_atom_site_label
_atom_site_fract_x
_atom_site_fract_y
_atom_site_fract_z
Si Si1 0.839374 0.708519 0.183990
Si Si2 0.341247 0.624032 0.684724
Si Si3 0.158754 0.124032 0.184726
Si Si4 0.154624 0.547751 0.184533
Si Si5 0.660628 0.208520 0.683994
Si Si6 0.345377 0.952249 0.184537
O O1 0.760794 0.664074 0.238178
O O2 0.749996 0.749999 0.251085
O O3 0.000000 0.709354 0.250000
O O4 0.848361 0.711315 0.999998
O O5 0.500000 0.634170 0.750000
O O6 0.345892 0.618493 0.499999
O O7 0.239213 0.664076 0.738180
O O8 0.282425 0.579762 0.761994
O O9 0.217573 0.079761 0.261996
O O10 0.000000 0.134171 0.250000
O O11 0.192332 0.500000 0.249997
O O12 0.000000 0.564882 0.250000
O O13 0.145277 0.545644 0.999998
O O14 0.500000 0.209351 0.750000
O O15 0.500000 0.935117 0.250000
#
# Coordination Sequence:
#
# PCOD8145518 Si02
#       6
#     8   8   8   8   8   8
#     4  10  22  39  60  87 118 153 194 239 288 344
#     4  11  23  39  59  86 119 155 197 242 292 347
#     4  11  23  39  59  86 119 155 197 242 292 347
#     4  11  22  39  62  88 118 153 195 241 292 348
#     4  10  22  39  60  87 118 153 194 239 288 344
#     4  11  22  39  62  88 118 153 195 241 292 348
#
# _framework density 20.034642000000002
#
# number of rings (size 3 to 8) (size 9 to 14) (size 15 to 20)
#    0.000    1.333    0.000    7.000    0.000    6.667 
#    0.000    3.333    0.000    0.000    0.000    0.000 
#    0.000    0.000    0.000    0.000    0.000    0.000 
#
# Total GULP energy -297750.388199 kJ/mol
# GULP energy per Si atom -12406.266175 kJ/mol
# Density = 1.998904 g / cm^3
# Si number density = 20.034642 Si / 1000 Ang^3
#
#
#
# Elastic Constant Matrix: (Units=GPa)
#
#
# Indices 1 2 3 4 5 6 
#
# 1 174.5131 82.7166 48.6172 0.0000 0.0012 0.0000
# 2 82.7166 126.2768 50.1238 0.0000 0.0004 0.0000
# 3 48.6172 50.1238 109.7081 0.0000 -0.0013 0.0000
# 4 0.0000 0.0000 0.0000 27.9794 0.0000 0.0013
# 5 0.0012 0.0004 -0.0013 0.0000 40.4535 0.0000
# 6 0.0000 0.0000 0.0000 0.0013 0.0000 54.9806
#
#
#
# Elastic Compliance Matrix: (Units=1/GPa)
#
#
# Indices 1 2 3 4 5 6 
#
# 1 0.008507 -0.004979 -0.001495 0.000000 0.000000 0.000000
# 2 -0.004979 0.012587 -0.003545 0.000000 0.000000 0.000000
# 3 -0.001495 -0.003545 0.011397 0.000000 0.000000 0.000000
# 4 0.000000 0.000000 0.000000 0.035741 0.000000 -0.000001
# 5 0.000000 0.000000 0.000000 0.000000 0.024720 0.000000
# 6 0.000000 0.000000 0.000000 -0.000001 0.000000 0.018188
#
#
# Mechanical properties :
#
#
# Convention : Reuss Voigt Hill
#
# Bulk Modulus (GPa) = 80.29345 85.93480 83.11413
# Shear Modulus (GPa) = 36.94737 39.95209 38.44973
#
# Velocity S-wave (km/s) = 4.29904 4.47044 4.38558
# Velocity P-wave (km/s) = 8.05026 8.34462 8.19876
#
# Compressibility (1/GPa) = 0.01245432
#
# Stress axis : x y z
#
# Youngs Moduli (GPa) = 117.55631 79.44464 87.74174
#
# Poissons Ratio (x) = 0.39553 0.13117
# Poissons Ratio (y) = 0.58528 0.31101
# Poissons Ratio (z) = 0.17575 0.28160
#
# Static dielectric constant tensor:
#      x y z
#    x 4.053260 0.000000 -0.000030 
#    y 0.000000 3.924210 0.000000 
#    z -0.000030 0.000000 3.670180 
# 
# 
# High freq. dielectric constant tensor:
#      x y z
#    x 1.791300 0.000000 0.000000 
#    y 0.000000 1.798280 0.000000 
#    z 0.000000 0.000000 1.789070 
# 
# From -- ./inp_files/26143.got.cif
#   From: 2010.06.25/outbox.cif.g09.slc.cpg/sg15_14_cif.got.tgz:26143.got - 2010.06.28 07:06:18.
