data_PCOD8145808
_publ_section_title
;
Structure prediction by ZEFSAII (Michael W. Deem and Ramdas Pophale) SiO2 
 PCOD8145808
Probable space group: C 2/C
;
_chemical_formula_sum "Si O2"
_cell_formula_units_Z 60
_cell_length_a 19.117709
_cell_length_b 24.256180
_cell_length_c 10.492282
_cell_angle_alpha 90.000000
_cell_angle_beta 144.864007
_cell_angle_gamma 90.000000
_cell_volume 2800.192882
_symmetry_space_group_name_H-M "C 2/C"
_symmetry_group_IT_number 15
_symmetry_cell_setting 'monoclinic'
loop_
_space_group_symop_operation_xyz
x,y,z
-x,y,1/2-z
-x,-y,-z
x,-y,1/2+z
1/2+x,1/2+y,z
1/2-x,1/2+y,1/2-z
1/2-x,1/2-y,-z
1/2+x,1/2-y,1/2+z
loop_
_atom_site_type_symbol
_atom_site_label
_atom_site_fract_x
_atom_site_fract_y
_atom_site_fract_z
Si Si1 0.579903 0.159402 0.494671
Si Si2 0.923961 0.076257 0.833942
Si Si3 0.219225 0.242507 0.103818
Si Si4 0.367684 0.456805 0.687631
Si Si5 0.573023 0.170397 0.989449
Si Si6 0.368290 0.049933 0.494878
Si Si7 0.500000 0.334875 0.250000
Si Si8 0.232583 0.558892 0.747102
O O1 0.500000 0.150522 0.250000
O O2 0.692830 0.198258 0.626659
O O3 0.505864 0.183224 0.503034
O O4 0.626539 0.101462 0.619026
O O5 0.932487 0.127223 0.752107
O O6 0.791205 0.076870 0.700368
O O7 0.928776 0.017296 0.771095
O O8 0.038755 0.082729 0.099778
O O9 0.323274 0.215944 0.345155
O O10 0.250000 0.250000 0.000000
O O11 0.102153 0.205007 0.956926
O O12 0.233464 0.451095 0.547572
O O13 0.347591 0.437707 0.513337
O O14 0.629197 0.108512 0.074616
O O15 0.500000 0.180054 0.750000
O O16 0.328596 0.001748 0.338175
O O17 0.500000 0.036533 0.750000
#
# Coordination Sequence:
#
# PCOD8145808 Si02
#       8
#     8   8   8   8   8   8   4   8
#     4  12  25  44  67 101 136 176 228 284 341 400
#     4  10  24  37  62  94 128 176 224 273 335 394
#     4  12  24  47  72  98 134 176 235 290 343 413
#     4  10  22  40  59  93 138 172 219 274 330 405
#     4  11  25  44  72 100 137 177 224 288 345 409
#     4  10  22  40  62 100 133 175 220 268 338 400
#     4  12  24  40  70  96 124 180 232 278 338 408
#     4  11  23  39  66  93 137 178 219 275 333 409
#
# _framework density 21.427095000000001
#
# number of rings (size 3 to 8) (size 9 to 14) (size 15 to 20)
#    0.000    1.067    2.000    4.000    7.467    3.733 
#    0.000    2.667    0.000    0.000    0.000    0.000 
#    0.000    0.000    0.000    0.000    0.000    0.000 
#
# Total GULP energy -371955.339496 kJ/mol
# GULP energy per Si atom -12398.511317 kJ/mol
# Density = 2.137833 g / cm^3
# Si number density = 21.427095 Si / 1000 Ang^3
#
#
#
# Elastic Constant Matrix: (Units=GPa)
#
#
# Indices 1 2 3 4 5 6 
#
# 1 73.8871 21.0931 19.5571 0.0000 -2.5502 0.0000
# 2 21.0931 107.6670 43.8796 0.0000 -5.8361 0.0000
# 3 19.5571 43.8796 129.1006 0.0000 -8.0571 0.0000
# 4 0.0000 0.0000 0.0000 31.0142 0.0000 14.0078
# 5 -2.5502 -5.8361 -8.0571 0.0000 36.0774 0.0000
# 6 0.0000 0.0000 0.0000 14.0078 0.0000 9.1437
#
#
#
# Elastic Compliance Matrix: (Units=1/GPa)
#
#
# Indices 1 2 3 4 5 6 
#
# 1 0.014566 -0.002257 -0.001418 0.000000 0.000348 0.000000
# 2 -0.002257 0.011162 -0.003397 0.000000 0.000888 0.000000
# 3 -0.001418 -0.003397 0.009203 0.000000 0.001406 0.000000
# 4 0.000000 0.000000 0.000000 0.104661 0.000000 -0.160336
# 5 0.000348 0.000888 0.001406 0.000000 0.028200 0.000000
# 6 0.000000 0.000000 0.000000 -0.160336 0.000000 0.354995
#
#
# Mechanical properties :
#
#
# Convention : Reuss Voigt Hill
#
# Bulk Modulus (GPa) = 48.10371 53.30160 50.70265
# Shear Modulus (GPa) = 9.19356 30.32205 19.75781
#
# Velocity S-wave (km/s) = 2.07363 3.76590 3.03990
# Velocity P-wave (km/s) = 5.31337 6.62111 6.00296
#
# Compressibility (1/GPa) = 0.02078842
#
# Stress axis : x y z
#
# Youngs Moduli (GPa) = 68.65429 89.58572 108.66161
#
# Poissons Ratio (x) = 0.20219 0.15405
# Poissons Ratio (y) = 0.15495 0.36909
# Poissons Ratio (z) = 0.09733 0.30430
#
# Static dielectric constant tensor:
#      x y z
#    x 3.896280 0.000000 0.116260 
#    y 0.000000 3.908330 0.000000 
#    z 0.116260 0.000000 3.924180 
# 
# 
# High freq. dielectric constant tensor:
#      x y z
#    x 1.847150 0.000000 0.012700 
#    y 0.000000 1.836760 0.000000 
#    z 0.012700 0.000000 1.846920 
# 
# From -- ./inp_files/114836.got.cif
#   From: 2010.06.25/outbox.cif.g09.slc.cpg/sg15_58_cif.got.tgz:114836.got - 2010.06.28 07:06:18.
