data_PCOD8145290
_publ_section_title
;
Structure prediction by ZEFSAII (Michael W. Deem and Ramdas Pophale) SiO2 
 PCOD8145290
Probable space group: C 2/C
;
_chemical_formula_sum "Si O2"
_cell_formula_units_Z 60
_cell_length_a 15.727218
_cell_length_b 17.999762
_cell_length_c 11.274234
_cell_angle_alpha 90.000000
_cell_angle_beta 74.428793
_cell_angle_gamma 90.000000
_cell_volume 3074.441162
_symmetry_space_group_name_H-M "C 2/C"
_symmetry_group_IT_number 15
_symmetry_cell_setting 'monoclinic'
loop_
_space_group_symop_operation_xyz
x,y,z
-x,y,1/2-z
-x,-y,-z
x,-y,1/2+z
1/2+x,1/2+y,z
1/2-x,1/2+y,1/2-z
1/2-x,1/2-y,-z
1/2+x,1/2-y,1/2+z
loop_
_atom_site_type_symbol
_atom_site_label
_atom_site_fract_x
_atom_site_fract_y
_atom_site_fract_z
Si Si1 0.843547 0.410493 0.569453
Si Si2 0.475276 0.111198 0.398712
Si Si3 0.480023 0.273488 0.502236
Si Si4 0.666362 0.744690 0.841751
Si Si5 0.000000 0.739454 0.750000
Si Si6 0.319544 0.307434 0.420240
Si Si7 0.310870 0.931353 0.093627
Si Si8 0.666472 0.147266 0.672901
O O1 0.819236 0.332673 0.641828
O O2 0.788087 0.482665 0.634713
O O3 0.820343 0.409836 0.438755
O O4 0.945910 0.428103 0.558790
O O5 0.500000 0.113119 0.250000
O O6 0.459251 0.192311 0.459047
O O7 0.384172 0.068017 0.460649
O O8 0.581823 0.292441 0.437613
O O9 0.464534 0.284910 0.649490
O O10 0.405285 0.324684 0.469250
O O11 0.647997 0.731931 0.711120
O O12 0.752520 0.703833 0.855483
O O13 0.079009 0.690867 0.667969
O O14 0.250000 0.250000 0.500000
O O15 0.276374 0.387988 0.414874
O O16 0.349310 0.892784 0.196877
#
# Coordination Sequence:
#
# PCOD8145290 Si02
#       8
#     8   8   8   8   4   8   8   8
#     4  11  23  36  59  84 121 156 193 241 288 357
#     4  11  21  35  54  85 122 159 191 224 288 359
#     4  11  20  36  59  87 112 153 199 244 288 335
#     4  10  22  38  62  87 112 153 201 245 292 342
#     4  12  20  36  58  88 118 148 196 238 294 338
#     4  11  21  38  60  83 119 152 199 242 285 352
#     4  11  24  37  55  88 119 160 189 235 299 350
#     4  11  21  41  59  85 119 154 196 240 288 351
#
# _framework density 19.515743000000001
#
# number of rings (size 3 to 8) (size 9 to 14) (size 15 to 20)
#    0.000    1.067    5.333    3.600    1.867    0.000 
#    0.000    0.000    0.000    0.800    6.933    0.000 
#    0.000    0.000    0.000    0.000    0.000    0.000 
#
# Total GULP energy -371852.771380 kJ/mol
# GULP energy per Si atom -12395.092379 kJ/mol
# Density = 1.947132 g / cm^3
# Si number density = 19.515743 Si / 1000 Ang^3
#
#
#
# Elastic Constant Matrix: (Units=GPa)
#
#
# Indices 1 2 3 4 5 6 
#
# 1 110.4999 55.3213 36.7764 0.0000 11.9413 0.0000
# 2 55.3213 86.9401 42.5028 0.0000 2.4150 0.0000
# 3 36.7764 42.5028 124.8338 0.0000 16.3503 0.0000
# 4 0.0000 0.0000 0.0000 18.0641 0.0000 -2.2437
# 5 11.9413 2.4150 16.3503 0.0000 35.3039 0.0000
# 6 0.0000 0.0000 0.0000 -2.2437 0.0000 19.0841
#
#
#
# Elastic Compliance Matrix: (Units=1/GPa)
#
#
# Indices 1 2 3 4 5 6 
#
# 1 0.013900 -0.008374 -0.000749 0.000000 -0.003782 0.000000
# 2 -0.008374 0.018901 -0.004439 0.000000 0.003595 0.000000
# 3 -0.000749 -0.004439 0.010294 0.000000 -0.004211 0.000000
# 4 0.000000 0.000000 0.000000 0.056179 0.000000 0.006605
# 5 -0.003782 0.003595 -0.004211 0.000000 0.031309 0.000000
# 6 0.000000 0.000000 0.000000 0.006605 0.000000 0.053176
#
#
# Mechanical properties :
#
#
# Convention : Reuss Voigt Hill
#
# Bulk Modulus (GPa) = 62.61018 65.71943 64.16480
# Shear Modulus (GPa) = 23.12612 27.00197 25.06405
#
# Velocity S-wave (km/s) = 3.44612 3.72371 3.58760
# Velocity P-wave (km/s) = 6.92718 7.22746 7.07891
#
# Compressibility (1/GPa) = 0.01597184
#
# Stress axis : x y z
#
# Youngs Moduli (GPa) = 71.94306 52.90769 97.14265
#
# Poissons Ratio (x) = 0.44303 0.07272
# Poissons Ratio (y) = 0.60243 0.43124
# Poissons Ratio (z) = 0.05385 0.23487
#
# Static dielectric constant tensor:
#      x y z
#    x 3.705530 0.000000 0.035770 
#    y 0.000000 3.312070 0.000000 
#    z 0.035770 0.000000 3.798250 
# 
# 
# High freq. dielectric constant tensor:
#      x y z
#    x 1.761230 0.000000 0.013350 
#    y 0.000000 1.723160 0.000000 
#    z 0.013350 0.000000 1.775180 
# 
# From -- ./inp_files/99407.got.cif
#   From: 2010.06.25/outbox.cif.g09.slc.cpg/sg15_50_cif.got.tgz:99407.got - 2010.06.28 07:06:18.
