data_PCOD8145189
_publ_section_title
;
Structure prediction by ZEFSAII (Michael W. Deem and Ramdas Pophale) SiO2 
 PCOD8145189
Probable space group: C 2/C
;
_chemical_formula_sum "Si O2"
_cell_formula_units_Z 52
_cell_length_a 30.487299
_cell_length_b 10.546873
_cell_length_c 12.226394
_cell_angle_alpha 90.000000
_cell_angle_beta 140.976823
_cell_angle_gamma 90.000000
_cell_volume 2475.310663
_symmetry_space_group_name_H-M "C 2/C"
_symmetry_group_IT_number 15
_symmetry_cell_setting 'monoclinic'
loop_
_space_group_symop_operation_xyz
x,y,z
-x,y,1/2-z
-x,-y,-z
x,-y,1/2+z
1/2+x,1/2+y,z
1/2-x,1/2+y,1/2-z
1/2-x,1/2-y,-z
1/2+x,1/2-y,1/2+z
loop_
_atom_site_type_symbol
_atom_site_label
_atom_site_fract_x
_atom_site_fract_y
_atom_site_fract_z
Si Si1 0.056116 0.536120 0.772562
Si Si2 0.500000 0.544750 0.250000
Si Si3 0.865389 0.336660 0.718160
Si Si4 0.702854 0.796447 0.131281
Si Si5 0.690421 0.077823 0.166252
Si Si6 0.438497 0.307282 0.061194
Si Si7 0.998164 0.224288 0.046798
O O1 0.081289 0.424173 0.744570
O O2 0.019515 0.636337 0.623982
O O3 0.000000 0.483303 0.750000
O O4 0.120395 0.598413 0.961915
O O5 0.433304 0.452878 0.096016
O O6 0.517980 0.627944 0.180416
O O7 0.808805 0.283496 0.522253
O O8 0.825330 0.412627 0.735176
O O9 0.914398 0.224145 0.861304
O O10 0.759767 0.692789 0.275636
O O11 0.725117 0.940243 0.207286
O O12 0.632056 0.769765 0.060062
O O13 0.500000 0.237882 0.250000
O O14 0.457084 0.315966 0.970270
#
# Coordination Sequence:
#
# PCOD8145189 Si02
#       7
#     8   4   8   8   8   8   8
#     4  11  23  37  65 102 129 165 222 288 335 388
#     4  10  22  38  58 102 134 174 212 272 350 396
#     4  11  22  39  69  97 129 174 227 280 340 396
#     4  11  25  45  66  94 137 179 228 274 336 408
#     4  11  25  44  64  97 135 182 223 277 338 405
#     4  10  23  40  66  98 130 170 223 278 333 392
#     4  12  20  39  66 101 135 167 221 281 340 403
#
# _framework density 21.007463999999999
#
# number of rings (size 3 to 8) (size 9 to 14) (size 15 to 20)
#    0.462    0.615    3.846    2.308    4.308    2.462 
#    0.000   10.000    0.000    0.000    0.000    0.000 
#    0.000    0.000    0.000    0.000    0.000    0.000 
#
# Total GULP energy -322340.323321 kJ/mol
# GULP energy per Si atom -12397.704743 kJ/mol
# Density = 2.095965 g / cm^3
# Si number density = 21.007464 Si / 1000 Ang^3
#
#
#
# Elastic Constant Matrix: (Units=GPa)
#
#
# Indices 1 2 3 4 5 6 
#
# 1 119.0633 36.7310 42.0215 0.0000 -14.9052 0.0000
# 2 36.7310 95.2755 35.7834 0.0000 1.2518 0.0000
# 3 42.0215 35.7834 80.6693 0.0000 -3.7464 0.0000
# 4 0.0000 0.0000 0.0000 22.0043 0.0000 13.8619
# 5 -14.9052 1.2518 -3.7464 0.0000 40.8805 0.0000
# 6 0.0000 0.0000 0.0000 13.8619 0.0000 -1.8898
#
#
#
# Elastic Compliance Matrix: (Units=1/GPa)
#
#
# Indices 1 2 3 4 5 6 
#
# 1 0.011301 -0.002714 -0.004507 0.000000 0.003791 0.000000
# 2 -0.002714 0.013279 -0.004561 0.000000 -0.001814 0.000000
# 3 -0.004507 -0.004561 0.016769 0.000000 0.000033 0.000000
# 4 0.000000 0.000000 0.000000 0.008085 0.000000 0.059306
# 5 0.003791 -0.001814 0.000033 0.000000 0.025902 0.000000
# 6 0.000000 0.000000 0.000000 0.059306 0.000000 -0.094142
#
#
# Mechanical properties :
#
#
# Convention : Reuss Voigt Hill
#
# Bulk Modulus (GPa) = 56.22627 58.23109 57.22868
# Shear Modulus (GPa) = 467.86792 24.23050 246.04921
#
# Velocity S-wave (km/s) = 14.93983 3.39989 10.83416
# Velocity P-wave (km/s) = 18.01169 6.57205 13.55752
#
# Compressibility (1/GPa) = 0.01778528
#
# Stress axis : x y z
#
# Youngs Moduli (GPa) = 88.48460 75.30714 59.63489
#
# Poissons Ratio (x) = 0.20438 0.26878
# Poissons Ratio (y) = 0.24015 0.27198
# Poissons Ratio (z) = 0.39881 0.34346
#
# Static dielectric constant tensor:
#      x y z
#    x 3.708750 0.000000 -0.232290 
#    y 0.000000 3.876630 0.000000 
#    z -0.232290 0.000000 4.004920 
# 
# 
# High freq. dielectric constant tensor:
#      x y z
#    x 1.822290 0.000000 -0.019200 
#    y 0.000000 1.825260 0.000000 
#    z -0.019200 0.000000 1.818810 
# 
# From -- ./inp_files/126480.got.cif
#   From: 2010.06.25/outbox.cif.g09.slc.cpg/sg15_64_cif.got.tgz:126480.got - 2010.06.28 07:06:18.
