data_PCOD8145368
_publ_section_title
;
Structure prediction by ZEFSAII (Michael W. Deem and Ramdas Pophale) SiO2 
 PCOD8145368
Probable space group: C 2/C
;
_chemical_formula_sum "Si O2"
_cell_formula_units_Z 36
_cell_length_a 8.794218
_cell_length_b 29.542534
_cell_length_c 8.559158
_cell_angle_alpha 90.000000
_cell_angle_beta 50.085910
_cell_angle_gamma 90.000000
_cell_volume 1705.593610
_symmetry_space_group_name_H-M "C 2/C"
_symmetry_group_IT_number 15
_symmetry_cell_setting 'monoclinic'
loop_
_space_group_symop_operation_xyz
x,y,z
-x,y,1/2-z
-x,-y,-z
x,-y,1/2+z
1/2+x,1/2+y,z
1/2-x,1/2+y,1/2-z
1/2-x,1/2-y,-z
1/2+x,1/2-y,1/2+z
loop_
_atom_site_type_symbol
_atom_site_label
_atom_site_fract_x
_atom_site_fract_y
_atom_site_fract_z
Si Si1 0.354855 0.436479 0.097629
Si Si2 0.000000 0.003607 0.250000
Si Si3 0.056898 0.640451 0.875694
Si Si4 0.288961 0.802590 0.959429
Si Si5 0.637207 0.362596 0.806406
O O1 0.369178 0.472004 0.226758
O O2 0.164200 0.405744 0.253019
O O3 0.340666 0.464968 0.946234
O O4 0.555419 0.406776 0.948355
O O5 0.000000 0.665813 0.750000
O O6 0.209415 0.672124 0.873177
O O7 0.860050 0.627881 0.101822
O O8 0.500000 0.811708 0.750000
O O9 0.129875 0.823087 0.942728
O O10 0.250000 0.750000 0.000000
O O11 0.500000 0.348323 0.750000
#
# Coordination Sequence:
#
# PCOD8145368 Si02
#       5
#     8   4   8   8   8
#     4  11  21  41  63  89 129 159 211 253 322 351
#     4  10  22  38  64  96 120 162 210 268 294 386
#     4  11  22  41  65  92 122 172 207 249 316 374
#     4  10  25  40  62  96 127 157 214 258 307 369
#     4  11  22  42  65  89 125 172 206 250 315 374
#
# _framework density 21.107021
#
# number of rings (size 3 to 8) (size 9 to 14) (size 15 to 20)
#    0.000    1.333    3.333    1.333    3.111    0.889 
#    0.000   16.667    0.000    0.000    0.000    0.000 
#    0.000    0.000    0.000    0.000    0.000    0.000 
#
# Total GULP energy -223095.509385 kJ/mol
# GULP energy per Si atom -12394.194966 kJ/mol
# Density = 2.105898 g / cm^3
# Si number density = 21.107021 Si / 1000 Ang^3
#
#
#
# Elastic Constant Matrix: (Units=GPa)
#
#
# Indices 1 2 3 4 5 6 
#
# 1 128.0958 82.2046 61.1625 0.0000 28.2833 0.0000
# 2 82.2046 154.3353 64.2702 0.0000 27.0268 0.0000
# 3 61.1625 64.2702 113.1373 0.0000 8.0069 0.0000
# 4 0.0000 0.0000 0.0000 140.9847 0.0000 162.6879
# 5 28.2833 27.0268 8.0069 0.0000 40.3604 0.0000
# 6 0.0000 0.0000 0.0000 162.6879 0.0000 274.1915
#
#
#
# Elastic Compliance Matrix: (Units=1/GPa)
#
#
# Indices 1 2 3 4 5 6 
#
# 1 0.014355 -0.004633 -0.004702 0.000000 -0.006024 0.000000
# 2 -0.004633 0.011007 -0.003506 0.000000 -0.003429 0.000000
# 3 -0.004702 -0.003506 0.013158 0.000000 0.003032 0.000000
# 4 0.000000 0.000000 0.000000 0.022494 0.000000 -0.013347
# 5 -0.006024 -0.003429 0.003032 0.000000 0.030693 0.000000
# 6 0.000000 0.000000 0.000000 -0.013347 0.000000 0.011566
#
#
# Mechanical properties :
#
#
# Convention : Reuss Voigt Hill
#
# Bulk Modulus (GPa) = 77.89088 90.09368 83.99228
# Shear Modulus (GPa) = 37.52760 103.63605 70.58182
#
# Velocity S-wave (km/s) = 4.22117 7.01476 5.78900
# Velocity P-wave (km/s) = 7.79363 10.41086 9.19583
#
# Compressibility (1/GPa) = 0.01283847
#
# Stress axis : x y z
#
# Youngs Moduli (GPa) = 69.66106 90.84751 76.00055
#
# Poissons Ratio (x) = 0.42089 0.35737
# Poissons Ratio (y) = 0.32274 0.26644
# Poissons Ratio (z) = 0.32756 0.31849
#
# Static dielectric constant tensor:
#      x y z
#    x 4.226870 0.000000 0.466390 
#    y 0.000000 3.615490 0.000000 
#    z 0.466390 0.000000 4.214900 
# 
# 
# High freq. dielectric constant tensor:
#      x y z
#    x 1.825250 0.000000 0.016760 
#    y 0.000000 1.819380 0.000000 
#    z 0.016760 0.000000 1.846080 
# 
# From -- ./inp_files/25257.got.cif
#   From: 2010.06.25/outbox.cif.g09.slc.cpg/sg15_13_cif.got.tgz:25257.got - 2010.06.28 07:06:18.
