data_PCOD8145528
_publ_section_title
;
Structure prediction by ZEFSAII (Michael W. Deem and Ramdas Pophale) SiO2 
 PCOD8145528
Probable space group: C 2/C
;
_chemical_formula_sum "Si O2"
_cell_formula_units_Z 56
_cell_length_a 12.454778
_cell_length_b 22.042909
_cell_length_c 11.876328
_cell_angle_alpha 90.000000
_cell_angle_beta 122.252187
_cell_angle_gamma 90.000000
_cell_volume 2757.447420
_symmetry_space_group_name_H-M "C 2/C"
_symmetry_group_IT_number 15
_symmetry_cell_setting 'monoclinic'
loop_
_space_group_symop_operation_xyz
x,y,z
-x,y,1/2-z
-x,-y,-z
x,-y,1/2+z
1/2+x,1/2+y,z
1/2-x,1/2+y,1/2-z
1/2-x,1/2-y,-z
1/2+x,1/2-y,1/2+z
loop_
_atom_site_type_symbol
_atom_site_label
_atom_site_fract_x
_atom_site_fract_y
_atom_site_fract_z
Si Si1 0.792259 0.499728 0.892423
Si Si2 0.210668 0.190630 0.043851
Si Si3 0.362728 0.389018 0.622446
Si Si4 0.918087 0.189104 0.936019
Si Si5 0.837522 0.320471 0.848413
Si Si6 0.982359 0.571005 0.368982
Si Si7 0.356238 0.386148 0.194458
O O1 0.714067 0.452612 0.927674
O O2 0.852386 0.466734 0.817543
O O3 0.702874 0.551853 0.792301
O O4 0.900576 0.530978 0.026676
O O5 0.219256 0.134854 0.960160
O O6 0.068991 0.193100 0.012611
O O7 0.250000 0.250000 0.000000
O O8 0.310105 0.182742 0.199774
O O9 0.500000 0.402833 0.750000
O O10 0.374845 0.356973 0.508623
O O11 0.288787 0.343497 0.662170
O O12 0.869822 0.257413 0.927171
O O13 0.850895 0.166463 0.784398
O O14 0.959485 0.366041 0.926539
O O15 0.000000 0.586944 0.250000
O O16 0.500000 0.402130 0.250000
#
# Coordination Sequence:
#
# PCOD8145528 Si02
#       7
#     8   8   8   8   8   8   8
#     4  10  23  42  62  90 127 164 213 263 311 384
#     4  11  22  39  62  95 129 162 207 261 316 377
#     4  11  23  45  64  91 128 170 218 258 323 387
#     4  11  24  39  66  94 128 168 212 263 319 381
#     4  11  23  40  66  93 129 170 209 268 322 387
#     4  10  23  39  64  93 122 166 214 257 322 375
#     4  10  22  39  60  95 123 157 210 259 316 371
#
# _framework density 20.308637999999998
#
# number of rings (size 3 to 8) (size 9 to 14) (size 15 to 20)
#    0.000    1.429    2.857    1.714    6.000    0.000 
#    0.000    2.143    0.000    0.000    0.000    0.000 
#    0.000    0.000    0.000    0.000    0.000    0.000 
#
# Total GULP energy -347127.887157 kJ/mol
# GULP energy per Si atom -12397.424541 kJ/mol
# Density = 2.026241 g / cm^3
# Si number density = 20.308638 Si / 1000 Ang^3
#
#
#
# Elastic Constant Matrix: (Units=GPa)
#
#
# Indices 1 2 3 4 5 6 
#
# 1 114.8190 70.0544 28.6478 0.0000 -9.3373 0.0000
# 2 70.0544 136.5783 16.2617 0.0000 14.0865 0.0000
# 3 28.6478 16.2617 58.0571 0.0000 3.4590 0.0000
# 4 0.0000 0.0000 0.0000 20.0086 0.0000 -2.1328
# 5 -9.3373 14.0865 3.4590 0.0000 19.0359 0.0000
# 6 0.0000 0.0000 0.0000 -2.1328 0.0000 39.6587
#
#
#
# Elastic Compliance Matrix: (Units=1/GPa)
#
#
# Indices 1 2 3 4 5 6 
#
# 1 0.018300 -0.010383 -0.007192 0.000000 0.017967 0.000000
# 2 -0.010383 0.014029 0.002139 0.000000 -0.015863 0.000000
# 3 -0.007192 0.002139 0.020703 0.000000 -0.008873 0.000000
# 4 0.000000 0.000000 0.000000 0.050267 0.000000 0.002703
# 5 0.017967 -0.015863 -0.008873 0.000000 0.074696 0.000000
# 6 0.000000 0.000000 0.000000 0.002703 0.000000 0.025361
#
#
# Mechanical properties :
#
#
# Convention : Reuss Voigt Hill
#
# Bulk Modulus (GPa) = 45.12762 59.93136 52.52949
# Shear Modulus (GPa) = 20.69412 28.70665 24.70039
#
# Velocity S-wave (km/s) = 3.19561 3.76376 3.49126
# Velocity P-wave (km/s) = 5.99041 6.96148 6.49412
#
# Compressibility (1/GPa) = 0.02215938
#
# Stress axis : x y z
#
# Youngs Moduli (GPa) = 54.64465 71.28058 48.30269
#
# Poissons Ratio (x) = 0.74013 0.34740
# Poissons Ratio (y) = 0.56739 -0.10333
# Poissons Ratio (z) = 0.39301 -0.15248
#
# Static dielectric constant tensor:
#      x y z
#    x 4.012950 0.000000 -0.193330 
#    y 0.000000 3.817370 0.000000 
#    z -0.193330 0.000000 3.896070 
# 
# 
# High freq. dielectric constant tensor:
#      x y z
#    x 1.810900 0.000000 0.002300 
#    y 0.000000 1.809960 0.000000 
#    z 0.002300 0.000000 1.770660 
# 
# From -- ./inp_files/89652.got.cif
#   From: 2010.06.25/outbox.cif.g09.slc.cpg/sg15_45_cif.got.tgz:89652.got - 2010.06.28 07:06:18.
