data_PCOD8145241
_publ_section_title
;
Structure prediction by ZEFSAII (Michael W. Deem and Ramdas Pophale) SiO2 
 PCOD8145241
Probable space group: C 2/C
;
_chemical_formula_sum "Si O2"
_cell_formula_units_Z 64
_cell_length_a 13.627590
_cell_length_b 8.757728
_cell_length_c 28.361430
_cell_angle_alpha 90.000000
_cell_angle_beta 71.749949
_cell_angle_gamma 90.000000
_cell_volume 3214.582284
_symmetry_space_group_name_H-M "C 2/C"
_symmetry_group_IT_number 15
_symmetry_cell_setting 'monoclinic'
loop_
_space_group_symop_operation_xyz
x,y,z
-x,y,1/2-z
-x,-y,-z
x,-y,1/2+z
1/2+x,1/2+y,z
1/2-x,1/2+y,1/2-z
1/2-x,1/2-y,-z
1/2+x,1/2-y,1/2+z
loop_
_atom_site_type_symbol
_atom_site_label
_atom_site_fract_x
_atom_site_fract_y
_atom_site_fract_z
Si Si1 0.863604 0.905541 0.457605
Si Si2 0.930052 0.804647 0.685865
Si Si3 0.397706 0.185609 0.784077
Si Si4 0.070554 0.262462 0.925787
Si Si5 0.795933 0.981932 0.144602
Si Si6 0.698203 0.279247 0.934855
Si Si7 0.128828 0.757311 0.523545
Si Si8 0.960389 0.399459 0.095783
O O1 0.777379 0.859541 0.432375
O O2 0.818188 0.882310 0.516701
O O3 0.959972 0.803428 0.429751
O O4 0.899790 0.080483 0.448488
O O5 0.858292 0.778033 0.743347
O O6 0.884526 0.956528 0.667505
O O7 0.922698 0.660158 0.651873
O O8 0.052746 0.806000 0.684223
O O9 0.500000 0.089694 0.750000
O O10 0.309168 0.072629 0.814726
O O11 0.075886 0.427962 0.901786
O O12 0.160791 0.162806 0.889644
O O13 0.079541 0.268203 0.980225
O O14 0.761843 0.113638 0.113447
O O15 0.590326 0.202370 0.937822
O O16 0.250000 0.750000 0.500000
O O17 0.083039 0.627603 0.566105
#
# Coordination Sequence:
#
# PCOD8145241 Si02
#       8
#     8   8   8   8   8   8   8   8
#     4  11  22  38  56  85 128 165 217 259 307 365
#     4   8  21  41  67  92 121 166 202 272 326 388
#     4   8  21  42  69  95 125 158 210 269 339 387
#     4  12  25  36  60  94 124 173 215 260 312 380
#     4  11  21  42  69  93 128 169 214 260 333 390
#     4  10  22  38  60  85 125 169 208 265 308 375
#     4  12  25  37  58  84 124 175 214 258 314 372
#     4  11  23  41  58  88 129 162 218 262 314 381
#
# _framework density 19.909272999999999
#
# number of rings (size 3 to 8) (size 9 to 14) (size 15 to 20)
#    0.750    0.750    2.500    3.000    7.000    1.000 
#    2.250    0.000    5.500    3.000    0.000    0.000 
#    0.000    0.000    0.000    0.000    0.000    0.000 
#
# Total GULP energy -396468.106338 kJ/mol
# GULP energy per Si atom -12389.628323 kJ/mol
# Density = 1.986396 g / cm^3
# Si number density = 19.909273 Si / 1000 Ang^3
#
#
#
# Elastic Constant Matrix: (Units=GPa)
#
#
# Indices 1 2 3 4 5 6 
#
# 1 71.2776 4.8619 27.2714 0.0000 2.8416 0.0000
# 2 4.8619 69.1326 23.4343 0.0000 10.6591 0.0000
# 3 27.2714 23.4343 78.2855 0.0000 6.0738 0.0000
# 4 0.0000 0.0000 0.0000 22.8412 0.0000 -3.5069
# 5 2.8416 10.6591 6.0738 0.0000 31.6097 0.0000
# 6 0.0000 0.0000 0.0000 -3.5069 0.0000 29.9567
#
#
#
# Elastic Compliance Matrix: (Units=1/GPa)
#
#
# Indices 1 2 3 4 5 6 
#
# 1 0.016246 0.000956 -0.005895 0.000000 -0.000650 0.000000
# 2 0.000956 0.016833 -0.004999 0.000000 -0.004801 0.000000
# 3 -0.005895 -0.004999 0.016396 0.000000 -0.000935 0.000000
# 4 0.000000 0.000000 0.000000 0.044582 0.000000 0.005219
# 5 -0.000650 -0.004801 -0.000935 0.000000 0.033493 0.000000
# 6 0.000000 0.000000 0.000000 0.005219 0.000000 0.033992
#
#
# Mechanical properties :
#
#
# Convention : Reuss Voigt Hill
#
# Bulk Modulus (GPa) = 33.78588 36.64790 35.21689
# Shear Modulus (GPa) = 26.13900 27.75673 26.94786
#
# Velocity S-wave (km/s) = 3.62733 3.73790 3.68303
# Velocity P-wave (km/s) = 5.87794 6.08905 5.98443
#
# Compressibility (1/GPa) = 0.02959816
#
# Stress axis : x y z
#
# Youngs Moduli (GPa) = 61.55405 59.40835 60.98899
#
# Poissons Ratio (x) = -0.05679 0.35954
# Poissons Ratio (y) = -0.05885 0.30490
# Poissons Ratio (z) = 0.36287 0.29700
#
# Static dielectric constant tensor:
#      x y z
#    x 3.667080 0.000000 0.193600 
#    y 0.000000 3.613490 0.000000 
#    z 0.193600 0.000000 3.635260 
# 
# 
# High freq. dielectric constant tensor:
#      x y z
#    x 1.782290 0.000000 0.007230 
#    y 0.000000 1.759210 0.000000 
#    z 0.007230 0.000000 1.772030 
# 
# From -- ./inp_files/295105.got.cif
#   From: 2010.06.25/outbox.cif.g09.slc.cpg/sg15_148_cif.got.tgz:295105.got - 2010.06.28 07:06:18.
