data_PCOD8145852
_publ_section_title
;
Structure prediction by ZEFSAII (Michael W. Deem and Ramdas Pophale) SiO2 
 PCOD8145852
Probable space group: C 2/C
;
_chemical_formula_sum "Si O2"
_cell_formula_units_Z 36
_cell_length_a 7.409473
_cell_length_b 13.796955
_cell_length_c 17.187588
_cell_angle_alpha 90.000000
_cell_angle_beta 105.446590
_cell_angle_gamma 90.000000
_cell_volume 1693.589248
_symmetry_space_group_name_H-M "C 2/C"
_symmetry_group_IT_number 15
_symmetry_cell_setting 'monoclinic'
loop_
_space_group_symop_operation_xyz
x,y,z
-x,y,1/2-z
-x,-y,-z
x,-y,1/2+z
1/2+x,1/2+y,z
1/2-x,1/2+y,1/2-z
1/2-x,1/2-y,-z
1/2+x,1/2-y,1/2+z
loop_
_atom_site_type_symbol
_atom_site_label
_atom_site_fract_x
_atom_site_fract_y
_atom_site_fract_z
Si Si1 0.086737 0.293655 0.341589
Si Si2 0.687131 0.996201 0.805276
Si Si3 0.498225 0.711484 0.597989
Si Si4 0.151971 0.833458 0.574141
Si Si5 0.500000 0.588838 0.750000
O O1 0.116627 0.410364 0.346645
O O2 0.291497 0.246221 0.375538
O O3 0.000000 0.259906 0.250000
O O4 0.951352 0.254555 0.393000
O O5 0.500000 0.943084 0.750000
O O6 0.814654 0.026960 0.746598
O O7 0.823249 0.929715 0.872237
O O8 0.361561 0.802709 0.574972
O O9 0.465818 0.643878 0.517715
O O10 0.448945 0.652980 0.669768
#
# Coordination Sequence:
#
# PCOD8145852 Si02
#       5
#     8   8   8   8   4
#     4  10  22  40  61  89 127 164 206 263 308 372
#     4  10  23  39  62  94 123 164 215 256 308 382
#     4  10  22  41  61  90 126 160 206 260 310 374
#     4  11  23  38  65  92 122 167 208 254 320 375
#     4  10  22  42  62  84 126 164 202 264 318 360
#
# _framework density 21.256630999999999
#
# number of rings (size 3 to 8) (size 9 to 14) (size 15 to 20)
#    0.000    1.778    0.000    4.667    6.222    3.556 
#    0.000   10.000    0.000    0.000    0.000    0.000 
#    0.000    0.000    0.000    0.000    0.000    0.000 
#
# Total GULP energy -223134.608057 kJ/mol
# GULP energy per Si atom -12396.367114 kJ/mol
# Density = 2.120825 g / cm^3
# Si number density = 21.256631 Si / 1000 Ang^3
#
#
#
# Elastic Constant Matrix: (Units=GPa)
#
#
# Indices 1 2 3 4 5 6 
#
# 1 121.5830 32.6656 45.5104 0.0000 22.9563 0.0000
# 2 32.6656 59.3690 37.2453 0.0000 -3.4880 0.0000
# 3 45.5104 37.2453 165.8892 0.0000 10.3207 0.0000
# 4 0.0000 0.0000 0.0000 10.3448 0.0000 1.8155
# 5 22.9563 -3.4880 10.3207 0.0000 38.0012 0.0000
# 6 0.0000 0.0000 0.0000 1.8155 0.0000 20.8777
#
#
#
# Elastic Compliance Matrix: (Units=1/GPa)
#
#
# Indices 1 2 3 4 5 6 
#
# 1 0.011737 -0.005991 -0.001424 0.000000 -0.007253 0.000000
# 2 -0.005991 0.023016 -0.003947 0.000000 0.006804 0.000000
# 3 -0.001424 -0.003947 0.007399 0.000000 -0.001512 0.000000
# 4 0.000000 0.000000 0.000000 0.098165 0.000000 -0.008536
# 5 -0.007253 0.006804 -0.001512 0.000000 0.031732 0.000000
# 6 0.000000 0.000000 0.000000 -0.008536 0.000000 0.048640
#
#
# Mechanical properties :
#
#
# Convention : Reuss Voigt Hill
#
# Bulk Modulus (GPa) = 51.47082 64.18709 57.82895
# Shear Modulus (GPa) = 20.00895 29.27273 24.64084
#
# Velocity S-wave (km/s) = 3.07140 3.71497 3.40841
# Velocity P-wave (km/s) = 6.06997 6.97590 6.53864
#
# Compressibility (1/GPa) = 0.01942849
#
# Stress axis : x y z
#
# Youngs Moduli (GPa) = 85.20249 43.44790 135.15385
#
# Poissons Ratio (x) = 0.26029 0.19240
# Poissons Ratio (y) = 0.51043 0.53350
# Poissons Ratio (z) = 0.12129 0.17150
#
# Static dielectric constant tensor:
#      x y z
#    x 4.157000 0.000000 0.236570 
#    y 0.000000 3.441560 0.000000 
#    z 0.236570 0.000000 4.093440 
# 
# 
# High freq. dielectric constant tensor:
#      x y z
#    x 1.854470 0.000000 0.013790 
#    y 0.000000 1.797980 0.000000 
#    z 0.013790 0.000000 1.842450 
# 
# From -- ./inp_files/188146.got.cif
#   From: 2010.06.25/outbox.cif.g09.slc.cpg/sg15_95_cif.got.tgz:188146.got - 2010.06.28 07:06:18.
