data_PCOD8145525
_publ_section_title
;
Structure prediction by ZEFSAII (Michael W. Deem and Ramdas Pophale) SiO2 
 PCOD8145525
Probable space group: C 2/C
;
_chemical_formula_sum "Si O2"
_cell_formula_units_Z 56
_cell_length_a 15.383858
_cell_length_b 17.395562
_cell_length_c 11.791084
_cell_angle_alpha 90.000000
_cell_angle_beta 116.876416
_cell_angle_gamma 90.000000
_cell_volume 2814.585011
_symmetry_space_group_name_H-M "C 2/C"
_symmetry_group_IT_number 15
_symmetry_cell_setting 'monoclinic'
loop_
_space_group_symop_operation_xyz
x,y,z
-x,y,1/2-z
-x,-y,-z
x,-y,1/2+z
1/2+x,1/2+y,z
1/2-x,1/2+y,1/2-z
1/2-x,1/2-y,-z
1/2+x,1/2-y,1/2+z
loop_
_atom_site_type_symbol
_atom_site_label
_atom_site_fract_x
_atom_site_fract_y
_atom_site_fract_z
Si Si1 0.108245 0.792985 0.487277
Si Si2 0.609764 0.850326 0.825880
Si Si3 0.407189 0.500154 0.864146
Si Si4 0.783276 0.942940 0.981696
Si Si5 0.743247 0.208534 0.222641
Si Si6 0.896178 0.839774 0.421156
Si Si7 0.648005 0.408487 0.867044
O O1 0.120816 0.728295 0.400923
O O2 0.143255 0.871923 0.447498
O O3 0.172679 0.773527 0.635948
O O4 0.995455 0.793940 0.457040
O O5 0.500000 0.879391 0.750000
O O6 0.671209 0.916835 0.923656
O O7 0.654316 0.836944 0.727836
O O8 0.311468 0.467001 0.870075
O O9 0.386820 0.590115 0.824388
O O10 0.428415 0.443659 0.770391
O O11 0.500000 0.500000 0.000000
O O12 0.789677 0.014990 0.068896
O O13 0.699694 0.287302 0.145767
O O14 0.784877 0.158390 0.144156
O O15 0.903966 0.875384 0.552454
#
# Coordination Sequence:
#
# PCOD8145525 Si02
#       7
#     8   8   8   8   8   8   8
#     4  11  22  40  61  98 124 164 212 262 315 380
#     4  11  22  40  66  88 123 166 217 266 304 374
#     4  11  21  39  59  96 129 162 199 254 329 380
#     4  10  22  39  60  92 123 161 209 254 323 366
#     4  11  22  43  62  91 128 165 214 257 320 381
#     4  11  24  39  65  97 127 170 210 253 330 381
#     4  11  24  40  65  90 136 163 203 267 315 387
#
# _framework density 19.896360999999999
#
# number of rings (size 3 to 8) (size 9 to 14) (size 15 to 20)
#    0.000    1.143    5.714    2.143    4.000    5.143 
#    0.000    0.714    6.286    0.000    0.000    0.000 
#    0.000    0.000    0.000    0.000    0.000    0.000 
#
# Total GULP energy -347043.284310 kJ/mol
# GULP energy per Si atom -12394.403011 kJ/mol
# Density = 1.985108 g / cm^3
# Si number density = 19.896361 Si / 1000 Ang^3
#
#
#
# Elastic Constant Matrix: (Units=GPa)
#
#
# Indices 1 2 3 4 5 6 
#
# 1 86.2969 28.8734 14.9505 0.0000 10.1705 0.0000
# 2 28.8734 97.8006 28.8532 0.0000 11.2584 0.0000
# 3 14.9505 28.8532 50.9433 0.0000 2.3714 0.0000
# 4 0.0000 0.0000 0.0000 36.8112 0.0000 -4.5567
# 5 10.1705 11.2584 2.3714 0.0000 28.8493 0.0000
# 6 0.0000 0.0000 0.0000 -4.5567 0.0000 30.1803
#
#
#
# Elastic Compliance Matrix: (Units=1/GPa)
#
#
# Indices 1 2 3 4 5 6 
#
# 1 0.013329 -0.002927 -0.002096 0.000000 -0.003384 0.000000
# 2 -0.002927 0.013457 -0.006592 0.000000 -0.003678 0.000000
# 3 -0.002096 -0.006592 0.023916 0.000000 0.001346 0.000000
# 4 0.000000 0.000000 0.000000 0.027683 0.000000 0.004180
# 5 -0.003384 -0.003678 0.001346 0.000000 0.037181 0.000000
# 6 0.000000 0.000000 0.000000 0.004180 0.000000 0.033765
#
#
# Mechanical properties :
#
#
# Convention : Reuss Voigt Hill
#
# Bulk Modulus (GPa) = 36.40090 42.26611 39.33351
# Shear Modulus (GPa) = 27.51511 29.99242 28.75377
#
# Velocity S-wave (km/s) = 3.72280 3.88678 3.80567
# Velocity P-wave (km/s) = 6.06745 6.43677 6.25484
#
# Compressibility (1/GPa) = 0.02747185
#
# Stress axis : x y z
#
# Youngs Moduli (GPa) = 75.02252 74.31030 41.81373
#
# Poissons Ratio (x) = 0.21751 0.08766
# Poissons Ratio (y) = 0.21960 0.27562
# Poissons Ratio (z) = 0.15728 0.48982
#
# Static dielectric constant tensor:
#      x y z
#    x 3.720870 0.000000 -0.024130 
#    y 0.000000 3.905870 0.000000 
#    z -0.024130 0.000000 3.659900 
# 
# 
# High freq. dielectric constant tensor:
#      x y z
#    x 1.773300 0.000000 -0.006470 
#    y 0.000000 1.779420 0.000000 
#    z -0.006470 0.000000 1.770100 
# 
# From -- ./inp_files/98386.got.cif
#   From: 2010.06.25/outbox.cif.g09.slc.cpg/sg15_50_cif.got.tgz:98386.got - 2010.06.28 07:06:18.
