data_PCOD8145781
_publ_section_title
;
Structure prediction by ZEFSAII (Michael W. Deem and Ramdas Pophale) SiO2 
 PCOD8145781
Probable space group: C 2/C
;
_chemical_formula_sum "Si O2"
_cell_formula_units_Z 56
_cell_length_a 18.824544
_cell_length_b 11.873436
_cell_length_c 18.533407
_cell_angle_alpha 90.000000
_cell_angle_beta 137.385728
_cell_angle_gamma 90.000000
_cell_volume 2804.677013
_symmetry_space_group_name_H-M "C 2/C"
_symmetry_group_IT_number 15
_symmetry_cell_setting 'monoclinic'
loop_
_space_group_symop_operation_xyz
x,y,z
-x,y,1/2-z
-x,-y,-z
x,-y,1/2+z
1/2+x,1/2+y,z
1/2-x,1/2+y,1/2-z
1/2-x,1/2-y,-z
1/2+x,1/2-y,1/2+z
loop_
_atom_site_type_symbol
_atom_site_label
_atom_site_fract_x
_atom_site_fract_y
_atom_site_fract_z
Si Si1 0.500000 0.819477 0.750000
Si Si2 0.524573 0.834025 0.130385
Si Si3 0.191670 0.051942 0.341183
Si Si4 0.909677 0.164053 0.801595
Si Si5 0.396123 0.051929 0.048726
Si Si6 0.270695 0.272392 0.748060
Si Si7 0.567613 0.263046 0.522736
Si Si8 0.000000 0.192723 0.250000
O O1 0.426383 0.742636 0.744949
O O2 0.581035 0.895615 0.855818
O O3 0.652819 0.825380 0.228391
O O4 0.477009 0.769819 0.163602
O O5 0.488150 0.962621 0.101988
O O6 0.487911 0.771085 0.028952
O O7 0.248476 0.130612 0.324899
O O8 0.103510 0.116493 0.320424
O O9 0.133146 0.954803 0.253704
O O10 0.280937 0.005694 0.461939
O O11 0.838794 0.223647 0.808612
O O12 0.018845 0.151281 0.927666
O O13 0.396994 0.146702 0.988466
O O14 0.329972 0.321098 0.864428
#
# Coordination Sequence:
#
# PCOD8145781 Si02
#       8
#     4   8   8   8   8   8   8   4
#     4  10  26  38  58  94 124 156 210 250 304 362
#     4   9  19  37  60  86 121 153 194 258 291 358
#     4  11  22  39  64  85 122 168 198 244 315 358
#     4  11  21  41  60  89 123 161 200 258 302 361
#     4  11  20  40  65  89 117 164 203 255 304 354
#     4   9  21  38  59  93 114 154 207 251 295 363
#     4   9  20  37  61  89 119 150 206 259 293 347
#     4  10  22  40  54  92 130 154 204 240 304 372
#
# _framework density 19.966649
#
# number of rings (size 3 to 8) (size 9 to 14) (size 15 to 20)
#    0.857    1.143    1.429    2.143    0.000    5.143 
#    2.571    1.429    0.000    0.000    0.000    0.000 
#    0.000    0.000    0.000    0.000    0.000    0.000 
#
# Total GULP energy -346964.522825 kJ/mol
# GULP energy per Si atom -12391.590101 kJ/mol
# Density = 1.992120 g / cm^3
# Si number density = 19.966649 Si / 1000 Ang^3
#
#
#
# Elastic Constant Matrix: (Units=GPa)
#
#
# Indices 1 2 3 4 5 6 
#
# 1 94.1686 22.2961 18.7162 0.0000 -6.6176 0.0000
# 2 22.2961 38.7784 1.3622 0.0000 2.3452 0.0000
# 3 18.7162 1.3622 63.3885 0.0000 -10.1764 0.0000
# 4 0.0000 0.0000 0.0000 26.3025 0.0000 2.1868
# 5 -6.6176 2.3452 -10.1764 0.0000 32.8884 0.0000
# 6 0.0000 0.0000 0.0000 2.1868 0.0000 12.0999
#
#
#
# Elastic Compliance Matrix: (Units=1/GPa)
#
#
# Indices 1 2 3 4 5 6 
#
# 1 0.013254 -0.007632 -0.003403 0.000000 0.002158 0.000000
# 2 -0.007632 0.030342 0.001060 0.000000 -0.003371 0.000000
# 3 -0.003403 0.001060 0.017505 0.000000 0.004656 0.000000
# 4 0.000000 0.000000 0.000000 0.038599 0.000000 -0.006976
# 5 0.002158 -0.003371 0.004656 0.000000 0.032521 0.000000
# 6 0.000000 0.000000 0.000000 -0.006976 0.000000 0.083906
#
#
# Mechanical properties :
#
#
# Convention : Reuss Voigt Hill
#
# Bulk Modulus (GPa) = 24.29992 31.23162 27.76577
# Shear Modulus (GPa) = 20.01644 24.52222 22.26933
#
# Velocity S-wave (km/s) = 3.16965 3.50831 3.34327
# Velocity P-wave (km/s) = 5.05888 5.66453 5.37025
#
# Compressibility (1/GPa) = 0.04115240
#
# Stress axis : x y z
#
# Youngs Moduli (GPa) = 75.44784 32.95750 57.12580
#
# Poissons Ratio (x) = 0.25152 0.19440
# Poissons Ratio (y) = 0.57579 -0.06056
# Poissons Ratio (z) = 0.25675 -0.03494
#
# Static dielectric constant tensor:
#      x y z
#    x 3.588300 0.000000 -0.117380 
#    y 0.000000 3.451750 0.000000 
#    z -0.117380 0.000000 3.638510 
# 
# 
# High freq. dielectric constant tensor:
#      x y z
#    x 1.778480 0.000000 -0.008840 
#    y 0.000000 1.762890 0.000000 
#    z -0.008840 0.000000 1.783860 
# 
# From -- ./inp_files/252440.got.cif
#   From: 2010.06.25/outbox.cif.g09.slc.cpg/sg15_127_cif.got.tgz:252440.got - 2010.06.28 07:06:18.
