data_PCOD8145077
_publ_section_title
;
Structure prediction by ZEFSAII (Michael W. Deem and Ramdas Pophale) SiO2 
 PCOD8145077
Probable space group: C 2/C
;
_chemical_formula_sum "Si O2"
_cell_formula_units_Z 64
_cell_length_a 24.647846
_cell_length_b 14.017233
_cell_length_c 18.948670
_cell_angle_alpha 90.000000
_cell_angle_beta 32.214453
_cell_angle_gamma 90.000000
_cell_volume 3489.958792
_symmetry_space_group_name_H-M "C 2/C"
_symmetry_group_IT_number 15
_symmetry_cell_setting 'monoclinic'
loop_
_space_group_symop_operation_xyz
x,y,z
-x,y,1/2-z
-x,-y,-z
x,-y,1/2+z
1/2+x,1/2+y,z
1/2-x,1/2+y,1/2-z
1/2-x,1/2-y,-z
1/2+x,1/2-y,1/2+z
loop_
_atom_site_type_symbol
_atom_site_label
_atom_site_fract_x
_atom_site_fract_y
_atom_site_fract_z
Si Si1 0.743566 0.930545 0.842660
Si Si2 0.592406 0.430084 0.556036
Si Si3 0.919655 0.064405 0.047868
Si Si4 0.813757 0.359914 0.126494
Si Si5 0.480819 0.755986 0.590097
Si Si6 0.309186 0.301842 0.373084
Si Si7 0.151885 0.241016 0.900676
Si Si8 0.864269 0.012819 0.340871
O O1 0.840375 0.896574 0.691338
O O2 0.667283 0.842534 0.921488
O O3 0.775369 0.946609 0.888761
O O4 0.697113 0.025837 0.858752
O O5 0.638427 0.501700 0.446970
O O6 0.605850 0.322845 0.513951
O O7 0.653502 0.445495 0.561388
O O8 0.473314 0.453371 0.693439
O O9 0.972327 0.151545 0.950354
O O10 0.000000 0.000000 0.000000
O O11 0.771482 0.322650 0.099137
O O12 0.752801 0.309165 0.257431
O O13 0.933587 0.337069 0.998880
O O14 0.397226 0.767428 0.744397
O O15 0.430742 0.758987 0.568536
O O16 0.250000 0.250000 0.500000
O O17 0.359819 0.398264 0.347052
#
# Coordination Sequence:
#
# PCOD8145077 Si02
#       8
#     8   8   8   8   8   8   8   8
#     4  11  21  38  59  84 123 152 196 247 291 344
#     4  11  21  34  59  91 114 147 204 239 296 345
#     4  12  17  34  63  86 114 148 194 253 286 338
#     4  10  22  37  57  88 117 156 195 240 298 349
#     4  11  21  36  59  89 120 152 191 239 302 352
#     4  10  22  37  57  90 121 151 196 239 302 360
#     4  11  22  36  61  88 113 155 199 246 286 347
#     4  10  22  37  58  85 118 154 190 252 293 341
#
# _framework density 18.338325000000001
#
# number of rings (size 3 to 8) (size 9 to 14) (size 15 to 20)
#    0.000    1.250    6.250    0.750    1.750    1.500 
#    0.000    0.000    0.000    3.000    0.000    0.000 
#    0.000    0.000    0.000    0.000    0.000    0.000 
#
# Total GULP energy -396796.168312 kJ/mol
# GULP energy per Si atom -12399.880260 kJ/mol
# Density = 1.829659 g / cm^3
# Si number density = 18.338325 Si / 1000 Ang^3
#
#
#
# Elastic Constant Matrix: (Units=GPa)
#
#
# Indices 1 2 3 4 5 6 
#
# 1 101.0545 55.6376 46.0990 0.0000 6.9477 0.0000
# 2 55.6376 121.4488 43.4639 0.0000 -2.4412 0.0000
# 3 46.0990 43.4639 92.3179 0.0000 2.4452 0.0000
# 4 0.0000 0.0000 0.0000 36.0522 0.0000 -2.2884
# 5 6.9477 -2.4412 2.4452 0.0000 28.4577 0.0000
# 6 0.0000 0.0000 0.0000 -2.2884 0.0000 24.2340
#
#
#
# Elastic Compliance Matrix: (Units=1/GPa)
#
#
# Indices 1 2 3 4 5 6 
#
# 1 0.015401 -0.005310 -0.005091 0.000000 -0.003778 0.000000
# 2 -0.005310 0.011778 -0.002962 0.000000 0.002561 0.000000
# 3 -0.005091 -0.002962 0.014776 0.000000 -0.000281 0.000000
# 4 0.000000 0.000000 0.000000 0.027905 0.000000 0.002635
# 5 -0.003778 0.002561 -0.000281 0.000000 0.036306 0.000000
# 6 0.000000 0.000000 0.000000 0.002635 0.000000 0.041513
#
#
# Mechanical properties :
#
#
# Convention : Reuss Voigt Hill
#
# Bulk Modulus (GPa) = 65.65510 67.24692 66.45101
# Shear Modulus (GPa) = 27.85845 29.05684 28.45764
#
# Velocity S-wave (km/s) = 3.90184 3.98488 3.94358
# Velocity P-wave (km/s) = 7.49526 7.61066 7.55318
#
# Compressibility (1/GPa) = 0.01523111
#
# Stress axis : x y z
#
# Youngs Moduli (GPa) = 64.93125 84.90670 67.67788
#
# Poissons Ratio (x) = 0.45081 0.34452
# Poissons Ratio (y) = 0.34475 0.20043
# Poissons Ratio (z) = 0.33054 0.25145
#
# Static dielectric constant tensor:
#      x y z
#    x 3.524870 0.000000 0.116730 
#    y 0.000000 3.380960 0.000000 
#    z 0.116730 0.000000 3.391300 
# 
# 
# High freq. dielectric constant tensor:
#      x y z
#    x 1.712700 0.000000 0.008240 
#    y 0.000000 1.706300 0.000000 
#    z 0.008240 0.000000 1.697990 
# 
# From -- ./inp_files/257512.got.cif
#   From: 2010.06.25/outbox.cif.g09.slc.cpg/sg15_129_cif.got.tgz:257512.got - 2010.06.28 07:06:18.
