data_PCOD8145834
_publ_section_title
;
Structure prediction by ZEFSAII (Michael W. Deem and Ramdas Pophale) SiO2 
 PCOD8145834
Probable space group: C 2/C
;
_chemical_formula_sum "Si O2"
_cell_formula_units_Z 52
_cell_length_a 10.913625
_cell_length_b 8.553544
_cell_length_c 25.481331
_cell_angle_alpha 90.000000
_cell_angle_beta 77.469894
_cell_angle_gamma 90.000000
_cell_volume 2322.031408
_symmetry_space_group_name_H-M "C 2/C"
_symmetry_group_IT_number 15
_symmetry_cell_setting 'monoclinic'
loop_
_space_group_symop_operation_xyz
x,y,z
-x,y,1/2-z
-x,-y,-z
x,-y,1/2+z
1/2+x,1/2+y,z
1/2-x,1/2+y,1/2-z
1/2-x,1/2-y,-z
1/2+x,1/2-y,1/2+z
loop_
_atom_site_type_symbol
_atom_site_label
_atom_site_fract_x
_atom_site_fract_y
_atom_site_fract_z
Si Si1 0.614298 0.931039 0.521750
Si Si2 0.500000 0.609841 0.250000
Si Si3 0.262899 0.037908 0.310431
Si Si4 0.391182 0.430779 0.473282
Si Si5 0.487151 0.052627 0.355547
Si Si6 0.184302 0.654446 0.789952
Si Si7 0.494890 0.584388 0.648970
O O1 0.615745 0.748650 0.509855
O O2 0.751872 0.004861 0.495842
O O3 0.585880 0.969652 0.584185
O O4 0.500000 0.000000 0.500000
O O5 0.391804 0.721298 0.238281
O O6 0.452093 0.500236 0.303293
O O7 0.394257 0.978311 0.320658
O O8 0.278202 0.228481 0.311650
O O9 0.243673 0.968197 0.253649
O O10 0.141967 0.983817 0.354401
O O11 0.500000 0.500000 0.500000
O O12 0.417633 0.453990 0.408947
O O13 0.523456 0.230826 0.340458
O O14 0.608415 0.942360 0.340762
#
# Coordination Sequence:
#
# PCOD8145834 Si02
#       7
#     8   4   8   8   8   8   8
#     4  10  24  44  67 101 130 171 231 276 340 400
#     4  10  22  40  60  94 132 168 216 268 322 404
#     4  11  23  40  61  93 129 172 213 269 325 398
#     4  10  22  46  70  96 133 174 222 285 338 397
#     4  11  23  42  65  91 133 174 213 278 332 395
#     4  11  23  39  63  93 129 170 220 262 329 399
#     4  10  24  40  63  97 129 171 218 267 332 397
#
# _framework density 22.394183000000002
#
# number of rings (size 3 to 8) (size 9 to 14) (size 15 to 20)
#    0.000    1.538    1.538    1.846    6.462    6.769 
#    5.538    0.000    0.000    0.000    0.000    0.000 
#    0.000    0.000    0.000    0.000    0.000    0.000 
#
# Total GULP energy -322282.262935 kJ/mol
# GULP energy per Si atom -12395.471651 kJ/mol
# Density = 2.234321 g / cm^3
# Si number density = 22.394183 Si / 1000 Ang^3
#
#
#
# Elastic Constant Matrix: (Units=GPa)
#
#
# Indices 1 2 3 4 5 6 
#
# 1 97.2219 28.6717 41.5417 0.0000 -12.4696 0.0000
# 2 28.6717 99.1232 57.8209 0.0000 -14.2245 0.0000
# 3 41.5417 57.8209 111.5396 0.0000 -18.1580 0.0000
# 4 0.0000 0.0000 0.0000 36.4901 0.0000 -3.1160
# 5 -12.4696 -14.2245 -18.1580 0.0000 39.7704 0.0000
# 6 0.0000 0.0000 0.0000 -3.1160 0.0000 33.1782
#
#
#
# Elastic Compliance Matrix: (Units=1/GPa)
#
#
# Indices 1 2 3 4 5 6 
#
# 1 0.012458 -0.001162 -0.003748 0.000000 0.001779 0.000000
# 2 -0.001162 0.014703 -0.006905 0.000000 0.001741 0.000000
# 3 -0.003748 -0.006905 0.014419 0.000000 0.002939 0.000000
# 4 0.000000 0.000000 0.000000 0.027626 0.000000 0.002595
# 5 0.001779 0.001741 0.002939 0.000000 0.027667 0.000000
# 6 0.000000 0.000000 0.000000 0.002595 0.000000 0.030384
#
#
# Mechanical properties :
#
#
# Convention : Reuss Voigt Hill
#
# Bulk Modulus (GPa) = 55.71180 62.66147 59.18663
# Shear Modulus (GPa) = 31.87346 33.87778 32.87562
#
# Velocity S-wave (km/s) = 3.77675 3.89368 3.83566
# Velocity P-wave (km/s) = 6.62950 6.94667 6.78994
#
# Compressibility (1/GPa) = 0.01794952
#
# Stress axis : x y z
#
# Youngs Moduli (GPa) = 80.26941 68.01554 69.35146
#
# Poissons Ratio (x) = 0.07903 0.25992
# Poissons Ratio (y) = 0.09327 0.47890
# Poissons Ratio (z) = 0.30084 0.46967
#
# Static dielectric constant tensor:
#      x y z
#    x 4.187880 0.000000 -0.106330 
#    y 0.000000 4.185130 0.000000 
#    z -0.106330 0.000000 3.443480 
# 
# 
# High freq. dielectric constant tensor:
#      x y z
#    x 1.893350 0.000000 -0.007320 
#    y 0.000000 1.889000 0.000000 
#    z -0.007320 0.000000 1.878180 
# 
# From -- ./inp_files/291113.got.cif
#   From: 2010.06.25/outbox.cif.g09.slc.cpg/sg15_146_cif.got.tgz:291113.got - 2010.06.28 07:06:18.
