data_PCOD8145312
_publ_section_title
;
Structure prediction by ZEFSAII (Michael W. Deem and Ramdas Pophale) SiO2 
 PCOD8145312
Probable space group: C 2/C
;
_chemical_formula_sum "Si O2"
_cell_formula_units_Z 60
_cell_length_a 8.325923
_cell_length_b 26.148644
_cell_length_c 26.087605
_cell_angle_alpha 90.000000
_cell_angle_beta 30.609686
_cell_angle_gamma 90.000000
_cell_volume 2891.964855
_symmetry_space_group_name_H-M "C 2/C"
_symmetry_group_IT_number 15
_symmetry_cell_setting 'monoclinic'
loop_
_space_group_symop_operation_xyz
x,y,z
-x,y,1/2-z
-x,-y,-z
x,-y,1/2+z
1/2+x,1/2+y,z
1/2-x,1/2+y,1/2-z
1/2-x,1/2-y,-z
1/2+x,1/2-y,1/2+z
loop_
_atom_site_type_symbol
_atom_site_label
_atom_site_fract_x
_atom_site_fract_y
_atom_site_fract_z
Si Si1 0.476722 0.421233 0.603398
Si Si2 0.286411 0.962171 0.428439
Si Si3 0.256088 0.718509 0.773337
Si Si4 0.133823 0.448907 0.792551
Si Si5 0.639360 0.682114 0.107779
Si Si6 0.806995 0.634966 0.852719
Si Si7 0.674835 0.707910 0.562546
Si Si8 0.000000 0.129546 0.250000
O O1 0.783883 0.443021 0.488586
O O2 0.419965 0.451538 0.672356
O O3 0.518268 0.361182 0.602396
O O4 0.178067 0.428177 0.648899
O O5 0.233966 0.915045 0.405178
O O6 0.598860 0.994801 0.327936
O O7 0.000000 0.000000 0.500000
O O8 0.500000 0.700620 0.750000
O O9 0.432729 0.730172 0.671202
O O10 0.074128 0.768412 0.843332
O O11 0.003408 0.673823 0.834197
O O12 0.209554 0.407150 0.814825
O O13 0.613719 0.665864 0.173642
O O14 0.006582 0.692291 0.995379
O O15 0.478583 0.659860 0.924751
O O16 0.000000 0.617587 0.750000
O O17 0.750000 0.750000 0.500000
#
# Coordination Sequence:
#
# PCOD8145312 Si02
#       8
#     8   8   8   8   8   8   8   4
#     4   9  21  38  63  94 123 160 219 258 324 382
#     4  10  22  39  69  88 125 169 217 265 325 381
#     4  11  26  43  63  97 134 174 211 262 337 382
#     4   9  20  41  59  89 130 164 210 270 323 370
#     4  11  23  40  67  96 131 165 216 273 313 388
#     4  10  24  44  64  92 132 174 215 261 324 393
#     4  11  23  43  67  93 129 174 218 259 320 399
#     4  10  22  38  62  94 128 166 216 266 326 370
#
# _framework density 20.747139000000001
#
# number of rings (size 3 to 8) (size 9 to 14) (size 15 to 20)
#    0.000    1.867    1.333    0.800   14.000    1.600 
#    1.200    2.667    0.000    0.000    0.000    0.000 
#    0.000    0.000    0.000    0.000    0.000    0.000 
#
# Total GULP energy -371972.859007 kJ/mol
# GULP energy per Si atom -12399.095300 kJ/mol
# Density = 2.069992 g / cm^3
# Si number density = 20.747139 Si / 1000 Ang^3
#
#
#
# Elastic Constant Matrix: (Units=GPa)
#
#
# Indices 1 2 3 4 5 6 
#
# 1 71.5945 29.6705 22.4101 -0.0025 1.5659 0.0154
# 2 29.6705 124.9485 59.0836 0.0004 13.3099 0.0011
# 3 22.4101 59.0836 91.6790 0.0025 4.4575 0.0000
# 4 -0.0025 0.0004 0.0025 35.5975 -0.0002 7.8142
# 5 1.5659 13.3099 4.4575 -0.0002 30.3286 -0.0029
# 6 0.0154 0.0011 0.0000 7.8142 -0.0029 25.2979
#
#
#
# Elastic Compliance Matrix: (Units=1/GPa)
#
#
# Indices 1 2 3 4 5 6 
#
# 1 0.015777 -0.002854 -0.002053 0.000004 0.000740 -0.000011
# 2 -0.002854 0.012528 -0.007167 0.000000 -0.004297 0.000001
# 3 -0.002053 -0.007167 0.015984 -0.000002 0.000902 0.000002
# 4 0.000004 0.000000 -0.000002 0.030135 -0.000001 -0.009308
# 5 0.000740 -0.004297 0.000902 -0.000001 0.034687 0.000004
# 6 -0.000011 0.000001 0.000002 -0.009308 0.000004 0.042404
#
#
# Mechanical properties :
#
#
# Convention : Reuss Voigt Hill
#
# Bulk Modulus (GPa) = 49.65138 56.72779 53.18959
# Shear Modulus (GPa) = 27.41553 30.04866 28.73209
#
# Velocity S-wave (km/s) = 3.63907 3.80982 3.72542
# Velocity P-wave (km/s) = 6.45296 6.83775 6.64814
#
# Compressibility (1/GPa) = 0.02014043
#
# Stress axis : x y z
#
# Youngs Moduli (GPa) = 63.38371 79.82169 62.56066
#
# Poissons Ratio (x) = 0.22785 0.12843
# Poissons Ratio (y) = 0.18093 0.44838
# Poissons Ratio (z) = 0.13012 0.57209
#
# Static dielectric constant tensor:
#      x y z
#    x 3.776990 0.000000 0.135030 
#    y 0.000000 3.906050 0.000010 
#    z 0.135030 0.000010 3.556070 
# 
# 
# High freq. dielectric constant tensor:
#      x y z
#    x 1.807140 0.000000 0.013140 
#    y 0.000000 1.811560 0.000000 
#    z 0.013140 0.000000 1.816770 
# 
# From -- ./inp_files/309075.got.cif
#   From: 2010.06.25/outbox.cif.g09.slc.cpg/sg15_155_cif.got.tgz:309075.got - 2010.06.28 07:06:18.
