data_PCOD8145327
_publ_section_title
;
Structure prediction by ZEFSAII (Michael W. Deem and Ramdas Pophale) SiO2 
 PCOD8145327
Probable space group: C 2/C
;
_chemical_formula_sum "Si O2"
_cell_formula_units_Z 60
_cell_length_a 24.310337
_cell_length_b 15.379807
_cell_length_c 18.813088
_cell_angle_alpha 90.000000
_cell_angle_beta 156.098403
_cell_angle_gamma 90.000000
_cell_volume 2849.942462
_symmetry_space_group_name_H-M "C 2/C"
_symmetry_group_IT_number 15
_symmetry_cell_setting 'monoclinic'
loop_
_space_group_symop_operation_xyz
x,y,z
-x,y,1/2-z
-x,-y,-z
x,-y,1/2+z
1/2+x,1/2+y,z
1/2-x,1/2+y,1/2-z
1/2-x,1/2-y,-z
1/2+x,1/2-y,1/2+z
loop_
_atom_site_type_symbol
_atom_site_label
_atom_site_fract_x
_atom_site_fract_y
_atom_site_fract_z
Si Si1 0.412333 0.924598 0.970083
Si Si2 0.930417 0.334304 0.852669
Si Si3 0.732211 0.206936 0.703433
Si Si4 0.299658 0.435580 0.608023
Si Si5 0.421601 0.961166 0.728995
Si Si6 0.824632 0.279421 0.954854
Si Si7 0.656367 0.480574 0.199028
Si Si8 0.000000 0.850508 0.750000
O O1 0.469252 0.908609 0.957988
O O2 0.436957 0.836156 0.044969
O O3 0.250558 0.946389 0.772155
O O4 0.476626 0.001990 0.091192
O O5 0.818121 0.270758 0.753752
O O6 0.864024 0.376435 0.702573
O O7 0.072211 0.290325 0.994837
O O8 0.733481 0.232476 0.787875
O O9 0.801915 0.113689 0.778508
O O10 0.191168 0.467126 0.421415
O O11 0.260884 0.344578 0.597892
O O12 0.318746 0.513030 0.686818
O O13 0.440790 0.416355 0.737524
O O14 0.500000 0.934126 0.750000
O O15 0.886808 0.208585 0.080214
O O16 0.500000 0.500000 0.000000
#
# Coordination Sequence:
#
# PCOD8145327 Si02
#       8
#     8   8   8   8   8   8   8   4
#     4  10  22  41  67  99 128 180 229 272 338 405
#     4  11  26  42  69 103 132 180 231 283 336 405
#     4  11  25  43  67 101 136 175 234 283 345 395
#     4  11  25  41  64  98 131 180 221 271 343 405
#     4  12  21  45  70  92 134 176 229 271 330 412
#     4  10  22  38  63  93 137 164 215 280 339 406
#     4  11  23  42  68  95 137 179 225 286 335 399
#     4  12  24  38  58 102 136 180 206 268 362 402
#
# _framework density 21.053056000000002
#
# number of rings (size 3 to 8) (size 9 to 14) (size 15 to 20)
#    0.000    1.067    4.000    2.400   11.200    1.067 
#    0.000    2.667    0.000    0.000    0.000    0.000 
#    0.000    0.000    0.000    0.000    0.000    0.000 
#
# Total GULP energy -371866.832638 kJ/mol
# GULP energy per Si atom -12395.561088 kJ/mol
# Density = 2.100514 g / cm^3
# Si number density = 21.053056 Si / 1000 Ang^3
#
#
#
# Elastic Constant Matrix: (Units=GPa)
#
#
# Indices 1 2 3 4 5 6 
#
# 1 134.5133 55.3261 43.8811 -0.0003 3.5929 -0.0008
# 2 55.3261 88.4411 38.5146 0.0000 -1.0899 -0.0004
# 3 43.8811 38.5146 94.8536 0.0008 12.0308 -0.0001
# 4 -0.0003 0.0000 0.0008 31.8930 0.0001 -8.7792
# 5 3.5929 -1.0899 12.0308 0.0001 27.7188 -0.0004
# 6 -0.0008 -0.0004 -0.0001 -8.7792 -0.0004 48.9707
#
#
#
# Elastic Compliance Matrix: (Units=1/GPa)
#
#
# Indices 1 2 3 4 5 6 
#
# 1 0.010544 -0.005470 -0.002599 0.000000 -0.000454 0.000000
# 2 -0.005470 0.016835 -0.004740 0.000000 0.003428 0.000000
# 3 -0.002599 -0.004740 0.014446 0.000000 -0.006119 0.000000
# 4 0.000000 0.000000 0.000000 0.032983 0.000000 0.005913
# 5 -0.000454 0.003428 -0.006119 0.000000 0.038926 0.000000
# 6 0.000000 0.000000 0.000000 0.005913 0.000000 0.021480
#
#
# Mechanical properties :
#
#
# Convention : Reuss Voigt Hill
#
# Bulk Modulus (GPa) = 61.70346 65.91684 63.81015
# Shear Modulus (GPa) = 30.07786 33.72224 31.90005
#
# Velocity S-wave (km/s) = 3.78388 4.00656 3.89681
# Velocity P-wave (km/s) = 6.96150 7.26507 7.11490
#
# Compressibility (1/GPa) = 0.01620655
#
# Stress axis : x y z
#
# Youngs Moduli (GPa) = 94.84076 59.39962 69.22307
#
# Poissons Ratio (x) = 0.32489 0.17994
# Poissons Ratio (y) = 0.51874 0.32814
# Poissons Ratio (z) = 0.24653 0.28157
#
# Static dielectric constant tensor:
#      x y z
#    x 4.091770 0.000000 -0.064580 
#    y 0.000000 3.839000 0.000000 
#    z -0.064580 0.000000 3.712870 
# 
# 
# High freq. dielectric constant tensor:
#      x y z
#    x 1.841410 0.000000 0.001750 
#    y 0.000000 1.823870 0.000000 
#    z 0.001750 0.000000 1.805860 
# 
# From -- ./inp_files/257874.got.cif
#   From: 2010.06.25/outbox.cif.g09.slc.cpg/sg15_129_cif.got.tgz:257874.got - 2010.06.28 07:06:18.
