data_PCOD8145731
_publ_section_title
;
Structure prediction by ZEFSAII (Michael W. Deem and Ramdas Pophale) SiO2 
 PCOD8145731
Probable space group: C 2/C
;
_chemical_formula_sum "Si O2"
_cell_formula_units_Z 48
_cell_length_a 20.813021
_cell_length_b 11.590532
_cell_length_c 26.920617
_cell_angle_alpha 90.000000
_cell_angle_beta 20.695908
_cell_angle_gamma 90.000000
_cell_volume 2295.091058
_symmetry_space_group_name_H-M "C 2/C"
_symmetry_group_IT_number 15
_symmetry_cell_setting 'monoclinic'
loop_
_space_group_symop_operation_xyz
x,y,z
-x,y,1/2-z
-x,-y,-z
x,-y,1/2+z
1/2+x,1/2+y,z
1/2-x,1/2+y,1/2-z
1/2-x,1/2-y,-z
1/2+x,1/2-y,1/2+z
loop_
_atom_site_type_symbol
_atom_site_label
_atom_site_fract_x
_atom_site_fract_y
_atom_site_fract_z
Si Si1 0.432296 0.227546 0.996142
Si Si2 0.848105 0.839305 0.499966
Si Si3 0.660537 0.794077 0.822722
Si Si4 0.658736 0.621572 0.605459
Si Si5 0.670847 0.075237 0.662070
Si Si6 0.000568 0.511776 0.614679
O O1 0.642125 0.265896 0.842352
O O2 0.410334 0.105256 0.985516
O O3 0.351161 0.207046 0.109483
O O4 0.314621 0.321789 0.051101
O O5 0.697630 0.738136 0.608972
O O6 0.917390 0.853706 0.393813
O O7 0.024283 0.806207 0.404038
O O8 0.761774 0.953948 0.584021
O O9 0.608184 0.919265 0.839426
O O10 0.500000 0.554794 0.750000
O O11 0.839578 0.547168 0.469509
O O12 0.500000 0.099770 0.750000
O O13 0.624534 0.073298 0.754045
#
# Coordination Sequence:
#
# PCOD8145731 Si02
#       6
#     8   8   8   8   8   8
#     4  12  27  47  69 100 142 184 229 279 342 426
#     4  10  23  40  71 102 138 173 226 286 341 405
#     4  11  26  44  72 102 139 180 227 285 344 409
#     4  10  22  39  67 105 135 174 226 286 343 395
#     4  12  25  47  73  99 137 183 230 282 349 409
#     4  11  25  46  68 100 135 180 234 284 340 411
#
# _framework density 20.914203000000001
#
# number of rings (size 3 to 8) (size 9 to 14) (size 15 to 20)
#    0.000    1.000    3.333    2.000   11.667    4.000 
#    0.000    0.000    0.000    0.000    0.000    0.000 
#    0.000    0.000    0.000    0.000    0.000    0.000 
#
# Total GULP energy -297653.658027 kJ/mol
# GULP energy per Si atom -12402.235751 kJ/mol
# Density = 2.086660 g / cm^3
# Si number density = 20.914203 Si / 1000 Ang^3
#
#
#
# Elastic Constant Matrix: (Units=GPa)
#
#
# Indices 1 2 3 4 5 6 
#
# 1 97.1313 37.6585 27.7987 0.0008 -4.1096 0.0070
# 2 37.6585 94.0942 17.0122 -0.0213 -7.8766 0.0029
# 3 27.7987 17.0122 85.1962 -0.0950 7.4261 -0.0200
# 4 0.0008 -0.0213 -0.0950 11.5802 -0.0010 -3.3160
# 5 -4.1096 -7.8766 7.4261 -0.0010 25.0475 -0.0111
# 6 0.0070 0.0029 -0.0200 -3.3160 -0.0111 7.6886
#
#
#
# Elastic Compliance Matrix: (Units=1/GPa)
#
#
# Indices 1 2 3 4 5 6 
#
# 1 0.013114 -0.004457 -0.003546 -0.000049 0.001802 -0.000038
# 2 -0.004457 0.012995 -0.001471 0.000014 0.003791 0.000007
# 3 -0.003546 -0.001471 0.013632 0.000135 -0.005086 0.000090
# 4 -0.000049 0.000014 0.000135 0.098524 -0.000021 0.042493
# 5 0.001802 0.003791 -0.005086 -0.000021 0.042920 0.000037
# 6 -0.000038 0.000007 0.000090 0.042493 0.000037 0.148390
#
#
# Mechanical properties :
#
#
# Convention : Reuss Voigt Hill
#
# Bulk Modulus (GPa) = 48.09329 49.04005 48.56667
# Shear Modulus (GPa) = 14.06652 21.79340 17.92996
#
# Velocity S-wave (km/s) = 2.59623 3.23156 2.93116
# Velocity P-wave (km/s) = 5.65974 6.11744 5.89304
#
# Compressibility (1/GPa) = 0.02079292
#
# Stress axis : x y z
#
# Youngs Moduli (GPa) = 76.25211 76.95477 73.35693
#
# Poissons Ratio (x) = 0.34296 0.26014
# Poissons Ratio (y) = 0.33983 0.10791
# Poissons Ratio (z) = 0.27041 0.11321
#
# Static dielectric constant tensor:
#      x y z
#    x 3.835150 -0.000020 -0.004480 
#    y -0.000020 3.808870 0.000120 
#    z -0.004480 0.000120 3.777850 
# 
# 
# High freq. dielectric constant tensor:
#      x y z
#    x 1.828140 0.000000 0.004010 
#    y 0.000000 1.821100 0.000010 
#    z 0.004010 0.000010 1.827300 
# 
# From -- ./inp_files/110526.got.cif
#   From: 2010.06.25/outbox.cif.g09.slc.cpg/sg15_56_cif.got.tgz:110526.got - 2010.06.28 07:06:18.
