data_PCOD8145138
_publ_section_title
;
Structure prediction by ZEFSAII (Michael W. Deem and Ramdas Pophale) SiO2 
 PCOD8145138
Probable space group: C 2/C
;
_chemical_formula_sum "Si O2"
_cell_formula_units_Z 60
_cell_length_a 8.189747
_cell_length_b 19.648168
_cell_length_c 27.368208
_cell_angle_alpha 90.000000
_cell_angle_beta 135.904040
_cell_angle_gamma 90.000000
_cell_volume 3064.517674
_symmetry_space_group_name_H-M "C 2/C"
_symmetry_group_IT_number 15
_symmetry_cell_setting 'monoclinic'
loop_
_space_group_symop_operation_xyz
x,y,z
-x,y,1/2-z
-x,-y,-z
x,-y,1/2+z
1/2+x,1/2+y,z
1/2-x,1/2+y,1/2-z
1/2-x,1/2-y,-z
1/2+x,1/2-y,1/2+z
loop_
_atom_site_type_symbol
_atom_site_label
_atom_site_fract_x
_atom_site_fract_y
_atom_site_fract_z
Si Si1 0.611427 0.128998 0.627163
Si Si2 0.221959 0.261058 0.073682
Si Si3 0.100911 0.689449 0.219546
Si Si4 0.983641 0.818056 0.444430
Si Si5 0.500000 0.544537 0.750000
Si Si6 0.705240 0.543251 0.567693
Si Si7 0.994980 0.710414 0.694932
Si Si8 0.074648 0.470241 0.711450
O O1 0.595381 0.191079 0.585966
O O2 0.387400 0.079639 0.568824
O O3 0.603654 0.155401 0.681424
O O4 0.857752 0.088746 0.678819
O O5 0.442295 0.222920 0.143930
O O6 0.297280 0.308426 0.044474
O O7 0.043444 0.205047 0.012961
O O8 0.362869 0.718993 0.272723
O O9 0.111684 0.609689 0.214467
O O10 0.000000 0.710802 0.250000
O O11 0.916953 0.897261 0.427328
O O12 0.767916 0.771955 0.378914
O O13 0.316882 0.502115 0.743604
O O14 0.500000 0.500000 0.500000
O O15 0.852536 0.491664 0.631937
O O16 0.000000 0.676773 0.750000
O O17 0.000000 0.491614 0.750000
#
# Coordination Sequence:
#
# PCOD8145138 Si02
#       8
#     8   8   8   8   4   8   8   8
#     4  10  22  37  64  88 117 158 199 255 306 359
#     4  11  21  40  58  92 121 148 201 251 310 360
#     4  11  21  39  63  89 123 157 196 252 306 359
#     4  10  24  36  62  88 118 160 192 251 308 361
#     4  10  22  38  62  90 120 162 206 254 294 360
#     4  10  22  43  59  83 119 164 199 243 302 362
#     4  11  21  36  60  96 117 151 197 249 317 360
#     4  10  24  40  62  91 120 166 207 244 302 363
#
# _framework density 19.578937
#
# number of rings (size 3 to 8) (size 9 to 14) (size 15 to 20)
#    0.000    1.600    2.667    1.600    2.800    5.867 
#    4.800    0.667    0.000    0.000    0.000    0.000 
#    0.000    0.000    0.000    0.000    0.000    0.000 
#
# Total GULP energy -371899.350949 kJ/mol
# GULP energy per Si atom -12396.645032 kJ/mol
# Density = 1.953437 g / cm^3
# Si number density = 19.578937 Si / 1000 Ang^3
#
#
#
# Elastic Constant Matrix: (Units=GPa)
#
#
# Indices 1 2 3 4 5 6 
#
# 1 105.3329 44.0771 51.4988 0.0001 -3.6090 -0.0001
# 2 44.0771 77.8082 57.0829 0.0001 3.1546 0.0001
# 3 51.4988 57.0829 123.2125 0.0005 5.9400 0.0004
# 4 0.0001 0.0001 0.0005 31.5536 0.0002 2.7251
# 5 -3.6090 3.1546 5.9400 0.0002 32.6661 0.0000
# 6 -0.0001 0.0001 0.0004 2.7251 0.0000 24.0207
#
#
#
# Elastic Compliance Matrix: (Units=1/GPa)
#
#
# Indices 1 2 3 4 5 6 
#
# 1 0.013397 -0.005294 -0.003272 0.000000 0.002586 0.000000
# 2 -0.005294 0.021563 -0.007716 0.000000 -0.001264 0.000000
# 3 -0.003272 -0.007716 0.013155 0.000000 -0.002008 0.000000
# 4 0.000000 0.000000 0.000000 0.032006 0.000000 -0.003631
# 5 0.002586 -0.001264 -0.002008 0.000000 0.031386 0.000000
# 6 0.000000 0.000000 0.000000 -0.003631 0.000000 0.042043
#
#
# Mechanical properties :
#
#
# Convention : Reuss Voigt Hill
#
# Bulk Modulus (GPa) = 64.30137 67.96347 66.13242
# Shear Modulus (GPa) = 26.13727 27.89440 27.01584
#
# Velocity S-wave (km/s) = 3.65769 3.77863 3.71865
# Velocity P-wave (km/s) = 7.12402 7.33658 7.23108
#
# Compressibility (1/GPa) = 0.01555177
#
# Stress axis : x y z
#
# Youngs Moduli (GPa) = 74.64272 46.37498 76.01532
#
# Poissons Ratio (x) = 0.24551 0.24869
# Poissons Ratio (y) = 0.39515 0.58657
# Poissons Ratio (z) = 0.24420 0.35785
#
# Static dielectric constant tensor:
#      x y z
#    x 3.648810 0.000000 0.076470 
#    y 0.000000 3.564720 0.000000 
#    z 0.076470 0.000000 3.679580 
# 
# 
# High freq. dielectric constant tensor:
#      x y z
#    x 1.765530 0.000000 0.009710 
#    y 0.000000 1.761760 0.000000 
#    z 0.009710 0.000000 1.766640 
# 
# From -- ./inp_files/290123.got.cif
#   From: 2010.06.25/outbox.cif.g09.slc.cpg/sg15_146_cif.got.tgz:290123.got - 2010.06.28 07:06:18.
