data_PCOD8145396
_publ_section_title
;
Structure prediction by ZEFSAII (Michael W. Deem and Ramdas Pophale) SiO2 
 PCOD8145396
Probable space group: C 2/C
;
_chemical_formula_sum "Si O2"
_cell_formula_units_Z 48
_cell_length_a 11.156369
_cell_length_b 26.686783
_cell_length_c 13.746172
_cell_angle_alpha 90.000000
_cell_angle_beta 146.859801
_cell_angle_gamma 90.000000
_cell_volume 2237.389831
_symmetry_space_group_name_H-M "C 2/C"
_symmetry_group_IT_number 15
_symmetry_cell_setting 'monoclinic'
loop_
_space_group_symop_operation_xyz
x,y,z
-x,y,1/2-z
-x,-y,-z
x,-y,1/2+z
1/2+x,1/2+y,z
1/2-x,1/2+y,1/2-z
1/2-x,1/2-y,-z
1/2+x,1/2-y,1/2+z
loop_
_atom_site_type_symbol
_atom_site_label
_atom_site_fract_x
_atom_site_fract_y
_atom_site_fract_z
Si Si1 0.074141 0.182208 0.026974
Si Si2 0.220942 0.952513 0.848783
Si Si3 0.843779 0.293249 0.377881
Si Si4 0.017157 0.469019 0.647505
Si Si5 0.804435 0.838622 0.679249
Si Si6 0.223882 0.126306 0.946786
O O1 0.195908 0.235606 0.120516
O O2 0.095047 0.156157 0.144841
O O3 0.201699 0.143394 0.043466
O O4 0.822989 0.190278 0.821235
O O5 0.245881 0.962699 0.747574
O O6 0.252859 0.894278 0.896123
O O7 0.000000 0.972797 0.750000
O O8 0.416516 0.981531 0.032885
O O9 0.797008 0.323638 0.443004
O O10 0.095428 0.303029 0.519180
O O11 0.000000 0.478423 0.750000
O O12 0.896564 0.416896 0.544423
O O13 0.000000 0.814181 0.750000
O O14 0.000000 0.105179 0.750000
#
# Coordination Sequence:
#
# PCOD8145396 Si02
#       6
#     8   8   8   8   8   8
#     4  11  23  40  65  96 128 170 211 267 334 378
#     4  10  23  44  63  92 134 171 214 276 326 391
#     4  11  22  41  63  97 131 165 214 268 325 394
#     4  11  22  40  69  97 126 171 218 270 334 390
#     4  11  24  44  63  88 132 175 223 267 315 389
#     4  10  22  38  65  97 129 163 209 267 330 397
#
# _framework density 21.453569999999999
#
# number of rings (size 3 to 8) (size 9 to 14) (size 15 to 20)
#    0.000    1.333    3.333    2.000    0.000    2.000 
#    6.000    0.000    0.000    0.000    0.000    0.000 
#    0.000    0.000    0.000    0.000    0.000    0.000 
#
# Total GULP energy -297426.158931 kJ/mol
# GULP energy per Si atom -12392.756622 kJ/mol
# Density = 2.140474 g / cm^3
# Si number density = 21.453570 Si / 1000 Ang^3
#
#
#
# Elastic Constant Matrix: (Units=GPa)
#
#
# Indices 1 2 3 4 5 6 
#
# 1 156.1329 26.7237 40.8388 0.0000 11.5107 0.0000
# 2 26.7237 76.9901 26.2033 0.0000 -10.2154 0.0000
# 3 40.8388 26.2033 68.6419 -0.0001 9.2341 0.0001
# 4 0.0000 0.0000 -0.0001 15.2621 -0.0001 7.4074
# 5 11.5107 -10.2154 9.2341 -0.0001 26.3238 0.0001
# 6 0.0000 0.0000 0.0001 7.4074 0.0001 10.0961
#
#
#
# Elastic Compliance Matrix: (Units=1/GPa)
#
#
# Indices 1 2 3 4 5 6 
#
# 1 0.007881 -0.001913 -0.003563 0.000000 -0.002938 0.000000
# 2 -0.001913 0.017282 -0.006795 0.000000 0.009926 0.000000
# 3 -0.003563 -0.006795 0.020390 0.000000 -0.008231 0.000000
# 4 0.000000 0.000000 0.000000 0.101757 0.000000 -0.074658
# 5 -0.002938 0.009926 -0.008231 0.000000 0.046013 -0.000001
# 6 0.000000 0.000000 0.000000 -0.074658 -0.000001 0.153824
#
#
# Mechanical properties :
#
#
# Convention : Reuss Voigt Hill
#
# Bulk Modulus (GPa) = 47.59374 54.36626 50.98000
# Shear Modulus (GPa) = 13.20335 24.20300 18.70318
#
# Velocity S-wave (km/s) = 2.48349 3.36245 2.95583
# Velocity P-wave (km/s) = 5.51873 6.36169 5.95514
#
# Compressibility (1/GPa) = 0.02101117
#
# Stress axis : x y z
#
# Youngs Moduli (GPa) = 126.89023 57.86299 49.04484
#
# Poissons Ratio (x) = 0.11067 0.17476
# Poissons Ratio (y) = 0.24269 0.33325
# Poissons Ratio (z) = 0.45216 0.39317
#
# Static dielectric constant tensor:
#      x y z
#    x 4.311000 0.000000 0.151670 
#    y 0.000000 3.851480 0.000000 
#    z 0.151670 0.000000 4.125720 
# 
# 
# High freq. dielectric constant tensor:
#      x y z
#    x 1.853530 0.000000 0.003740 
#    y 0.000000 1.851860 0.000000 
#    z 0.003740 0.000000 1.825090 
# 
# From -- ./inp_files/148818.got.cif
#   From: 2010.06.25/outbox.cif.g09.slc.cpg/sg15_75_cif.got.tgz:148818.got - 2010.06.28 07:06:18.
