data_PCOD8145509
_publ_section_title
;
Structure prediction by ZEFSAII (Michael W. Deem and Ramdas Pophale) SiO2 
 PCOD8145509
Probable space group: C 2/C
;
_chemical_formula_sum "Si O2"
_cell_formula_units_Z 52
_cell_length_a 11.923120
_cell_length_b 24.555437
_cell_length_c 8.902736
_cell_angle_alpha 90.000000
_cell_angle_beta 66.627790
_cell_angle_gamma 90.000000
_cell_volume 2392.647680
_symmetry_space_group_name_H-M "C 2/C"
_symmetry_group_IT_number 15
_symmetry_cell_setting 'monoclinic'
loop_
_space_group_symop_operation_xyz
x,y,z
-x,y,1/2-z
-x,-y,-z
x,-y,1/2+z
1/2+x,1/2+y,z
1/2-x,1/2+y,1/2-z
1/2-x,1/2-y,-z
1/2+x,1/2-y,1/2+z
loop_
_atom_site_type_symbol
_atom_site_label
_atom_site_fract_x
_atom_site_fract_y
_atom_site_fract_z
Si Si1 0.174144 0.034141 0.408939
Si Si2 0.872296 0.440674 0.251633
Si Si3 0.202874 0.324472 0.126506
Si Si4 0.386315 0.899654 0.906054
Si Si5 0.000000 0.990859 0.750000
Si Si6 0.140410 0.718515 0.984814
Si Si7 0.936590 0.230232 0.437543
O O1 0.259557 0.086251 0.389559
O O2 0.090016 0.045117 0.306911
O O3 0.261581 0.981943 0.338309
O O4 0.084937 0.028107 0.599037
O O5 0.840302 0.386469 0.363469
O O6 0.000000 0.463887 0.250000
O O7 0.887512 0.428295 0.067707
O O8 0.174177 0.300046 0.301890
O O9 0.132915 0.288472 0.039708
O O10 0.347831 0.319715 0.024528
O O11 0.500000 0.922655 0.750000
O O12 0.395433 0.834526 0.901972
O O13 0.028344 0.761002 0.028651
O O14 0.250000 0.750000 0.000000
O O15 0.000000 0.212872 0.250000
#
# Coordination Sequence:
#
# PCOD8145509 Si02
#       7
#     8   8   8   8   4   8   8
#     4  11  23  46  69  96 130 175 216 269 328 395
#     4  11  23  42  67  98 132 170 221 274 332 379
#     4   9  19  38  62  85 123 167 203 259 322 376
#     4  11  25  42  68  98 131 169 223 277 325 390
#     4  10  24  46  68  88 136 170 214 264 320 398
#     4  10  22  39  59  92 125 165 206 266 322 381
#     4   9  18  38  61  86 124 162 212 262 316 381
#
# _framework density 21.733245
#
# number of rings (size 3 to 8) (size 9 to 14) (size 15 to 20)
#    0.000    1.846    1.538    2.769    4.308    1.231 
#    9.692    0.000    0.000    0.000    0.000    0.000 
#    0.000    0.000    0.000    0.000    0.000    0.000 
#
# Total GULP energy -322387.301247 kJ/mol
# GULP energy per Si atom -12399.511586 kJ/mol
# Density = 2.168378 g / cm^3
# Si number density = 21.733245 Si / 1000 Ang^3
#
#
#
# Elastic Constant Matrix: (Units=GPa)
#
#
# Indices 1 2 3 4 5 6 
#
# 1 182.2436 26.8670 49.7330 0.0000 -0.4875 0.0000
# 2 26.8670 45.7391 31.1101 0.0000 -3.4779 0.0000
# 3 49.7330 31.1101 88.8668 0.0000 -19.4315 0.0000
# 4 0.0000 0.0000 0.0000 12.7579 0.0000 2.9077
# 5 -0.4875 -3.4779 -19.4315 0.0000 39.6151 0.0000
# 6 0.0000 0.0000 0.0000 2.9077 0.0000 26.1253
#
#
#
# Elastic Compliance Matrix: (Units=1/GPa)
#
#
# Indices 1 2 3 4 5 6 
#
# 1 0.006699 -0.001645 -0.003569 0.000000 -0.001813 0.000000
# 2 -0.001645 0.029360 -0.009855 0.000000 -0.002277 0.000000
# 3 -0.003569 -0.009855 0.018484 0.000000 0.008158 0.000000
# 4 0.000000 0.000000 0.000000 0.080423 0.000000 -0.008951
# 5 -0.001813 -0.002277 0.008158 0.000000 0.029022 0.000000
# 6 0.000000 0.000000 0.000000 -0.008951 0.000000 0.039273
#
#
# Mechanical properties :
#
#
# Convention : Reuss Voigt Hill
#
# Bulk Modulus (GPa) = 40.97833 59.14108 50.05971
# Shear Modulus (GPa) = 20.70093 29.64227 25.17160
#
# Velocity S-wave (km/s) = 3.08961 3.69713 3.40694
# Velocity P-wave (km/s) = 5.62349 6.74510 6.20967
#
# Compressibility (1/GPa) = 0.02440314
#
# Stress axis : x y z
#
# Youngs Moduli (GPa) = 149.27824 34.06051 54.10009
#
# Poissons Ratio (x) = 0.05603 0.19311
# Poissons Ratio (y) = 0.24555 0.53318
# Poissons Ratio (z) = 0.53285 0.33568
#
# Static dielectric constant tensor:
#      x y z
#    x 4.229360 0.000000 -0.084090 
#    y 0.000000 3.704510 0.000000 
#    z -0.084090 0.000000 3.991600 
# 
# 
# High freq. dielectric constant tensor:
#      x y z
#    x 1.872520 0.000000 -0.007430 
#    y 0.000000 1.826480 0.000000 
#    z -0.007430 0.000000 1.859720 
# 
# From -- ./inp_files/34068.got.cif
#   From: 2010.06.25/outbox.cif.g09.slc.cpg/sg15_18_cif.got.tgz:34068.got - 2010.06.28 07:06:18.
