data_PCOD8145163
_publ_section_title
;
Structure prediction by ZEFSAII (Michael W. Deem and Ramdas Pophale) SiO2 
 PCOD8145163
Probable space group: C 2/C
;
_chemical_formula_sum "Si O2"
_cell_formula_units_Z 52
_cell_length_a 20.768102
_cell_length_b 7.769274
_cell_length_c 14.697532
_cell_angle_alpha 90.000000
_cell_angle_beta 77.293138
_cell_angle_gamma 90.000000
_cell_volume 2313.409891
_symmetry_space_group_name_H-M "C 2/C"
_symmetry_group_IT_number 15
_symmetry_cell_setting 'monoclinic'
loop_
_space_group_symop_operation_xyz
x,y,z
-x,y,1/2-z
-x,-y,-z
x,-y,1/2+z
1/2+x,1/2+y,z
1/2-x,1/2+y,1/2-z
1/2-x,1/2-y,-z
1/2+x,1/2-y,1/2+z
loop_
_atom_site_type_symbol
_atom_site_label
_atom_site_fract_x
_atom_site_fract_y
_atom_site_fract_z
Si Si1 0.553713 0.380969 0.397134
Si Si2 0.327633 0.462126 0.401668
Si Si3 0.307858 0.525405 0.116508
Si Si4 0.609530 0.167046 0.234415
Si Si5 0.000000 0.403526 0.250000
Si Si6 0.548614 0.662237 0.091141
Si Si7 0.262451 0.832772 0.702699
O O1 0.616063 0.509394 0.379023
O O2 0.553507 0.270887 0.305987
O O3 0.484551 0.477424 0.415386
O O4 0.558852 0.260537 0.486328
O O5 0.300159 0.429511 0.512203
O O6 0.357882 0.282027 0.355552
O O7 0.381495 0.617550 0.383211
O O8 0.268473 0.524870 0.355156
O O9 0.265765 0.352590 0.152874
O O10 0.279158 0.676797 0.189572
O O11 0.664005 0.108262 0.291260
O O12 0.568728 0.003663 0.211432
O O13 0.998722 0.281587 0.162382
#
# Coordination Sequence:
#
# PCOD8145163 Si02
#       7
#     8   8   8   8   4   8   8
#     4   9  19  44  63  90 125 177 208 260 326 391
#     4  11  22  44  67  92 127 184 217 253 333 404
#     4  10  23  39  68  95 128 168 219 266 323 391
#     4  11  24  41  62  90 138 168 211 276 324 377
#     4  12  26  38  62 104 128 166 218 278 316 370
#     4  10  22  37  70  93 122 168 224 259 319 390
#     4  11  22  43  63  95 129 171 216 270 323 390
#
# _framework density 22.477643
#
# number of rings (size 3 to 8) (size 9 to 14) (size 15 to 20)
#    0.000    1.538    3.077    2.308    2.154    1.231 
#    0.000    0.000    0.000    0.000    0.000    0.000 
#    0.000    0.000    0.000    0.000    0.000    0.000 
#
# Total GULP energy -322241.221716 kJ/mol
# GULP energy per Si atom -12393.893143 kJ/mol
# Density = 2.242648 g / cm^3
# Si number density = 22.477643 Si / 1000 Ang^3
#
#
#
# Elastic Constant Matrix: (Units=GPa)
#
#
# Indices 1 2 3 4 5 6 
#
# 1 71.9099 30.1437 35.0379 0.0000 2.9703 0.0000
# 2 30.1437 65.1487 48.8824 0.0000 2.3142 0.0000
# 3 35.0379 48.8824 171.6494 0.0000 -7.0247 0.0000
# 4 0.0000 0.0000 0.0000 17.4557 0.0000 -8.8612
# 5 2.9703 2.3142 -7.0247 0.0000 33.1019 0.0000
# 6 0.0000 0.0000 0.0000 -8.8612 0.0000 29.7967
#
#
#
# Elastic Compliance Matrix: (Units=1/GPa)
#
#
# Indices 1 2 3 4 5 6 
#
# 1 0.017670 -0.006831 -0.001722 0.000000 -0.001473 0.000000
# 2 -0.006831 0.022380 -0.005062 0.000000 -0.002026 0.000000
# 3 -0.001722 -0.005062 0.007707 0.000000 0.002144 0.000000
# 4 0.000000 0.000000 0.000000 0.067474 0.000000 0.020066
# 5 -0.001473 -0.002026 0.002144 0.000000 0.030939 0.000000
# 6 0.000000 0.000000 0.000000 0.020066 0.000000 0.039528
#
#
# Mechanical properties :
#
#
# Convention : Reuss Voigt Hill
#
# Bulk Modulus (GPa) = 48.71751 59.64846 54.18299
# Shear Modulus (GPa) = 22.75108 29.04712 25.89910
#
# Velocity S-wave (km/s) = 3.18491 3.59871 3.39811
# Velocity P-wave (km/s) = 5.93680 6.62284 6.28918
#
# Compressibility (1/GPa) = 0.02052650
#
# Stress axis : x y z
#
# Youngs Moduli (GPa) = 56.59406 44.68189 129.75994
#
# Poissons Ratio (x) = 0.30524 0.22340
# Poissons Ratio (y) = 0.38662 0.65684
# Poissons Ratio (z) = 0.09743 0.22618
#
# Static dielectric constant tensor:
#      x y z
#    x 4.128410 0.000000 -0.026430 
#    y 0.000000 3.720530 0.000000 
#    z -0.026430 0.000000 4.386070 
# 
# 
# High freq. dielectric constant tensor:
#      x y z
#    x 1.894740 0.000000 -0.001760 
#    y 0.000000 1.849920 0.000000 
#    z -0.001760 0.000000 1.902700 
# 
# From -- ./inp_files/166216.got.cif
#   From: 2010.06.25/outbox.cif.g09.slc.cpg/sg15_84_cif.got.tgz:166216.got - 2010.06.28 07:06:18.
