data_PCOD8145574
_publ_section_title
;
Structure prediction by ZEFSAII (Michael W. Deem and Ramdas Pophale) SiO2 
 PCOD8145574
Probable space group: C 2/C
;
_chemical_formula_sum "Si O2"
_cell_formula_units_Z 64
_cell_length_a 14.951151
_cell_length_b 13.943925
_cell_length_c 18.717466
_cell_angle_alpha 90.000000
_cell_angle_beta 122.952347
_cell_angle_gamma 90.000000
_cell_volume 3274.405611
_symmetry_space_group_name_H-M "C 2/C"
_symmetry_group_IT_number 15
_symmetry_cell_setting 'monoclinic'
loop_
_space_group_symop_operation_xyz
x,y,z
-x,y,1/2-z
-x,-y,-z
x,-y,1/2+z
1/2+x,1/2+y,z
1/2-x,1/2+y,1/2-z
1/2-x,1/2-y,-z
1/2+x,1/2-y,1/2+z
loop_
_atom_site_type_symbol
_atom_site_label
_atom_site_fract_x
_atom_site_fract_y
_atom_site_fract_z
Si Si1 0.621266 0.757547 0.657075
Si Si2 0.996857 0.916827 0.163837
Si Si3 0.983406 0.921298 0.930378
Si Si4 0.352908 0.741352 0.997503
Si Si5 0.042813 0.588063 0.436053
Si Si6 0.190898 0.242527 0.160677
Si Si7 0.479723 0.886418 0.406155
Si Si8 0.235651 0.158347 0.947910
O O1 0.583606 0.653031 0.665695
O O2 0.661977 0.761075 0.593337
O O3 0.518645 0.824431 0.628511
O O4 0.721413 0.796175 0.746242
O O5 0.876921 0.892309 0.087104
O O6 0.000000 0.914679 0.250000
O O7 0.029778 0.022194 0.150018
O O8 0.883619 0.846783 0.899262
O O9 0.091726 0.861613 0.971500
O O10 0.000000 0.000000 0.000000
O O11 0.250000 0.750000 0.000000
O O12 0.418551 0.823182 0.066184
O O13 0.993048 0.492138 0.378475
O O14 0.170923 0.587098 0.483713
O O15 0.023102 0.599489 0.510662
O O16 0.252152 0.301473 0.126397
O O17 0.120518 0.326356 0.167746
O O18 0.250000 0.250000 0.000000
#
# Coordination Sequence:
#
# PCOD8145574 Si02
#       8
#     8   8   8   8   8   8   8   8
#     4  11  21  40  62  92 130 162 202 272 323 371
#     4  12  24  39  63  99 131 160 214 274 324 377
#     4  11  23  43  64  92 131 172 219 263 321 389
#     4  10  22  40  64  87 122 168 214 255 314 383
#     4   9  18  34  59  86 116 156 202 249 302 374
#     4  10  22  39  62  87 127 168 199 261 328 366
#     4   8  18  37  56  84 114 153 208 250 296 366
#     4  11  20  35  63  89 120 162 206 248 309 380
#
# _framework density 19.545532000000001
#
# number of rings (size 3 to 8) (size 9 to 14) (size 15 to 20)
#    0.000    1.750    3.750    1.500    1.750    2.000 
#    2.250    1.875    0.000    1.500    0.000    0.000 
#    0.000    0.000    0.000    0.000    0.000    0.000 
#
# Total GULP energy -396438.718414 kJ/mol
# GULP energy per Si atom -12388.709950 kJ/mol
# Density = 1.950105 g / cm^3
# Si number density = 19.545532 Si / 1000 Ang^3
#
#
#
# Elastic Constant Matrix: (Units=GPa)
#
#
# Indices 1 2 3 4 5 6 
#
# 1 92.6462 18.0416 23.5859 0.0000 11.2203 0.0000
# 2 18.0416 103.2467 20.1280 0.0000 9.6521 0.0000
# 3 23.5859 20.1280 78.4215 0.0000 15.4586 0.0000
# 4 0.0000 0.0000 0.0000 22.5785 0.0000 -1.4990
# 5 11.2203 9.6521 15.4586 0.0000 27.6516 0.0000
# 6 0.0000 0.0000 0.0000 -1.4990 0.0000 24.7417
#
#
#
# Elastic Compliance Matrix: (Units=1/GPa)
#
#
# Indices 1 2 3 4 5 6 
#
# 1 0.012097 -0.001309 -0.002725 0.000000 -0.002928 0.000000
# 2 -0.001309 0.010476 -0.001887 0.000000 -0.002071 0.000000
# 3 -0.002725 -0.001887 0.015405 0.000000 -0.006848 0.000000
# 4 0.000000 0.000000 0.000000 0.044469 0.000000 0.002694
# 5 -0.002928 -0.002071 -0.006848 0.000000 0.041904 0.000000
# 6 0.000000 0.000000 0.000000 0.002694 0.000000 0.040581
#
#
# Mechanical properties :
#
#
# Convention : Reuss Voigt Hill
#
# Bulk Modulus (GPa) = 38.26089 44.20284 41.23186
# Shear Modulus (GPa) = 26.95634 29.16497 28.06065
#
# Velocity S-wave (km/s) = 3.71773 3.86703 3.79312
# Velocity P-wave (km/s) = 6.16818 6.52710 6.35017
#
# Compressibility (1/GPa) = 0.02613635
#
# Stress axis : x y z
#
# Youngs Moduli (GPa) = 82.66485 95.45912 64.91240
#
# Poissons Ratio (x) = 0.12494 0.17689
# Poissons Ratio (y) = 0.10820 0.12248
# Poissons Ratio (z) = 0.22527 0.18012
#
# Static dielectric constant tensor:
#      x y z
#    x 3.385580 0.000000 0.147810 
#    y 0.000000 3.941080 0.000000 
#    z 0.147810 0.000000 3.387710 
# 
# 
# High freq. dielectric constant tensor:
#      x y z
#    x 1.761310 0.000000 0.014530 
#    y 0.000000 1.769290 0.000000 
#    z 0.014530 0.000000 1.741610 
# 
# From -- ./inp_files/205439.got.cif
#   From: 2010.06.25/outbox.cif.g09.slc.cpg/sg15_103_cif.got.tgz:205439.got - 2010.06.28 07:06:18.
