data_PCOD8145792
_publ_section_title
;
Structure prediction by ZEFSAII (Michael W. Deem and Ramdas Pophale) SiO2 
 PCOD8145792
Probable space group: C 2/C
;
_chemical_formula_sum "Si O2"
_cell_formula_units_Z 60
_cell_length_a 29.514807
_cell_length_b 13.282786
_cell_length_c 8.208775
_cell_angle_alpha 90.000000
_cell_angle_beta 81.374157
_cell_angle_gamma 90.000000
_cell_volume 3181.757705
_symmetry_space_group_name_H-M "C 2/C"
_symmetry_group_IT_number 15
_symmetry_cell_setting 'monoclinic'
loop_
_space_group_symop_operation_xyz
x,y,z
-x,y,1/2-z
-x,-y,-z
x,-y,1/2+z
1/2+x,1/2+y,z
1/2-x,1/2+y,1/2-z
1/2-x,1/2-y,-z
1/2+x,1/2-y,1/2+z
loop_
_atom_site_type_symbol
_atom_site_label
_atom_site_fract_x
_atom_site_fract_y
_atom_site_fract_z
Si Si1 0.938816 0.589586 0.514288
Si Si2 0.000000 0.528132 0.750000
Si Si3 0.710861 0.445665 0.569206
Si Si4 0.779756 0.238965 0.223885
Si Si5 0.360936 0.791365 0.934128
Si Si6 0.805651 0.403964 0.420553
Si Si7 0.313638 0.353206 0.249492
Si Si8 0.640029 0.038057 0.313721
O O1 0.979319 0.604101 0.625019
O O2 0.910287 0.695232 0.500743
O O3 0.909186 0.498025 0.604092
O O4 0.960800 0.547029 0.337643
O O5 0.718486 0.378646 0.729465
O O6 0.761330 0.473762 0.475537
O O7 0.682037 0.389095 0.440943
O O8 0.687242 0.548999 0.633876
O O9 0.789384 0.291275 0.393092
O O10 0.730327 0.280327 0.189968
O O11 0.819251 0.263262 0.073429
O O12 0.358742 0.709907 0.786481
O O13 0.358128 0.903893 0.859991
O O14 0.829666 0.439626 0.240408
O O15 0.838463 0.393783 0.557178
#
# Coordination Sequence:
#
# PCOD8145792 Si02
#       8
#     8   4   8   8   8   8   8   8
#     4  11  21  37  58  84 117 153 179 230 293 367
#     4  10  22  40  58  84 120 150 174 228 312 360
#     4  11  22  38  51  76 114 167 198 255 296 310
#     4  11  22  36  52  78 112 157 208 250 283 331
#     4  12  22  35  54  83 109 152 199 233 285 343
#     4  11  19  31  51  76 109 155 206 242 283 324
#     4  11  23  37  54  77 115 157 205 252 286 331
#     4  12  19  33  52  84 110 149 195 242 276 341
#
# _framework density 18.857502
#
# number of rings (size 3 to 8) (size 9 to 14) (size 15 to 20)
#    0.000    0.800    4.000    6.800    0.000    0.000 
#    0.000    0.000    0.000    0.000    0.000    0.000 
#    0.000   12.800    0.000    0.000    0.000    0.000 
#
# Total GULP energy -371713.306326 kJ/mol
# GULP energy per Si atom -12390.443544 kJ/mol
# Density = 1.881458 g / cm^3
# Si number density = 18.857502 Si / 1000 Ang^3
#
#
#
# Elastic Constant Matrix: (Units=GPa)
#
#
# Indices 1 2 3 4 5 6 
#
# 1 79.4090 34.2487 34.5322 0.0000 9.8868 0.0000
# 2 34.2487 73.4863 22.3748 0.0000 3.1218 0.0000
# 3 34.5322 22.3748 83.0582 0.0000 -1.3321 0.0000
# 4 0.0000 0.0000 0.0000 29.0781 0.0000 9.6652
# 5 9.8868 3.1218 -1.3321 0.0000 36.3654 0.0000
# 6 0.0000 0.0000 0.0000 9.6652 0.0000 29.4690
#
#
#
# Elastic Compliance Matrix: (Units=1/GPa)
#
#
# Indices 1 2 3 4 5 6 
#
# 1 0.018688 -0.006667 -0.006050 0.000000 -0.004730 0.000000
# 2 -0.006667 0.017276 -0.001878 0.000000 0.000261 0.000000
# 3 -0.006050 -0.001878 0.015099 0.000000 0.002359 0.000000
# 4 0.000000 0.000000 0.000000 0.038598 0.000000 -0.012659
# 5 -0.004730 0.000261 0.002359 0.000000 0.028849 0.000000
# 6 0.000000 0.000000 0.000000 -0.012659 0.000000 0.038086
#
#
# Mechanical properties :
#
#
# Convention : Reuss Voigt Hill
#
# Bulk Modulus (GPa) = 45.71673 46.47387 46.09530
# Shear Modulus (GPa) = 25.89667 28.63570 27.26619
#
# Velocity S-wave (km/s) = 3.70980 3.90106 3.80663
# Velocity P-wave (km/s) = 6.53040 6.70741 6.61949
#
# Compressibility (1/GPa) = 0.02187383
#
# Stress axis : x y z
#
# Youngs Moduli (GPa) = 53.51004 57.88455 66.23103
#
# Poissons Ratio (x) = 0.38590 0.40067
# Poissons Ratio (y) = 0.35674 0.12438
# Poissons Ratio (z) = 0.32372 0.10870
#
# Static dielectric constant tensor:
#      x y z
#    x 3.404740 0.000000 0.245650 
#    y 0.000000 3.347100 0.000000 
#    z 0.245650 0.000000 3.600590 
# 
# 
# High freq. dielectric constant tensor:
#      x y z
#    x 1.699160 0.000000 0.027390 
#    y 0.000000 1.707770 0.000000 
#    z 0.027390 0.000000 1.756750 
# 
# From -- ./inp_files/69092.got.cif
#   From: 2010.06.25/outbox.cif.g09.slc.cpg/sg15_35_cif.got.tgz:69092.got - 2010.06.28 07:06:18.
