data_PCOD8145147
_publ_section_title
;
Structure prediction by ZEFSAII (Michael W. Deem and Ramdas Pophale) SiO2 
 PCOD8145147
Probable space group: C 2/C
;
_chemical_formula_sum "Si O2"
_cell_formula_units_Z 48
_cell_length_a 17.209528
_cell_length_b 8.806528
_cell_length_c 26.178110
_cell_angle_alpha 90.000000
_cell_angle_beta 41.157539
_cell_angle_gamma 90.000000
_cell_volume 2611.107559
_symmetry_space_group_name_H-M "C 2/C"
_symmetry_group_IT_number 15
_symmetry_cell_setting 'monoclinic'
loop_
_space_group_symop_operation_xyz
x,y,z
-x,y,1/2-z
-x,-y,-z
x,-y,1/2+z
1/2+x,1/2+y,z
1/2-x,1/2+y,1/2-z
1/2-x,1/2-y,-z
1/2+x,1/2-y,1/2+z
loop_
_atom_site_type_symbol
_atom_site_label
_atom_site_fract_x
_atom_site_fract_y
_atom_site_fract_z
Si Si1 0.737462 0.760076 0.834228
Si Si2 0.473694 0.555719 0.569023
Si Si3 0.195220 0.195397 0.315420
Si Si4 0.207822 0.198523 0.466914
Si Si5 0.632974 0.054942 0.923660
Si Si6 0.639628 0.967641 0.688607
O O1 0.603301 0.705889 0.898434
O O2 0.779776 0.773900 0.755432
O O3 0.823327 0.643376 0.821519
O O4 0.728234 0.918865 0.869213
O O5 0.500000 0.500000 0.500000
O O6 0.406061 0.430983 0.635157
O O7 0.595150 0.595698 0.535993
O O8 0.140623 0.345525 0.368199
O O9 0.311360 0.133486 0.288155
O O10 0.250000 0.250000 0.500000
O O11 0.175644 0.345531 0.449908
O O12 0.303491 0.093803 0.391564
O O13 0.500000 0.000000 0.000000
O O14 0.500000 0.953389 0.750000
#
# Coordination Sequence:
#
# PCOD8145147 Si02
#       6
#     8   8   8   8   8   8
#     4  11  21  38  63  90 119 155 205 247 300 355
#     4  11  18  41  63  85 120 160 204 246 290 361
#     4  10  22  37  65  93 116 162 203 245 303 363
#     4  11  24  40  61  89 119 164 201 245 307 359
#     4  11  20  37  64  93 117 150 207 252 289 359
#     4  10  23  42  59  84 128 159 195 250 310 354
#
# _framework density 18.383002999999999
#
# number of rings (size 3 to 8) (size 9 to 14) (size 15 to 20)
#    0.000    1.333    6.667    2.000    2.333    1.333 
#    3.000    1.667    0.000    0.000    0.000    0.000 
#    0.000    0.000    0.000    0.000    0.000    0.000 
#
# Total GULP energy -297522.008347 kJ/mol
# GULP energy per Si atom -12396.750348 kJ/mol
# Density = 1.834116 g / cm^3
# Si number density = 18.383003 Si / 1000 Ang^3
#
#
#
# Elastic Constant Matrix: (Units=GPa)
#
#
# Indices 1 2 3 4 5 6 
#
# 1 125.7828 59.1595 85.2365 0.0002 -12.2494 0.0006
# 2 59.1595 124.0977 61.3489 0.0004 -2.3234 0.0016
# 3 85.2365 61.3489 130.4917 0.0000 1.8349 0.0000
# 4 0.0002 0.0004 0.0000 38.1688 0.0000 -4.0650
# 5 -12.2494 -2.3234 1.8349 0.0000 41.2519 0.0001
# 6 0.0006 0.0016 0.0000 -4.0650 0.0001 24.2281
#
#
#
# Elastic Compliance Matrix: (Units=1/GPa)
#
#
# Indices 1 2 3 4 5 6 
#
# 1 0.016053 -0.003049 -0.009123 0.000000 0.005001 0.000000
# 2 -0.003049 0.011105 -0.003227 0.000000 -0.000137 -0.000001
# 3 -0.009123 -0.003227 0.015189 0.000000 -0.003566 0.000000
# 4 0.000000 0.000000 0.000000 0.026676 0.000000 0.004476
# 5 0.005001 -0.000137 -0.003566 0.000000 0.025877 0.000000
# 6 0.000000 -0.000001 0.000000 0.004476 0.000000 0.042025
#
#
# Mechanical properties :
#
#
# Convention : Reuss Voigt Hill
#
# Bulk Modulus (GPa) = 86.58420 87.98467 87.28443
# Shear Modulus (GPa) = 29.14193 32.37157 30.75675
#
# Velocity S-wave (km/s) = 3.98586 4.20092 4.09480
# Velocity P-wave (km/s) = 8.26953 8.45554 8.36305
#
# Compressibility (1/GPa) = 0.01154945
#
# Stress axis : x y z
#
# Youngs Moduli (GPa) = 62.29181 90.05312 65.83510
#
# Poissons Ratio (x) = 0.27461 0.60060
# Poissons Ratio (y) = 0.18995 0.21244
# Poissons Ratio (z) = 0.56827 0.29059
#
# Static dielectric constant tensor:
#      x y z
#    x 2.929420 0.000000 -0.030190 
#    y 0.000000 3.617700 0.000000 
#    z -0.030190 0.000000 3.486600 
# 
# 
# High freq. dielectric constant tensor:
#      x y z
#    x 1.687900 0.000000 -0.007350 
#    y 0.000000 1.729870 0.000000 
#    z -0.007350 0.000000 1.731420 
# 
# From -- ./inp_files/247265.got.cif
#   From: 2010.06.25/outbox.cif.g09.slc.cpg/sg15_124_cif.got.tgz:247265.got - 2010.06.28 07:06:18.
