data_PCOD8145741
_publ_section_title
;
Structure prediction by ZEFSAII (Michael W. Deem and Ramdas Pophale) SiO2 
 PCOD8145741
Probable space group: C 2/C
;
_chemical_formula_sum "Si O2"
_cell_formula_units_Z 64
_cell_length_a 14.215093
_cell_length_b 12.867513
_cell_length_c 27.566484
_cell_angle_alpha 90.000000
_cell_angle_beta 138.531366
_cell_angle_gamma 90.000000
_cell_volume 3339.038248
_symmetry_space_group_name_H-M "C 2/C"
_symmetry_group_IT_number 15
_symmetry_cell_setting 'monoclinic'
loop_
_space_group_symop_operation_xyz
x,y,z
-x,y,1/2-z
-x,-y,-z
x,-y,1/2+z
1/2+x,1/2+y,z
1/2-x,1/2+y,1/2-z
1/2-x,1/2-y,-z
1/2+x,1/2-y,1/2+z
loop_
_atom_site_type_symbol
_atom_site_label
_atom_site_fract_x
_atom_site_fract_y
_atom_site_fract_z
Si Si1 0.950597 0.243250 0.809056
Si Si2 0.769616 0.253229 0.642822
Si Si3 0.689577 0.759477 0.528352
Si Si4 0.176660 0.572707 0.178613
Si Si5 0.975839 0.083529 0.449885
Si Si6 0.123937 0.131072 0.330292
Si Si7 0.045417 0.424353 0.060022
Si Si8 0.449493 0.507166 0.834216
O O1 0.836472 0.243346 0.721970
O O2 0.908236 0.328809 0.832946
O O3 0.108145 0.266784 0.850161
O O4 0.950090 0.131562 0.834688
O O5 0.673722 0.356594 0.603391
O O6 0.679747 0.148738 0.597776
O O7 0.750000 0.750000 0.500000
O O8 0.604101 0.659676 0.511338
O O9 0.820735 0.775591 0.615411
O O10 0.593675 0.859109 0.486817
O O11 0.248458 0.594092 0.154264
O O12 0.068795 0.481521 0.121168
O O13 0.291415 0.534250 0.261885
O O14 0.993379 0.033169 0.403826
O O15 0.000000 0.000000 0.500000
O O16 0.000000 0.180876 0.250000
O O17 0.061337 0.034552 0.337325
O O18 0.000000 0.500000 0.000000
#
# Coordination Sequence:
#
# PCOD8145741 Si02
#       8
#     8   8   8   8   8   8   8   8
#     4  11  23  38  70  92 128 161 219 264 311 378
#     4  10  23  43  62  95 125 173 206 258 325 374
#     4  11  23  41  63  91 127 171 208 254 325 381
#     4  11  22  40  64  98 122 162 217 263 309 372
#     4  11  25  43  65  90 138 172 205 256 330 397
#     4  10  22  39  67  92 123 156 222 268 306 369
#     4  11  22  38  64  91 128 160 210 262 307 370
#     4  11  22  41  67  94 124 171 211 265 317 375
#
# _framework density 19.167197000000002
#
# number of rings (size 3 to 8) (size 9 to 14) (size 15 to 20)
#    0.000    1.250    5.000    0.750    5.250    1.000 
#    0.000    1.250    2.750    0.000    0.000    0.000 
#    0.000    0.000    0.000    0.000    0.000    0.000 
#
# Total GULP energy -396740.210692 kJ/mol
# GULP energy per Si atom -12398.131584 kJ/mol
# Density = 1.912357 g / cm^3
# Si number density = 19.167197 Si / 1000 Ang^3
#
#
#
# Elastic Constant Matrix: (Units=GPa)
#
#
# Indices 1 2 3 4 5 6 
#
# 1 116.5342 71.3895 49.7887 0.0000 0.3425 0.0000
# 2 71.3895 143.3739 63.9455 0.0000 0.6010 0.0000
# 3 49.7887 63.9455 124.5407 0.0000 -5.1696 0.0000
# 4 0.0000 0.0000 0.0000 34.8828 0.0000 -11.7260
# 5 0.3425 0.6010 -5.1696 0.0000 28.7422 0.0000
# 6 0.0000 0.0000 0.0000 -11.7260 0.0000 25.2471
#
#
#
# Elastic Compliance Matrix: (Units=1/GPa)
#
#
# Indices 1 2 3 4 5 6 
#
# 1 0.012888 -0.005329 -0.002436 0.000000 -0.000480 0.000000
# 2 -0.005329 0.011280 -0.003696 0.000000 -0.000837 0.000000
# 3 -0.002436 -0.003696 0.010988 0.000000 0.002083 0.000000
# 4 0.000000 0.000000 0.000000 0.033971 0.000000 0.015778
# 5 -0.000480 -0.000837 0.002083 0.000000 0.035190 0.000000
# 6 0.000000 0.000000 0.000000 0.015778 0.000000 0.046937
#
#
# Mechanical properties :
#
#
# Convention : Reuss Voigt Hill
#
# Bulk Modulus (GPa) = 81.74302 83.85513 82.79907
# Shear Modulus (GPa) = 28.04998 31.06275 29.55637
#
# Velocity S-wave (km/s) = 3.82964 4.03006 3.93113
# Velocity P-wave (km/s) = 7.89270 8.09317 7.99357
#
# Compressibility (1/GPa) = 0.01223346
#
# Stress axis : x y z
#
# Youngs Moduli (GPa) = 77.59298 88.65205 91.01048
#
# Poissons Ratio (x) = 0.47239 0.22172
# Poissons Ratio (y) = 0.41346 0.33640
# Poissons Ratio (z) = 0.18903 0.32768
#
# Static dielectric constant tensor:
#      x y z
#    x 3.509940 0.000000 0.049380 
#    y 0.000000 4.068080 0.000000 
#    z 0.049380 0.000000 4.233220 
# 
# 
# High freq. dielectric constant tensor:
#      x y z
#    x 1.744170 0.000000 0.005450 
#    y 0.000000 1.747160 0.000000 
#    z 0.005450 0.000000 1.761450 
# 
# From -- ./inp_files/296145.got.cif
#   From: 2010.06.25/outbox.cif.g09.slc.cpg/sg15_149_cif.got.tgz:296145.got - 2010.06.28 07:06:18.
