data_PCOD8145919
_publ_section_title
;
Structure prediction by ZEFSAII (Michael W. Deem and Ramdas Pophale) SiO2 
 PCOD8145919
Probable space group: C 2/C
;
_chemical_formula_sum "Si O2"
_cell_formula_units_Z 36
_cell_length_a 19.510408
_cell_length_b 11.491505
_cell_length_c 28.219443
_cell_angle_alpha 90.000000
_cell_angle_beta 17.887019
_cell_angle_gamma 90.000000
_cell_volume 1943.253753
_symmetry_space_group_name_H-M "C 2/C"
_symmetry_group_IT_number 15
_symmetry_cell_setting 'monoclinic'
loop_
_space_group_symop_operation_xyz
x,y,z
-x,y,1/2-z
-x,-y,-z
x,-y,1/2+z
1/2+x,1/2+y,z
1/2-x,1/2+y,1/2-z
1/2-x,1/2-y,-z
1/2+x,1/2-y,1/2+z
loop_
_atom_site_type_symbol
_atom_site_label
_atom_site_fract_x
_atom_site_fract_y
_atom_site_fract_z
Si Si1 0.054157 0.428052 0.012602
Si Si2 0.018169 0.811238 0.147627
Si Si3 0.062189 0.819020 0.938803
Si Si4 0.000000 0.965952 0.250000
Si Si5 0.100615 0.948347 0.362228
O O1 0.079668 0.293057 0.982431
O O2 0.861643 0.445477 0.178038
O O3 0.277908 0.457146 0.894086
O O4 0.000000 0.500000 0.000000
O O5 0.972997 0.885324 0.223041
O O6 0.823179 0.715629 0.270583
O O7 0.036853 0.901225 0.091959
O O8 0.250000 0.750000 0.000000
O O9 0.033145 0.919230 0.918407
O O10 0.958841 0.863077 0.055733
#
# Coordination Sequence:
#
# PCOD8145919 Si02
#       5
#     8   8   8   4   8
#     4  11  23  40  65  86 127 164 207 258 317 374
#     4  11  22  36  64  92 126 160 212 260 304 374
#     4  10  22  41  63  91 126 166 204 256 320 368
#     4  12  22  38  58  98 114 164 214 244 314 376
#     4  10  22  40  63  90 125 163 207 260 314 366
#
# _framework density 18.52563
#
# number of rings (size 3 to 8) (size 9 to 14) (size 15 to 20)
#    0.000    1.333    4.444    2.667    6.222    0.000 
#    0.000    8.889    0.000    0.000    0.000    0.000 
#    0.000    0.000    0.000    0.000    0.000    0.000 
#
# Total GULP energy -223140.524610 kJ/mol
# GULP energy per Si atom -12396.695812 kJ/mol
# Density = 1.848346 g / cm^3
# Si number density = 18.525630 Si / 1000 Ang^3
#
#
#
# Elastic Constant Matrix: (Units=GPa)
#
#
# Indices 1 2 3 4 5 6 
#
# 1 107.2720 58.5756 42.6185 0.0023 10.6559 -0.0106
# 2 58.5756 139.8598 38.9245 -0.0156 11.2845 -0.0010
# 3 42.6185 38.9245 101.8187 -0.0863 -8.1003 0.1318
# 4 0.0023 -0.0156 -0.0863 36.2758 0.0092 6.0946
# 5 10.6559 11.2845 -8.1003 0.0092 42.9590 -0.0125
# 6 -0.0106 -0.0010 0.1318 6.0946 -0.0125 62.2093
#
#
#
# Elastic Compliance Matrix: (Units=1/GPa)
#
#
# Indices 1 2 3 4 5 6 
#
# 1 0.013688 -0.004275 -0.004341 -0.000014 -0.003091 0.000012
# 2 -0.004275 0.009662 -0.002053 -0.000001 -0.001865 0.000003
# 3 -0.004341 -0.002053 0.012743 0.000034 0.004019 -0.000030
# 4 -0.000014 -0.000001 0.000034 0.028028 0.000003 -0.002746
# 5 -0.003091 -0.001865 0.004019 0.000003 0.025292 -0.000004
# 6 0.000012 0.000003 -0.000030 -0.002746 -0.000004 0.016344
#
#
# Mechanical properties :
#
#
# Convention : Reuss Voigt Hill
#
# Bulk Modulus (GPa) = 67.77137 69.90974 68.84055
# Shear Modulus (GPa) = 37.87467 42.21095 40.04281
#
# Velocity S-wave (km/s) = 4.52646 4.77856 4.65422
# Velocity P-wave (km/s) = 7.99877 8.26226 8.13158
#
# Compressibility (1/GPa) = 0.01475549
#
# Stress axis : x y z
#
# Youngs Moduli (GPa) = 73.05485 103.49471 78.47500
#
# Poissons Ratio (x) = 0.44248 0.34066
# Poissons Ratio (y) = 0.31234 0.16108
# Poissons Ratio (z) = 0.31713 0.21244
#
# Static dielectric constant tensor:
#      x y z
#    x 3.508730 0.000190 0.202910 
#    y 0.000190 3.572160 0.000330 
#    z 0.202910 0.000330 3.524610 
# 
# 
# High freq. dielectric constant tensor:
#      x y z
#    x 1.721080 0.000000 0.014030 
#    y 0.000000 1.732440 0.000020 
#    z 0.014030 0.000020 1.726390 
# 
# From -- ./inp_files/103166.got.cif
#   From: 2010.06.25/outbox.cif.g09.slc.cpg/sg15_52_cif.got.tgz:103166.got - 2010.06.28 07:06:18.
