data_PCOD8145704
_publ_section_title
;
Structure prediction by ZEFSAII (Michael W. Deem and Ramdas Pophale) SiO2 
 PCOD8145704
Probable space group: C 2/C
;
_chemical_formula_sum "Si O2"
_cell_formula_units_Z 56
_cell_length_a 8.726167
_cell_length_b 26.848928
_cell_length_c 14.255335
_cell_angle_alpha 90.000000
_cell_angle_beta 60.578794
_cell_angle_gamma 90.000000
_cell_volume 2909.122698
_symmetry_space_group_name_H-M "C 2/C"
_symmetry_group_IT_number 15
_symmetry_cell_setting 'monoclinic'
loop_
_space_group_symop_operation_xyz
x,y,z
-x,y,1/2-z
-x,-y,-z
x,-y,1/2+z
1/2+x,1/2+y,z
1/2-x,1/2+y,1/2-z
1/2-x,1/2-y,-z
1/2+x,1/2-y,1/2+z
loop_
_atom_site_type_symbol
_atom_site_label
_atom_site_fract_x
_atom_site_fract_y
_atom_site_fract_z
Si Si1 0.796866 0.436426 0.299105
Si Si2 0.034846 0.583935 0.136034
Si Si3 0.802227 0.977159 0.811895
Si Si4 0.194698 0.998455 0.479007
Si Si5 0.648943 0.821916 0.484548
Si Si6 0.497269 0.733764 0.641617
Si Si7 0.830856 0.329401 0.237994
O O1 0.713039 0.479718 0.260609
O O2 0.743029 0.443874 0.424031
O O3 0.738492 0.383402 0.275679
O O4 0.000000 0.441913 0.250000
O O5 0.178694 0.540259 0.105129
O O6 0.000000 0.606727 0.250000
O O7 0.847340 0.564706 0.153033
O O8 0.116168 0.624703 0.041501
O O9 0.000000 0.953543 0.750000
O O10 0.777727 0.003404 0.919264
O O11 0.000000 0.000000 0.500000
O O12 0.517714 0.783045 0.573489
O O13 0.606395 0.822380 0.387342
O O14 0.852632 0.805766 0.434025
O O15 0.500000 0.748238 0.750000
O O16 0.306694 0.710442 0.680885
O O17 0.000000 0.324237 0.250000
#
# Coordination Sequence:
#
# PCOD8145704 Si02
#       7
#     8   8   8   8   8   8   8
#     4  11  22  40  56  87 122 161 201 249 284 357
#     4  12  23  40  58  90 119 155 200 249 296 358
#     4  12  23  39  57  81 123 161 201 245 290 348
#     4  12  23  37  59  83 120 161 200 241 296 341
#     4  10  22  39  66  88 114 159 198 244 306 347
#     4   9  20  43  64  89 116 147 199 255 292 359
#     4  10  23  38  61  92 122 152 198 241 303 359
#
# _framework density 19.249789
#
# number of rings (size 3 to 8) (size 9 to 14) (size 15 to 20)
#    0.000    1.143    4.286    1.714    6.000    2.286 
#    0.000    0.714    0.000    0.000    0.000    0.000 
#    0.000    0.000    0.000    0.000    0.000    0.000 
#
# Total GULP energy -346992.215837 kJ/mol
# GULP energy per Si atom -12392.579137 kJ/mol
# Density = 1.920598 g / cm^3
# Si number density = 19.249789 Si / 1000 Ang^3
#
#
#
# Elastic Constant Matrix: (Units=GPa)
#
#
# Indices 1 2 3 4 5 6 
#
# 1 88.9161 43.8745 22.7954 0.0000 -8.7924 0.0000
# 2 43.8745 101.5803 51.0058 0.0000 -4.7001 0.0000
# 3 22.7954 51.0058 106.3718 0.0000 -3.9731 0.0000
# 4 0.0000 0.0000 0.0000 42.9091 0.0000 -3.8838
# 5 -8.7924 -4.7001 -3.9731 0.0000 31.4189 0.0000
# 6 0.0000 0.0000 0.0000 -3.8838 0.0000 26.1624
#
#
#
# Elastic Compliance Matrix: (Units=1/GPa)
#
#
# Indices 1 2 3 4 5 6 
#
# 1 0.014599 -0.006122 -0.000075 0.000000 0.003160 0.000000
# 2 -0.006122 0.015575 -0.006163 0.000000 -0.000162 0.000000
# 3 -0.000075 -0.006163 0.012395 0.000000 0.000625 0.000000
# 4 0.000000 0.000000 0.000000 0.023622 0.000000 0.003507
# 5 0.003160 -0.000162 0.000625 0.000000 0.032767 0.000000
# 6 0.000000 0.000000 0.000000 0.003507 0.000000 0.038743
#
#
# Mechanical properties :
#
#
# Convention : Reuss Voigt Hill
#
# Bulk Modulus (GPa) = 56.01967 59.13552 57.57759
# Shear Modulus (GPa) = 29.69619 32.04426 30.87022
#
# Velocity S-wave (km/s) = 3.93195 4.08444 4.00892
# Velocity P-wave (km/s) = 7.05537 7.28219 7.16968
#
# Compressibility (1/GPa) = 0.01785087
#
# Stress axis : x y z
#
# Youngs Moduli (GPa) = 68.49812 64.20390 80.67471
#
# Poissons Ratio (x) = 0.39303 0.00606
# Poissons Ratio (y) = 0.41932 0.49717
# Poissons Ratio (z) = 0.00515 0.39567
#
# Static dielectric constant tensor:
#      x y z
#    x 4.158940 0.000000 1.150780 
#    y 0.000000 4.385360 0.000000 
#    z 1.150780 0.000000 6.156870 
# 
# 
# High freq. dielectric constant tensor:
#      x y z
#    x 1.753240 0.000000 -0.002870 
#    y 0.000000 1.728690 0.000000 
#    z -0.002870 0.000000 1.774550 
# 
# From -- ./inp_files/137713.got.cif
#   From: 2010.06.25/outbox.cif.g09.slc.cpg/sg15_69_cif.got.tgz:137713.got - 2010.06.28 07:06:18.
