data_PCOD8145483
_publ_section_title
;
Structure prediction by ZEFSAII (Michael W. Deem and Ramdas Pophale) SiO2 
 PCOD8145483
Probable space group: C 2/C
;
_chemical_formula_sum "Si O2"
_cell_formula_units_Z 56
_cell_length_a 13.630889
_cell_length_b 13.531056
_cell_length_c 28.762383
_cell_angle_alpha 90.000000
_cell_angle_beta 151.300535
_cell_angle_gamma 90.000000
_cell_volume 2547.514924
_symmetry_space_group_name_H-M "C 2/C"
_symmetry_group_IT_number 15
_symmetry_cell_setting 'monoclinic'
loop_
_space_group_symop_operation_xyz
x,y,z
-x,y,1/2-z
-x,-y,-z
x,-y,1/2+z
1/2+x,1/2+y,z
1/2-x,1/2+y,1/2-z
1/2-x,1/2-y,-z
1/2+x,1/2-y,1/2+z
loop_
_atom_site_type_symbol
_atom_site_label
_atom_site_fract_x
_atom_site_fract_y
_atom_site_fract_z
Si Si1 0.500000 0.335598 0.250000
Si Si2 0.439760 0.699918 0.516732
Si Si3 0.200998 0.169620 0.138211
Si Si4 0.595570 0.117759 0.435748
Si Si5 0.071572 0.963918 0.363945
Si Si6 0.500000 0.001859 0.250000
Si Si7 0.341077 0.354197 0.776338
Si Si8 0.229636 0.367285 0.283383
O O1 0.343356 0.262704 0.210816
O O2 0.620896 0.402268 0.337830
O O3 0.453010 0.703774 0.466374
O O4 0.465687 0.807500 0.548980
O O5 0.220107 0.663150 0.444442
O O6 0.627469 0.633317 0.611453
O O7 0.097494 0.140558 0.143590
O O8 0.309260 0.073506 0.161086
O O9 0.376402 0.088782 0.322674
O O10 0.734913 0.035496 0.519989
O O11 0.867105 0.912894 0.299783
O O12 0.017203 0.076808 0.326876
O O13 0.538268 0.935178 0.219428
O O14 0.350988 0.242379 0.762401
#
# Coordination Sequence:
#
# PCOD8145483 Si02
#       8
#     4   8   8   8   8   4   8   8
#     4  11  20  35  64  86 118 147 206 251 274 344
#     4   9  18  33  60  87 115 151 201 251 291 344
#     4  11  20  35  61  93 109 147 211 249 279 340
#     4   9  18  36  57  87 122 153 196 249 297 347
#     4  11  21  38  62  92 115 162 200 247 297 346
#     4  11  22  35  58  88 122 159 184 241 310 362
#     4  11  22  39  62  88 121 161 196 246 300 359
#     4  10  22  39  57  86 126 157 191 245 311 355
#
# _framework density 21.982206000000001
#
# number of rings (size 3 to 8) (size 9 to 14) (size 15 to 20)
#    0.000    1.714    4.286    2.571    0.000    1.143 
#    2.571    0.714    3.143    1.714    0.000    0.000 
#    0.000    0.000    0.000    0.000    0.000    0.000 
#
# Total GULP energy -346897.914378 kJ/mol
# GULP energy per Si atom -12389.211228 kJ/mol
# Density = 2.193217 g / cm^3
# Si number density = 21.982206 Si / 1000 Ang^3
#
#
#
# Elastic Constant Matrix: (Units=GPa)
#
#
# Indices 1 2 3 4 5 6 
#
# 1 56.7819 28.7686 22.8636 -0.0005 -12.2349 0.0000
# 2 28.7686 98.1554 18.7050 0.0005 -4.5574 -0.0007
# 3 22.8636 18.7050 63.2648 0.0028 -28.5662 -0.0033
# 4 -0.0005 0.0005 0.0028 23.1063 -0.0009 1.9628
# 5 -12.2349 -4.5574 -28.5662 -0.0009 28.1284 -0.0005
# 6 0.0000 -0.0007 -0.0033 1.9628 -0.0005 29.6394
#
#
#
# Elastic Compliance Matrix: (Units=1/GPa)
#
#
# Indices 1 2 3 4 5 6 
#
# 1 0.023389 -0.005742 -0.004767 0.000001 0.004401 -0.000001
# 2 -0.005742 0.012323 -0.003314 0.000000 -0.003867 0.000000
# 3 -0.004767 -0.003314 0.032009 -0.000003 0.029896 0.000004
# 4 0.000001 0.000000 -0.000003 0.043523 -0.000001 -0.002882
# 5 0.004401 -0.003867 0.029896 -0.000001 0.067201 0.000004
# 6 -0.000001 0.000000 0.000004 -0.002882 0.000004 0.033930
#
#
# Mechanical properties :
#
#
# Convention : Reuss Voigt Hill
#
# Bulk Modulus (GPa) = 24.95499 39.87519 32.41509
# Shear Modulus (GPa) = 19.73332 26.03248 22.88290
#
# Velocity S-wave (km/s) = 2.99941 3.44503 3.22991
# Velocity P-wave (km/s) = 4.83449 5.83125 5.35610
#
# Compressibility (1/GPa) = 0.04007214
#
# Stress axis : x y z
#
# Youngs Moduli (GPa) = 42.75605 81.14940 31.24168
#
# Poissons Ratio (x) = 0.46597 0.14894
# Poissons Ratio (y) = 0.24551 0.10354
# Poissons Ratio (z) = 0.20384 0.26895
#
# Static dielectric constant tensor:
#      x y z
#    x 3.611960 0.000000 -0.142530 
#    y 0.000000 3.931900 0.000000 
#    z -0.142530 0.000000 3.872760 
# 
# 
# High freq. dielectric constant tensor:
#      x y z
#    x 1.836820 0.000000 -0.025400 
#    y 0.000000 1.859930 0.000000 
#    z -0.025400 0.000000 1.846750 
# 
# From -- ./inp_files/313918.got.cif
#   From: 2010.06.25/outbox.cif.g09.slc.cpg/sg15_157_cif.got.tgz:313918.got - 2010.06.28 07:06:18.
