data_PCOD8145462
_publ_section_title
;
Structure prediction by ZEFSAII (Michael W. Deem and Ramdas Pophale) SiO2 
 PCOD8145462
Probable space group: C 2/C
;
_chemical_formula_sum "Si O2"
_cell_formula_units_Z 52
_cell_length_a 18.164905
_cell_length_b 6.681077
_cell_length_c 19.770906
_cell_angle_alpha 90.000000
_cell_angle_beta 91.195734
_cell_angle_gamma 90.000000
_cell_volume 2398.896976
_symmetry_space_group_name_H-M "C 2/C"
_symmetry_group_IT_number 15
_symmetry_cell_setting 'monoclinic'
loop_
_space_group_symop_operation_xyz
x,y,z
-x,y,1/2-z
-x,-y,-z
x,-y,1/2+z
1/2+x,1/2+y,z
1/2-x,1/2+y,1/2-z
1/2-x,1/2-y,-z
1/2+x,1/2-y,1/2+z
loop_
_atom_site_type_symbol
_atom_site_label
_atom_site_fract_x
_atom_site_fract_y
_atom_site_fract_z
Si Si1 0.500000 0.049332 0.750000
Si Si2 0.071281 0.744298 0.168831
Si Si3 0.281006 0.541948 0.820261
Si Si4 0.286766 0.189724 0.929612
Si Si5 0.954952 0.585565 0.938619
Si Si6 0.470033 0.614647 0.146705
Si Si7 0.195465 0.910536 0.834581
O O1 0.530983 0.189403 0.807945
O O2 0.431898 0.900172 0.765696
O O3 0.154084 0.807431 0.157652
O O4 0.038487 0.600482 0.111546
O O5 0.020858 0.940126 0.177217
O O6 0.282824 0.357802 0.871345
O O7 0.207213 0.670436 0.832071
O O8 0.289258 0.488201 0.741321
O O9 0.369934 0.135226 0.950743
O O10 0.247584 0.002074 0.893525
O O11 0.250000 0.250000 0.000000
O O12 0.994618 0.797384 0.921181
O O13 0.000000 0.500000 0.000000
O O14 0.386551 0.536847 0.141247
#
# Coordination Sequence:
#
# PCOD8145462 Si02
#       7
#     4   8   8   8   8   8   8
#     4  10  22  38  70 102 140 172 234 294 360 424
#     4  11  23  44  70 101 143 185 235 301 362 424
#     4  12  25  46  74 107 150 189 241 303 371 432
#     4  12  29  50  73 107 152 194 245 302 367 440
#     4  11  27  48  70 100 142 194 247 297 357 444
#     4  11  25  42  71 105 138 184 241 295 361 427
#     4  12  27  44  75 110 145 192 241 304 369 434
#
# _framework density 21.676628999999998
#
# number of rings (size 3 to 8) (size 9 to 14) (size 15 to 20)
#    0.000    0.615    4.615    2.308    8.615    3.692 
#    0.000    0.000    0.000    0.000    0.000    0.000 
#    0.000    0.000    0.000    0.000    0.000    0.000 
#
# Total GULP energy -322139.681588 kJ/mol
# GULP energy per Si atom -12389.987753 kJ/mol
# Density = 2.162729 g / cm^3
# Si number density = 21.676629 Si / 1000 Ang^3
#
#
#
# Elastic Constant Matrix: (Units=GPa)
#
#
# Indices 1 2 3 4 5 6 
#
# 1 106.8154 31.6274 36.1378 0.0000 -10.8443 0.0000
# 2 31.6274 114.1040 39.7315 0.0000 -4.4363 0.0000
# 3 36.1378 39.7315 114.1787 0.0000 -4.6338 0.0000
# 4 0.0000 0.0000 0.0000 22.3219 0.0000 -6.3492
# 5 -10.8443 -4.4363 -4.6338 0.0000 28.8311 0.0000
# 6 0.0000 0.0000 0.0000 -6.3492 0.0000 32.3180
#
#
#
# Elastic Compliance Matrix: (Units=1/GPa)
#
#
# Indices 1 2 3 4 5 6 
#
# 1 0.011233 -0.002036 -0.002706 0.000000 0.003477 0.000000
# 2 -0.002036 0.010369 -0.002949 0.000000 0.000356 0.000000
# 3 -0.002706 -0.002949 0.010651 0.000000 0.000240 0.000000
# 4 0.000000 0.000000 0.000000 0.047451 0.000000 0.009322
# 5 0.003477 0.000356 0.000240 0.000000 0.036086 0.000000
# 6 0.000000 0.000000 0.000000 0.009322 0.000000 0.032774
#
#
# Mechanical properties :
#
#
# Convention : Reuss Voigt Hill
#
# Bulk Modulus (GPa) = 59.27525 61.12129 60.19827
# Shear Modulus (GPa) = 29.48643 31.86763 30.67703
#
# Velocity S-wave (km/s) = 3.69221 3.83840 3.76601
# Velocity P-wave (km/s) = 6.75138 6.92116 6.83680
#
# Compressibility (1/GPa) = 0.01687045
#
# Stress axis : x y z
#
# Youngs Moduli (GPa) = 89.02137 96.44000 93.89166
#
# Poissons Ratio (x) = 0.19638 0.25404
# Poissons Ratio (y) = 0.18128 0.27691
# Poissons Ratio (z) = 0.24086 0.28443
#
# Static dielectric constant tensor:
#      x y z
#    x 4.097980 0.000000 -0.417680 
#    y 0.000000 3.619930 0.000000 
#    z -0.417680 0.000000 4.042880 
# 
# 
# High freq. dielectric constant tensor:
#      x y z
#    x 1.857980 0.000000 -0.004710 
#    y 0.000000 1.874970 0.000000 
#    z -0.004710 0.000000 1.843960 
# 
# From -- ./inp_files/251069.got.cif
#   From: 2010.06.25/outbox.cif.g09.slc.cpg/sg15_126_cif.got.tgz:251069.got - 2010.06.28 07:06:18.
