data_PCOD8145446
_publ_section_title
;
Structure prediction by ZEFSAII (Michael W. Deem and Ramdas Pophale) SiO2 
 PCOD8145446
Probable space group: C 2/C
;
_chemical_formula_sum "Si O2"
_cell_formula_units_Z 52
_cell_length_a 13.432616
_cell_length_b 16.437416
_cell_length_c 12.810679
_cell_angle_alpha 90.000000
_cell_angle_beta 64.660224
_cell_angle_gamma 90.000000
_cell_volume 2556.417236
_symmetry_space_group_name_H-M "C 2/C"
_symmetry_group_IT_number 15
_symmetry_cell_setting 'monoclinic'
loop_
_space_group_symop_operation_xyz
x,y,z
-x,y,1/2-z
-x,-y,-z
x,-y,1/2+z
1/2+x,1/2+y,z
1/2-x,1/2+y,1/2-z
1/2-x,1/2-y,-z
1/2+x,1/2-y,1/2+z
loop_
_atom_site_type_symbol
_atom_site_label
_atom_site_fract_x
_atom_site_fract_y
_atom_site_fract_z
Si Si1 0.354783 0.561694 0.509999
Si Si2 0.603730 0.397549 0.898384
Si Si3 0.825244 0.271041 0.064845
Si Si4 0.500000 0.140842 0.750000
Si Si5 0.264092 0.802219 0.313327
Si Si6 0.493633 0.093268 0.983427
Si Si7 0.240030 0.371806 0.866118
O O1 0.349764 0.467670 0.546271
O O2 0.478851 0.583930 0.421402
O O3 0.308385 0.619735 0.622927
O O4 0.276748 0.572950 0.446281
O O5 0.600492 0.309571 0.954094
O O6 0.683682 0.396512 0.763913
O O7 0.742814 0.285069 0.199861
O O8 0.904440 0.350848 0.020746
O O9 0.750000 0.250000 0.000000
O O10 0.605244 0.193293 0.731654
O O11 0.472434 0.092815 0.868125
O O12 0.239865 0.723727 0.394712
O O13 0.388022 0.116316 0.099764
O O14 0.500000 0.000000 0.000000
#
# Coordination Sequence:
#
# PCOD8145446 Si02
#       7
#     8   8   8   4   8   8   8
#     4  11  22  40  66  92 128 167 221 279 324 401
#     4  10  25  40  61  95 126 171 221 263 340 397
#     4  10  24  44  63  92 139 176 207 268 336 406
#     4  10  22  40  64 100 122 170 210 282 318 388
#     4  10  22  38  68  94 127 165 221 269 330 389
#     4  11  25  41  67  99 130 172 225 271 333 395
#     4  11  23  39  66  93 126 167 216 285 325 385
#
# _framework density 20.340968
#
# number of rings (size 3 to 8) (size 9 to 14) (size 15 to 20)
#    0.000    1.538    1.538    1.846   12.923    0.000 
#    2.769    5.385    0.000    0.000    0.000    0.000 
#    0.000    0.000    0.000    0.000    0.000    0.000 
#
# Total GULP energy -322137.669484 kJ/mol
# GULP energy per Si atom -12389.910365 kJ/mol
# Density = 2.029467 g / cm^3
# Si number density = 20.340968 Si / 1000 Ang^3
#
#
#
# Elastic Constant Matrix: (Units=GPa)
#
#
# Indices 1 2 3 4 5 6 
#
# 1 88.9715 35.6220 49.8869 0.0000 -0.2971 0.0000
# 2 35.6220 152.8480 39.6219 0.0000 -5.7738 0.0000
# 3 49.8869 39.6219 97.5542 0.0000 -7.9324 0.0000
# 4 0.0000 0.0000 0.0000 28.5577 0.0000 -2.8436
# 5 -0.2971 -5.7738 -7.9324 0.0000 42.6958 0.0000
# 6 0.0000 0.0000 0.0000 -2.8436 0.0000 28.8887
#
#
#
# Elastic Compliance Matrix: (Units=1/GPa)
#
#
# Indices 1 2 3 4 5 6 
#
# 1 0.016301 -0.001860 -0.007708 0.000000 -0.001570 0.000000
# 2 -0.001860 0.007533 -0.002058 0.000000 0.000623 0.000000
# 3 -0.007708 -0.002058 0.015231 0.000000 0.002498 0.000000
# 4 0.000000 0.000000 0.000000 0.035363 0.000000 0.003481
# 5 -0.001570 0.000623 0.002498 0.000000 0.023959 0.000000
# 6 0.000000 0.000000 0.000000 0.003481 0.000000 0.034958
#
#
# Mechanical properties :
#
#
# Convention : Reuss Voigt Hill
#
# Bulk Modulus (GPa) = 63.23729 65.51503 64.37616
# Shear Modulus (GPa) = 30.88919 34.31130 32.60024
#
# Velocity S-wave (km/s) = 3.90111 4.11153 4.00770
# Velocity P-wave (km/s) = 7.17270 7.40391 7.28923
#
# Compressibility (1/GPa) = 0.01581345
#
# Stress axis : x y z
#
# Youngs Moduli (GPa) = 61.34549 132.75107 65.65449
#
# Poissons Ratio (x) = 0.24695 0.50607
# Poissons Ratio (y) = 0.11412 0.13509
# Poissons Ratio (z) = 0.47286 0.27314
#
# Static dielectric constant tensor:
#      x y z
#    x 3.756530 0.000000 -0.031920 
#    y 0.000000 3.728930 0.000000 
#    z -0.031920 0.000000 3.631700 
# 
# 
# High freq. dielectric constant tensor:
#      x y z
#    x 1.788460 0.000000 -0.012740 
#    y 0.000000 1.805950 0.000000 
#    z -0.012740 0.000000 1.802480 
# 
# From -- ./inp_files/144172.got.cif
#   From: 2010.06.25/outbox.cif.g09.slc.cpg/sg15_73_cif.got.tgz:144172.got - 2010.06.28 07:06:18.
