data_PCOD8145066
_publ_section_title
;
Structure prediction by ZEFSAII (Michael W. Deem and Ramdas Pophale) SiO2 
 PCOD8145066
Probable space group: C 2/C
;
_chemical_formula_sum "Si O2"
_cell_formula_units_Z 40
_cell_length_a 15.642134
_cell_length_b 15.153753
_cell_length_c 15.864333
_cell_angle_alpha 90.000000
_cell_angle_beta 153.423342
_cell_angle_gamma 90.000000
_cell_volume 1682.398735
_symmetry_space_group_name_H-M "C 2/C"
_symmetry_group_IT_number 15
_symmetry_cell_setting 'monoclinic'
loop_
_space_group_symop_operation_xyz
x,y,z
-x,y,1/2-z
-x,-y,-z
x,-y,1/2+z
1/2+x,1/2+y,z
1/2-x,1/2+y,1/2-z
1/2-x,1/2-y,-z
1/2+x,1/2-y,1/2+z
loop_
_atom_site_type_symbol
_atom_site_label
_atom_site_fract_x
_atom_site_fract_y
_atom_site_fract_z
Si Si1 0.535238 0.193709 0.375305
Si Si2 0.585780 0.377623 0.210577
Si Si3 0.303956 0.081512 0.748142
Si Si4 0.478545 0.423480 0.637594
Si Si5 0.829147 0.386358 0.838071
O O1 0.500000 0.158794 0.250000
O O2 0.566859 0.300473 0.401287
O O3 0.716029 0.140375 0.566981
O O4 0.356277 0.179758 0.282438
O O5 0.628420 0.380313 0.148686
O O6 0.507316 0.471514 0.170280
O O7 0.233035 0.093146 0.588795
O O8 0.338639 0.980553 0.802040
O O9 0.503423 0.130005 0.944441
O O10 0.500000 0.382914 0.750000
O O11 0.631936 0.373933 0.713558
#
# Coordination Sequence:
#
# PCOD8145066 Si02
#       5
#     8   8   8   8   8
#     4  11  23  35  59  90 128 155 186 238 299 369
#     4  10  22  37  55  92 119 158 189 235 306 355
#     4   9  20  39  60  80 120 156 202 240 290 351
#     4  11  23  38  63  89 115 155 207 248 286 344
#     4   9  20  39  58  86 117 162 191 241 300 341
#
# _framework density 23.775576999999998
#
# number of rings (size 3 to 8) (size 9 to 14) (size 15 to 20)
#    0.000    2.000    0.000    4.800    8.400    0.800 
#    0.000    0.000    0.000    1.200    0.000    0.000 
#    0.000    0.000    0.000    0.000    0.000    0.000 
#
# Total GULP energy -247843.362195 kJ/mol
# GULP energy per Si atom -12392.168110 kJ/mol
# Density = 2.372146 g / cm^3
# Si number density = 23.775577 Si / 1000 Ang^3
#
#
#
# Elastic Constant Matrix: (Units=GPa)
#
#
# Indices 1 2 3 4 5 6 
#
# 1 114.3871 23.1451 66.4077 -0.0157 -27.5531 -0.0156
# 2 23.1451 36.3810 4.8425 0.0101 -5.3798 0.0045
# 3 66.4077 4.8425 145.2307 -0.0069 -41.7393 0.0033
# 4 -0.0157 0.0101 -0.0069 19.2439 -0.0063 1.4942
# 5 -27.5531 -5.3798 -41.7393 -0.0063 36.9957 -0.0067
# 6 -0.0156 0.0045 0.0033 1.4942 -0.0067 13.8653
#
#
#
# Elastic Compliance Matrix: (Units=1/GPa)
#
#
# Indices 1 2 3 4 5 6 
#
# 1 0.014209 -0.007818 -0.005212 0.000013 0.003565 0.000020
# 2 -0.007818 0.032405 0.003219 -0.000020 0.002521 -0.000017
# 3 -0.005212 0.003219 0.012106 0.000002 0.010244 -0.000005
# 4 0.000013 -0.000020 0.000002 0.052403 0.000017 -0.005647
# 5 0.003565 0.002521 0.010244 0.000017 0.041610 0.000019
# 6 0.000020 -0.000017 -0.000005 -0.005647 0.000019 0.072731
#
#
# Mechanical properties :
#
#
# Convention : Reuss Voigt Hill
#
# Bulk Modulus (GPa) = 25.57707 53.86550 39.72129
# Shear Modulus (GPa) = 19.37097 27.46121 23.41609
#
# Velocity S-wave (km/s) = 2.85747 3.40224 3.14168
# Velocity P-wave (km/s) = 4.65488 6.17565 5.46839
#
# Compressibility (1/GPa) = 0.03909752
#
# Stress axis : x y z
#
# Youngs Moduli (GPa) = 70.37956 30.85925 82.60661
#
# Poissons Ratio (x) = 0.24127 0.43052
# Poissons Ratio (y) = 0.55026 -0.26592
# Poissons Ratio (z) = 0.36679 -0.09934
#
# Static dielectric constant tensor:
#      x y z
#    x 4.347120 0.000020 -0.173690 
#    y 0.000020 4.133880 -0.000010 
#    z -0.173690 -0.000010 4.479130 
# 
# 
# High freq. dielectric constant tensor:
#      x y z
#    x 1.927750 0.000000 -0.014860 
#    y 0.000000 1.903140 0.000000 
#    z -0.014860 0.000000 1.960890 
# 
# From -- ./inp_files/46907.got.cif
#   From: 2010.06.25/outbox.cif.g09.slc.cpg/sg15_24_cif.got.tgz:46907.got - 2010.06.28 07:06:18.
