data_PCOD8145568
_publ_section_title
;
Structure prediction by ZEFSAII (Michael W. Deem and Ramdas Pophale) SiO2 
 PCOD8145568
Probable space group: C 2/C
;
_chemical_formula_sum "Si O2"
_cell_formula_units_Z 36
_cell_length_a 11.026140
_cell_length_b 8.133814
_cell_length_c 21.547482
_cell_angle_alpha 90.000000
_cell_angle_beta 66.526067
_cell_angle_gamma 90.000000
_cell_volume 1772.547618
_symmetry_space_group_name_H-M "C 2/C"
_symmetry_group_IT_number 15
_symmetry_cell_setting 'monoclinic'
loop_
_space_group_symop_operation_xyz
x,y,z
-x,y,1/2-z
-x,-y,-z
x,-y,1/2+z
1/2+x,1/2+y,z
1/2-x,1/2+y,1/2-z
1/2-x,1/2-y,-z
1/2+x,1/2-y,1/2+z
loop_
_atom_site_type_symbol
_atom_site_label
_atom_site_fract_x
_atom_site_fract_y
_atom_site_fract_z
Si Si1 0.603371 0.149740 0.077895
Si Si2 0.600165 0.642709 0.461474
Si Si3 0.903988 0.360653 0.150209
Si Si4 0.000000 0.781477 0.750000
Si Si5 0.103820 0.907460 0.180447
O O1 0.748256 0.076295 0.065753
O O2 0.579624 0.320390 0.119748
O O3 0.493726 0.016126 0.115512
O O4 0.591026 0.198337 0.008383
O O5 0.500000 0.500000 0.500000
O O6 0.559653 0.705473 0.401155
O O7 0.751763 0.393017 0.172364
O O8 0.913316 0.329755 0.222120
O O9 0.918549 0.895303 0.815432
O O10 0.000000 0.824836 0.250000
#
# Coordination Sequence:
#
# PCOD8145568 Si02
#       5
#     8   8   8   4   8
#     4  10  22  39  62  87 115 153 197 239 291 344
#     4  10  22  41  61  85 118 152 193 244 293 341
#     4  11  23  38  62  90 115 156 196 237 291 347
#     4  10  24  36  56  90 120 152 194 230 290 348
#     4   9  23  39  58  85 122 154 191 237 290 341
#
# _framework density 20.309750999999999
#
# number of rings (size 3 to 8) (size 9 to 14) (size 15 to 20)
#    0.667    1.333    0.000    2.000    4.667    4.444 
#    0.000    0.000    0.000    0.000    0.000    0.000 
#    0.000    0.000    0.000    0.000    0.000    0.000 
#
# Total GULP energy -223048.656297 kJ/mol
# GULP energy per Si atom -12391.592016 kJ/mol
# Density = 2.026353 g / cm^3
# Si number density = 20.309751 Si / 1000 Ang^3
#
#
#
# Elastic Constant Matrix: (Units=GPa)
#
#
# Indices 1 2 3 4 5 6 
#
# 1 111.4380 50.0329 49.4056 0.0000 -7.1119 0.0000
# 2 50.0329 70.7143 17.2541 0.0000 -9.0454 0.0000
# 3 49.4056 17.2541 74.7808 0.0000 1.0158 0.0000
# 4 0.0000 0.0000 0.0000 -18.3069 0.0000 85.4008
# 5 -7.1119 -9.0454 1.0158 0.0000 43.1219 0.0000
# 6 0.0000 0.0000 0.0000 85.4008 0.0000 -135.1313
#
#
#
# Elastic Compliance Matrix: (Units=1/GPa)
#
#
# Indices 1 2 3 4 5 6 
#
# 1 0.017764 -0.010142 -0.009410 0.000000 0.001024 0.000000
# 2 -0.010142 0.021238 0.001763 0.000000 0.002741 0.000000
# 3 -0.009410 0.001763 0.019205 0.000000 -0.001635 0.000000
# 4 0.000000 0.000000 0.000000 0.028039 0.000000 0.017720
# 5 0.001024 0.002741 -0.001635 0.000000 0.023972 0.000000
# 6 0.000000 0.000000 0.000000 0.017720 0.000000 0.003799
#
#
# Mechanical properties :
#
#
# Convention : Reuss Voigt Hill
#
# Bulk Modulus (GPa) = 44.19162 54.47982 49.33572
# Shear Modulus (GPa) = 31.81919 -12.71390 9.55264
#
# Velocity S-wave (km/s) = 3.96244 -2.50471 2.17110
# Velocity P-wave (km/s) = 6.53764 4.30324 5.53437
#
# Compressibility (1/GPa) = 0.02262873
#
# Stress axis : x y z
#
# Youngs Moduli (GPa) = 56.29209 47.08634 52.06976
#
# Poissons Ratio (x) = 0.47755 0.49000
# Poissons Ratio (y) = 0.57091 -0.09181
# Poissons Ratio (z) = 0.52973 -0.08302
#
# Static dielectric constant tensor:
#      x y z
#    x 3.723470 0.000000 0.028230 
#    y 0.000000 3.548380 0.000000 
#    z 0.028230 0.000000 3.981290 
# 
# 
# High freq. dielectric constant tensor:
#      x y z
#    x 1.800830 0.000000 0.003630 
#    y 0.000000 1.777670 0.000000 
#    z 0.003630 0.000000 1.802650 
# 
# From -- ./inp_files/194889.got.cif
#   From: 2010.06.25/outbox.cif.g09.slc.cpg/sg15_98_cif.got.tgz:194889.got - 2010.06.28 07:06:18.
