data_PCOD8145722
_publ_section_title
;
Structure prediction by ZEFSAII (Michael W. Deem and Ramdas Pophale) SiO2 
 PCOD8145722
Probable space group: C 2/C
;
_chemical_formula_sum "Si O2"
_cell_formula_units_Z 64
_cell_length_a 8.763931
_cell_length_b 18.297811
_cell_length_c 19.813559
_cell_angle_alpha 90.000000
_cell_angle_beta 85.426155
_cell_angle_gamma 90.000000
_cell_volume 3167.198709
_symmetry_space_group_name_H-M "C 2/C"
_symmetry_group_IT_number 15
_symmetry_cell_setting 'monoclinic'
loop_
_space_group_symop_operation_xyz
x,y,z
-x,y,1/2-z
-x,-y,-z
x,-y,1/2+z
1/2+x,1/2+y,z
1/2-x,1/2+y,1/2-z
1/2-x,1/2-y,-z
1/2+x,1/2-y,1/2+z
loop_
_atom_site_type_symbol
_atom_site_label
_atom_site_fract_x
_atom_site_fract_y
_atom_site_fract_z
Si Si1 0.670102 0.512149 0.967497
Si Si2 0.694297 0.117602 0.642138
Si Si3 0.129250 0.406264 0.930681
Si Si4 0.334233 0.612195 0.779432
Si Si5 0.805407 0.360813 0.968500
Si Si6 0.705592 0.751674 0.925237
Si Si7 0.638206 0.287610 0.095034
Si Si8 0.569904 0.015101 0.819795
O O1 0.680599 0.569366 0.904792
O O2 0.732143 0.433991 0.939468
O O3 0.500000 0.500000 0.000000
O O4 0.771979 0.540607 0.026312
O O5 0.740720 0.134034 0.716803
O O6 0.671402 0.198723 0.613830
O O7 0.531105 0.078844 0.643517
O O8 0.223192 0.335592 0.900504
O O9 0.063622 0.444729 0.866849
O O10 0.984639 0.375406 0.978388
O O11 0.500000 0.585296 0.750000
O O12 0.342584 0.681374 0.829863
O O13 0.245391 0.542679 0.813499
O O14 0.788063 0.293550 0.915858
O O15 0.720977 0.343173 0.041347
O O16 0.540255 0.716277 0.916605
O O17 0.750000 0.750000 0.000000
O O18 0.500000 0.992406 0.750000
#
# Coordination Sequence:
#
# PCOD8145722 Si02
#       8
#     8   8   8   8   8   8   8   8
#     4  12  24  37  64 100 136 169 220 273 338 391
#     4  11  23  42  63  94 131 176 218 269 328 398
#     4  11  23  41  66  96 130 176 212 275 335 395
#     4  11  23  42  67  92 129 175 222 262 328 406
#     4  10  22  39  66  97 127 166 220 278 328 393
#     4  11  22  39  61  97 134 166 210 275 333 384
#     4  10  22  40  65  99 126 172 220 268 332 397
#     4  10  24  44  66  93 126 175 224 273 326 400
#
# _framework density 20.207131
#
# number of rings (size 3 to 8) (size 9 to 14) (size 15 to 20)
#    0.000    1.250    3.750    1.875    3.500    1.000 
#    4.500    0.000    0.000    2.250    0.000    0.000 
#    0.000    0.000    0.000    0.000    0.000    0.000 
#
# Total GULP energy -396712.716535 kJ/mol
# GULP energy per Si atom -12397.272392 kJ/mol
# Density = 2.016114 g / cm^3
# Si number density = 20.207131 Si / 1000 Ang^3
#
#
#
# Elastic Constant Matrix: (Units=GPa)
#
#
# Indices 1 2 3 4 5 6 
#
# 1 77.2643 38.4146 33.3701 0.0000 -2.6516 0.0000
# 2 38.4146 138.4632 59.3201 0.0000 8.9368 0.0000
# 3 33.3701 59.3201 111.6258 0.0000 6.6892 0.0000
# 4 0.0000 0.0000 0.0000 34.4915 0.0000 0.8187
# 5 -2.6516 8.9368 6.6892 0.0000 30.1454 0.0000
# 6 0.0000 0.0000 0.0000 0.8187 0.0000 34.2946
#
#
#
# Elastic Compliance Matrix: (Units=1/GPa)
#
#
# Indices 1 2 3 4 5 6 
#
# 1 0.016080 -0.003266 -0.003258 0.000000 0.003105 0.000000
# 2 -0.003266 0.010100 -0.004251 0.000000 -0.002338 0.000000
# 3 -0.003258 -0.004251 0.012297 0.000000 -0.001755 0.000000
# 4 0.000000 0.000000 0.000000 0.029009 0.000000 -0.000692
# 5 0.003105 -0.002338 -0.001755 0.000000 0.034528 0.000000
# 6 0.000000 0.000000 0.000000 -0.000692 0.000000 0.029176
#
#
# Mechanical properties :
#
#
# Convention : Reuss Voigt Hill
#
# Bulk Modulus (GPa) = 59.07469 65.50700 62.29085
# Shear Modulus (GPa) = 31.56934 32.86954 32.21944
#
# Velocity S-wave (km/s) = 3.95687 4.03753 3.99740
# Velocity P-wave (km/s) = 7.08334 7.36367 7.22487
#
# Compressibility (1/GPa) = 0.01692772
#
# Stress axis : x y z
#
# Youngs Moduli (GPa) = 62.18962 99.00611 81.32345
#
# Poissons Ratio (x) = 0.32335 0.26491
# Poissons Ratio (y) = 0.20311 0.34571
# Poissons Ratio (z) = 0.20258 0.42088
#
# Static dielectric constant tensor:
#      x y z
#    x 3.908520 0.000000 -0.208830 
#    y 0.000000 3.432740 0.000000 
#    z -0.208830 0.000000 3.677080 
# 
# 
# High freq. dielectric constant tensor:
#      x y z
#    x 1.791410 0.000000 -0.004220 
#    y 0.000000 1.797950 0.000000 
#    z -0.004220 0.000000 1.780130 
# 
# From -- ./inp_files/232714.got.cif
#   From: 2010.06.25/outbox.cif.g09.slc.cpg/sg15_117_cif.got.tgz:232714.got - 2010.06.28 07:06:18.
