data_PCOD8145658
_publ_section_title
;
Structure prediction by ZEFSAII (Michael W. Deem and Ramdas Pophale) SiO2 
 PCOD8145658
Probable space group: C 2/C
;
_chemical_formula_sum "Si O2"
_cell_formula_units_Z 56
_cell_length_a 6.391505
_cell_length_b 17.851518
_cell_length_c 27.668832
_cell_angle_alpha 90.000000
_cell_angle_beta 55.188970
_cell_angle_gamma 90.000000
_cell_volume 2591.988503
_symmetry_space_group_name_H-M "C 2/C"
_symmetry_group_IT_number 15
_symmetry_cell_setting 'monoclinic'
loop_
_space_group_symop_operation_xyz
x,y,z
-x,y,1/2-z
-x,-y,-z
x,-y,1/2+z
1/2+x,1/2+y,z
1/2-x,1/2+y,1/2-z
1/2-x,1/2-y,-z
1/2+x,1/2-y,1/2+z
loop_
_atom_site_type_symbol
_atom_site_label
_atom_site_fract_x
_atom_site_fract_y
_atom_site_fract_z
Si Si1 0.489597 0.790878 0.645216
Si Si2 0.283130 0.472720 0.465262
Si Si3 0.500000 0.067749 0.750000
Si Si4 0.963563 0.875744 0.352848
Si Si5 0.030147 0.882299 0.692206
Si Si6 0.713112 0.573361 0.431408
Si Si7 0.650733 0.976506 0.333849
Si Si8 0.500000 0.832336 0.750000
O O1 0.572830 0.707368 0.620473
O O2 0.247039 0.822537 0.645856
O O3 0.715909 0.848651 0.603160
O O4 0.441878 0.784947 0.709647
O O5 0.386005 0.431183 0.405152
O O6 0.438590 0.550237 0.447861
O O7 0.310868 0.418124 0.507695
O O8 0.000000 0.500000 0.500000
O O9 0.739253 0.117894 0.701391
O O10 0.403972 0.018682 0.716623
O O11 0.763800 0.895153 0.335186
O O12 0.000000 0.853891 0.750000
O O13 0.754171 0.880579 0.702587
O O14 0.125429 0.967274 0.679255
O O15 0.899837 0.502976 0.394972
#
# Coordination Sequence:
#
# PCOD8145658 Si02
#       8
#     8   8   4   8   8   8   8   4
#     4  10  25  40  62  99 140 177 228 275 347 414
#     4  11  23  46  75  95 131 175 236 296 338 402
#     4  12  26  41  66 100 153 176 224 288 347 424
#     4  12  26  41  68 102 137 185 227 286 347 408
#     4   9  20  37  60  89 127 179 225 267 327 403
#     4  10  23  45  69  99 127 177 231 286 348 405
#     4  11  23  41  66 101 133 178 235 275 345 415
#     4  10  22  39  64  90 147 186 222 274 343 414
#
# _framework density 21.605032999999999
#
# number of rings (size 3 to 8) (size 9 to 14) (size 15 to 20)
#    0.000    1.429    2.857    1.286    7.000    7.429 
#    0.000    0.714    0.000    0.000    0.000    0.000 
#    0.000    0.000    0.000    0.000    0.000    0.000 
#
# Total GULP energy -346910.864178 kJ/mol
# GULP energy per Si atom -12389.673721 kJ/mol
# Density = 2.155586 g / cm^3
# Si number density = 21.605033 Si / 1000 Ang^3
#
#
#
# Elastic Constant Matrix: (Units=GPa)
#
#
# Indices 1 2 3 4 5 6 
#
# 1 132.1635 51.5563 41.5038 -0.0004 -19.8060 0.0003
# 2 51.5563 106.2571 26.8763 0.0001 -4.8973 0.0000
# 3 41.5038 26.8763 104.1537 -0.0003 -3.3207 0.0001
# 4 -0.0004 0.0001 -0.0003 12.0524 0.0001 4.6654
# 5 -19.8060 -4.8973 -3.3207 0.0001 36.2810 -0.0001
# 6 0.0003 0.0000 0.0001 4.6654 -0.0001 15.0135
#
#
#
# Elastic Compliance Matrix: (Units=1/GPa)
#
#
# Indices 1 2 3 4 5 6 
#
# 1 0.010993 -0.004312 -0.003104 0.000000 0.005135 0.000000
# 2 -0.004312 0.011806 -0.001356 0.000000 -0.000884 0.000000
# 3 -0.003104 -0.001356 0.011161 0.000000 -0.000856 0.000000
# 4 0.000000 0.000000 0.000000 0.094316 0.000000 -0.029308
# 5 0.005135 -0.000884 -0.000856 0.000000 0.030168 0.000000
# 6 0.000000 0.000000 0.000000 -0.029308 0.000000 0.075714
#
#
# Mechanical properties :
#
#
# Convention : Reuss Voigt Hill
#
# Bulk Modulus (GPa) = 60.92169 64.71634 62.81902
# Shear Modulus (GPa) = 19.44213 27.51191 23.47702
#
# Velocity S-wave (km/s) = 3.00307 3.57235 3.30001
# Velocity P-wave (km/s) = 6.34694 6.85820 6.60752
#
# Compressibility (1/GPa) = 0.01641451
#
# Stress axis : x y z
#
# Youngs Moduli (GPa) = 90.96923 84.70564 89.59908
#
# Poissons Ratio (x) = 0.36524 0.27812
# Poissons Ratio (y) = 0.39225 0.12153
# Poissons Ratio (z) = 0.28238 0.11489
#
# Static dielectric constant tensor:
#      x y z
#    x 4.432660 0.000000 -0.134940 
#    y 0.000000 2.107820 0.000010 
#    z -0.134940 0.000010 4.055190 
# 
# 
# High freq. dielectric constant tensor:
#      x y z
#    x 1.862270 0.000000 -0.010110 
#    y 0.000000 1.814050 0.000000 
#    z -0.010110 0.000000 1.848730 
# 
# From -- ./inp_files/286140.got.cif
#   From: 2010.06.25/outbox.cif.g09.slc.cpg/sg15_144_cif.got.tgz:286140.got - 2010.06.28 07:06:18.
