data_PCOD8145769
_publ_section_title
;
Structure prediction by ZEFSAII (Michael W. Deem and Ramdas Pophale) SiO2 
 PCOD8145769
Probable space group: C 2/C
;
_chemical_formula_sum "Si O2"
_cell_formula_units_Z 44
_cell_length_a 24.915994
_cell_length_b 9.570964
_cell_length_c 10.498045
_cell_angle_alpha 90.000000
_cell_angle_beta 51.751700
_cell_angle_gamma 90.000000
_cell_volume 1966.063085
_symmetry_space_group_name_H-M "C 2/C"
_symmetry_group_IT_number 15
_symmetry_cell_setting 'monoclinic'
loop_
_space_group_symop_operation_xyz
x,y,z
-x,y,1/2-z
-x,-y,-z
x,-y,1/2+z
1/2+x,1/2+y,z
1/2-x,1/2+y,1/2-z
1/2-x,1/2-y,-z
1/2+x,1/2-y,1/2+z
loop_
_atom_site_type_symbol
_atom_site_label
_atom_site_fract_x
_atom_site_fract_y
_atom_site_fract_z
Si Si1 0.571718 0.935389 0.859876
Si Si2 0.576180 0.398946 0.958068
Si Si3 0.782384 0.440228 0.342005
Si Si4 0.466139 0.318024 0.925441
Si Si5 0.000000 0.692779 0.250000
Si Si6 0.230279 0.126843 0.190148
O O1 0.559742 0.895905 0.730609
O O2 0.634758 0.041587 0.783966
O O3 0.579862 0.796638 0.934700
O O4 0.500000 0.000000 0.000000
O O5 0.527995 0.393005 0.907153
O O6 0.649828 0.369669 0.794239
O O7 0.581695 0.546722 0.026512
O O8 0.548403 0.280721 0.089753
O O9 0.751825 0.292472 0.338607
O O10 0.753078 0.560585 0.291847
O O11 0.761342 0.456971 0.522413
O O12 0.500000 0.250614 0.750000
#
# Coordination Sequence:
#
# PCOD8145769 Si02
#       6
#     8   8   8   8   4   8
#     4  11  26  43  72 101 137 183 235 302 350 419
#     4  10  22  42  66 103 141 179 227 296 349 422
#     4  11  28  49  72 106 146 192 246 288 365 429
#     4  10  22  39  70 102 133 176 234 289 357 410
#     4  10  22  44  70 104 140 180 238 296 358 416
#     4  11  28  48  72 103 150 192 237 297 353 444
#
# _framework density 22.379750000000001
#
# number of rings (size 3 to 8) (size 9 to 14) (size 15 to 20)
#    0.000    1.455    0.909    2.182   11.455    2.182 
#    0.000    0.000    0.000    0.000    0.000    0.000 
#    0.000    0.000    0.000    0.000    0.000    0.000 
#
# Total GULP energy -272540.679255 kJ/mol
# GULP energy per Si atom -12388.212693 kJ/mol
# Density = 2.232881 g / cm^3
# Si number density = 22.379750 Si / 1000 Ang^3
#
#
#
# Elastic Constant Matrix: (Units=GPa)
#
#
# Indices 1 2 3 4 5 6 
#
# 1 71.6069 41.9848 47.1101 0.0000 8.0520 0.0000
# 2 41.9848 90.1034 21.0989 0.0000 8.3595 0.0000
# 3 47.1101 21.0989 113.4455 0.0000 -2.7789 0.0000
# 4 0.0000 0.0000 0.0000 -95.1413 0.0000 8.6364
# 5 8.0520 8.3595 -2.7789 0.0000 42.9646 0.0000
# 6 0.0000 0.0000 0.0000 8.6364 0.0000 32.0513
#
#
#
# Elastic Compliance Matrix: (Units=1/GPa)
#
#
# Indices 1 2 3 4 5 6 
#
# 1 0.026015 -0.009660 -0.009094 0.000000 -0.003584 0.000000
# 2 -0.009660 0.015443 0.001112 0.000000 -0.001122 0.000000
# 3 -0.009094 0.001112 0.012441 0.000000 0.002293 0.000000
# 4 0.000000 0.000000 0.000000 -0.010260 0.000000 0.002765
# 5 -0.003584 -0.001122 0.002293 0.000000 0.024313 0.000000
# 6 0.000000 0.000000 0.000000 0.002765 0.000000 0.030455
#
#
# Mechanical properties :
#
#
# Convention : Reuss Voigt Hill
#
# Bulk Modulus (GPa) = 53.72282 55.06038 54.39160
# Shear Modulus (GPa) = 35.74020 6.97237 21.35628
#
# Velocity S-wave (km/s) = 4.00057 1.76699 3.09247
# Velocity P-wave (km/s) = 6.73770 5.36835 6.09162
#
# Compressibility (1/GPa) = 0.01861407
#
# Stress axis : x y z
#
# Youngs Moduli (GPa) = 38.43884 64.75266 80.38052
#
# Poissons Ratio (x) = 0.62551 0.73102
# Poissons Ratio (y) = 0.37132 -0.08937
# Poissons Ratio (z) = 0.34958 -0.07199
#
# Static dielectric constant tensor:
#      x y z
#    x 3.827850 0.000000 0.031100 
#    y 0.000000 4.529430 0.000000 
#    z 0.031100 0.000000 4.019760 
# 
# 
# High freq. dielectric constant tensor:
#      x y z
#    x 1.873250 0.000000 0.005000 
#    y 0.000000 1.891970 0.000000 
#    z 0.005000 0.000000 1.888980 
# 
# From -- ./inp_files/121770.got.cif
#   From: 2010.06.25/outbox.cif.g09.slc.cpg/sg15_61_cif.got.tgz:121770.got - 2010.06.28 07:06:18.
