data_PCOD8145242
_publ_section_title
;
Structure prediction by ZEFSAII (Michael W. Deem and Ramdas Pophale) SiO2 
 PCOD8145242
Probable space group: C 2/C
;
_chemical_formula_sum "Si O2"
_cell_formula_units_Z 64
_cell_length_a 14.553820
_cell_length_b 26.647997
_cell_length_c 9.422299
_cell_angle_alpha 90.000000
_cell_angle_beta 109.633117
_cell_angle_gamma 90.000000
_cell_volume 3441.805899
_symmetry_space_group_name_H-M "C 2/C"
_symmetry_group_IT_number 15
_symmetry_cell_setting 'monoclinic'
loop_
_space_group_symop_operation_xyz
x,y,z
-x,y,1/2-z
-x,-y,-z
x,-y,1/2+z
1/2+x,1/2+y,z
1/2-x,1/2+y,1/2-z
1/2-x,1/2-y,-z
1/2+x,1/2-y,1/2+z
loop_
_atom_site_type_symbol
_atom_site_label
_atom_site_fract_x
_atom_site_fract_y
_atom_site_fract_z
Si Si1 0.790565 0.359148 0.365304
Si Si2 0.119578 0.457843 0.163823
Si Si3 0.595640 0.313852 0.715055
Si Si4 0.889561 0.299312 0.188920
Si Si5 0.301932 0.840658 0.882909
Si Si6 0.105557 0.554496 0.982190
Si Si7 0.598791 0.685015 0.885760
Si Si8 0.610513 0.200127 0.348432
O O1 0.807290 0.418717 0.372834
O O2 0.812821 0.337733 0.220154
O O3 0.681121 0.350511 0.361793
O O4 0.871311 0.330683 0.500220
O O5 0.139218 0.460451 0.341967
O O6 0.010586 0.439694 0.071872
O O7 0.141557 0.512076 0.109759
O O8 0.500000 0.331010 0.750000
O O9 0.613701 0.254538 0.739626
O O10 0.684848 0.343204 0.835171
O O11 0.582428 0.327131 0.542697
O O12 0.000000 0.321004 0.250000
O O13 0.851850 0.297741 0.006948
O O14 0.318572 0.823059 0.731345
O O15 0.346655 0.894263 0.941347
O O16 0.500000 0.674358 0.750000
O O17 0.635599 0.741762 0.884533
O O18 0.500000 0.191696 0.250000
#
# Coordination Sequence:
#
# PCOD8145242 Si02
#       8
#     8   8   8   8   8   8   8   8
#     4  12  21  39  60  82 120 160 196 239 290 349
#     4  10  22  38  60  86 119 153 189 238 290 350
#     4  11  25  40  57  84 118 158 204 248 288 339
#     4  11  22  36  57  88 122 157 195 236 289 351
#     4  12  23  38  59  86 119 159 200 238 290 351
#     4  10  22  39  58  88 119 151 192 235 291 351
#     4  11  25  40  57  84 118 158 205 246 289 341
#     4  11  22  35  58  86 121 156 194 241 288 351
#
# _framework density 18.594889999999999
#
# number of rings (size 3 to 8) (size 9 to 14) (size 15 to 20)
#    0.000    1.000    3.750    3.750    8.750    0.000 
#    0.000    0.000    0.000    0.750    0.000    3.500 
#    0.000    0.000    0.000    0.000    0.000    0.000 
#
# Total GULP energy -396926.577779 kJ/mol
# GULP energy per Si atom -12403.955556 kJ/mol
# Density = 1.855257 g / cm^3
# Si number density = 18.594890 Si / 1000 Ang^3
#
#
#
# Elastic Constant Matrix: (Units=GPa)
#
#
# Indices 1 2 3 4 5 6 
#
# 1 115.0550 37.4699 42.5917 0.0000 -6.9322 0.0000
# 2 37.4699 57.6038 34.6588 0.0000 -13.7631 0.0000
# 3 42.5917 34.6588 93.2766 0.0000 -0.2037 0.0000
# 4 0.0000 0.0000 0.0000 1.2966 0.0000 -1.4140
# 5 -6.9322 -13.7631 -0.2037 0.0000 27.7279 0.0000
# 6 0.0000 0.0000 0.0000 -1.4140 0.0000 26.9741
#
#
#
# Elastic Compliance Matrix: (Units=1/GPa)
#
#
# Indices 1 2 3 4 5 6 
#
# 1 0.011747 -0.005652 -0.003264 0.000000 0.000107 0.000000
# 2 -0.005652 0.029056 -0.008188 0.000000 0.012949 0.000000
# 3 -0.003264 -0.008188 0.015243 0.000000 -0.004768 0.000000
# 4 0.000000 0.000000 0.000000 0.818002 0.000000 0.042881
# 5 0.000107 0.012949 -0.004768 0.000000 0.042484 0.000000
# 6 0.000000 0.000000 0.000000 0.042881 0.000000 0.039320
#
#
# Mechanical properties :
#
#
# Convention : Reuss Voigt Hill
#
# Bulk Modulus (GPa) = 45.78662 55.04180 50.41421
# Shear Modulus (GPa) = 5.01334 21.28074 13.14704
#
# Velocity S-wave (km/s) = 1.64376 3.38663 2.66188
# Velocity P-wave (km/s) = 5.31783 6.70500 6.05130
#
# Compressibility (1/GPa) = 0.02184044
#
# Stress axis : x y z
#
# Youngs Moduli (GPa) = 85.13067 34.41571 65.60458
#
# Poissons Ratio (x) = 0.19451 0.21410
# Poissons Ratio (y) = 0.48113 0.53714
# Poissons Ratio (z) = 0.27782 0.28178
#
# Static dielectric constant tensor:
#      x y z
#    x 3.469520 0.000000 -0.074980 
#    y 0.000000 3.190000 0.000000 
#    z -0.074980 0.000000 3.642000 
# 
# 
# High freq. dielectric constant tensor:
#      x y z
#    x 1.715910 0.000000 -0.007000 
#    y 0.000000 1.694550 0.000000 
#    z -0.007000 0.000000 1.741540 
# 
# From -- ./inp_files/43552.got.cif
#   From: 2010.06.25/outbox.cif.g09.slc.cpg/sg15_22_cif.got.tgz:43552.got - 2010.06.28 07:06:18.
