data_PCOD8145607
_publ_section_title
;
Structure prediction by ZEFSAII (Michael W. Deem and Ramdas Pophale) SiO2 
 PCOD8145607
Probable space group: C 2/C
;
_chemical_formula_sum "Si O2"
_cell_formula_units_Z 56
_cell_length_a 21.151741
_cell_length_b 10.720880
_cell_length_c 10.508287
_cell_angle_alpha 90.000000
_cell_angle_beta 96.305010
_cell_angle_gamma 90.000000
_cell_volume 2368.501212
_symmetry_space_group_name_H-M "C 2/C"
_symmetry_group_IT_number 15
_symmetry_cell_setting 'monoclinic'
loop_
_space_group_symop_operation_xyz
x,y,z
-x,y,1/2-z
-x,-y,-z
x,-y,1/2+z
1/2+x,1/2+y,z
1/2-x,1/2+y,1/2-z
1/2-x,1/2-y,-z
1/2+x,1/2-y,1/2+z
loop_
_atom_site_type_symbol
_atom_site_label
_atom_site_fract_x
_atom_site_fract_y
_atom_site_fract_z
Si Si1 0.200504 0.610277 0.949269
Si Si2 0.949732 0.689154 0.003666
Si Si3 0.081452 0.591864 0.075461
Si Si4 0.863873 0.874439 0.881660
Si Si5 0.258281 0.800297 0.303664
Si Si6 0.816184 0.976221 0.603559
Si Si7 0.851428 0.366454 0.668644
O O1 0.202095 0.677895 0.815105
O O2 0.189478 0.461768 0.924682
O O3 0.138548 0.658444 0.010643
O O4 0.268944 0.631849 0.036365
O O5 0.899847 0.724808 0.103776
O O6 0.024193 0.693822 0.054962
O O7 0.936769 0.543704 0.977319
O O8 0.930619 0.794633 0.894180
O O9 0.102820 0.561907 0.223064
O O10 0.806849 0.777468 0.903557
O O11 0.855512 0.934445 0.738182
O O12 0.861207 0.976629 0.996541
O O13 0.237840 0.927464 0.364105
O O14 0.195808 0.719752 0.261177
#
# Coordination Sequence:
#
# PCOD8145607 Si02
#       7
#     8   8   8   8   8   8   8
#     4  11  22  38  62 104 143 169 221 292 355 424
#     4  10  22  41  65  93 135 184 228 278 352 414
#     4  10  22  39  63 100 134 173 229 287 344 426
#     4  12  24  41  66  99 143 188 230 290 354 421
#     4  12  21  38  64  97 134 179 220 283 368 410
#     4  12  23  41  62 104 146 180 232 288 354 432
#     4  11  20  37  64  95 131 176 225 283 351 420
#
# _framework density 23.643643999999998
#
# number of rings (size 3 to 8) (size 9 to 14) (size 15 to 20)
#    0.000    0.857    4.286    5.143    0.000    2.286 
#    0.000    2.143    0.000    0.857   11.143    0.000 
#    0.000    0.000    0.000    0.000    0.000    0.000 
#
# Total GULP energy -346927.396006 kJ/mol
# GULP energy per Si atom -12390.264143 kJ/mol
# Density = 2.358983 g / cm^3
# Si number density = 23.643644 Si / 1000 Ang^3
#
#
#
# Elastic Constant Matrix: (Units=GPa)
#
#
# Indices 1 2 3 4 5 6 
#
# 1 117.2001 26.5763 45.9969 0.0000 11.3602 0.0000
# 2 26.5763 21.6308 6.8247 0.0000 1.6767 0.0000
# 3 45.9969 6.8247 113.5534 0.0000 4.3020 0.0000
# 4 0.0000 0.0000 0.0000 39.0916 0.0000 7.6934
# 5 11.3602 1.6767 4.3020 0.0000 30.6691 0.0000
# 6 0.0000 0.0000 0.0000 7.6934 0.0000 34.5887
#
#
#
# Elastic Compliance Matrix: (Units=1/GPa)
#
#
# Indices 1 2 3 4 5 6 
#
# 1 0.014341 -0.015839 -0.004714 0.000000 -0.003785 0.000000
# 2 -0.015839 0.064765 0.002448 0.000000 0.001983 0.000000
# 3 -0.004714 0.002448 0.010564 0.000000 0.000130 0.000000
# 4 0.000000 0.000000 0.000000 0.026752 0.000000 -0.005950
# 5 -0.003785 0.001983 0.000130 0.000000 0.033881 0.000000
# 6 0.000000 0.000000 0.000000 -0.005950 0.000000 0.030235
#
#
# Mechanical properties :
#
#
# Convention : Reuss Voigt Hill
#
# Bulk Modulus (GPa) = 18.70548 45.68670 32.19609
# Shear Modulus (GPa) = 21.31592 32.40230 26.85911
#
# Velocity S-wave (km/s) = 3.00584 3.70597 3.37411
# Velocity P-wave (km/s) = 4.46938 6.13818 5.36901
#
# Compressibility (1/GPa) = 0.05346028
#
# Stress axis : x y z
#
# Youngs Moduli (GPa) = 69.73041 15.44053 94.66367
#
# Poissons Ratio (x) = 0.24456 0.44622
# Poissons Ratio (y) = 1.10447 -0.23177
# Poissons Ratio (z) = 0.32869 -0.03780
#
# Static dielectric constant tensor:
#      x y z
#    x 4.390250 0.000000 0.034790 
#    y 0.000000 4.149650 0.000000 
#    z 0.034790 0.000000 4.366460 
# 
# 
# High freq. dielectric constant tensor:
#      x y z
#    x 1.914630 0.000000 0.000250 
#    y 0.000000 1.924870 0.000000 
#    z 0.000250 0.000000 1.948000 
# 
# From -- ./inp_files/111693.got.cif
#   From: 2010.06.25/outbox.cif.g09.slc.cpg/sg15_56_cif.got.tgz:111693.got - 2010.06.28 07:06:18.
