data_PCOD8145656
_publ_section_title
;
Structure prediction by ZEFSAII (Michael W. Deem and Ramdas Pophale) SiO2 
 PCOD8145656
Probable space group: C 2/C
;
_chemical_formula_sum "Si O2"
_cell_formula_units_Z 48
_cell_length_a 9.423583
_cell_length_b 17.890519
_cell_length_c 13.725170
_cell_angle_alpha 90.000000
_cell_angle_beta 91.309064
_cell_angle_gamma 90.000000
_cell_volume 2313.360786
_symmetry_space_group_name_H-M "C 2/C"
_symmetry_group_IT_number 15
_symmetry_cell_setting 'monoclinic'
loop_
_space_group_symop_operation_xyz
x,y,z
-x,y,1/2-z
-x,-y,-z
x,-y,1/2+z
1/2+x,1/2+y,z
1/2-x,1/2+y,1/2-z
1/2-x,1/2-y,-z
1/2+x,1/2-y,1/2+z
loop_
_atom_site_type_symbol
_atom_site_label
_atom_site_fract_x
_atom_site_fract_y
_atom_site_fract_z
Si Si1 0.401874 0.026740 0.338101
Si Si2 0.582768 0.536128 0.351067
Si Si3 0.090275 0.630481 0.454417
Si Si4 0.591762 0.397126 0.491861
Si Si5 0.399191 0.276887 0.158849
Si Si6 0.600735 0.848926 0.164316
O O1 0.500000 0.051322 0.250000
O O2 0.243810 0.060892 0.329643
O O3 0.480793 0.062586 0.432719
O O4 0.380162 0.938146 0.339951
O O5 0.500000 0.525529 0.250000
O O6 0.565945 0.460420 0.411316
O O7 0.511294 0.599968 0.416528
O O8 0.246590 0.595949 0.469540
O O9 0.093865 0.689229 0.365855
O O10 0.043637 0.671537 0.555164
O O11 0.555767 0.319307 0.438985
O O12 0.500000 0.295629 0.250000
O O13 0.244616 0.304991 0.188438
O O14 0.500000 0.823446 0.250000
#
# Coordination Sequence:
#
# PCOD8145656 Si02
#       6
#     8   8   8   8   8   8
#     4  11  22  38  63  96 127 163 209 269 316 371
#     4  11  22  38  61  95 129 161 211 266 315 372
#     4  11  22  43  62  93 128 168 209 265 320 376
#     4  10  22  39  64  90 125 169 208 260 318 376
#     4  11  23  43  65  90 128 170 212 259 320 385
#     4  10  22  39  64  91 122 165 216 262 313 377
#
# _framework density 20.749032
#
# number of rings (size 3 to 8) (size 9 to 14) (size 15 to 20)
#    0.000    1.333    3.333    4.500    0.000    1.333 
#    0.000   11.667    0.000    0.000    0.000    0.000 
#    0.000    0.000    0.000    0.000    0.000    0.000 
#
# Total GULP energy -297512.359821 kJ/mol
# GULP energy per Si atom -12396.348326 kJ/mol
# Density = 2.070181 g / cm^3
# Si number density = 20.749032 Si / 1000 Ang^3
#
#
#
# Elastic Constant Matrix: (Units=GPa)
#
#
# Indices 1 2 3 4 5 6 
#
# 1 134.4442 33.5622 84.8875 0.0000 -2.7588 0.0000
# 2 33.5622 65.3052 28.0557 0.0000 -1.4883 0.0000
# 3 84.8875 28.0557 117.3866 0.0000 -1.6372 0.0000
# 4 0.0000 0.0000 0.0000 30.9342 0.0000 8.1980
# 5 -2.7588 -1.4883 -1.6372 0.0000 47.8330 0.0000
# 6 0.0000 0.0000 0.0000 8.1980 0.0000 15.7738
#
#
#
# Elastic Compliance Matrix: (Units=1/GPa)
#
#
# Indices 1 2 3 4 5 6 
#
# 1 0.014283 -0.003228 -0.009551 0.000000 0.000396 0.000000
# 2 -0.003228 0.017802 -0.001916 0.000000 0.000302 0.000000
# 3 -0.009551 -0.001916 0.015883 0.000000 -0.000067 0.000000
# 4 0.000000 0.000000 0.000000 0.037490 0.000000 -0.019484
# 5 0.000396 0.000302 -0.000067 0.000000 0.020936 0.000000
# 6 0.000000 0.000000 0.000000 -0.019484 0.000000 0.073523
#
#
# Mechanical properties :
#
#
# Convention : Reuss Voigt Hill
#
# Bulk Modulus (GPa) = 53.83199 67.79407 60.81303
# Shear Modulus (GPa) = 23.20189 30.28357 26.74273
#
# Velocity S-wave (km/s) = 3.34760 3.82451 3.59397
# Velocity P-wave (km/s) = 6.39864 7.22819 6.82603
#
# Compressibility (1/GPa) = 0.01857632
#
# Stress axis : x y z
#
# Youngs Moduli (GPa) = 70.01470 56.17431 62.96034
#
# Poissons Ratio (x) = 0.18132 0.60136
# Poissons Ratio (y) = 0.22600 0.12065
# Poissons Ratio (z) = 0.66874 0.10764
#
# Static dielectric constant tensor:
#      x y z
#    x 3.836370 0.000000 -0.158740 
#    y 0.000000 3.638870 0.000000 
#    z -0.158740 0.000000 4.030370 
# 
# 
# High freq. dielectric constant tensor:
#      x y z
#    x 1.807970 0.000000 -0.000460 
#    y 0.000000 1.800940 0.000000 
#    z -0.000460 0.000000 1.828990 
# 
# From -- ./inp_files/135496.got.cif
#   From: 2010.06.25/outbox.cif.g09.slc.cpg/sg15_68_cif.got.tgz:135496.got - 2010.06.28 07:06:18.
