data_PCOD8145322
_publ_section_title
;
Structure prediction by ZEFSAII (Michael W. Deem and Ramdas Pophale) SiO2 
 PCOD8145322
Probable space group: C 2/C
;
_chemical_formula_sum "Si O2"
_cell_formula_units_Z 64
_cell_length_a 24.089474
_cell_length_b 13.959827
_cell_length_c 13.369499
_cell_angle_alpha 90.000000
_cell_angle_beta 40.525739
_cell_angle_gamma 90.000000
_cell_volume 2921.428282
_symmetry_space_group_name_H-M "C 2/C"
_symmetry_group_IT_number 15
_symmetry_cell_setting 'monoclinic'
loop_
_space_group_symop_operation_xyz
x,y,z
-x,y,1/2-z
-x,-y,-z
x,-y,1/2+z
1/2+x,1/2+y,z
1/2-x,1/2+y,1/2-z
1/2-x,1/2-y,-z
1/2+x,1/2-y,1/2+z
loop_
_atom_site_type_symbol
_atom_site_label
_atom_site_fract_x
_atom_site_fract_y
_atom_site_fract_z
Si Si1 0.651500 0.842116 0.312340
Si Si2 0.473728 0.846186 0.177701
Si Si3 0.882002 0.686254 0.165427
Si Si4 0.328005 0.548453 0.538989
Si Si5 0.205588 0.140383 0.314859
Si Si6 0.888629 0.068969 0.233050
Si Si7 0.993926 0.428045 0.646813
Si Si8 0.564701 0.379968 0.428124
O O1 0.620183 0.819171 0.240107
O O2 0.734623 0.908682 0.191452
O O3 0.665697 0.746841 0.360490
O O4 0.576789 0.901905 0.468601
O O5 0.500000 0.805419 0.250000
O O6 0.484992 0.959501 0.159754
O O7 0.540946 0.797137 0.015201
O O8 0.803709 0.649752 0.208470
O O9 0.880264 0.796583 0.204481
O O10 0.905951 0.614072 0.221447
O O11 0.332471 0.432106 0.548461
O O12 0.358430 0.579480 0.387694
O O13 0.394083 0.596220 0.522469
O O14 0.194664 0.088082 0.222465
O O15 0.927975 0.964148 0.162822
O O16 0.964172 0.141498 0.092547
O O17 0.000000 0.386141 0.750000
#
# Coordination Sequence:
#
# PCOD8145322 Si02
#       8
#     8   8   8   8   8   8   8   8
#     4  11  22  42  64  96 133 166 215 268 323 383
#     4  10  22  38  63  92 124 169 214 264 326 380
#     4  11  21  41  62  90 133 164 213 265 321 384
#     4  11  23  42  66  94 132 170 214 272 326 381
#     4  11  24  41  63  98 130 169 213 272 323 385
#     4  10  23  41  67  90 129 173 219 261 328 379
#     4  10  22  42  66  93 125 173 212 264 322 390
#     4  10  22  43  62  92 127 172 218 269 310 392
#
# _framework density 21.907094000000001
#
# number of rings (size 3 to 8) (size 9 to 14) (size 15 to 20)
#    0.000    1.500    1.250    4.875    1.750    3.500 
#    6.750    1.250    0.000    0.000    0.000    0.000 
#    0.000    0.000    0.000    0.000    0.000    0.000 
#
# Total GULP energy -396446.520512 kJ/mol
# GULP energy per Si atom -12388.953766 kJ/mol
# Density = 2.185723 g / cm^3
# Si number density = 21.907094 Si / 1000 Ang^3
#
#
#
# Elastic Constant Matrix: (Units=GPa)
#
#
# Indices 1 2 3 4 5 6 
#
# 1 129.1156 11.9931 34.4838 0.0000 -17.5316 0.0000
# 2 11.9931 57.4054 8.2123 0.0000 -14.5197 0.0000
# 3 34.4838 8.2123 55.9230 0.0000 -6.3435 0.0000
# 4 0.0000 0.0000 0.0000 17.2692 0.0000 -8.1391
# 5 -17.5316 -14.5197 -6.3435 0.0000 34.3814 0.0000
# 6 0.0000 0.0000 0.0000 -8.1391 0.0000 35.8468
#
#
#
# Elastic Compliance Matrix: (Units=1/GPa)
#
#
# Indices 1 2 3 4 5 6 
#
# 1 0.009775 -0.000276 -0.005551 0.000000 0.003844 0.000000
# 2 -0.000276 0.019726 -0.001836 0.000000 0.007851 0.000000
# 3 -0.005551 -0.001836 0.021618 0.000000 0.000383 0.000000
# 4 0.000000 0.000000 0.000000 0.064846 0.000000 0.014723
# 5 0.003844 0.007851 0.000383 0.000000 0.034432 0.000000
# 6 0.000000 0.000000 0.000000 0.014723 0.000000 0.031239
#
#
# Mechanical properties :
#
#
# Convention : Reuss Voigt Hill
#
# Bulk Modulus (GPa) = 27.93859 39.09138 33.51498
# Shear Modulus (GPa) = 23.93568 30.01647 26.97608
#
# Velocity S-wave (km/s) = 3.30904 3.70560 3.51292
# Velocity P-wave (km/s) = 5.23264 6.01594 5.63791
#
# Compressibility (1/GPa) = 0.03579279
#
# Stress axis : x y z
#
# Youngs Moduli (GPa) = 102.30069 50.69434 46.25831
#
# Poissons Ratio (x) = 0.01398 0.25678
# Poissons Ratio (y) = 0.02822 0.08494
# Poissons Ratio (z) = 0.56788 0.09308
#
# Static dielectric constant tensor:
#      x y z
#    x 4.511770 0.000000 -0.097360 
#    y 0.000000 4.348320 0.000000 
#    z -0.097360 0.000000 3.677600 
# 
# 
# High freq. dielectric constant tensor:
#      x y z
#    x 1.882700 0.000000 -0.014150 
#    y 0.000000 1.883940 0.000000 
#    z -0.014150 0.000000 1.823870 
# 
# From -- ./inp_files/173665.got.cif
#   From: 2010.06.25/outbox.cif.g09.slc.cpg/sg15_87_cif.got.tgz:173665.got - 2010.06.28 07:06:18.
