data_PCOD8145511
_publ_section_title
;
Structure prediction by ZEFSAII (Michael W. Deem and Ramdas Pophale) SiO2 
 PCOD8145511
Probable space group: C 2/C
;
_chemical_formula_sum "Si O2"
_cell_formula_units_Z 40
_cell_length_a 27.131947
_cell_length_b 9.088589
_cell_length_c 22.881148
_cell_angle_alpha 90.000000
_cell_angle_beta 21.313706
_cell_angle_gamma 90.000000
_cell_volume 2050.825448
_symmetry_space_group_name_H-M "C 2/C"
_symmetry_group_IT_number 15
_symmetry_cell_setting 'monoclinic'
loop_
_space_group_symop_operation_xyz
x,y,z
-x,y,1/2-z
-x,-y,-z
x,-y,1/2+z
1/2+x,1/2+y,z
1/2-x,1/2+y,1/2-z
1/2-x,1/2-y,-z
1/2+x,1/2-y,1/2+z
loop_
_atom_site_type_symbol
_atom_site_label
_atom_site_fract_x
_atom_site_fract_y
_atom_site_fract_z
Si Si1 0.013575 0.966374 0.553181
Si Si2 0.467395 0.099951 0.350819
Si Si3 0.690656 0.063465 0.266100
Si Si4 0.832174 0.798944 0.301794
Si Si5 0.974169 0.375074 0.445904
O O1 0.011957 0.798463 0.575100
O O2 0.153534 0.037429 0.419126
O O3 0.000000 0.000000 0.500000
O O4 0.894812 0.040511 0.722122
O O5 0.500000 0.043532 0.250000
O O6 0.324994 0.186310 0.508131
O O7 0.586974 0.211243 0.237410
O O8 0.462745 0.954548 0.396192
O O9 0.646540 0.212436 0.282496
O O10 0.660699 0.083226 0.368133
O O11 0.606605 0.925357 0.335015
#
# Coordination Sequence:
#
# PCOD8145511 Si02
#       5
#     8   8   8   8   8
#     4  12  23  35  64  95 129 160 202 261 329 381
#     4  11  24  45  66  91 128 173 215 254 305 377
#     4  10  22  39  59  95 130 158 206 263 321 378
#     4  11  22  42  67  94 124 166 212 263 312 374
#     4  10  24  38  62  92 130 167 204 260 321 375
#
# _framework density 19.504342000000001
#
# number of rings (size 3 to 8) (size 9 to 14) (size 15 to 20)
#    0.000    1.200    4.000    1.800    5.600    0.000 
#    0.000    2.000    0.000    0.000    0.000    0.000 
#    0.000    0.000    0.000    0.000    0.000    0.000 
#
# Total GULP energy -248059.727445 kJ/mol
# GULP energy per Si atom -12402.986372 kJ/mol
# Density = 1.945995 g / cm^3
# Si number density = 19.504342 Si / 1000 Ang^3
#
#
#
# Elastic Constant Matrix: (Units=GPa)
#
#
# Indices 1 2 3 4 5 6 
#
# 1 107.0171 57.8102 47.4497 0.0002 18.3057 0.0004
# 2 57.8102 130.9757 37.0927 0.0093 0.6742 -0.0026
# 3 47.4497 37.0927 80.5898 0.0021 -3.2593 -0.0010
# 4 0.0002 0.0093 0.0021 25.1059 -0.0021 0.0807
# 5 18.3057 0.6742 -3.2593 -0.0021 41.0975 0.0002
# 6 0.0004 -0.0026 -0.0010 0.0807 0.0002 18.9870
#
#
#
# Elastic Compliance Matrix: (Units=1/GPa)
#
#
# Indices 1 2 3 4 5 6 
#
# 1 0.017126 -0.005252 -0.007996 0.000002 -0.008176 -0.000001
# 2 -0.005252 0.010399 -0.001611 -0.000004 0.002041 0.000001
# 3 -0.007996 -0.001611 0.018061 0.000000 0.005021 0.000001
# 4 0.000002 -0.000004 0.000000 0.039832 0.000001 -0.000169
# 5 -0.008176 0.002041 0.005021 0.000001 0.028339 0.000000
# 6 -0.000001 0.000001 0.000001 -0.000169 0.000000 0.052668
#
#
# Mechanical properties :
#
#
# Convention : Reuss Voigt Hill
#
# Bulk Modulus (GPa) = 63.02814 67.03197 65.03006
# Shear Modulus (GPa) = 24.82206 28.78675 26.80440
#
# Velocity S-wave (km/s) = 3.57128 3.84593 3.71115
# Velocity P-wave (km/s) = 7.02784 7.35961 7.19564
#
# Compressibility (1/GPa) = 0.01586593
#
# Stress axis : x y z
#
# Youngs Moduli (GPa) = 58.39227 96.16246 55.36675
#
# Poissons Ratio (x) = 0.50506 0.44274
# Poissons Ratio (y) = 0.30669 0.08922
# Poissons Ratio (z) = 0.46693 0.15496
#
# Static dielectric constant tensor:
#      x y z
#    x 3.493150 0.000000 -0.199420 
#    y 0.000000 3.474570 0.000000 
#    z -0.199420 0.000000 3.567980 
# 
# 
# High freq. dielectric constant tensor:
#      x y z
#    x 1.751230 0.000000 -0.018590 
#    y 0.000000 1.761770 0.000000 
#    z -0.018590 0.000000 1.762970 
# 
# From -- ./inp_files/64542.got.cif
#   From: 2010.06.25/outbox.cif.g09.slc.cpg/sg15_33_cif.got.tgz:64542.got - 2010.06.28 07:06:18.
