data_PCOD8145755
_publ_section_title
;
Structure prediction by ZEFSAII (Michael W. Deem and Ramdas Pophale) SiO2 
 PCOD8145755
Probable space group: C 2/C
;
_chemical_formula_sum "Si O2"
_cell_formula_units_Z 56
_cell_length_a 12.219830
_cell_length_b 13.950211
_cell_length_c 14.298984
_cell_angle_alpha 90.000000
_cell_angle_beta 88.822271
_cell_angle_gamma 90.000000
_cell_volume 2437.021528
_symmetry_space_group_name_H-M "C 2/C"
_symmetry_group_IT_number 15
_symmetry_cell_setting 'monoclinic'
loop_
_space_group_symop_operation_xyz
x,y,z
-x,y,1/2-z
-x,-y,-z
x,-y,1/2+z
1/2+x,1/2+y,z
1/2-x,1/2+y,1/2-z
1/2-x,1/2-y,-z
1/2+x,1/2-y,1/2+z
loop_
_atom_site_type_symbol
_atom_site_label
_atom_site_fract_x
_atom_site_fract_y
_atom_site_fract_z
Si Si1 0.647672 0.674318 0.684383
Si Si2 0.206981 0.284003 0.149840
Si Si3 0.219764 0.401787 0.485991
Si Si4 0.215793 0.377504 0.964344
Si Si5 0.500000 0.510930 0.750000
Si Si6 0.916275 0.136465 0.109072
Si Si7 0.017132 0.721324 0.045681
Si Si8 0.000000 0.727844 0.750000
O O1 0.709423 0.724989 0.767301
O O2 0.730962 0.663623 0.596426
O O3 0.605730 0.572944 0.722446
O O4 0.548068 0.740907 0.649175
O O5 0.197845 0.175759 0.106441
O O6 0.084668 0.326495 0.179526
O O7 0.251772 0.357327 0.070775
O O8 0.210943 0.509707 0.447102
O O9 0.296016 0.395041 0.576663
O O10 0.100985 0.360591 0.510347
O O11 0.100073 0.326896 0.946741
O O12 0.521745 0.453796 0.846272
O O13 0.909314 0.211885 0.194095
O O14 0.983671 0.185588 0.022877
#
# Coordination Sequence:
#
# PCOD8145755 Si02
#       8
#     8   8   8   8   4   8   8   4
#     4  11  24  42  69  96 136 172 227 272 347 397
#     4  11  24  43  68  99 134 180 215 285 335 404
#     4  11  24  42  64  99 131 180 223 281 326 415
#     4  11  25  42  69  98 139 170 232 275 342 391
#     4  11  24  38  66 103 130 164 229 292 320 402
#     4  10  22  39  68  94 132 172 224 275 336 394
#     4  11  22  45  67  92 135 185 213 274 342 411
#     4  11  20  40  70  93 128 180 227 256 336 408
#
# _framework density 22.978869
#
# number of rings (size 3 to 8) (size 9 to 14) (size 15 to 20)
#    0.000    1.143    1.429    5.571    4.000    3.429 
#    2.571    0.000    3.143    0.000    0.000    0.000 
#    0.000    0.000    0.000    0.000    0.000    0.000 
#
# Total GULP energy -347075.737116 kJ/mol
# GULP energy per Si atom -12395.562040 kJ/mol
# Density = 2.292657 g / cm^3
# Si number density = 22.978869 Si / 1000 Ang^3
#
#
#
# Elastic Constant Matrix: (Units=GPa)
#
#
# Indices 1 2 3 4 5 6 
#
# 1 80.8459 3.6373 35.6091 0.0000 13.8140 0.0000
# 2 3.6373 73.3469 20.1462 0.0000 15.2304 0.0000
# 3 35.6091 20.1462 128.3596 0.0000 26.3052 0.0000
# 4 0.0000 0.0000 0.0000 20.8702 0.0000 -0.6452
# 5 13.8140 15.2304 26.3052 0.0000 36.0742 0.0000
# 6 0.0000 0.0000 0.0000 -0.6452 0.0000 29.2799
#
#
#
# Elastic Compliance Matrix: (Units=1/GPa)
#
#
# Indices 1 2 3 4 5 6 
#
# 1 0.014429 0.000940 -0.003453 0.000000 -0.003405 0.000000
# 2 0.000940 0.015174 -0.001476 0.000000 -0.005690 0.000000
# 3 -0.003453 -0.001476 0.010089 0.000000 -0.005412 0.000000
# 4 0.000000 0.000000 0.000000 0.047948 0.000000 0.001057
# 5 -0.003405 -0.005690 -0.005412 0.000000 0.035373 0.000000
# 6 0.000000 0.000000 0.000000 0.001057 0.000000 0.034176
#
#
# Mechanical properties :
#
#
# Convention : Reuss Voigt Hill
#
# Bulk Modulus (GPa) = 31.53153 44.59306 38.06230
# Shear Modulus (GPa) = 28.45115 32.12218 30.28666
#
# Velocity S-wave (km/s) = 3.52254 3.74291 3.63440
# Velocity P-wave (km/s) = 5.50420 6.17474 5.84908
#
# Compressibility (1/GPa) = 0.03171429
#
# Stress axis : x y z
#
# Youngs Moduli (GPa) = 69.30268 65.90116 99.11610
#
# Poissons Ratio (x) = -0.06193 0.34223
# Poissons Ratio (y) = -0.06513 0.14632
# Poissons Ratio (z) = 0.23929 0.09729
#
# Static dielectric constant tensor:
#      x y z
#    x 4.127210 0.000000 0.154180 
#    y 0.000000 3.962400 0.000000 
#    z 0.154180 0.000000 4.464280 
# 
# 
# High freq. dielectric constant tensor:
#      x y z
#    x 1.915250 0.000000 0.009390 
#    y 0.000000 1.882180 0.000000 
#    z 0.009390 0.000000 1.924620 
# 
# From -- ./inp_files/144293.got.cif
#   From: 2010.06.25/outbox.cif.g09.slc.cpg/sg15_73_cif.got.tgz:144293.got - 2010.06.28 07:06:18.
