data_PCOD8145631
_publ_section_title
;
Structure prediction by ZEFSAII (Michael W. Deem and Ramdas Pophale) SiO2 
 PCOD8145631
Probable space group: C 2/C
;
_chemical_formula_sum "Si O2"
_cell_formula_units_Z 56
_cell_length_a 25.183736
_cell_length_b 13.085016
_cell_length_c 9.581261
_cell_angle_alpha 90.000000
_cell_angle_beta 56.517675
_cell_angle_gamma 90.000000
_cell_volume 2633.372662
_symmetry_space_group_name_H-M "C 2/C"
_symmetry_group_IT_number 15
_symmetry_cell_setting 'monoclinic'
loop_
_space_group_symop_operation_xyz
x,y,z
-x,y,1/2-z
-x,-y,-z
x,-y,1/2+z
1/2+x,1/2+y,z
1/2-x,1/2+y,1/2-z
1/2-x,1/2-y,-z
1/2+x,1/2-y,1/2+z
loop_
_atom_site_type_symbol
_atom_site_label
_atom_site_fract_x
_atom_site_fract_y
_atom_site_fract_z
Si Si1 0.258018 0.611717 0.380633
Si Si2 0.058970 0.309059 0.761873
Si Si3 0.963083 0.573067 0.949740
Si Si4 0.863593 0.973453 0.117092
Si Si5 0.238479 0.823606 0.316970
Si Si6 0.433846 0.427113 0.276534
Si Si7 0.654980 0.049416 0.978759
O O1 0.322841 0.566997 0.230024
O O2 0.238419 0.700818 0.298005
O O3 0.275690 0.658540 0.501799
O O4 0.203927 0.526874 0.482272
O O5 0.076533 0.194055 0.695286
O O6 0.119006 0.381788 0.644480
O O7 0.000000 0.346831 0.750000
O O8 0.043309 0.321241 0.950783
O O9 0.894487 0.522249 0.030242
O O10 0.000000 0.594270 0.750000
O O11 0.000000 0.500000 0.000000
O O12 0.820746 0.870643 0.183048
O O13 0.925564 0.957901 0.126130
O O14 0.882080 0.006913 0.934948
O O15 0.306045 0.874747 0.179324
O O16 0.500000 0.458966 0.250000
#
# Coordination Sequence:
#
# PCOD8145631 Si02
#       7
#     8   8   8   8   8   8   8
#     4  10  22  40  62  93 130 168 218 264 328 384
#     4  11  23  42  62  99 132 171 214 270 328 394
#     4  12  22  40  64  96 138 170 212 264 327 392
#     4  11  22  46  66  96 128 172 215 286 327 391
#     4  10  22  39  63  95 127 173 214 266 322 393
#     4  11  25  44  71  93 130 173 227 274 336 395
#     4  11  21  37  66  89 134 172 208 266 330 383
#
# _framework density 21.265505000000001
#
# number of rings (size 3 to 8) (size 9 to 14) (size 15 to 20)
#    0.000    1.143    4.286    2.143    2.000    0.000 
#    0.000    5.714    0.000    0.000    0.000    0.000 
#    0.000    0.000    0.000    0.000    0.000    0.000 
#
# Total GULP energy -347062.652065 kJ/mol
# GULP energy per Si atom -12395.094717 kJ/mol
# Density = 2.121710 g / cm^3
# Si number density = 21.265505 Si / 1000 Ang^3
#
#
#
# Elastic Constant Matrix: (Units=GPa)
#
#
# Indices 1 2 3 4 5 6 
#
# 1 85.5254 29.3767 27.0279 0.0000 2.1076 0.0000
# 2 29.3767 102.2157 32.0952 0.0000 -5.2463 0.0000
# 3 27.0279 32.0952 99.6578 0.0000 7.9173 0.0000
# 4 0.0000 0.0000 0.0000 23.1745 0.0000 2.3000
# 5 2.1076 -5.2463 7.9173 0.0000 33.1782 0.0000
# 6 0.0000 0.0000 0.0000 2.3000 0.0000 23.5917
#
#
#
# Elastic Compliance Matrix: (Units=1/GPa)
#
#
# Indices 1 2 3 4 5 6 
#
# 1 0.013614 -0.003125 -0.002628 0.000000 -0.000732 0.000000
# 2 -0.003125 0.011827 -0.003186 0.000000 0.002829 0.000000
# 3 -0.002628 -0.003186 0.012028 0.000000 -0.003207 0.000000
# 4 0.000000 0.000000 0.000000 0.043572 0.000000 -0.004248
# 5 -0.000732 0.002829 -0.003207 0.000000 0.031399 0.000000
# 6 0.000000 0.000000 0.000000 -0.004248 0.000000 0.042802
#
#
# Mechanical properties :
#
#
# Convention : Reuss Voigt Hill
#
# Bulk Modulus (GPa) = 51.04327 51.59985 51.32156
# Shear Modulus (GPa) = 27.83166 29.24881 28.54023
#
# Velocity S-wave (km/s) = 3.62162 3.71268 3.66743
# Velocity P-wave (km/s) = 6.44539 6.53421 6.48995
#
# Compressibility (1/GPa) = 0.01959122
#
# Stress axis : x y z
#
# Youngs Moduli (GPa) = 73.45192 84.55192 83.14032
#
# Poissons Ratio (x) = 0.26425 0.21846
# Poissons Ratio (y) = 0.22956 0.26489
# Poissons Ratio (z) = 0.19301 0.26939
#
# Static dielectric constant tensor:
#      x y z
#    x 6.556740 0.000000 -0.621490 
#    y 0.000000 4.052990 0.000000 
#    z -0.621490 0.000000 4.138100 
# 
# 
# High freq. dielectric constant tensor:
#      x y z
#    x 1.836490 0.000000 -0.001260 
#    y 0.000000 1.836050 0.000000 
#    z -0.001260 0.000000 1.831320 
# 
# From -- ./inp_files/61824.got.cif
#   From: 2010.06.25/outbox.cif.g09.slc.cpg/sg15_31_cif.got.tgz:61824.got - 2010.06.28 07:06:18.
