data_PCOD8145053
_publ_section_title
;
Structure prediction by ZEFSAII (Michael W. Deem and Ramdas Pophale) SiO2 
 PCOD8145053
Probable space group: C 2/C
;
_chemical_formula_sum "Si O2"
_cell_formula_units_Z 28
_cell_length_a 16.755184
_cell_length_b 15.052587
_cell_length_c 7.464157
_cell_angle_alpha 90.000000
_cell_angle_beta 40.351597
_cell_angle_gamma 90.000000
_cell_volume 1218.891388
_symmetry_space_group_name_H-M "C 2/C"
_symmetry_group_IT_number 15
_symmetry_cell_setting 'monoclinic'
loop_
_space_group_symop_operation_xyz
x,y,z
-x,y,1/2-z
-x,-y,-z
x,-y,1/2+z
1/2+x,1/2+y,z
1/2-x,1/2+y,1/2-z
1/2-x,1/2-y,-z
1/2+x,1/2-y,1/2+z
loop_
_atom_site_type_symbol
_atom_site_label
_atom_site_fract_x
_atom_site_fract_y
_atom_site_fract_z
Si Si1 0.406165 0.320012 0.711891
Si Si2 0.247702 0.098224 0.306306
Si Si3 0.500000 0.159849 0.750000
Si Si4 0.155635 0.908892 0.343518
O O1 0.325862 0.322393 0.668695
O O2 0.461257 0.221813 0.647508
O O3 0.514022 0.394604 0.522660
O O4 0.317634 0.343633 0.033921
O O5 0.243464 0.114911 0.526039
O O6 0.179808 0.008452 0.366183
O O7 0.389549 0.096307 0.001958
#
# Coordination Sequence:
#
# PCOD8145053 Si02
#       4
#     8   8   4   8
#     4  10  23  42  62  94 118 157 209 255 290 363
#     4  12  21  41  64  91 123 161 201 254 295 363
#     4  10  26  40  60  90 132 160 194 246 320 356
#     4  10  22  36  69  92 113 157 212 246 299 346
#
# _framework density 22.971693999999999
#
# number of rings (size 3 to 8) (size 9 to 14) (size 15 to 20)
#    0.000    1.714    2.857    2.571    4.000    5.714 
#    0.000    5.714    0.000    0.000    0.000    0.000 
#    0.000    0.000    0.000    0.000    0.000    0.000 
#
# Total GULP energy -173560.041377 kJ/mol
# GULP energy per Si atom -12397.145813 kJ/mol
# Density = 2.291941 g / cm^3
# Si number density = 22.971694 Si / 1000 Ang^3
#
#
#
# Elastic Constant Matrix: (Units=GPa)
#
#
# Indices 1 2 3 4 5 6 
#
# 1 31.3291 8.6180 11.7776 0.0000 16.1437 0.0000
# 2 8.6180 52.4021 32.0647 0.0000 -4.9546 0.0000
# 3 11.7776 32.0647 133.7954 0.0000 -0.4970 0.0000
# 4 0.0000 0.0000 0.0000 31.2500 0.0000 -3.2157
# 5 16.1437 -4.9546 -0.4970 0.0000 40.4540 0.0000
# 6 0.0000 0.0000 0.0000 -3.2157 0.0000 4.4285
#
#
#
# Elastic Compliance Matrix: (Units=1/GPa)
#
#
# Indices 1 2 3 4 5 6 
#
# 1 0.044522 -0.007797 -0.002120 0.000000 -0.018748 0.000000
# 2 -0.007797 0.024021 -0.005048 0.000000 0.005992 0.000000
# 3 -0.002120 -0.005048 0.008872 0.000000 0.000337 0.000000
# 4 0.000000 0.000000 0.000000 0.034584 0.000000 0.025113
# 5 -0.018748 0.005992 0.000337 0.000000 0.032939 0.000000
# 6 0.000000 0.000000 0.000000 0.025113 0.000000 0.244047
#
#
# Mechanical properties :
#
#
# Convention : Reuss Voigt Hill
#
# Bulk Modulus (GPa) = 21.05995 35.82747 28.44371
# Shear Modulus (GPa) = 11.50101 26.23091 18.86596
#
# Velocity S-wave (km/s) = 2.23997 3.38284 2.86889
# Velocity P-wave (km/s) = 3.98468 5.55773 4.83560
#
# Compressibility (1/GPa) = 0.04748349
#
# Stress axis : x y z
#
# Youngs Moduli (GPa) = 22.46083 41.63022 112.71701
#
# Poissons Ratio (x) = 0.32461 0.23897
# Poissons Ratio (y) = 0.17514 0.56901
# Poissons Ratio (z) = 0.04762 0.21015
#
# Static dielectric constant tensor:
#      x y z
#    x 4.136200 0.000000 0.233590 
#    y 0.000000 3.850250 0.000000 
#    z 0.233590 0.000000 4.239580 
# 
# 
# High freq. dielectric constant tensor:
#      x y z
#    x 1.899610 0.000000 0.008220 
#    y 0.000000 1.888380 0.000000 
#    z 0.008220 0.000000 1.904300 
# 
# From -- ./inp_files/21605.got.cif
#   From: 2010.06.25/outbox.cif.g09.slc.cpg/sg15_11_cif.got.tgz:21605.got - 2010.06.28 07:06:18.
