data_PCOD8145352
_publ_section_title
;
Structure prediction by ZEFSAII (Michael W. Deem and Ramdas Pophale) SiO2 
 PCOD8145352
Probable space group: C 2/C
;
_chemical_formula_sum "Si O2"
_cell_formula_units_Z 56
_cell_length_a 14.486524
_cell_length_b 18.880032
_cell_length_c 19.559415
_cell_angle_alpha 90.000000
_cell_angle_beta 27.141307
_cell_angle_gamma 90.000000
_cell_volume 2440.423983
_symmetry_space_group_name_H-M "C 2/C"
_symmetry_group_IT_number 15
_symmetry_cell_setting 'monoclinic'
loop_
_space_group_symop_operation_xyz
x,y,z
-x,y,1/2-z
-x,-y,-z
x,-y,1/2+z
1/2+x,1/2+y,z
1/2-x,1/2+y,1/2-z
1/2-x,1/2-y,-z
1/2+x,1/2-y,1/2+z
loop_
_atom_site_type_symbol
_atom_site_label
_atom_site_fract_x
_atom_site_fract_y
_atom_site_fract_z
Si Si1 0.892702 0.645013 0.118753
Si Si2 0.219911 0.126191 0.711480
Si Si3 0.430424 0.161069 0.708874
Si Si4 0.517752 0.237301 0.163559
Si Si5 0.898090 0.025045 0.159722
Si Si6 0.278270 0.721436 0.393833
Si Si7 0.177295 0.484819 0.172692
O O1 0.712815 0.588111 0.227996
O O2 0.848545 0.701252 0.089236
O O3 0.910892 0.684672 0.179564
O O4 0.103335 0.607948 0.959244
O O5 0.289339 0.163281 0.735676
O O6 0.075497 0.183957 0.772905
O O7 0.112647 0.051269 0.796953
O O8 0.323065 0.195521 0.846656
O O9 0.639921 0.204740 0.552539
O O10 0.462072 0.079123 0.705920
O O11 0.500000 0.201757 0.250000
O O12 0.750000 0.250000 0.000000
O O13 0.779643 0.029098 0.165387
O O14 0.136007 0.042738 0.996726
O O15 0.500000 0.682783 0.250000
O O16 0.000000 0.529656 0.250000
#
# Coordination Sequence:
#
# PCOD8145352 Si02
#       7
#     8   8   8   8   8   8   8
#     4  11  24  42  70  98 140 176 234 292 347 426
#     4  10  22  46  63  99 138 178 227 293 349 412
#     4  10  22  38  64  91 135 166 217 278 339 405
#     4  12  25  43  71 105 142 190 237 294 358 417
#     4  10  24  42  70  94 135 192 229 286 364 411
#     4  11  23  37  63 100 128 175 215 277 347 408
#     4  10  23  42  63  94 133 175 229 283 338 422
#
# _framework density 22.946833000000002
#
# number of rings (size 3 to 8) (size 9 to 14) (size 15 to 20)
#    0.000    1.429    2.857    1.286    4.000    5.143 
#    0.000    0.714    0.000    0.000    0.000    0.000 
#    0.000    0.000    0.000    0.000    0.000    0.000 
#
# Total GULP energy -346923.356103 kJ/mol
# GULP energy per Si atom -12390.119861 kJ/mol
# Density = 2.289461 g / cm^3
# Si number density = 22.946833 Si / 1000 Ang^3
#
#
#
# Elastic Constant Matrix: (Units=GPa)
#
#
# Indices 1 2 3 4 5 6 
#
# 1 89.0410 5.3845 22.6692 -0.0348 3.9339 -0.0066
# 2 5.3845 74.1209 22.9998 -0.1098 1.0529 0.0387
# 3 22.6692 22.9998 127.4183 -0.2008 2.4522 0.0215
# 4 -0.0348 -0.1098 -0.2008 34.1191 0.0294 -5.3192
# 5 3.9339 1.0529 2.4522 0.0294 46.4536 0.0090
# 6 -0.0066 0.0387 0.0215 -5.3192 0.0090 18.2249
#
#
#
# Elastic Compliance Matrix: (Units=1/GPa)
#
#
# Indices 1 2 3 4 5 6 
#
# 1 0.011803 -0.000210 -0.002045 0.000001 -0.000887 0.000008
# 2 -0.000210 0.014297 -0.002540 0.000028 -0.000172 -0.000019
# 3 -0.002045 -0.002540 0.008675 0.000042 -0.000227 0.000007
# 4 0.000001 0.000028 0.000042 0.030707 -0.000024 0.008962
# 5 -0.000887 -0.000172 -0.000227 -0.000024 0.021618 -0.000017
# 6 0.000008 -0.000019 0.000007 0.008962 -0.000017 0.057486
#
#
# Mechanical properties :
#
#
# Convention : Reuss Voigt Hill
#
# Bulk Modulus (GPa) = 39.70591 43.63191 41.66891
# Shear Modulus (GPa) = 30.75573 35.72797 33.24185
#
# Velocity S-wave (km/s) = 3.66499 3.95015 3.81024
# Velocity P-wave (km/s) = 5.93721 6.31352 6.12826
#
# Compressibility (1/GPa) = 0.02518517
#
# Stress axis : x y z
#
# Youngs Moduli (GPa) = 84.72205 69.94276 115.27502
#
# Poissons Ratio (x) = 0.01471 0.23573
# Poissons Ratio (y) = 0.01782 0.29280
# Poissons Ratio (z) = 0.17325 0.17765
#
# Static dielectric constant tensor:
#      x y z
#    x 4.500280 0.000080 0.073280 
#    y 0.000080 3.805080 0.000310 
#    z 0.073280 0.000310 4.552970 
# 
# 
# High freq. dielectric constant tensor:
#      x y z
#    x 1.926920 0.000000 -0.002290 
#    y 0.000000 1.885810 0.000030 
#    z -0.002290 0.000030 1.912620 
# 
# From -- ./inp_files/163844.got.cif
#   From: 2010.06.25/outbox.cif.g09.slc.cpg/sg15_82_cif.got.tgz:163844.got - 2010.06.28 07:06:18.
