data_PCOD8145363
_publ_section_title
;
Structure prediction by ZEFSAII (Michael W. Deem and Ramdas Pophale) SiO2 
 PCOD8145363
Probable space group: C 2/C
;
_chemical_formula_sum "Si O2"
_cell_formula_units_Z 60
_cell_length_a 22.406016
_cell_length_b 8.645742
_cell_length_c 14.933086
_cell_angle_alpha 90.000000
_cell_angle_beta 77.908237
_cell_angle_gamma 90.000000
_cell_volume 2828.605928
_symmetry_space_group_name_H-M "C 2/C"
_symmetry_group_IT_number 15
_symmetry_cell_setting 'monoclinic'
loop_
_space_group_symop_operation_xyz
x,y,z
-x,y,1/2-z
-x,-y,-z
x,-y,1/2+z
1/2+x,1/2+y,z
1/2-x,1/2+y,1/2-z
1/2-x,1/2-y,-z
1/2+x,1/2-y,1/2+z
loop_
_atom_site_type_symbol
_atom_site_label
_atom_site_fract_x
_atom_site_fract_y
_atom_site_fract_z
Si Si1 0.195876 0.064886 0.523652
Si Si2 0.500000 0.772985 0.250000
Si Si3 0.103881 0.599404 0.600800
Si Si4 0.768150 0.470776 0.663924
Si Si5 0.636156 0.154403 0.964712
Si Si6 0.051212 0.884628 0.887915
Si Si7 0.085228 0.884966 0.503890
Si Si8 0.731216 0.879514 0.147360
O O1 0.191461 0.238372 0.484985
O O2 0.219609 0.061548 0.617513
O O3 0.127769 0.997121 0.548877
O O4 0.238681 0.957395 0.448609
O O5 0.461141 0.880081 0.329330
O O6 0.450195 0.662698 0.215732
O O7 0.106833 0.427237 0.560997
O O8 0.107955 0.710391 0.511167
O O9 0.159023 0.636685 0.651479
O O10 0.835196 0.529447 0.612829
O O11 0.761636 0.287002 0.654124
O O12 0.756292 0.513420 0.770689
O O13 0.583086 0.246995 0.932359
O O14 0.085625 0.048137 0.900499
O O15 0.981637 0.903699 0.936823
#
# Coordination Sequence:
#
# PCOD8145363 Si02
#       8
#     8   4   8   8   8   8   8   8
#     4  11  22  43  65  95 131 179 215 273 322 401
#     4  10  22  38  64  94 128 164 222 284 334 388
#     4  11  22  41  65  92 131 175 211 278 327 401
#     4  12  24  40  64 100 133 174 217 273 324 408
#     4  11  23  39  69  91 131 174 224 264 334 394
#     4   9  20  40  63  90 119 169 219 273 323 395
#     4   9  19  39  66  85 120 167 221 253 330 385
#     4  12  25  40  66  98 137 171 219 265 339 391
#
# _framework density 21.211862
#
# number of rings (size 3 to 8) (size 9 to 14) (size 15 to 20)
#    0.000    1.333    2.667    3.200    1.867    3.200 
#    0.000    1.333    0.000    7.200    0.000    0.000 
#    0.000    0.000    0.000    0.000    0.000    0.000 
#
# Total GULP energy -371799.599088 kJ/mol
# GULP energy per Si atom -12393.319970 kJ/mol
# Density = 2.116358 g / cm^3
# Si number density = 21.211862 Si / 1000 Ang^3
#
#
#
# Elastic Constant Matrix: (Units=GPa)
#
#
# Indices 1 2 3 4 5 6 
#
# 1 97.0839 24.2988 44.1386 0.0000 12.7345 0.0000
# 2 24.2988 108.4609 43.8550 0.0000 2.0203 0.0000
# 3 44.1386 43.8550 89.6589 0.0000 19.1963 0.0000
# 4 0.0000 0.0000 0.0000 29.0168 0.0000 -4.4494
# 5 12.7345 2.0203 19.1963 0.0000 30.0006 0.0000
# 6 0.0000 0.0000 0.0000 -4.4494 0.0000 23.9812
#
#
#
# Elastic Compliance Matrix: (Units=1/GPa)
#
#
# Indices 1 2 3 4 5 6 
#
# 1 0.013372 -0.000574 -0.005904 0.000000 -0.001860 0.000000
# 2 -0.000574 0.011801 -0.006225 0.000000 0.003432 0.000000
# 3 -0.005904 -0.006225 0.019094 0.000000 -0.009292 0.000000
# 4 0.000000 0.000000 0.000000 0.035472 0.000000 0.006581
# 5 -0.001860 0.003432 -0.009292 0.000000 0.039837 0.000000
# 6 0.000000 0.000000 0.000000 0.006581 0.000000 0.042920
#
#
# Mechanical properties :
#
#
# Convention : Reuss Voigt Hill
#
# Bulk Modulus (GPa) = 53.01582 57.75427 55.38504
# Shear Modulus (GPa) = 25.74798 28.79383 27.27090
#
# Velocity S-wave (km/s) = 3.48781 3.68834 3.58948
# Velocity P-wave (km/s) = 6.42398 6.73980 6.58379
#
# Compressibility (1/GPa) = 0.01886230
#
# Stress axis : x y z
#
# Youngs Moduli (GPa) = 74.78169 84.73533 52.37184
#
# Poissons Ratio (x) = 0.04863 0.30922
# Poissons Ratio (y) = 0.04292 0.32600
# Poissons Ratio (z) = 0.44153 0.52745
#
# Static dielectric constant tensor:
#      x y z
#    x 4.081450 0.000000 0.380240 
#    y 0.000000 4.048080 0.000000 
#    z 0.380240 0.000000 3.964330 
# 
# 
# High freq. dielectric constant tensor:
#      x y z
#    x 1.850150 0.000000 0.013580 
#    y 0.000000 1.833300 0.000000 
#    z 0.013580 0.000000 1.813480 
# 
# From -- ./inp_files/171871.got.cif
#   From: 2010.06.25/outbox.cif.g09.slc.cpg/sg15_86_cif.got.tgz:171871.got - 2010.06.28 07:06:18.
