data_PCOD8145571
_publ_section_title
;
Structure prediction by ZEFSAII (Michael W. Deem and Ramdas Pophale) SiO2 
 PCOD8145571
Probable space group: C 2/C
;
_chemical_formula_sum "Si O2"
_cell_formula_units_Z 64
_cell_length_a 22.413032
_cell_length_b 19.481458
_cell_length_c 19.180195
_cell_angle_alpha 90.000000
_cell_angle_beta 157.021423
_cell_angle_gamma 90.000000
_cell_volume 3269.417230
_symmetry_space_group_name_H-M "C 2/C"
_symmetry_group_IT_number 15
_symmetry_cell_setting 'monoclinic'
loop_
_space_group_symop_operation_xyz
x,y,z
-x,y,1/2-z
-x,-y,-z
x,-y,1/2+z
1/2+x,1/2+y,z
1/2-x,1/2+y,1/2-z
1/2-x,1/2-y,-z
1/2+x,1/2-y,1/2+z
loop_
_atom_site_type_symbol
_atom_site_label
_atom_site_fract_x
_atom_site_fract_y
_atom_site_fract_z
Si Si1 0.916466 0.936953 0.223076
Si Si2 0.942005 0.424786 0.263514
Si Si3 0.037500 0.819366 0.126954
Si Si4 0.119355 0.325416 0.551457
Si Si5 0.915726 0.080328 0.092133
Si Si6 0.312330 0.819128 0.717996
Si Si7 0.614938 0.927660 0.821032
Si Si8 0.025457 0.815986 0.596771
O O1 0.000000 0.895257 0.250000
O O2 0.892746 0.887568 0.263252
O O3 0.753375 0.958920 0.016452
O O4 0.023543 0.002537 0.356361
O O5 0.973454 0.506099 0.304321
O O6 0.000000 0.397724 0.250000
O O7 0.042898 0.389789 0.431743
O O8 0.763867 0.411914 0.087465
O O9 0.125931 0.751756 0.247738
O O10 0.864756 0.808709 0.962025
O O11 0.056929 0.828447 0.065567
O O12 0.107269 0.337162 0.621891
O O13 0.292647 0.317939 0.712692
O O14 0.026178 0.257567 0.428879
O O15 0.000000 0.111531 0.250000
O O16 0.962673 0.123496 0.076163
O O17 0.337001 0.879991 0.690447
O O18 0.500000 0.887642 0.750000
#
# Coordination Sequence:
#
# PCOD8145571 Si02
#       8
#     8   8   8   8   8   8   8   8
#     4  11  21  41  61  86 123 158 195 245 295 345
#     4  11  22  39  63  88 121 155 196 242 296 350
#     4  10  22  39  62  87 122 158 199 245 291 352
#     4  10  22  40  62  87 122 155 196 247 292 354
#     4  11  21  39  64  88 119 156 195 242 296 353
#     4  10  22  41  59  88 121 159 199 244 296 344
#     4  11  24  40  60  89 121 158 199 245 293 351
#     4  10  22  40  61  90 120 156 198 242 297 349
#
# _framework density 19.575354000000001
#
# number of rings (size 3 to 8) (size 9 to 14) (size 15 to 20)
#    0.000    1.500    3.750    1.500    3.500    3.500 
#    0.000    2.500    0.000    0.000    0.000    0.000 
#    0.000    0.000    0.000    0.000    0.000    0.000 
#
# Total GULP energy -396724.524624 kJ/mol
# GULP energy per Si atom -12397.641394 kJ/mol
# Density = 1.953080 g / cm^3
# Si number density = 19.575354 Si / 1000 Ang^3
#
#
#
# Elastic Constant Matrix: (Units=GPa)
#
#
# Indices 1 2 3 4 5 6 
#
# 1 101.7491 58.4435 38.0162 -0.0118 8.9401 0.0044
# 2 58.4435 114.7945 50.6527 -0.0321 -10.5843 -0.0138
# 3 38.0162 50.6527 87.7542 -0.0126 1.8360 -0.0045
# 4 -0.0118 -0.0321 -0.0126 31.4675 -0.0174 4.4393
# 5 8.9401 -10.5843 1.8360 -0.0174 29.5109 0.0011
# 6 0.0044 -0.0138 -0.0045 4.4393 0.0011 17.6974
#
#
#
# Elastic Compliance Matrix: (Units=1/GPa)
#
#
# Indices 1 2 3 4 5 6 
#
# 1 0.015737 -0.007721 -0.002206 -0.000006 -0.007399 -0.000009
# 2 -0.007721 0.016140 -0.006150 0.000015 0.008510 0.000009
# 3 -0.002206 -0.006150 0.015954 -0.000002 -0.002530 0.000000
# 4 -0.000006 0.000015 -0.000002 0.032945 0.000027 -0.008264
# 5 -0.007399 0.008510 -0.002530 0.000027 0.039337 -0.000001
# 6 -0.000009 0.000009 0.000000 -0.008264 -0.000001 0.058578
#
#
# Mechanical properties :
#
#
# Convention : Reuss Voigt Hill
#
# Bulk Modulus (GPa) = 63.78385 66.50251 65.14318
# Shear Modulus (GPa) = 23.14056 26.21418 24.67737
#
# Velocity S-wave (km/s) = 3.44194 3.66340 3.55439
# Velocity P-wave (km/s) = 6.96063 7.20696 7.08487
#
# Compressibility (1/GPa) = 0.01567795
#
# Stress axis : x y z
#
# Youngs Moduli (GPa) = 63.54321 61.95721 62.68121
#
# Poissons Ratio (x) = 0.47836 0.13829
# Poissons Ratio (y) = 0.49061 0.38546
# Poissons Ratio (z) = 0.14019 0.38101
#
# Static dielectric constant tensor:
#      x y z
#    x 3.847780 -0.000010 0.118600 
#    y -0.000010 3.478990 -0.000010 
#    z 0.118600 -0.000010 3.709600 
# 
# 
# High freq. dielectric constant tensor:
#      x y z
#    x 1.770570 0.000000 0.012970 
#    y 0.000000 1.755310 0.000000 
#    z 0.012970 0.000000 1.771200 
# 
# From -- ./inp_files/256024.got.cif
#   From: 2010.06.25/outbox.cif.g09.slc.cpg/sg15_129_cif.got.tgz:256024.got - 2010.06.28 07:06:18.
