data_PCOD8145172
_publ_section_title
;
Structure prediction by ZEFSAII (Michael W. Deem and Ramdas Pophale) SiO2 
 PCOD8145172
Probable space group: C 2/C
;
_chemical_formula_sum "Si O2"
_cell_formula_units_Z 44
_cell_length_a 19.665977
_cell_length_b 18.610002
_cell_length_c 5.117569
_cell_angle_alpha 90.000000
_cell_angle_beta 108.735204
_cell_angle_gamma 90.000000
_cell_volume 1773.706032
_symmetry_space_group_name_H-M "C 2/C"
_symmetry_group_IT_number 15
_symmetry_cell_setting 'monoclinic'
loop_
_space_group_symop_operation_xyz
x,y,z
-x,y,1/2-z
-x,-y,-z
x,-y,1/2+z
1/2+x,1/2+y,z
1/2-x,1/2+y,1/2-z
1/2-x,1/2-y,-z
1/2+x,1/2-y,1/2+z
loop_
_atom_site_type_symbol
_atom_site_label
_atom_site_fract_x
_atom_site_fract_y
_atom_site_fract_z
Si Si1 0.267241 0.825999 0.392379
Si Si2 0.000000 0.377254 0.750000
Si Si3 0.356112 0.951971 0.714747
Si Si4 0.922724 0.028892 0.063090
Si Si5 0.890681 0.178104 0.849322
Si Si6 0.403738 0.770172 0.351232
O O1 0.250000 0.750000 0.500000
O O2 0.300878 0.884891 0.630688
O O3 0.190342 0.850365 0.186143
O O4 0.327121 0.811487 0.244618
O O5 0.061346 0.425631 0.692585
O O6 0.965793 0.327455 0.483061
O O7 0.341114 0.008948 0.467914
O O8 0.000000 0.995595 0.250000
O O9 0.881526 0.020435 0.292115
O O10 0.937089 0.108293 0.969062
O O11 0.902918 0.207310 0.571620
O O12 0.916758 0.239623 0.079639
#
# Coordination Sequence:
#
# PCOD8145172 Si02
#       6
#     8   4   8   8   8   8
#     4   9  22  43  64  93 129 166 211 266 316 372
#     4  10  24  42  64  94 134 168 216 262 318 382
#     4  11  25  43  67  98 133 176 215 266 324 389
#     4  10  22  38  55  79 115 153 192 246 309 367
#     4  11  22  38  62  88 119 158 212 261 314 376
#     4  10  23  37  61  91 121 161 205 261 316 367
#
# _framework density 24.806819000000001
#
# number of rings (size 3 to 8) (size 9 to 14) (size 15 to 20)
#    0.000    1.818    0.000    2.182    2.545   14.545 
#    0.000    0.000    0.000    0.000    0.000    0.000 
#    0.000    0.000    0.000    0.000    0.000    0.000 
#
# Total GULP energy -272631.897644 kJ/mol
# GULP energy per Si atom -12392.358984 kJ/mol
# Density = 2.475036 g / cm^3
# Si number density = 24.806819 Si / 1000 Ang^3
#
#
#
# Elastic Constant Matrix: (Units=GPa)
#
#
# Indices 1 2 3 4 5 6 
#
# 1 36.8060 25.6079 20.5177 0.0000 15.3714 0.0000
# 2 25.6079 109.8931 25.6218 0.0000 13.5006 0.0000
# 3 20.5177 25.6218 105.1323 0.0000 -7.2652 0.0000
# 4 0.0000 0.0000 0.0000 31.9712 0.0000 -0.3002
# 5 15.3714 13.5006 -7.2652 0.0000 27.8948 0.0000
# 6 0.0000 0.0000 0.0000 -0.3002 0.0000 40.4828
#
#
#
# Elastic Compliance Matrix: (Units=1/GPa)
#
#
# Indices 1 2 3 4 5 6 
#
# 1 0.047211 -0.005582 -0.009638 0.000000 -0.025824 0.000000
# 2 -0.005582 0.011171 -0.001827 0.000000 -0.002807 0.000000
# 3 -0.009638 -0.001827 0.012491 0.000000 0.009449 0.000000
# 4 0.000000 0.000000 0.000000 0.031280 0.000000 0.000232
# 5 -0.025824 -0.002807 0.009449 0.000000 0.053899 0.000000
# 6 0.000000 0.000000 0.000000 0.000232 0.000000 0.024704
#
#
# Mechanical properties :
#
#
# Convention : Reuss Voigt Hill
#
# Bulk Modulus (GPa) = 27.18919 43.92515 35.55717
# Shear Modulus (GPa) = 22.01588 32.07535 27.04562
#
# Velocity S-wave (km/s) = 2.98231 3.59974 3.30547
# Velocity P-wave (km/s) = 4.77945 5.91801 5.37894
#
# Compressibility (1/GPa) = 0.03677933
#
# Stress axis : x y z
#
# Youngs Moduli (GPa) = 21.18171 89.51540 80.05742
#
# Poissons Ratio (x) = 0.49964 0.77159
# Poissons Ratio (y) = 0.11823 0.14628
# Poissons Ratio (z) = 0.20415 0.16356
#
# Static dielectric constant tensor:
#      x y z
#    x 5.204990 0.000000 0.474990 
#    y 0.000000 4.453800 0.000000 
#    z 0.474990 0.000000 4.838040 
# 
# 
# High freq. dielectric constant tensor:
#      x y z
#    x 1.976560 0.000000 0.007090 
#    y 0.000000 1.993350 0.000000 
#    z 0.007090 0.000000 1.989960 
# 
# From -- ./inp_files/12973.got.cif
#   From: 2010.06.25/outbox.cif.g09.slc.cpg/sg15_7_cif.got.tgz:12973.got - 2010.06.28 07:06:18.
