data_PCOD8145575
_publ_section_title
;
Structure prediction by ZEFSAII (Michael W. Deem and Ramdas Pophale) SiO2 
 PCOD8145575
Probable space group: C 2/C
;
_chemical_formula_sum "Si O2"
_cell_formula_units_Z 32
_cell_length_a 20.683246
_cell_length_b 15.192007
_cell_length_c 20.454267
_cell_angle_alpha 90.000000
_cell_angle_beta 166.086515
_cell_angle_gamma 90.000000
_cell_volume 1545.447633
_symmetry_space_group_name_H-M "C 2/C"
_symmetry_group_IT_number 15
_symmetry_cell_setting 'monoclinic'
loop_
_space_group_symop_operation_xyz
x,y,z
-x,y,1/2-z
-x,-y,-z
x,-y,1/2+z
1/2+x,1/2+y,z
1/2-x,1/2+y,1/2-z
1/2-x,1/2-y,-z
1/2+x,1/2-y,1/2+z
loop_
_atom_site_type_symbol
_atom_site_label
_atom_site_fract_x
_atom_site_fract_y
_atom_site_fract_z
Si Si1 0.351871 0.690070 0.998340
Si Si2 0.604047 0.490158 0.029587
Si Si3 0.114747 0.543803 0.468181
Si Si4 0.000000 0.312572 0.750000
Si Si5 0.000000 0.403106 0.250000
O O1 0.647357 0.730581 0.282879
O O2 0.361204 0.612200 0.954330
O O3 0.252563 0.653893 0.971671
O O4 0.896241 0.534578 0.311221
O O5 0.500000 0.500000 0.000000
O O6 0.409607 0.545033 0.789566
O O7 0.120165 0.459403 0.426700
O O8 0.028940 0.629088 0.343277
O O9 0.750000 0.250000 0.500000
#
# Coordination Sequence:
#
# PCOD8145575 Si02
#       5
#     8   8   8   4   4
#     4  11  22  36  57  90 119 147 189 243 293 342
#     4  11  23  42  61  81 118 167 205 237 286 361
#     4  10  22  39  62  88 115 158 202 237 299 373
#     4  11  22  40  64  95 124 148 196 269 316 348
#     4   9  20  36  60  87 122 152 184 235 308 372
#
# _framework density 20.705976
#
# number of rings (size 3 to 8) (size 9 to 14) (size 15 to 20)
#    0.000    1.500    0.000    6.000    0.000   12.000 
#    0.000    7.500    0.000    0.000    0.000    0.000 
#    0.000    0.000    0.000    0.000    0.000    0.000 
#
# Total GULP energy -198319.845240 kJ/mol
# GULP energy per Si atom -12394.990328 kJ/mol
# Density = 2.065885 g / cm^3
# Si number density = 20.705976 Si / 1000 Ang^3
#
#
#
# Elastic Constant Matrix: (Units=GPa)
#
#
# Indices 1 2 3 4 5 6 
#
# 1 120.1989 43.0747 4.6260 -1.2622 19.0818 0.2043
# 2 43.0747 113.0025 15.1303 -1.5848 7.1113 -0.0336
# 3 4.6260 15.1303 60.5090 -3.4412 -0.5091 0.4671
# 4 -1.2622 -1.5848 -3.4412 40.6140 -0.9402 10.2019
# 5 19.0818 7.1113 -0.5091 -0.9402 31.9317 0.0725
# 6 0.2043 -0.0336 0.4671 10.2019 0.0725 21.9033
#
#
#
# Elastic Compliance Matrix: (Units=1/GPa)
#
#
# Indices 1 2 3 4 5 6 
#
# 1 0.010498 -0.003667 0.000075 0.000096 -0.005452 -0.000132
# 2 -0.003667 0.010577 -0.002362 0.000078 -0.000200 0.000065
# 3 0.000075 -0.002362 0.017223 0.001679 0.000808 -0.001156
# 4 0.000096 0.000078 0.001679 0.028085 0.000809 -0.013120
# 5 -0.005452 -0.000200 0.000808 0.000809 0.034657 -0.000458
# 6 -0.000132 0.000065 -0.001156 -0.013120 -0.000458 0.051794
#
#
# Mechanical properties :
#
#
# Convention : Reuss Voigt Hill
#
# Bulk Modulus (GPa) = 37.89506 46.59696 42.24601
# Shear Modulus (GPa) = 28.81213 34.28175 31.54694
#
# Velocity S-wave (km/s) = 3.73431 4.07338 3.90752
# Velocity P-wave (km/s) = 6.07739 6.68402 6.38791
#
# Compressibility (1/GPa) = 0.02638867
#
# Stress axis : x y z
#
# Youngs Moduli (GPa) = 95.25987 94.54319 58.06330
#
# Poissons Ratio (x) = 0.34670 -0.00436
# Poissons Ratio (y) = 0.34933 0.13716
# Poissons Ratio (z) = -0.00715 0.22333
#
# Static dielectric constant tensor:
#      x y z
#    x 3.692900 0.010150 0.209990 
#    y 0.010150 3.502760 -0.001780 
#    z 0.209990 -0.001780 3.914680 
# 
# 
# High freq. dielectric constant tensor:
#      x y z
#    x 1.794340 -0.000010 0.014090 
#    y -0.000010 1.814280 -0.000120 
#    z 0.014090 -0.000120 1.828590 
# 
# From -- ./inp_files/12499.got.cif
#   From: 2010.06.25/outbox.cif.g09.slc.cpg/sg15_7_cif.got.tgz:12499.got - 2010.06.28 07:06:18.
