data_PCOD8145060
_publ_section_title
;
Structure prediction by ZEFSAII (Michael W. Deem and Ramdas Pophale) SiO2 
 PCOD8145060
Probable space group: C 2/C
;
_chemical_formula_sum "Si O2"
_cell_formula_units_Z 60
_cell_length_a 11.802563
_cell_length_b 23.975124
_cell_length_c 12.005166
_cell_angle_alpha 90.000000
_cell_angle_beta 72.537197
_cell_angle_gamma 90.000000
_cell_volume 3240.512178
_symmetry_space_group_name_H-M "C 2/C"
_symmetry_group_IT_number 15
_symmetry_cell_setting 'monoclinic'
loop_
_space_group_symop_operation_xyz
x,y,z
-x,y,1/2-z
-x,-y,-z
x,-y,1/2+z
1/2+x,1/2+y,z
1/2-x,1/2+y,1/2-z
1/2-x,1/2-y,-z
1/2+x,1/2-y,1/2+z
loop_
_atom_site_type_symbol
_atom_site_label
_atom_site_fract_x
_atom_site_fract_y
_atom_site_fract_z
Si Si1 0.106884 0.710765 0.941854
Si Si2 0.314983 0.507562 0.570210
Si Si3 0.077955 0.428990 0.129022
Si Si4 0.305515 0.905596 0.813931
Si Si5 0.968738 0.934211 0.384315
Si Si6 0.508991 0.891857 0.921420
Si Si7 0.500000 0.823225 0.250000
Si Si8 0.834889 0.827937 0.490648
O O1 0.240365 0.686684 0.920636
O O2 0.070939 0.712755 0.821392
O O3 0.017880 0.672224 0.039258
O O4 0.095482 0.772858 0.992513
O O5 0.204252 0.544724 0.570749
O O6 0.277203 0.460758 0.673003
O O7 0.358075 0.473656 0.448905
O O8 0.416540 0.549875 0.577982
O O9 0.095455 0.364121 0.160670
O O10 0.000000 0.459804 0.250000
O O11 0.008815 0.430274 0.031791
O O12 0.408507 0.918962 0.873548
O O13 0.363211 0.891285 0.677856
O O14 0.229287 0.853238 0.880886
O O15 0.932984 0.870014 0.413287
O O16 0.000000 0.946381 0.250000
#
# Coordination Sequence:
#
# PCOD8145060 Si02
#       8
#     8   8   8   8   8   8   4   8
#     4   9  17  36  58  84 110 144 181 239 296 334
#     4  10  22  37  54  81 115 148 195 228 285 332
#     4   9  20  33  55  87 116 147 182 233 290 350
#     4   9  19  34  54  80 112 144 188 237 278 336
#     4  10  23  39  56  80 111 157 195 236 264 342
#     4   9  18  33  54  86 113 138 183 236 290 340
#     4   8  18  32  56  86 114 138 174 232 292 346
#     4   9  19  37  58  79 109 149 195 232 281 336
#
# _framework density 18.515592999999999
#
# number of rings (size 3 to 8) (size 9 to 14) (size 15 to 20)
#    0.400    2.400    0.000    0.000    5.600    1.600 
#    7.200    1.333    2.933    3.200    0.000    0.000 
#    0.000    0.000    0.000    0.000    0.000    0.000 
#
# Total GULP energy -371807.243013 kJ/mol
# GULP energy per Si atom -12393.574767 kJ/mol
# Density = 1.847345 g / cm^3
# Si number density = 18.515593 Si / 1000 Ang^3
#
#
#
# Elastic Constant Matrix: (Units=GPa)
#
#
# Indices 1 2 3 4 5 6 
#
# 1 83.2610 60.7917 46.3408 0.0000 -4.1664 0.0000
# 2 60.7917 104.4070 40.6435 0.0000 -0.4108 0.0000
# 3 46.3408 40.6435 117.1771 0.0000 -1.9061 0.0000
# 4 0.0000 0.0000 0.0000 16.9825 0.0000 -8.5350
# 5 -4.1664 -0.4108 -1.9061 0.0000 30.6808 0.0000
# 6 0.0000 0.0000 0.0000 -8.5350 0.0000 36.3382
#
#
#
# Elastic Compliance Matrix: (Units=1/GPa)
#
#
# Indices 1 2 3 4 5 6 
#
# 1 0.023594 -0.011691 -0.005232 0.000000 0.002723 0.000000
# 2 -0.011691 0.016866 -0.001250 0.000000 -0.001439 0.000000
# 3 -0.005232 -0.001250 0.011036 0.000000 -0.000042 0.000000
# 4 0.000000 0.000000 0.000000 0.066765 0.000000 0.015682
# 5 0.002723 -0.001439 -0.000042 0.000000 0.032942 0.000000
# 6 0.000000 0.000000 0.000000 0.015682 0.000000 0.031202
#
#
# Mechanical properties :
#
#
# Convention : Reuss Voigt Hill
#
# Bulk Modulus (GPa) = 66.00095 66.71079 66.35587
# Shear Modulus (GPa) = 22.34136 27.27157 24.80646
#
# Velocity S-wave (km/s) = 3.47742 3.84200 3.66425
# Velocity P-wave (km/s) = 7.20047 7.46920 7.33607
#
# Compressibility (1/GPa) = 0.01515130
#
# Stress axis : x y z
#
# Youngs Moduli (GPa) = 42.38333 59.29170 90.61229
#
# Poissons Ratio (x) = 0.69315 0.47406
# Poissons Ratio (y) = 0.49548 0.11327
# Poissons Ratio (z) = 0.22174 0.07412
#
# Static dielectric constant tensor:
#      x y z
#    x 3.346130 0.000000 -0.070170 
#    y 0.000000 3.319220 0.000000 
#    z -0.070170 0.000000 3.430670 
# 
# 
# High freq. dielectric constant tensor:
#      x y z
#    x 1.702350 0.000000 -0.004750 
#    y 0.000000 1.713820 0.000000 
#    z -0.004750 0.000000 1.713960 
# 
# From -- ./inp_files/90771.got.cif
#   From: 2010.06.25/outbox.cif.g09.slc.cpg/sg15_46_cif.got.tgz:90771.got - 2010.06.28 07:06:18.
