data_PCOD8145588
_publ_section_title
;
Structure prediction by ZEFSAII (Michael W. Deem and Ramdas Pophale) SiO2 
 PCOD8145588
Probable space group: C 2/C
;
_chemical_formula_sum "Si O2"
_cell_formula_units_Z 56
_cell_length_a 24.948273
_cell_length_b 18.810455
_cell_length_c 10.747412
_cell_angle_alpha 90.000000
_cell_angle_beta 30.277217
_cell_angle_gamma 90.000000
_cell_volume 2542.921617
_symmetry_space_group_name_H-M "C 2/C"
_symmetry_group_IT_number 15
_symmetry_cell_setting 'monoclinic'
loop_
_space_group_symop_operation_xyz
x,y,z
-x,y,1/2-z
-x,-y,-z
x,-y,1/2+z
1/2+x,1/2+y,z
1/2-x,1/2+y,1/2-z
1/2-x,1/2-y,-z
1/2+x,1/2-y,1/2+z
loop_
_atom_site_type_symbol
_atom_site_label
_atom_site_fract_x
_atom_site_fract_y
_atom_site_fract_z
Si Si1 0.298084 0.335302 0.280356
Si Si2 0.777834 0.061067 0.131128
Si Si3 0.742468 0.328107 0.404102
Si Si4 0.819742 0.044928 0.320245
Si Si5 0.069748 0.262978 0.363392
Si Si6 0.534839 0.380550 0.370048
Si Si7 0.636431 0.822836 0.814967
O O1 0.277560 0.368384 0.185578
O O2 0.390630 0.383566 0.155444
O O3 0.328507 0.252883 0.201010
O O4 0.190848 0.339062 0.573912
O O5 0.776620 0.022648 0.268981
O O6 0.674473 0.112979 0.329586
O O7 0.888576 0.106531 0.903101
O O8 0.783279 0.009191 0.000668
O O9 0.732229 0.379874 0.542134
O O10 0.863249 0.300160 0.161464
O O11 0.654433 0.265708 0.592422
O O12 0.947128 0.057877 0.061933
O O13 0.006731 0.199502 0.556926
O O14 0.990776 0.318923 0.452935
#
# Coordination Sequence:
#
# PCOD8145588 Si02
#       7
#     8   8   8   8   8   8   8
#     4   9  19  37  61  92 125 160 195 268 315 390
#     4  11  24  42  63  89 128 169 217 260 308 385
#     4  10  22  39  62  91 131 156 212 260 326 369
#     4  11  25  41  62  89 127 174 210 264 312 371
#     4   9  20  39  59  98 121 161 200 273 316 389
#     4   9  20  39  63  94 122 158 210 260 331 377
#     4   9  20  37  61  90 121 164 209 247 326 371
#
# _framework density 22.021913999999999
#
# number of rings (size 3 to 8) (size 9 to 14) (size 15 to 20)
#    0.000    2.286    0.000    1.714   10.000    5.714 
#    7.714    0.714    0.000    0.000    0.000    0.000 
#    0.000    0.000    0.000    0.000    0.000    0.000 
#
# Total GULP energy -346976.786012 kJ/mol
# GULP energy per Si atom -12392.028072 kJ/mol
# Density = 2.197179 g / cm^3
# Si number density = 22.021914 Si / 1000 Ang^3
#
#
#
# Elastic Constant Matrix: (Units=GPa)
#
#
# Indices 1 2 3 4 5 6 
#
# 1 141.2945 42.2208 53.8550 0.0000 12.6428 0.0000
# 2 42.2208 50.9862 21.2212 0.0000 -5.3061 0.0000
# 3 53.8550 21.2212 69.3776 0.0000 -17.5489 0.0000
# 4 0.0000 0.0000 0.0000 27.8957 0.0000 -7.4367
# 5 12.6428 -5.3061 -17.5489 0.0000 42.8811 0.0000
# 6 0.0000 0.0000 0.0000 -7.4367 0.0000 32.1083
#
#
#
# Elastic Compliance Matrix: (Units=1/GPa)
#
#
# Indices 1 2 3 4 5 6 
#
# 1 0.014994 -0.008662 -0.011577 0.000000 -0.010231 0.000000
# 2 -0.008662 0.027479 -0.000195 0.000000 0.005874 0.000000
# 3 -0.011577 -0.000195 0.027126 0.000000 0.014490 0.000000
# 4 0.000000 0.000000 0.000000 0.038207 0.000000 0.008849
# 5 -0.010231 0.005874 0.014490 0.000000 0.032994 0.000000
# 6 0.000000 0.000000 0.000000 0.008849 0.000000 0.033194
#
#
# Mechanical properties :
#
#
# Convention : Reuss Voigt Hill
#
# Bulk Modulus (GPa) = 34.80801 55.13916 44.97358
# Shear Modulus (GPa) = 22.27770 30.20111 26.23940
#
# Velocity S-wave (km/s) = 3.18404 3.70728 3.45558
# Velocity P-wave (km/s) = 5.41829 6.58922 6.03224
#
# Compressibility (1/GPa) = 0.02872902
#
# Stress axis : x y z
#
# Youngs Moduli (GPa) = 66.69315 36.39174 36.86499
#
# Poissons Ratio (x) = 0.31524 0.42680
# Poissons Ratio (y) = 0.57771 0.00719
# Poissons Ratio (z) = 0.77214 0.00710
#
# Static dielectric constant tensor:
#      x y z
#    x 3.908310 0.000000 -0.135950 
#    y 0.000000 3.880650 0.000000 
#    z -0.135950 0.000000 3.894290 
# 
# 
# High freq. dielectric constant tensor:
#      x y z
#    x 1.865820 0.000000 -0.000230 
#    y 0.000000 1.851730 0.000000 
#    z -0.000230 0.000000 1.847910 
# 
# From -- ./inp_files/124150.got.cif
#   From: 2010.06.25/outbox.cif.g09.slc.cpg/sg15_63_cif.got.tgz:124150.got - 2010.06.28 07:06:18.
