data_PCOD8145482
_publ_section_title
;
Structure prediction by ZEFSAII (Michael W. Deem and Ramdas Pophale) SiO2 
 PCOD8145482
Probable space group: C 2/C
;
_chemical_formula_sum "Si O2"
_cell_formula_units_Z 48
_cell_length_a 12.555302
_cell_length_b 12.882292
_cell_length_c 14.990165
_cell_angle_alpha 90.000000
_cell_angle_beta 90.039775
_cell_angle_gamma 90.000000
_cell_volume 2424.524690
_symmetry_space_group_name_H-M "C 2/C"
_symmetry_group_IT_number 15
_symmetry_cell_setting 'monoclinic'
loop_
_space_group_symop_operation_xyz
x,y,z
-x,y,1/2-z
-x,-y,-z
x,-y,1/2+z
1/2+x,1/2+y,z
1/2-x,1/2+y,1/2-z
1/2-x,1/2-y,-z
1/2+x,1/2-y,1/2+z
loop_
_atom_site_type_symbol
_atom_site_label
_atom_site_fract_x
_atom_site_fract_y
_atom_site_fract_z
Si Si1 0.993212 0.664720 0.649278
Si Si2 0.011081 0.828799 0.503799
Si Si3 0.261865 0.093039 0.662038
Si Si4 0.667512 0.506358 0.487632
Si Si5 0.840585 0.486492 0.836585
Si Si6 0.081410 0.743244 0.174134
O O1 0.039044 0.752728 0.584889
O O2 0.872360 0.637041 0.623303
O O3 0.937167 0.561718 0.861339
O O4 0.000000 0.707704 0.750000
O O5 0.973324 0.760051 0.421136
O O6 0.117530 0.891851 0.478109
O O7 0.920113 0.907515 0.536487
O O8 0.188108 0.190501 0.684702
O O9 0.207801 0.019807 0.588570
O O10 0.276429 0.025849 0.750751
O O11 0.763629 0.521273 0.420355
O O12 0.890379 0.376261 0.813367
O O13 0.000000 0.779561 0.250000
#
# Coordination Sequence:
#
# PCOD8145482 Si02
#       6
#     8   8   8   8   8   8
#     4  10  22  39  57  84 116 149 188 233 283 335
#     4  10  22  39  59  84 116 150 190 234 282 336
#     4  10  22  39  58  83 115 150 189 232 283 336
#     4  10  22  39  59  85 114 151 191 233 282 335
#     4  11  23  38  60  86 116 150 189 235 283 336
#     4  11  22  38  60  84 114 150 188 234 283 336
#
# _framework density 19.797695000000001
#
# number of rings (size 3 to 8) (size 9 to 14) (size 15 to 20)
#    0.000    1.667    0.000    4.500    0.000   11.333 
#    0.000    1.667    0.000    0.000    0.000    0.000 
#    0.000    0.000    0.000    0.000    0.000    0.000 
#
# Total GULP energy -297765.206826 kJ/mol
# GULP energy per Si atom -12406.883618 kJ/mol
# Density = 1.975263 g / cm^3
# Si number density = 19.797695 Si / 1000 Ang^3
#
#
#
# Elastic Constant Matrix: (Units=GPa)
#
#
# Indices 1 2 3 4 5 6 
#
# 1 92.1940 25.6864 21.9674 0.0000 -0.6175 0.0000
# 2 25.6864 101.9207 40.0033 0.0000 16.0732 0.0000
# 3 21.9674 40.0033 78.3382 0.0000 -3.8544 0.0000
# 4 0.0000 0.0000 0.0000 32.0970 0.0000 -0.4922
# 5 -0.6175 16.0732 -3.8544 0.0000 36.8777 0.0000
# 6 0.0000 0.0000 0.0000 -0.4922 0.0000 22.9497
#
#
#
# Elastic Compliance Matrix: (Units=1/GPa)
#
#
# Indices 1 2 3 4 5 6 
#
# 1 0.012014 -0.002356 -0.002116 0.000000 0.001007 0.000000
# 2 -0.002356 0.014232 -0.006950 0.000000 -0.006969 0.000000
# 3 -0.002116 -0.006950 0.017143 0.000000 0.004785 0.000000
# 4 0.000000 0.000000 0.000000 0.031166 0.000000 0.000668
# 5 0.001007 -0.006969 0.004785 0.000000 0.030671 0.000000
# 6 0.000000 0.000000 0.000000 0.000668 0.000000 0.043588
#
#
# Mechanical properties :
#
#
# Convention : Reuss Voigt Hill
#
# Bulk Modulus (GPa) = 48.67387 49.75190 49.21288
# Shear Modulus (GPa) = 28.01019 30.70461 29.35740
#
# Velocity S-wave (km/s) = 3.76549 3.94244 3.85498
# Velocity P-wave (km/s) = 6.59881 6.77558 6.68778
#
# Compressibility (1/GPa) = 0.02054490
#
# Stress axis : x y z
#
# Youngs Moduli (GPa) = 83.23541 70.26374 58.33292
#
# Poissons Ratio (x) = 0.16554 0.12345
# Poissons Ratio (y) = 0.19610 0.40540
# Poissons Ratio (z) = 0.17616 0.48832
#
# Static dielectric constant tensor:
#      x y z
#    x 3.740050 0.000000 -0.009670 
#    y 0.000000 3.568490 0.000000 
#    z -0.009670 0.000000 3.572830 
# 
# 
# High freq. dielectric constant tensor:
#      x y z
#    x 1.783150 0.000000 -0.001540 
#    y 0.000000 1.775880 0.000000 
#    z -0.001540 0.000000 1.780310 
# 
# From -- ./inp_files/151952.got.cif
#   From: 2010.06.25/outbox.cif.g09.slc.cpg/sg15_76_cif.got.tgz:151952.got - 2010.06.28 07:06:18.
