data_PCOD8145131
_publ_section_title
;
Structure prediction by ZEFSAII (Michael W. Deem and Ramdas Pophale) SiO2 
 PCOD8145131
Probable space group: C 2/C
;
_chemical_formula_sum "Si O2"
_cell_formula_units_Z 48
_cell_length_a 23.388740
_cell_length_b 15.422250
_cell_length_c 18.353047
_cell_angle_alpha 90.000000
_cell_angle_beta 20.778256
_cell_angle_gamma 90.000000
_cell_volume 2348.485040
_symmetry_space_group_name_H-M "C 2/C"
_symmetry_group_IT_number 15
_symmetry_cell_setting 'monoclinic'
loop_
_space_group_symop_operation_xyz
x,y,z
-x,y,1/2-z
-x,-y,-z
x,-y,1/2+z
1/2+x,1/2+y,z
1/2-x,1/2+y,1/2-z
1/2-x,1/2-y,-z
1/2+x,1/2-y,1/2+z
loop_
_atom_site_type_symbol
_atom_site_label
_atom_site_fract_x
_atom_site_fract_y
_atom_site_fract_z
Si Si1 0.495965 0.026251 0.588089
Si Si2 0.026454 0.141518 0.481422
Si Si3 0.144340 0.706781 0.402086
Si Si4 0.321922 0.520581 0.454055
Si Si5 0.664963 0.282595 0.531324
Si Si6 0.689180 0.504242 0.698519
O O1 0.510147 0.131774 0.576478
O O2 0.648470 0.985510 0.448093
O O3 0.500000 0.000000 0.500000
O O4 0.331140 0.984734 0.817556
O O5 0.931713 0.221537 0.558852
O O6 0.189468 0.169333 0.330875
O O7 0.075206 0.074404 0.359886
O O8 0.908514 0.094462 0.679214
O O9 0.215844 0.744197 0.392822
O O10 0.500000 0.474209 0.250000
O O11 0.342447 0.614559 0.464605
O O12 0.264959 0.516442 0.438828
O O13 0.500000 0.239648 0.750000
O O14 0.750000 0.250000 0.500000
#
# Coordination Sequence:
#
# PCOD8145131 Si02
#       6
#     8   8   8   8   8   8
#     4  11  25  40  63  93 129 173 221 265 325 390
#     4  10  22  37  63  91 129 170 212 264 319 382
#     4  11  22  37  60  93 130 167 217 259 328 390
#     4  11  23  37  63  91 125 165 212 262 325 383
#     4  11  20  32  54  87 127 158 192 251 324 391
#     4  10  23  41  61  91 136 169 218 261 327 388
#
# _framework density 20.438707999999998
#
# number of rings (size 3 to 8) (size 9 to 14) (size 15 to 20)
#    0.000    1.333    0.000    7.500   11.667    0.000 
#    0.000    0.000    0.000    1.000    0.000    0.000 
#    0.000    0.000    0.000    0.000    0.000    0.000 
#
# Total GULP energy -297321.212110 kJ/mol
# GULP energy per Si atom -12388.383838 kJ/mol
# Density = 2.039219 g / cm^3
# Si number density = 20.438708 Si / 1000 Ang^3
#
#
#
# Elastic Constant Matrix: (Units=GPa)
#
#
# Indices 1 2 3 4 5 6 
#
# 1 110.7640 21.0257 48.3657 0.0014 -3.4613 0.0015
# 2 21.0257 59.0702 38.8300 0.0009 -3.4226 0.0006
# 3 48.3657 38.8300 148.7054 0.0107 -12.5221 -0.0058
# 4 0.0014 0.0009 0.0107 26.5192 -0.0041 -3.4210
# 5 -3.4613 -3.4226 -12.5221 -0.0041 40.3082 0.0003
# 6 0.0015 0.0006 -0.0058 -3.4210 0.0003 31.7996
#
#
#
# Elastic Compliance Matrix: (Units=1/GPa)
#
#
# Indices 1 2 3 4 5 6 
#
# 1 0.010686 -0.001834 -0.003011 0.000001 -0.000174 -0.000001
# 2 -0.001834 0.020752 -0.004813 0.000001 0.000109 -0.000001
# 3 -0.003011 -0.004813 0.009144 -0.000003 0.002173 0.000002
# 4 0.000001 0.000001 -0.000003 0.038239 0.000003 0.004114
# 5 -0.000174 0.000109 0.002173 0.000003 0.025478 0.000000
# 6 -0.000001 -0.000001 0.000002 0.004114 0.000000 0.031890
#
#
# Mechanical properties :
#
#
# Convention : Reuss Voigt Hill
#
# Bulk Modulus (GPa) = 47.02575 59.44251 53.23413
# Shear Modulus (GPa) = 30.75143 33.74660 32.24902
#
# Velocity S-wave (km/s) = 3.88308 4.06780 3.97651
# Velocity P-wave (km/s) = 6.56982 7.15605 6.86919
#
# Compressibility (1/GPa) = 0.02126495
#
# Stress axis : x y z
#
# Youngs Moduli (GPa) = 93.58207 48.18795 109.36284
#
# Poissons Ratio (x) = 0.08839 0.32931
# Poissons Ratio (y) = 0.17165 0.52637
# Poissons Ratio (z) = 0.28179 0.23193
#
# Static dielectric constant tensor:
#      x y z
#    x 3.559640 0.000000 -0.275350 
#    y 0.000000 3.113620 0.000010 
#    z -0.275350 0.000010 4.192200 
# 
# 
# High freq. dielectric constant tensor:
#      x y z
#    x 1.795500 0.000000 -0.025650 
#    y 0.000000 1.766820 0.000000 
#    z -0.025650 0.000000 1.816350 
# 
# From -- ./inp_files/66440.got.cif
#   From: 2010.06.25/outbox.cif.g09.slc.cpg/sg15_34_cif.got.tgz:66440.got - 2010.06.28 07:06:18.
