data_PCOD8145041
_publ_section_title
;
Structure prediction by ZEFSAII (Michael W. Deem and Ramdas Pophale) SiO2 
 PCOD8145041
Probable space group: C 2/C
;
_chemical_formula_sum "Si O2"
_cell_formula_units_Z 48
_cell_length_a 19.762792
_cell_length_b 10.270362
_cell_length_c 20.320308
_cell_angle_alpha 90.000000
_cell_angle_beta 34.960142
_cell_angle_gamma 90.000000
_cell_volume 2363.327179
_symmetry_space_group_name_H-M "C 2/C"
_symmetry_group_IT_number 15
_symmetry_cell_setting 'monoclinic'
loop_
_space_group_symop_operation_xyz
x,y,z
-x,y,1/2-z
-x,-y,-z
x,-y,1/2+z
1/2+x,1/2+y,z
1/2-x,1/2+y,1/2-z
1/2-x,1/2-y,-z
1/2+x,1/2-y,1/2+z
loop_
_atom_site_type_symbol
_atom_site_label
_atom_site_fract_x
_atom_site_fract_y
_atom_site_fract_z
Si Si1 0.695027 0.547064 0.736420
Si Si2 0.555292 0.536085 0.523770
Si Si3 0.952314 0.519390 0.216731
Si Si4 0.758132 0.131493 0.568335
Si Si5 0.242316 0.664432 0.202277
Si Si6 0.199236 0.566046 0.477210
O O1 0.553460 0.566195 0.841169
O O2 0.736045 0.431922 0.752889
O O3 0.744507 0.685439 0.723807
O O4 0.740263 0.519755 0.626997
O O5 0.500000 0.500000 0.500000
O O6 0.622275 0.406851 0.491590
O O7 0.652308 0.650393 0.435926
O O8 0.861302 0.398954 0.296199
O O9 0.883447 0.633906 0.232560
O O10 0.000000 0.568877 0.250000
O O11 0.059811 0.465369 0.086878
O O12 0.768656 0.283935 0.555250
O O13 0.752203 0.040452 0.507409
#
# Coordination Sequence:
#
# PCOD8145041 Si02
#       6
#     8   8   8   8   8   8
#     4  11  25  40  64  94 123 163 212 252 313 368
#     4   9  21  40  61  84 128 161 197 253 314 356
#     4   9  20  41  62  87 127 164 200 258 314 366
#     4   9  20  40  61  93 126 163 200 261 309 365
#     4  10  24  43  62  91 126 165 207 257 310 366
#     4  10  22  36  65  94 121 162 216 248 307 372
#
# _framework density 20.310348999999999
#
# number of rings (size 3 to 8) (size 9 to 14) (size 15 to 20)
#    0.000    2.333    0.000    0.000   11.667    2.667 
#    3.000    2.500    0.000    0.000    0.000    0.000 
#    0.000    0.000    0.000    0.000    0.000    0.000 
#
# Total GULP energy -297332.744491 kJ/mol
# GULP energy per Si atom -12388.864354 kJ/mol
# Density = 2.026412 g / cm^3
# Si number density = 20.310349 Si / 1000 Ang^3
#
#
#
# Elastic Constant Matrix: (Units=GPa)
#
#
# Indices 1 2 3 4 5 6 
#
# 1 83.2128 30.0353 37.0427 0.0000 -17.2775 0.0000
# 2 30.0353 102.1781 46.1425 0.0000 -1.2130 0.0000
# 3 37.0427 46.1425 164.7870 0.0000 -9.4754 0.0000
# 4 0.0000 0.0000 0.0000 18.4052 0.0000 5.8173
# 5 -17.2775 -1.2130 -9.4754 0.0000 30.0509 0.0000
# 6 0.0000 0.0000 0.0000 5.8173 0.0000 26.8062
#
#
#
# Elastic Compliance Matrix: (Units=1/GPa)
#
#
# Indices 1 2 3 4 5 6 
#
# 1 0.016015 -0.003663 -0.002091 0.000000 0.008400 0.000000
# 2 -0.003663 0.012050 -0.002693 0.000000 -0.002469 0.000000
# 3 -0.002091 -0.002693 0.007350 0.000000 0.001007 0.000000
# 4 0.000000 0.000000 0.000000 0.058334 0.000000 -0.012659
# 5 0.008400 -0.002469 0.001007 0.000000 0.038324 0.000000
# 6 0.000000 0.000000 0.000000 -0.012659 0.000000 0.040052
#
#
# Mechanical properties :
#
#
# Convention : Reuss Voigt Hill
#
# Bulk Modulus (GPa) = 53.99311 64.06877 59.03094
# Shear Modulus (GPa) = 25.61558 30.84962 28.23260
#
# Velocity S-wave (km/s) = 3.55520 3.90155 3.73240
# Velocity P-wave (km/s) = 6.59503 7.20482 6.90666
#
# Compressibility (1/GPa) = 0.01852088
#
# Stress axis : x y z
#
# Youngs Moduli (GPa) = 62.44242 82.98479 136.04727
#
# Poissons Ratio (x) = 0.30401 0.28449
# Poissons Ratio (y) = 0.22876 0.36634
# Poissons Ratio (z) = 0.13058 0.22345
#
# Static dielectric constant tensor:
#      x y z
#    x 3.804680 0.000000 0.028110 
#    y 0.000000 3.393190 0.000000 
#    z 0.028110 0.000000 4.067070 
# 
# 
# High freq. dielectric constant tensor:
#      x y z
#    x 1.795060 0.000000 -0.007710 
#    y 0.000000 1.773990 0.000000 
#    z -0.007710 0.000000 1.807110 
# 
# From -- ./inp_files/281605.got.cif
#   From: 2010.06.25/outbox.cif.g09.slc.cpg/sg15_141_cif.got.tgz:281605.got - 2010.06.28 07:06:18.
