data_PCOD8145441
_publ_section_title
;
Structure prediction by ZEFSAII (Michael W. Deem and Ramdas Pophale) SiO2 
 PCOD8145441
Probable space group: C 2/C
;
_chemical_formula_sum "Si O2"
_cell_formula_units_Z 52
_cell_length_a 23.349945
_cell_length_b 11.126231
_cell_length_c 17.199672
_cell_angle_alpha 90.000000
_cell_angle_beta 144.452719
_cell_angle_gamma 90.000000
_cell_volume 2597.826443
_symmetry_space_group_name_H-M "C 2/C"
_symmetry_group_IT_number 15
_symmetry_cell_setting 'monoclinic'
loop_
_space_group_symop_operation_xyz
x,y,z
-x,y,1/2-z
-x,-y,-z
x,-y,1/2+z
1/2+x,1/2+y,z
1/2-x,1/2+y,1/2-z
1/2-x,1/2-y,-z
1/2+x,1/2-y,1/2+z
loop_
_atom_site_type_symbol
_atom_site_label
_atom_site_fract_x
_atom_site_fract_y
_atom_site_fract_z
Si Si1 0.262056 0.081408 0.480607
Si Si2 0.148086 0.936993 0.999350
Si Si3 0.545022 0.973170 0.222850
Si Si4 0.868848 0.684166 0.465132
Si Si5 0.686021 0.324057 0.371252
Si Si6 0.000000 0.911235 0.250000
Si Si7 0.673925 0.111679 0.252777
O O1 0.175231 0.119023 0.443811
O O2 0.357695 0.092505 0.640328
O O3 0.276249 0.164988 0.421257
O O4 0.239238 0.950936 0.419135
O O5 0.122978 0.829533 0.032113
O O6 0.049612 0.011710 0.874232
O O7 0.232805 0.026456 0.125113
O O8 0.500000 0.040160 0.250000
O O9 0.575271 0.065074 0.187905
O O10 0.469430 0.873010 0.108199
O O11 0.844069 0.616230 0.358434
O O12 0.750000 0.250000 0.500000
O O13 0.577929 0.331116 0.289413
O O14 0.688232 0.250458 0.293288
#
# Coordination Sequence:
#
# PCOD8145441 Si02
#       7
#     8   8   8   8   8   4   8
#     4   9  20  39  63  88 116 161 210 243 302 369
#     4  10  22  42  61  90 118 162 208 248 303 372
#     4   9  19  37  60  91 115 158 209 246 293 368
#     4  11  23  37  64  88 130 159 194 263 312 364
#     4  11  20  41  64  92 121 161 207 258 300 364
#     4  10  22  38  68  90 118 160 216 252 292 366
#     4  11  23  40  60  94 127 156 202 255 317 366
#
# _framework density 20.016734
#
# number of rings (size 3 to 8) (size 9 to 14) (size 15 to 20)
#    0.000    1.846    4.615    0.923    6.462    0.000 
#    2.769    3.846    0.000    0.000    0.000    0.000 
#    0.000    0.000    0.000    0.000    0.000    0.000 
#
# Total GULP energy -322119.379891 kJ/mol
# GULP energy per Si atom -12389.206919 kJ/mol
# Density = 1.997117 g / cm^3
# Si number density = 20.016734 Si / 1000 Ang^3
#
#
#
# Elastic Constant Matrix: (Units=GPa)
#
#
# Indices 1 2 3 4 5 6 
#
# 1 88.4645 36.6810 49.6176 0.0000 -11.7599 0.0000
# 2 36.6810 109.6673 46.0849 0.0000 -1.2881 0.0000
# 3 49.6176 46.0849 98.4557 0.0000 6.8910 0.0000
# 4 0.0000 0.0000 0.0000 24.8309 0.0000 -4.8494
# 5 -11.7599 -1.2881 6.8910 0.0000 30.9041 0.0000
# 6 0.0000 0.0000 0.0000 -4.8494 0.0000 30.3725
#
#
#
# Elastic Compliance Matrix: (Units=1/GPa)
#
#
# Indices 1 2 3 4 5 6 
#
# 1 0.018383 -0.002354 -0.008782 0.000000 0.008855 0.000000
# 2 -0.002354 0.011740 -0.004348 0.000000 0.000563 0.000000
# 3 -0.008782 -0.004348 0.017132 0.000000 -0.007343 0.000000
# 4 0.000000 0.000000 0.000000 0.041569 0.000000 0.006637
# 5 0.008855 0.000563 -0.007343 0.000000 0.037389 0.000000
# 6 0.000000 0.000000 0.000000 0.006637 0.000000 0.033984
#
#
# Mechanical properties :
#
#
# Convention : Reuss Voigt Hill
#
# Bulk Modulus (GPa) = 61.40325 62.37270 61.88797
# Shear Modulus (GPa) = 25.43324 28.16845 26.80085
#
# Velocity S-wave (km/s) = 3.56841 3.75540 3.66310
# Velocity P-wave (km/s) = 6.90801 7.07332 6.99116
#
# Compressibility (1/GPa) = 0.01628578
#
# Stress axis : x y z
#
# Youngs Moduli (GPa) = 54.39829 85.18125 58.37087
#
# Poissons Ratio (x) = 0.20053 0.51262
# Poissons Ratio (y) = 0.12806 0.25380
# Poissons Ratio (z) = 0.47773 0.37037
#
# Static dielectric constant tensor:
#      x y z
#    x 3.714220 0.000000 0.198410 
#    y 0.000000 4.500220 0.000000 
#    z 0.198410 0.000000 3.513990 
# 
# 
# High freq. dielectric constant tensor:
#      x y z
#    x 1.773710 0.000000 0.008270 
#    y 0.000000 1.779490 0.000000 
#    z 0.008270 0.000000 1.777060 
# 
# From -- ./inp_files/167191.got.cif
#   From: 2010.06.25/outbox.cif.g09.slc.cpg/sg15_84_cif.got.tgz:167191.got - 2010.06.28 07:06:18.
