data_PCOD8145475
_publ_section_title
;
Structure prediction by ZEFSAII (Michael W. Deem and Ramdas Pophale) SiO2 
 PCOD8145475
Probable space group: C 2/C
;
_chemical_formula_sum "Si O2"
_cell_formula_units_Z 36
_cell_length_a 15.295143
_cell_length_b 8.917105
_cell_length_c 20.298154
_cell_angle_alpha 90.000000
_cell_angle_beta 138.342568
_cell_angle_gamma 90.000000
_cell_volume 1840.109243
_symmetry_space_group_name_H-M "C 2/C"
_symmetry_group_IT_number 15
_symmetry_cell_setting 'monoclinic'
loop_
_space_group_symop_operation_xyz
x,y,z
-x,y,1/2-z
-x,-y,-z
x,-y,1/2+z
1/2+x,1/2+y,z
1/2-x,1/2+y,1/2-z
1/2-x,1/2-y,-z
1/2+x,1/2-y,1/2+z
loop_
_atom_site_type_symbol
_atom_site_label
_atom_site_fract_x
_atom_site_fract_y
_atom_site_fract_z
Si Si1 0.500000 0.769027 0.250000
Si Si2 0.451623 0.415626 0.037100
Si Si3 0.903443 0.021269 0.751628
Si Si4 0.621876 0.078422 0.534687
Si Si5 0.295624 0.088650 0.547604
O O1 0.574358 0.660382 0.238881
O O2 0.599151 0.887148 0.336723
O O3 0.562632 0.416797 0.156736
O O4 0.500000 0.500000 0.000000
O O5 0.413367 0.249962 0.995180
O O6 0.324923 0.495853 0.993709
O O7 0.000000 0.094603 0.750000
O O8 0.752704 0.062578 0.652533
O O9 0.500000 0.000000 0.500000
O O10 0.640250 0.001155 0.475324
O O11 0.250000 0.250000 0.500000
#
# Coordination Sequence:
#
# PCOD8145475 Si02
#       5
#     4   8   8   8   8
#     4  10  22  38  80  94 136 184 228 270 358 406
#     4  12  27  44  72 103 141 180 234 286 341 409
#     4  10  22  44  74  96 140 182 228 280 348 408
#     4  12  27  44  72 103 141 180 234 286 341 409
#     4  12  21  44  69 101 135 181 221 281 341 405
#
# _framework density 19.564056999999998
#
# number of rings (size 3 to 8) (size 9 to 14) (size 15 to 20)
#    0.667    0.000    6.667    2.000    0.000    5.333 
#    0.000    0.000    0.000    0.000    0.000    0.000 
#    0.000    0.000    0.000    0.000    0.000    0.000 
#
# Total GULP energy -223178.406208 kJ/mol
# GULP energy per Si atom -12398.800345 kJ/mol
# Density = 1.951953 g / cm^3
# Si number density = 19.564057 Si / 1000 Ang^3
#
#
#
# Elastic Constant Matrix: (Units=GPa)
#
#
# Indices 1 2 3 4 5 6 
#
# 1 139.9637 50.4701 30.9822 0.0000 15.6198 0.0000
# 2 50.4701 136.0207 29.7970 0.0000 16.5665 0.0000
# 3 30.9822 29.7970 153.8433 0.0000 20.8167 0.0000
# 4 0.0000 0.0000 0.0000 36.9161 0.0000 -1.3236
# 5 15.6198 16.5665 20.8167 0.0000 32.1815 0.0000
# 6 0.0000 0.0000 0.0000 -1.3236 0.0000 37.4098
#
#
#
# Elastic Compliance Matrix: (Units=1/GPa)
#
#
# Indices 1 2 3 4 5 6 
#
# 1 0.008567 -0.002716 -0.000905 0.000000 -0.002175 0.000000
# 2 -0.002716 0.008867 -0.000801 0.000000 -0.002728 0.000000
# 3 -0.000905 -0.000801 0.007367 0.000000 -0.003914 0.000000
# 4 0.000000 0.000000 0.000000 0.027123 0.000000 0.000960
# 5 -0.002175 -0.002728 -0.003914 0.000000 0.036065 0.000000
# 6 0.000000 0.000000 0.000000 0.000960 0.000000 0.026765
#
#
# Mechanical properties :
#
#
# Convention : Reuss Voigt Hill
#
# Bulk Modulus (GPa) = 62.66727 72.48070 67.57399
# Shear Modulus (GPa) = 38.78443 42.54005 40.66224
#
# Velocity S-wave (km/s) = 4.45728 4.66810 4.56391
# Velocity P-wave (km/s) = 7.65449 8.13531 7.89856
#
# Compressibility (1/GPa) = 0.01595729
#
# Stress axis : x y z
#
# Youngs Moduli (GPa) = 116.72714 112.77407 135.73744
#
# Poissons Ratio (x) = 0.30625 0.12285
# Poissons Ratio (y) = 0.31699 0.10878
# Poissons Ratio (z) = 0.10564 0.09038
#
# Static dielectric constant tensor:
#      x y z
#    x 3.539410 0.000000 0.064980 
#    y 0.000000 3.530140 0.000000 
#    z 0.064980 0.000000 3.904450 
# 
# 
# High freq. dielectric constant tensor:
#      x y z
#    x 1.761060 0.000000 0.001800 
#    y 0.000000 1.765880 0.000000 
#    z 0.001800 0.000000 1.782040 
# 
# From -- ./inp_files/242745.got.cif
#   From: 2010.06.25/outbox.cif.g09.slc.cpg/sg15_122_cif.got.tgz:242745.got - 2010.06.28 07:06:18.
