data_PCOD8145901
_publ_section_title
;
Structure prediction by ZEFSAII (Michael W. Deem and Ramdas Pophale) SiO2 
 PCOD8145901
Probable space group: C 2/C
;
_chemical_formula_sum "Si O2"
_cell_formula_units_Z 36
_cell_length_a 19.118944
_cell_length_b 11.152111
_cell_length_c 26.974714
_cell_angle_alpha 90.000000
_cell_angle_beta 18.539703
_cell_angle_gamma 90.000000
_cell_volume 1828.742971
_symmetry_space_group_name_H-M "C 2/C"
_symmetry_group_IT_number 15
_symmetry_cell_setting 'monoclinic'
loop_
_space_group_symop_operation_xyz
x,y,z
-x,y,1/2-z
-x,-y,-z
x,-y,1/2+z
1/2+x,1/2+y,z
1/2-x,1/2+y,1/2-z
1/2-x,1/2-y,-z
1/2+x,1/2-y,1/2+z
loop_
_atom_site_type_symbol
_atom_site_label
_atom_site_fract_x
_atom_site_fract_y
_atom_site_fract_z
Si Si1 0.901274 0.969638 0.991181
Si Si2 0.165641 0.519136 0.751793
Si Si3 0.648589 0.213183 0.516036
Si Si4 0.234748 0.892016 0.013556
Si Si5 0.000000 0.029073 0.250000
O O1 0.781066 0.005201 0.122123
O O2 0.871483 0.829024 0.003912
O O3 0.785229 0.048729 0.026972
O O4 0.162913 0.992634 0.819178
O O5 0.953544 0.432975 0.895624
O O6 0.088475 0.656067 0.812072
O O7 0.750000 0.250000 0.500000
O O8 0.789632 0.116987 0.389709
O O9 0.250000 0.750000 0.000000
O O10 0.023328 0.940882 0.186671
#
# Coordination Sequence:
#
# PCOD8145901 Si02
#       5
#     8   8   8   8   4
#     4  11  23  41  65  90 125 166 203 262 308 363
#     4  10  24  41  62  95 119 166 209 248 319 364
#     4  11  20  40  67  89 125 158 214 256 303 369
#     4  11  25  42  63  90 129 164 207 256 314 372
#     4  10  22  40  62  96 114 168 214 248 314 366
#
# _framework density 19.685654
#
# number of rings (size 3 to 8) (size 9 to 14) (size 15 to 20)
#    0.000    1.333    4.444    2.000    6.222    0.000 
#    0.000    4.444    0.000    0.000    0.000    0.000 
#    0.000    0.000    0.000    0.000    0.000    0.000 
#
# Total GULP energy -223129.141422 kJ/mol
# GULP energy per Si atom -12396.063412 kJ/mol
# Density = 1.964085 g / cm^3
# Si number density = 19.685654 Si / 1000 Ang^3
#
#
#
# Elastic Constant Matrix: (Units=GPa)
#
#
# Indices 1 2 3 4 5 6 
#
# 1 47.9068 32.7019 28.9991 -0.1418 -1.7825 0.1419
# 2 32.7019 160.1425 40.5721 0.1786 -2.6833 -0.0466
# 3 28.9991 40.5721 91.0689 0.3141 -7.1260 -0.2747
# 4 -0.1418 0.1786 0.3141 39.3777 0.0377 0.1848
# 5 -1.7825 -2.6833 -7.1260 0.0377 35.5477 -0.0630
# 6 0.1419 -0.0466 -0.2747 0.1848 -0.0630 14.3898
#
#
#
# Elastic Compliance Matrix: (Units=1/GPa)
#
#
# Indices 1 2 3 4 5 6 
#
# 1 0.027849 -0.003877 -0.007169 0.000177 -0.000334 -0.000428
# 2 -0.003877 0.007579 -0.002146 -0.000031 -0.000052 0.000022
# 3 -0.007169 -0.002146 0.014406 -0.000135 0.002367 0.000351
# 4 0.000177 -0.000031 -0.000135 0.025399 -0.000048 -0.000331
# 5 -0.000334 -0.000052 0.002367 -0.000048 0.028585 0.000174
# 6 -0.000428 0.000022 0.000351 -0.000331 0.000174 0.069510
#
#
# Mechanical properties :
#
#
# Convention : Reuss Voigt Hill
#
# Bulk Modulus (GPa) = 42.64180 55.96271 49.30226
# Shear Modulus (GPa) = 24.09317 30.98606 27.53962
#
# Velocity S-wave (km/s) = 3.50222 3.97173 3.74434
# Velocity P-wave (km/s) = 6.16947 7.03724 6.61759
#
# Compressibility (1/GPa) = 0.02345117
#
# Stress axis : x y z
#
# Youngs Moduli (GPa) = 35.90796 131.94533 69.41388
#
# Poissons Ratio (x) = 0.51149 0.49763
# Poissons Ratio (y) = 0.13920 0.14896
# Poissons Ratio (z) = 0.25742 0.28315
#
# Static dielectric constant tensor:
#      x y z
#    x 3.598750 -0.001130 -0.003710 
#    y -0.001130 3.516130 0.000250 
#    z -0.003710 0.000250 3.992150 
# 
# 
# High freq. dielectric constant tensor:
#      x y z
#    x 1.755720 0.000000 0.008590 
#    y 0.000000 1.775900 0.000040 
#    z 0.008590 0.000040 1.774250 
# 
# From -- ./inp_files/54018.got.cif
#   From: 2010.06.25/outbox.cif.g09.slc.cpg/sg15_28_cif.got.tgz:54018.got - 2010.06.28 07:06:18.
