data_PCOD8145814
_publ_section_title
;
Structure prediction by ZEFSAII (Michael W. Deem and Ramdas Pophale) SiO2 
 PCOD8145814
Probable space group: C 2/C
;
_chemical_formula_sum "Si O2"
_cell_formula_units_Z 48
_cell_length_a 26.640627
_cell_length_b 9.005358
_cell_length_c 9.901749
_cell_angle_alpha 90.000000
_cell_angle_beta 80.138207
_cell_angle_gamma 90.000000
_cell_volume 2340.411442
_symmetry_space_group_name_H-M "C 2/C"
_symmetry_group_IT_number 15
_symmetry_cell_setting 'monoclinic'
loop_
_space_group_symop_operation_xyz
x,y,z
-x,y,1/2-z
-x,-y,-z
x,-y,1/2+z
1/2+x,1/2+y,z
1/2-x,1/2+y,1/2-z
1/2-x,1/2-y,-z
1/2+x,1/2-y,1/2+z
loop_
_atom_site_type_symbol
_atom_site_label
_atom_site_fract_x
_atom_site_fract_y
_atom_site_fract_z
Si Si1 0.780330 0.427712 0.608749
Si Si2 0.616627 0.575849 0.482518
Si Si3 0.557518 0.079314 0.739273
Si Si4 0.779359 0.085248 0.633980
Si Si5 0.057583 0.078885 0.240376
Si Si6 0.615299 0.917731 0.481169
O O1 0.785321 0.259578 0.656229
O O2 0.740017 0.511929 0.720190
O O3 0.761607 0.442536 0.464182
O O4 0.835396 0.499019 0.595658
O O5 0.666596 0.483420 0.426795
O O6 0.574216 0.555096 0.386784
O O7 0.594362 0.519201 0.632798
O O8 0.630993 0.747359 0.494087
O O9 0.500000 0.020756 0.750000
O O10 0.562338 0.250359 0.691317
O O11 0.571689 0.061392 0.889281
O O12 0.595359 0.982960 0.630832
O O13 0.000000 0.021754 0.250000
#
# Coordination Sequence:
#
# PCOD8145814 Si02
#       6
#     8   8   8   8   8   8
#     4  11  24  41  61  86 117 153 193 238 289 344
#     4  11  23  38  60  89 117 151 195 238 286 343
#     4  10  22  40  60  85 119 155 192 237 287 340
#     4  11  24  41  61  86 117 153 193 238 289 344
#     4  10  22  40  60  85 119 155 192 237 287 340
#     4  11  23  38  60  89 117 151 195 238 286 343
#
# _framework density 20.509212999999999
#
# number of rings (size 3 to 8) (size 9 to 14) (size 15 to 20)
#    0.000    1.333    0.000    5.000    0.000   14.000 
#    0.000    0.000    0.000    0.000    0.000    0.000 
#    0.000    0.000    0.000    0.000    0.000    0.000 
#
# Total GULP energy -297794.053011 kJ/mol
# GULP energy per Si atom -12408.085542 kJ/mol
# Density = 2.046253 g / cm^3
# Si number density = 20.509213 Si / 1000 Ang^3
#
#
#
# Elastic Constant Matrix: (Units=GPa)
#
#
# Indices 1 2 3 4 5 6 
#
# 1 91.4933 33.3970 -4.6981 0.0000 -9.7876 0.0000
# 2 33.3970 110.7753 34.6689 0.0000 -5.4375 0.0000
# 3 -4.6981 34.6689 64.7153 0.0000 -15.6784 0.0000
# 4 0.0000 0.0000 0.0000 30.1839 0.0000 -8.6424
# 5 -9.7876 -5.4375 -15.6784 0.0000 36.5747 0.0000
# 6 0.0000 0.0000 0.0000 -8.6424 0.0000 29.6913
#
#
#
# Elastic Compliance Matrix: (Units=1/GPa)
#
#
# Indices 1 2 3 4 5 6 
#
# 1 0.013755 -0.005521 0.005188 0.000000 0.005084 0.000000
# 2 -0.005521 0.013093 -0.008148 0.000000 -0.003024 0.000000
# 3 0.005188 -0.008148 0.022582 0.000000 0.009857 0.000000
# 4 0.000000 0.000000 0.000000 0.036142 0.000000 0.010520
# 5 0.005084 -0.003024 0.009857 0.000000 0.032478 0.000000
# 6 0.000000 0.000000 0.000000 0.010520 0.000000 0.036742
#
#
# Mechanical properties :
#
#
# Convention : Reuss Voigt Hill
#
# Bulk Modulus (GPa) = 30.79854 43.74663 37.27258
# Shear Modulus (GPa) = 27.38569 32.86439 30.12504
#
# Velocity S-wave (km/s) = 3.65812 4.00737 3.83672
# Velocity P-wave (km/s) = 5.73516 6.54129 6.15144
#
# Compressibility (1/GPa) = 0.03246908
#
# Stress axis : x y z
#
# Youngs Moduli (GPa) = 72.69876 76.37464 44.28353
#
# Poissons Ratio (x) = 0.42168 -0.22975
# Poissons Ratio (y) = 0.40138 0.36081
# Poissons Ratio (z) = -0.37717 0.62227
#
# Static dielectric constant tensor:
#      x y z
#    x 3.893530 0.000000 0.012780 
#    y 0.000000 3.835770 0.000000 
#    z 0.012780 0.000000 3.754210 
# 
# 
# High freq. dielectric constant tensor:
#      x y z
#    x 1.815680 0.000000 0.003130 
#    y 0.000000 1.810080 0.000000 
#    z 0.003130 0.000000 1.809700 
# 
# From -- ./inp_files/68584.got.cif
#   From: 2010.06.25/outbox.cif.g09.slc.cpg/sg15_35_cif.got.tgz:68584.got - 2010.06.28 07:06:18.
