data_PCOD8145913
_publ_section_title
;
Structure prediction by ZEFSAII (Michael W. Deem and Ramdas Pophale) SiO2 
 PCOD8145913
Probable space group: C 2/C
;
_chemical_formula_sum "Si O2"
_cell_formula_units_Z 56
_cell_length_a 6.120009
_cell_length_b 26.559640
_cell_length_c 18.928875
_cell_angle_alpha 90.000000
_cell_angle_beta 56.884849
_cell_angle_gamma 90.000000
_cell_volume 2577.047244
_symmetry_space_group_name_H-M "C 2/C"
_symmetry_group_IT_number 15
_symmetry_cell_setting 'monoclinic'
loop_
_space_group_symop_operation_xyz
x,y,z
-x,y,1/2-z
-x,-y,-z
x,-y,1/2+z
1/2+x,1/2+y,z
1/2-x,1/2+y,1/2-z
1/2-x,1/2-y,-z
1/2+x,1/2-y,1/2+z
loop_
_atom_site_type_symbol
_atom_site_label
_atom_site_fract_x
_atom_site_fract_y
_atom_site_fract_z
Si Si1 0.458108 0.954051 0.672942
Si Si2 0.505032 0.421491 0.966612
Si Si3 0.000000 0.785233 0.750000
Si Si4 0.257306 0.136154 0.541357
Si Si5 0.500000 0.881896 0.250000
Si Si6 0.957248 0.442651 0.115754
Si Si7 0.082258 0.201071 0.814600
Si Si8 0.795427 0.129456 0.372807
O O1 0.500000 0.956883 0.750000
O O2 0.736542 0.955191 0.583440
O O3 0.284795 0.905460 0.680941
O O4 0.325391 0.003861 0.661024
O O5 0.484319 0.399338 0.891954
O O6 0.549398 0.378454 0.017791
O O7 0.241682 0.451978 0.030301
O O8 0.738589 0.752176 0.801075
O O9 0.968835 0.822102 0.822028
O O10 0.275806 0.090030 0.595133
O O11 0.538048 0.147683 0.458954
O O12 0.170569 0.189713 0.591832
O O13 0.493207 0.914732 0.182269
O O14 0.753172 0.848208 0.199489
O O15 0.000000 0.204681 0.750000
#
# Coordination Sequence:
#
# PCOD8145913 Si02
#       8
#     8   8   4   8   4   8   8   8
#     4  11  23  38  62  94 128 172 213 243 299 373
#     4  10  22  40  63  86 136 168 205 250 304 361
#     4  11  26  44  66  88 120 162 210 265 316 370
#     4  10  22  40  66  94 128 162 204 259 314 370
#     4  11  20  38  64  94 132 154 202 257 316 370
#     4  11  21  37  64  97 129 165 205 250 307 367
#     4  11  23  41  67  95 119 158 205 266 323 373
#     4  10  24  44  61  90 128 168 212 257 301 368
#
# _framework density 21.730294000000001
#
# number of rings (size 3 to 8) (size 9 to 14) (size 15 to 20)
#    0.000    1.429    3.571    1.286    0.000    9.714 
#    0.000    2.857    0.000    0.000    0.000    0.000 
#    0.000    0.000    0.000    0.000    0.000    0.000 
#
# Total GULP energy -346984.313740 kJ/mol
# GULP energy per Si atom -12392.296919 kJ/mol
# Density = 2.168084 g / cm^3
# Si number density = 21.730294 Si / 1000 Ang^3
#
#
#
# Elastic Constant Matrix: (Units=GPa)
#
#
# Indices 1 2 3 4 5 6 
#
# 1 75.0749 29.1075 14.2883 0.0000 19.6425 0.0000
# 2 29.1075 128.0790 49.8969 0.0000 4.7310 0.0000
# 3 14.2883 49.8969 95.7549 0.0000 19.5721 0.0000
# 4 0.0000 0.0000 0.0000 34.0733 0.0000 -7.0622
# 5 19.6425 4.7310 19.5721 0.0000 39.9277 0.0000
# 6 0.0000 0.0000 0.0000 -7.0622 0.0000 25.5586
#
#
#
# Elastic Compliance Matrix: (Units=1/GPa)
#
#
# Indices 1 2 3 4 5 6 
#
# 1 0.016843 -0.004027 0.001313 0.000000 -0.008452 0.000000
# 2 -0.004027 0.010840 -0.005768 0.000000 0.003524 0.000000
# 3 0.001313 -0.005768 0.014720 0.000000 -0.007178 0.000000
# 4 0.000000 0.000000 0.000000 0.031131 0.000000 0.008602
# 5 -0.008452 0.003524 -0.007178 0.000000 0.032304 0.000000
# 6 0.000000 0.000000 0.000000 0.008602 0.000000 0.041503
#
#
# Mechanical properties :
#
#
# Convention : Reuss Voigt Hill
#
# Bulk Modulus (GPa) = 39.31012 53.94380 46.62696
# Shear Modulus (GPa) = 28.93767 33.61965 31.27866
#
# Velocity S-wave (km/s) = 3.65317 3.93763 3.79806
# Velocity P-wave (km/s) = 5.99362 6.74917 6.38259
#
# Compressibility (1/GPa) = 0.02543874
#
# Stress axis : x y z
#
# Youngs Moduli (GPa) = 59.37200 92.25311 67.93376
#
# Poissons Ratio (x) = 0.37150 -0.08918
# Poissons Ratio (y) = 0.23909 0.39183
# Poissons Ratio (z) = -0.07794 0.53211
#
# Static dielectric constant tensor:
#      x y z
#    x 4.080290 0.000000 -0.000760 
#    y 0.000000 3.653500 0.000000 
#    z -0.000760 0.000000 4.103950 
# 
# 
# High freq. dielectric constant tensor:
#      x y z
#    x 1.853050 0.000000 0.001640 
#    y 0.000000 1.836750 0.000000 
#    z 0.001640 0.000000 1.873110 
# 
# From -- ./inp_files/186690.got.cif
#   From: 2010.06.25/outbox.cif.g09.slc.cpg/sg15_94_cif.got.tgz:186690.got - 2010.06.28 07:06:18.
