data_PCOD8145054
_publ_section_title
;
Structure prediction by ZEFSAII (Michael W. Deem and Ramdas Pophale) SiO2 
 PCOD8145054
Probable space group: C 2/C
;
_chemical_formula_sum "Si O2"
_cell_formula_units_Z 60
_cell_length_a 8.632920
_cell_length_b 16.306279
_cell_length_c 26.347232
_cell_angle_alpha 90.000000
_cell_angle_beta 129.377774
_cell_angle_gamma 90.000000
_cell_volume 2866.920769
_symmetry_space_group_name_H-M "C 2/C"
_symmetry_group_IT_number 15
_symmetry_cell_setting 'monoclinic'
loop_
_space_group_symop_operation_xyz
x,y,z
-x,y,1/2-z
-x,-y,-z
x,-y,1/2+z
1/2+x,1/2+y,z
1/2-x,1/2+y,1/2-z
1/2-x,1/2-y,-z
1/2+x,1/2-y,1/2+z
loop_
_atom_site_type_symbol
_atom_site_label
_atom_site_fract_x
_atom_site_fract_y
_atom_site_fract_z
Si Si1 0.000000 0.753815 0.750000
Si Si2 0.259153 0.682630 0.593538
Si Si3 0.675083 0.656898 0.627675
Si Si4 0.548688 0.009436 0.819214
Si Si5 0.662584 0.842800 0.824704
Si Si6 0.189570 0.954630 0.318062
Si Si7 0.956881 0.117958 0.155349
Si Si8 0.159827 0.720659 0.034154
O O1 0.192812 0.696324 0.799425
O O2 0.970110 0.809159 0.792871
O O3 0.447545 0.658443 0.598603
O O4 0.278036 0.766116 0.629106
O O5 0.219496 0.606815 0.622144
O O6 0.070224 0.693326 0.517554
O O7 0.755784 0.566117 0.631463
O O8 0.688920 0.704678 0.578229
O O9 0.500000 0.009318 0.750000
O O10 0.360273 0.038416 0.811914
O O11 0.579002 0.915100 0.843660
O O12 0.500000 0.812458 0.750000
O O13 0.846744 0.893124 0.837693
O O14 0.000000 0.914412 0.250000
O O15 0.112147 0.038869 0.327467
O O16 0.775332 0.142484 0.080757
O O17 0.250000 0.750000 0.000000
#
# Coordination Sequence:
#
# PCOD8145054 Si02
#       8
#     4   8   8   8   8   8   8   8
#     4  10  22  36  70 100 128 168 224 274 358 372
#     4  12  25  43  68  98 133 181 232 269 339 408
#     4  11  23  42  70  97 137 176 225 288 336 407
#     4  11  24  41  63 101 140 170 218 285 347 401
#     4  11  23  39  67  98 134 167 220 281 340 401
#     4  12  25  42  69 101 138 176 227 283 346 401
#     4  11  23  42  69  96 136 174 222 283 338 407
#     4  11  24  45  68  97 137 181 230 275 335 409
#
# _framework density 20.928377000000001
#
# number of rings (size 3 to 8) (size 9 to 14) (size 15 to 20)
#    0.000    0.800    2.667    5.600    5.600    0.533 
#    0.000    0.667    0.000    0.000    0.000    0.000 
#    0.000    0.000    0.000    0.000    0.000    0.000 
#
# Total GULP energy -371962.176821 kJ/mol
# GULP energy per Si atom -12398.739227 kJ/mol
# Density = 2.088074 g / cm^3
# Si number density = 20.928377 Si / 1000 Ang^3
#
#
#
# Elastic Constant Matrix: (Units=GPa)
#
#
# Indices 1 2 3 4 5 6 
#
# 1 133.0809 22.1163 30.9365 0.0000 7.4216 0.0000
# 2 22.1163 91.4005 33.9823 0.0000 -0.4890 0.0000
# 3 30.9365 33.9823 127.7427 0.0000 17.3866 0.0000
# 4 0.0000 0.0000 0.0000 22.3149 0.0000 3.1018
# 5 7.4216 -0.4890 17.3866 0.0000 37.3682 0.0000
# 6 0.0000 0.0000 0.0000 3.1018 0.0000 43.9787
#
#
#
# Elastic Compliance Matrix: (Units=1/GPa)
#
#
# Indices 1 2 3 4 5 6 
#
# 1 0.008145 -0.001433 -0.001461 0.000000 -0.000957 0.000000
# 2 -0.001433 0.012505 -0.003246 0.000000 0.001959 0.000000
# 3 -0.001461 -0.003246 0.009621 0.000000 -0.004229 0.000000
# 4 0.000000 0.000000 0.000000 0.045257 0.000000 -0.003192
# 5 -0.000957 0.001959 -0.004229 0.000000 0.028944 0.000000
# 6 0.000000 0.000000 0.000000 -0.003192 0.000000 0.022963
#
#
# Mechanical properties :
#
#
# Convention : Reuss Voigt Hill
#
# Bulk Modulus (GPa) = 55.58300 58.47714 57.03007
# Shear Modulus (GPa) = 34.31400 38.41163 36.36282
#
# Velocity S-wave (km/s) = 4.05358 4.28879 4.17284
# Velocity P-wave (km/s) = 6.96599 7.24756 7.10817
#
# Compressibility (1/GPa) = 0.01799111
#
# Stress axis : x y z
#
# Youngs Moduli (GPa) = 122.76903 79.96838 103.93656
#
# Poissons Ratio (x) = 0.11458 0.15188
# Poissons Ratio (y) = 0.17590 0.33740
# Poissons Ratio (z) = 0.17940 0.25959
#
# Static dielectric constant tensor:
#      x y z
#    x 3.859510 0.000000 0.108240 
#    y 0.000000 4.053720 0.000000 
#    z 0.108240 0.000000 3.961680 
# 
# 
# High freq. dielectric constant tensor:
#      x y z
#    x 1.833950 0.000000 0.006960 
#    y 0.000000 1.828070 0.000000 
#    z 0.006960 0.000000 1.815630 
# 
# From -- ./inp_files/289613.got.cif
#   From: 2010.06.25/outbox.cif.g09.slc.cpg/sg15_145_cif.got.tgz:289613.got - 2010.06.28 07:06:18.
