data_PCOD8145657
_publ_section_title
;
Structure prediction by ZEFSAII (Michael W. Deem and Ramdas Pophale) SiO2 
 PCOD8145657
Probable space group: C 2/C
;
_chemical_formula_sum "Si O2"
_cell_formula_units_Z 52
_cell_length_a 13.575778
_cell_length_b 25.975300
_cell_length_c 8.138253
_cell_angle_alpha 90.000000
_cell_angle_beta 64.351136
_cell_angle_gamma 90.000000
_cell_volume 2587.049447
_symmetry_space_group_name_H-M "C 2/C"
_symmetry_group_IT_number 15
_symmetry_cell_setting 'monoclinic'
loop_
_space_group_symop_operation_xyz
x,y,z
-x,y,1/2-z
-x,-y,-z
x,-y,1/2+z
1/2+x,1/2+y,z
1/2-x,1/2+y,1/2-z
1/2-x,1/2-y,-z
1/2+x,1/2-y,1/2+z
loop_
_atom_site_type_symbol
_atom_site_label
_atom_site_fract_x
_atom_site_fract_y
_atom_site_fract_z
Si Si1 0.000000 0.707053 0.250000
Si Si2 0.746795 0.009565 0.371062
Si Si3 0.000000 0.760349 0.750000
Si Si4 0.095445 0.963903 0.001381
Si Si5 0.117507 0.563271 0.738315
Si Si6 0.869646 0.678486 0.642973
Si Si7 0.623472 0.292614 0.355159
Si Si8 0.000000 0.125319 0.750000
O O1 0.920207 0.672017 0.422392
O O2 0.918153 0.740579 0.198981
O O3 0.794607 0.041902 0.185308
O O4 0.702515 0.050419 0.533279
O O5 0.857468 0.982768 0.357448
O O6 0.652816 0.969714 0.374631
O O7 0.063101 0.723319 0.824100
O O8 0.079309 0.795393 0.576413
O O9 0.050064 0.907399 0.064861
O O10 0.000000 0.000000 0.000000
O O11 0.122515 0.623672 0.772660
O O12 0.000000 0.547460 0.750000
O O13 0.752182 0.703880 0.746769
O O14 0.590375 0.341276 0.272309
#
# Coordination Sequence:
#
# PCOD8145657 Si02
#       8
#     4   8   4   8   8   8   8   4
#     4   9  22  42  62  91 121 160 200 260 313 364
#     4  10  23  39  63  86 123 163 208 249 317 351
#     4  10  22  42  61  93 121 159 202 260 310 360
#     4  11  20  39  61  90 125 163 199 253 303 366
#     4  11  23  43  59  90 120 165 208 264 299 370
#     4  11  21  41  65  88 122 158 211 246 315 370
#     4  10  22  39  64  90 126 157 201 253 308 370
#     4  11  22  38  57  94 124 161 202 238 305 382
#
# _framework density 20.100118999999999
#
# number of rings (size 3 to 8) (size 9 to 14) (size 15 to 20)
#    0.000    1.538    2.308    2.308    2.154    1.231 
#    9.692    1.538    0.000    0.000    0.000    0.000 
#    0.000    0.000    0.000    0.000    0.000    0.000 
#
# Total GULP energy -322151.404287 kJ/mol
# GULP energy per Si atom -12390.438626 kJ/mol
# Density = 2.005437 g / cm^3
# Si number density = 20.100119 Si / 1000 Ang^3
#
#
#
# Elastic Constant Matrix: (Units=GPa)
#
#
# Indices 1 2 3 4 5 6 
#
# 1 110.9754 23.3416 32.1649 0.0000 -3.7281 0.0000
# 2 23.3416 87.3356 40.5314 0.0000 -3.0243 0.0000
# 3 32.1649 40.5314 134.0608 0.0000 -12.1609 0.0000
# 4 0.0000 0.0000 0.0000 33.4143 0.0000 6.4573
# 5 -3.7281 -3.0243 -12.1609 0.0000 31.5435 0.0000
# 6 0.0000 0.0000 0.0000 6.4573 0.0000 158.1733
#
#
#
# Elastic Compliance Matrix: (Units=1/GPa)
#
#
# Indices 1 2 3 4 5 6 
#
# 1 0.009925 -0.001803 -0.001809 0.000000 0.000303 0.000000
# 2 -0.001803 0.013649 -0.003725 0.000000 -0.000340 0.000000
# 3 -0.001809 -0.003725 0.009293 0.000000 0.003012 0.000000
# 4 0.000000 0.000000 0.000000 0.030165 0.000000 -0.001231
# 5 0.000303 -0.000340 0.003012 0.000000 0.032866 0.000000
# 6 0.000000 0.000000 0.000000 -0.001231 0.000000 0.006372
#
#
# Mechanical properties :
#
#
# Convention : Reuss Voigt Hill
#
# Bulk Modulus (GPa) = 54.96460 58.27192 56.61826
# Shear Modulus (GPa) = 40.64810 60.38183 50.51497
#
# Velocity S-wave (km/s) = 4.50186 5.48687 5.01859
# Velocity P-wave (km/s) = 7.37747 8.31834 7.86199
#
# Compressibility (1/GPa) = 0.01819353
#
# Stress axis : x y z
#
# Youngs Moduli (GPa) = 100.76018 73.26687 107.61216
#
# Poissons Ratio (x) = 0.13207 0.19464
# Poissons Ratio (y) = 0.18163 0.40084
# Poissons Ratio (z) = 0.18225 0.27291
#
# Static dielectric constant tensor:
#      x y z
#    x 3.841130 0.000000 0.036790 
#    y 0.000000 3.450450 0.000000 
#    z 0.036790 0.000000 3.959500 
# 
# 
# High freq. dielectric constant tensor:
#      x y z
#    x 1.798860 0.000000 -0.001610 
#    y 0.000000 1.766930 0.000000 
#    z -0.001610 0.000000 1.801880 
# 
# From -- ./inp_files/42085.got.cif
#   From: 2010.06.25/outbox.cif.g09.slc.cpg/sg15_22_cif.got.tgz:42085.got - 2010.06.28 07:06:18.
