data_PCOD8145388
_publ_section_title
;
Structure prediction by ZEFSAII (Michael W. Deem and Ramdas Pophale) SiO2 
 PCOD8145388
Probable space group: C 2/C
;
_chemical_formula_sum "Si O2"
_cell_formula_units_Z 56
_cell_length_a 27.767012
_cell_length_b 8.948770
_cell_length_c 16.575135
_cell_angle_alpha 90.000000
_cell_angle_beta 40.025453
_cell_angle_gamma 90.000000
_cell_volume 2648.786089
_symmetry_space_group_name_H-M "C 2/C"
_symmetry_group_IT_number 15
_symmetry_cell_setting 'monoclinic'
loop_
_space_group_symop_operation_xyz
x,y,z
-x,y,1/2-z
-x,-y,-z
x,-y,1/2+z
1/2+x,1/2+y,z
1/2-x,1/2+y,1/2-z
1/2-x,1/2-y,-z
1/2+x,1/2-y,1/2+z
loop_
_atom_site_type_symbol
_atom_site_label
_atom_site_fract_x
_atom_site_fract_y
_atom_site_fract_z
Si Si1 0.471354 0.852684 0.490031
Si Si2 0.923768 0.438815 0.376697
Si Si3 0.755628 0.622113 0.836896
Si Si4 0.111849 0.235931 0.232755
Si Si5 0.802982 0.662128 0.510055
Si Si6 0.320927 0.466665 0.429633
Si Si7 0.309632 0.191420 0.221530
O O1 0.437589 0.865614 0.444332
O O2 0.543351 0.746018 0.384865
O O3 0.398521 0.782629 0.628724
O O4 0.500000 0.000000 0.500000
O O5 0.900935 0.323189 0.335123
O O6 0.862930 0.562232 0.478060
O O7 0.000000 0.519693 0.250000
O O8 0.814287 0.703947 0.819200
O O9 0.717285 0.743584 0.828892
O O10 0.794656 0.486658 0.738326
O O11 0.687096 0.559247 0.977565
O O12 0.123941 0.059319 0.199469
O O13 0.763831 0.554960 0.494933
O O14 0.850202 0.798324 0.408733
O O15 0.737385 0.726383 0.649693
#
# Coordination Sequence:
#
# PCOD8145388 Si02
#       7
#     8   8   8   8   8   8   8
#     4  11  23  41  63  93 133 168 217 265 326 396
#     4  10  22  40  67  93 122 170 217 267 323 388
#     4  11  22  39  65  95 129 161 219 267 324 388
#     4  11  22  40  67  95 123 166 222 270 320 385
#     4  10  22  40  62  95 131 166 212 268 327 393
#     4  10  22  38  65  93 124 164 216 270 320 380
#     4  11  24  39  63  96 130 172 212 267 329 392
#
# _framework density 21.141760000000001
#
# number of rings (size 3 to 8) (size 9 to 14) (size 15 to 20)
#    0.000    1.429    2.857    2.143    4.000    0.000 
#    0.000    5.714    0.000    0.000    0.000    0.000 
#    0.000    0.000    0.000    0.000    0.000    0.000 
#
# Total GULP energy -346891.154212 kJ/mol
# GULP energy per Si atom -12388.969793 kJ/mol
# Density = 2.109364 g / cm^3
# Si number density = 21.141760 Si / 1000 Ang^3
#
#
#
# Elastic Constant Matrix: (Units=GPa)
#
#
# Indices 1 2 3 4 5 6 
#
# 1 77.0198 26.4219 6.7068 -0.0002 7.3672 -0.0001
# 2 26.4219 96.0353 57.8083 -0.0020 -6.6405 0.0016
# 3 6.7068 57.8083 97.1303 -0.0017 -12.1770 0.0008
# 4 -0.0002 -0.0020 -0.0017 35.8836 0.0011 -3.6786
# 5 7.3672 -6.6405 -12.1770 0.0011 28.3401 -0.0004
# 6 -0.0001 0.0016 0.0008 -3.6786 -0.0004 26.7301
#
#
#
# Elastic Compliance Matrix: (Units=1/GPa)
#
#
# Indices 1 2 3 4 5 6 
#
# 1 0.015148 -0.005469 0.001643 0.000000 -0.004513 0.000000
# 2 -0.005469 0.018204 -0.010298 0.000000 0.001262 -0.000001
# 3 0.001643 -0.010298 0.016864 0.000000 0.004406 0.000000
# 4 0.000000 0.000000 0.000000 0.028267 -0.000001 0.003890
# 5 -0.004513 0.001262 0.004406 -0.000001 0.038648 0.000000
# 6 0.000000 -0.000001 0.000000 0.003890 0.000000 0.037946
#
#
# Mechanical properties :
#
#
# Convention : Reuss Voigt Hill
#
# Bulk Modulus (GPa) = 45.52202 50.22882 47.87542
# Shear Modulus (GPa) = 26.22640 30.14064 28.18352
#
# Velocity S-wave (km/s) = 3.52590 3.77987 3.65509
# Velocity P-wave (km/s) = 6.17693 6.54672 6.36451
#
# Compressibility (1/GPa) = 0.02196739
#
# Stress axis : x y z
#
# Youngs Moduli (GPa) = 66.01349 54.93350 59.29950
#
# Poissons Ratio (x) = 0.30042 -0.09743
# Poissons Ratio (y) = 0.36102 0.61069
# Poissons Ratio (z) = -0.10846 0.56573
#
# Static dielectric constant tensor:
#      x y z
#    x 3.891900 0.000000 -0.067280 
#    y 0.000000 3.830100 0.000000 
#    z -0.067280 0.000000 4.406200 
# 
# 
# High freq. dielectric constant tensor:
#      x y z
#    x 1.829090 0.000000 0.005690 
#    y 0.000000 1.816550 0.000000 
#    z 0.005690 0.000000 1.835170 
# 
# From -- ./inp_files/222025.got.cif
#   From: 2010.06.25/outbox.cif.g09.slc.cpg/sg15_112_cif.got.tgz:222025.got - 2010.06.28 07:06:18.
