data_PCOD8145496
_publ_section_title
;
Structure prediction by ZEFSAII (Michael W. Deem and Ramdas Pophale) SiO2 
 PCOD8145496
Probable space group: C 2/C
;
_chemical_formula_sum "Si O2"
_cell_formula_units_Z 32
_cell_length_a 24.945159
_cell_length_b 8.535273
_cell_length_c 13.823602
_cell_angle_alpha 90.000000
_cell_angle_beta 147.305443
_cell_angle_gamma 90.000000
_cell_volume 1589.818833
_symmetry_space_group_name_H-M "C 2/C"
_symmetry_group_IT_number 15
_symmetry_cell_setting 'monoclinic'
loop_
_space_group_symop_operation_xyz
x,y,z
-x,y,1/2-z
-x,-y,-z
x,-y,1/2+z
1/2+x,1/2+y,z
1/2-x,1/2+y,1/2-z
1/2-x,1/2-y,-z
1/2+x,1/2-y,1/2+z
loop_
_atom_site_type_symbol
_atom_site_label
_atom_site_fract_x
_atom_site_fract_y
_atom_site_fract_z
Si Si1 0.087068 0.883558 0.644085
Si Si2 0.035976 0.404785 0.195863
Si Si3 0.915535 0.681405 0.039332
Si Si4 0.227566 0.591147 0.523878
O O1 0.042085 0.752461 0.645476
O O2 0.110494 0.820759 0.572583
O O3 0.179038 0.975437 0.829417
O O4 0.000000 0.000000 0.500000
O O5 0.142242 0.487976 0.345575
O O6 0.000000 0.363084 0.250000
O O7 0.954497 0.532316 0.035070
O O8 0.000000 0.722099 0.250000
O O9 0.809975 0.642524 0.927292
O O10 0.250000 0.750000 0.500000
#
# Coordination Sequence:
#
# PCOD8145496 Si02
#       4
#     8   8   8   8
#     4  12  23  35  61  90 113 154 195 232 289 345
#     4   9  21  41  60  82 116 152 190 241 290 339
#     4   9  21  41  58  81 118 153 190 241 286 336
#     4  10  22  39  59  85 118 153 191 238 287 342
#
# _framework density 20.128080000000001
#
# number of rings (size 3 to 8) (size 9 to 14) (size 15 to 20)
#    0.000    2.500    0.000    4.500    0.000    9.000 
#    0.000    0.000    0.000    0.000    0.000    0.000 
#    0.000    0.000    0.000    0.000    0.000    0.000 
#
# Total GULP energy -198229.592834 kJ/mol
# GULP energy per Si atom -12389.349552 kJ/mol
# Density = 2.008227 g / cm^3
# Si number density = 20.128080 Si / 1000 Ang^3
#
#
#
# Elastic Constant Matrix: (Units=GPa)
#
#
# Indices 1 2 3 4 5 6 
#
# 1 72.6077 71.7875 43.2753 0.0000 19.5640 0.0000
# 2 71.7875 160.3299 62.7194 0.0000 3.7169 0.0000
# 3 43.2753 62.7194 73.8938 0.0000 18.8282 0.0000
# 4 0.0000 0.0000 0.0000 40.4104 0.0000 -12.1107
# 5 19.5640 3.7169 18.8282 0.0000 29.6406 0.0000
# 6 0.0000 0.0000 0.0000 -12.1107 0.0000 37.8162
#
#
#
# Elastic Compliance Matrix: (Units=1/GPa)
#
#
# Indices 1 2 3 4 5 6 
#
# 1 0.034404 -0.013371 -0.004104 0.000000 -0.018424 0.000000
# 2 -0.013371 0.015094 -0.008050 0.000000 0.012046 0.000000
# 3 -0.004104 -0.008050 0.026036 0.000000 -0.012820 0.000000
# 4 0.000000 0.000000 0.000000 0.027373 0.000000 0.008766
# 5 -0.018424 0.012046 -0.012820 0.000000 0.052531 0.000000
# 6 0.000000 0.000000 0.000000 0.008766 0.000000 0.029251
#
#
# Mechanical properties :
#
#
# Convention : Reuss Voigt Hill
#
# Bulk Modulus (GPa) = 40.84679 73.59955 57.22317
# Shear Modulus (GPa) = 20.50012 30.17671 25.33841
#
# Velocity S-wave (km/s) = 3.19483 3.87620 3.55189
# Velocity P-wave (km/s) = 5.82638 7.52849 6.73145
#
# Compressibility (1/GPa) = 0.02448173
#
# Stress axis : x y z
#
# Youngs Moduli (GPa) = 29.06677 66.25154 38.40853
#
# Poissons Ratio (x) = 0.88588 0.15764
# Poissons Ratio (y) = 0.38866 0.30919
# Poissons Ratio (z) = 0.11930 0.53333
#
# Static dielectric constant tensor:
#      x y z
#    x 3.269690 0.000000 0.050000 
#    y 0.000000 3.762950 0.000000 
#    z 0.050000 0.000000 3.482410 
# 
# 
# High freq. dielectric constant tensor:
#      x y z
#    x 1.796840 0.000000 0.015380 
#    y 0.000000 1.796810 0.000000 
#    z 0.015380 0.000000 1.773590 
# 
# From -- ./inp_files/150076.got.cif
#   From: 2010.06.25/outbox.cif.g09.slc.cpg/sg15_76_cif.got.tgz:150076.got - 2010.06.28 07:06:18.
