data_PCOD8145225
_publ_section_title
;
Structure prediction by ZEFSAII (Michael W. Deem and Ramdas Pophale) SiO2 
 PCOD8145225
Probable space group: C 2/C
;
_chemical_formula_sum "Si O2"
_cell_formula_units_Z 56
_cell_length_a 30.256480
_cell_length_b 16.395717
_cell_length_c 12.084300
_cell_angle_alpha 90.000000
_cell_angle_beta 25.301736
_cell_angle_gamma 90.000000
_cell_volume 2562.063261
_symmetry_space_group_name_H-M "C 2/C"
_symmetry_group_IT_number 15
_symmetry_cell_setting 'monoclinic'
loop_
_space_group_symop_operation_xyz
x,y,z
-x,y,1/2-z
-x,-y,-z
x,-y,1/2+z
1/2+x,1/2+y,z
1/2-x,1/2+y,1/2-z
1/2-x,1/2-y,-z
1/2+x,1/2-y,1/2+z
loop_
_atom_site_type_symbol
_atom_site_label
_atom_site_fract_x
_atom_site_fract_y
_atom_site_fract_z
Si Si1 0.126518 0.141333 0.864268
Si Si2 0.712433 0.773561 0.834177
Si Si3 0.574833 0.305953 0.799937
Si Si4 0.402659 0.782218 0.036205
Si Si5 0.884457 0.038974 0.018275
Si Si6 0.239227 0.079267 0.405657
Si Si7 0.752540 0.912587 0.019878
O O1 0.187206 0.197244 0.812530
O O2 0.193288 0.137282 0.602826
O O3 0.106227 0.052835 0.959835
O O4 0.018431 0.180129 0.072530
O O5 0.830759 0.764930 0.609633
O O6 0.688503 0.859724 0.828029
O O7 0.637622 0.771199 0.108916
O O8 0.549339 0.282456 0.984481
O O9 0.648624 0.385833 0.629953
O O10 0.340217 0.849686 0.247994
O O11 0.500000 0.821147 0.750000
O O12 0.798297 0.085799 0.290282
O O13 0.848426 0.041646 0.973917
O O14 0.000000 0.077994 0.750000
O O15 0.293321 0.000763 0.339535
#
# Coordination Sequence:
#
# PCOD8145225 Si02
#       7
#     8   8   8   8   8   8   8
#     4  11  23  38  62  94 126 161 206 263 320 371
#     4  11  22  39  60  86 124 164 207 259 312 369
#     4  11  21  39  64  92 121 157 205 261 321 375
#     4  11  23  41  65  88 120 167 217 257 300 368
#     4  11  20  35  60  92 126 159 196 254 328 385
#     4  11  22  36  58  86 124 165 203 248 313 378
#     4  10  22  38  59  90 125 159 202 257 311 368
#
# _framework density 21.857384
#
# number of rings (size 3 to 8) (size 9 to 14) (size 15 to 20)
#    0.000    1.143    0.000    9.429    0.000    3.429 
#    0.000    1.429    0.000    9.429    0.000    0.000 
#    0.000    0.000    0.000    0.000    0.000    0.000 
#
# Total GULP energy -346952.766219 kJ/mol
# GULP energy per Si atom -12391.170222 kJ/mol
# Density = 2.180764 g / cm^3
# Si number density = 21.857384 Si / 1000 Ang^3
#
#
#
# Elastic Constant Matrix: (Units=GPa)
#
#
# Indices 1 2 3 4 5 6 
#
# 1 99.5661 3.1681 28.2400 0.0000 10.1173 0.0000
# 2 3.1681 71.5852 47.8711 0.0000 14.6123 0.0000
# 3 28.2400 47.8711 79.4516 0.0000 10.9562 0.0000
# 4 0.0000 0.0000 0.0000 19.0448 0.0000 22.9031
# 5 10.1173 14.6123 10.9562 0.0000 28.5734 0.0000
# 6 0.0000 0.0000 0.0000 22.9031 0.0000 16.6308
#
#
#
# Elastic Compliance Matrix: (Units=1/GPa)
#
#
# Indices 1 2 3 4 5 6 
#
# 1 0.012195 0.004739 -0.006610 0.000000 -0.004207 0.000000
# 2 0.004739 0.026612 -0.016482 0.000000 -0.008967 0.000000
# 3 -0.006610 -0.016482 0.024687 0.000000 0.001303 0.000000
# 4 0.000000 0.000000 0.000000 -0.080023 0.000000 0.110205
# 5 -0.004207 -0.008967 0.001303 0.000000 0.040573 0.000000
# 6 0.000000 0.000000 0.000000 0.110205 0.000000 -0.091639
#
#
# Mechanical properties :
#
#
# Convention : Reuss Voigt Hill
#
# Bulk Modulus (GPa) = 37.32967 45.46237 41.39602
# Shear Modulus (GPa) = -227.69144 24.27138 -101.71003
#
# Velocity S-wave (km/s) = -10.21751 3.33595 -6.82895
# Velocity P-wave (km/s) = 11.04902 5.97350 6.57260
#
# Compressibility (1/GPa) = 0.02678834
#
# Stress axis : x y z
#
# Youngs Moduli (GPa) = 82.00034 37.57651 40.50729
#
# Poissons Ratio (x) = -0.17809 0.26775
# Poissons Ratio (y) = -0.38863 0.66766
# Poissons Ratio (z) = 0.54202 0.61935
#
# Static dielectric constant tensor:
#      x y z
#    x 4.071300 0.000000 0.383380 
#    y 0.000000 3.919160 0.000000 
#    z 0.383380 0.000000 3.911940 
# 
# 
# High freq. dielectric constant tensor:
#      x y z
#    x 1.867410 0.000000 0.032790 
#    y 0.000000 1.861690 0.000000 
#    z 0.032790 0.000000 1.843190 
# 
# From -- ./inp_files/126992.got.cif
#   From: 2010.06.25/outbox.cif.g09.slc.cpg/sg15_64_cif.got.tgz:126992.got - 2010.06.28 07:06:18.
