data_PCOD8145992
_publ_section_title
;
Structure prediction by ZEFSAII (Michael W. Deem and Ramdas Pophale) SiO2 
 PCOD8145992
Probable space group: C 2/C
;
_chemical_formula_sum "Si O2"
_cell_formula_units_Z 60
_cell_length_a 14.393129
_cell_length_b 16.728614
_cell_length_c 13.210226
_cell_angle_alpha 90.000000
_cell_angle_beta 116.027547
_cell_angle_gamma 90.000000
_cell_volume 2858.141399
_symmetry_space_group_name_H-M "C 2/C"
_symmetry_group_IT_number 15
_symmetry_cell_setting 'monoclinic'
loop_
_space_group_symop_operation_xyz
x,y,z
-x,y,1/2-z
-x,-y,-z
x,-y,1/2+z
1/2+x,1/2+y,z
1/2-x,1/2+y,1/2-z
1/2-x,1/2-y,-z
1/2+x,1/2-y,1/2+z
loop_
_atom_site_type_symbol
_atom_site_label
_atom_site_fract_x
_atom_site_fract_y
_atom_site_fract_z
Si Si1 0.800553 0.548056 0.763384
Si Si2 0.894887 0.865285 0.638819
Si Si3 0.500000 0.095185 0.750000
Si Si4 0.739389 0.855113 0.908499
Si Si5 0.199094 0.614852 0.166862
Si Si6 0.835158 0.688744 0.924242
Si Si7 0.554623 0.210313 0.953870
Si Si8 0.620368 0.499547 0.027266
O O1 0.905094 0.541928 0.745540
O O2 0.809475 0.480722 0.856583
O O3 0.794930 0.634068 0.813364
O O4 0.694744 0.537788 0.649040
O O5 0.809490 0.850993 0.684164
O O6 0.893956 0.793040 0.557535
O O7 0.000000 0.870863 0.750000
O O8 0.869116 0.946999 0.568713
O O9 0.550733 0.150669 0.858808
O O10 0.682453 0.883685 0.780125
O O11 0.758960 0.762163 0.899641
O O12 0.841820 0.909752 0.976964
O O13 0.664397 0.861912 0.970530
O O14 0.115352 0.667893 0.072390
O O15 0.944176 0.727594 0.949140
O O16 0.500000 0.500000 0.000000
#
# Coordination Sequence:
#
# PCOD8145992 Si02
#       8
#     8   8   4   8   8   8   8   8
#     4  10  23  41  64  96 128 172 215 267 333 390
#     4  12  23  40  66  95 131 164 216 269 327 393
#     4  10  22  40  64  94 132 166 218 272 328 390
#     4  10  23  42  61  89 128 172 214 268 323 386
#     4  11  24  38  62  93 125 165 214 264 325 392
#     4  10  22  42  64  85 129 169 216 265 325 391
#     4  11  23  39  64  96 124 167 212 273 327 378
#     4  11  23  40  65  97 132 170 216 271 329 393
#
# _framework density 20.992663
#
# number of rings (size 3 to 8) (size 9 to 14) (size 15 to 20)
#    0.000    1.333    0.667    5.200    3.733    5.867 
#    0.000    0.000    0.000    0.000    0.000    0.000 
#    0.000    0.000    0.000    0.000    0.000    0.000 
#
# Total GULP energy -371904.148936 kJ/mol
# GULP energy per Si atom -12396.804965 kJ/mol
# Density = 2.094488 g / cm^3
# Si number density = 20.992663 Si / 1000 Ang^3
#
#
#
# Elastic Constant Matrix: (Units=GPa)
#
#
# Indices 1 2 3 4 5 6 
#
# 1 97.3082 26.2191 24.7618 0.0000 -12.0185 0.0000
# 2 26.2191 103.2000 33.4900 0.0000 1.3059 0.0000
# 3 24.7618 33.4900 89.3349 0.0000 1.2030 0.0000
# 4 0.0000 0.0000 0.0000 46.5931 0.0000 7.8430
# 5 -12.0185 1.3059 1.2030 0.0000 32.6215 0.0000
# 6 0.0000 0.0000 0.0000 7.8430 0.0000 44.6682
#
#
#
# Elastic Compliance Matrix: (Units=1/GPa)
#
#
# Indices 1 2 3 4 5 6 
#
# 1 0.012124 -0.002309 -0.002558 0.000000 0.004654 0.000000
# 2 -0.002309 0.011475 -0.003646 0.000000 -0.001176 0.000000
# 3 -0.002558 -0.003646 0.013287 0.000000 -0.001286 0.000000
# 4 0.000000 0.000000 0.000000 0.022116 0.000000 -0.003883
# 5 0.004654 -0.001176 -0.001286 0.000000 0.032464 0.000000
# 6 0.000000 0.000000 0.000000 -0.003883 0.000000 0.023069
#
#
# Mechanical properties :
#
#
# Convention : Reuss Voigt Hill
#
# Bulk Modulus (GPa) = 50.35078 50.97610 50.66344
# Shear Modulus (GPa) = 36.18470 38.46805 37.32638
#
# Velocity S-wave (km/s) = 4.15623 4.28536 4.22129
# Velocity P-wave (km/s) = 6.86071 6.98722 6.92426
#
# Compressibility (1/GPa) = 0.01986066
#
# Stress axis : x y z
#
# Youngs Moduli (GPa) = 82.47804 87.14926 75.26284
#
# Poissons Ratio (x) = 0.20125 0.19249
# Poissons Ratio (y) = 0.19046 0.27438
# Poissons Ratio (z) = 0.21095 0.31772
#
# Static dielectric constant tensor:
#      x y z
#    x 4.060890 0.000000 -0.302310 
#    y 0.000000 4.113500 0.000000 
#    z -0.302310 0.000000 3.283690 
# 
# 
# High freq. dielectric constant tensor:
#      x y z
#    x 1.823650 0.000000 -0.013690 
#    y 0.000000 1.835780 0.000000 
#    z -0.013690 0.000000 1.822490 
# 
# From -- ./inp_files/98814.got.cif
#   From: 2010.06.25/outbox.cif.g09.slc.cpg/sg15_50_cif.got.tgz:98814.got - 2010.06.28 07:06:18.
