data_PCOD8145586
_publ_section_title
;
Structure prediction by ZEFSAII (Michael W. Deem and Ramdas Pophale) SiO2 
 PCOD8145586
Probable space group: C 2/C
;
_chemical_formula_sum "Si O2"
_cell_formula_units_Z 64
_cell_length_a 18.479910
_cell_length_b 6.613787
_cell_length_c 27.064530
_cell_angle_alpha 90.000000
_cell_angle_beta 90.414655
_cell_angle_gamma 90.000000
_cell_volume 3307.799462
_symmetry_space_group_name_H-M "C 2/C"
_symmetry_group_IT_number 15
_symmetry_cell_setting 'monoclinic'
loop_
_space_group_symop_operation_xyz
x,y,z
-x,y,1/2-z
-x,-y,-z
x,-y,1/2+z
1/2+x,1/2+y,z
1/2-x,1/2+y,1/2-z
1/2-x,1/2-y,-z
1/2+x,1/2-y,1/2+z
loop_
_atom_site_type_symbol
_atom_site_label
_atom_site_fract_x
_atom_site_fract_y
_atom_site_fract_z
Si Si1 0.822367 0.813409 0.374007
Si Si2 0.673452 0.660500 0.939949
Si Si3 0.421172 0.569488 0.695958
Si Si4 0.169777 0.155283 0.055159
Si Si5 0.165864 0.805006 0.870813
Si Si6 0.913934 0.572675 0.874077
Si Si7 0.074125 0.064934 0.191065
Si Si8 0.428618 0.920303 0.628971
O O1 0.738701 0.812601 0.358401
O O2 0.848633 0.584548 0.373710
O O3 0.831808 0.921256 0.427349
O O4 0.861718 0.942968 0.333060
O O5 0.752300 0.753151 0.929436
O O6 0.672415 0.426782 0.922502
O O7 0.610386 0.786284 0.912851
O O8 0.655171 0.665493 0.997378
O O9 0.350954 0.466930 0.671862
O O10 0.422368 0.501825 0.752265
O O11 0.495191 0.494540 0.669788
O O12 0.418351 0.810292 0.682837
O O13 0.103874 0.272019 0.081737
O O14 0.101806 0.644710 0.871164
O O15 0.916078 0.696233 0.821695
O O16 0.986914 0.446440 0.883767
#
# Coordination Sequence:
#
# PCOD8145586 Si02
#       8
#     8   8   8   8   8   8   8   8
#     4  11  22  40  61  91 122 161 200 254 307 358
#     4  10  22  39  62  91 123 161 207 250 299 368
#     4  10  22  41  62  89 118 158 206 246 300 372
#     4  10  22  39  62  91 123 161 207 250 299 368
#     4  11  22  40  61  91 122 161 200 254 307 358
#     4  11  22  40  64  88 124 160 199 253 308 356
#     4  10  22  41  62  89 118 158 206 246 300 372
#     4  11  22  40  64  88 124 160 199 253 308 356
#
# _framework density 19.348210000000002
#
# number of rings (size 3 to 8) (size 9 to 14) (size 15 to 20)
#    0.000    1.500    5.000    0.000    0.000    3.000 
#    4.500    1.250    0.000    0.000    0.000    0.000 
#    0.000    0.000    0.000    0.000    0.000    0.000 
#
# Total GULP energy -396687.975185 kJ/mol
# GULP energy per Si atom -12396.499225 kJ/mol
# Density = 1.930417 g / cm^3
# Si number density = 19.348210 Si / 1000 Ang^3
#
#
#
# Elastic Constant Matrix: (Units=GPa)
#
#
# Indices 1 2 3 4 5 6 
#
# 1 75.5453 22.7882 46.0337 0.0000 -2.3190 0.0000
# 2 22.7882 115.6795 49.5076 0.0000 -1.1282 0.0000
# 3 46.0337 49.5076 107.0503 0.0000 0.4748 0.0000
# 4 0.0000 0.0000 0.0000 26.6712 0.0000 0.1161
# 5 -2.3190 -1.1282 0.4748 0.0000 23.3945 0.0000
# 6 0.0000 0.0000 0.0000 0.1161 0.0000 41.8012
#
#
#
# Elastic Compliance Matrix: (Units=1/GPa)
#
#
# Indices 1 2 3 4 5 6 
#
# 1 0.018032 -0.000263 -0.007641 0.000000 0.001930 0.000000
# 2 -0.000263 0.010791 -0.004880 0.000000 0.000593 0.000000
# 3 -0.007641 -0.004880 0.014890 0.000000 -0.001295 0.000000
# 4 0.000000 0.000000 0.000000 0.037494 0.000000 -0.000104
# 5 0.001930 0.000593 -0.001295 0.000000 0.042991 0.000000
# 6 0.000000 0.000000 0.000000 -0.000104 0.000000 0.023923
#
#
# Mechanical properties :
#
#
# Convention : Reuss Voigt Hill
#
# Bulk Modulus (GPa) = 55.11387 59.43711 57.27549
# Shear Modulus (GPa) = 27.81858 30.36975 29.09416
#
# Velocity S-wave (km/s) = 3.79593 3.96617 3.88198
# Velocity P-wave (km/s) = 6.91080 7.19447 7.05406
#
# Compressibility (1/GPa) = 0.01814425
#
# Stress axis : x y z
#
# Youngs Moduli (GPa) = 55.45794 92.67306 67.16112
#
# Poissons Ratio (x) = 0.02440 0.51316
# Poissons Ratio (y) = 0.01460 0.32773
# Poissons Ratio (z) = 0.42374 0.45222
#
# Static dielectric constant tensor:
#      x y z
#    x 3.722320 0.000000 -0.030040 
#    y 0.000000 3.777210 0.000000 
#    z -0.030040 0.000000 3.347540 
# 
# 
# High freq. dielectric constant tensor:
#      x y z
#    x 1.766310 0.000000 -0.001240 
#    y 0.000000 1.767030 0.000000 
#    z -0.001240 0.000000 1.731940 
# 
# From -- ./inp_files/315102.got.cif
#   From: 2010.06.25/outbox.cif.g09.slc.cpg/sg15_158_cif.got.tgz:315102.got - 2010.06.28 07:06:18.
