data_PCOD8145501
_publ_section_title
;
Structure prediction by ZEFSAII (Michael W. Deem and Ramdas Pophale) SiO2 
 PCOD8145501
Probable space group: C 2/C
;
_chemical_formula_sum "Si O2"
_cell_formula_units_Z 56
_cell_length_a 18.361180
_cell_length_b 5.237968
_cell_length_c 31.471720
_cell_angle_alpha 90.000000
_cell_angle_beta 123.864734
_cell_angle_gamma 90.000000
_cell_volume 2513.320854
_symmetry_space_group_name_H-M "C 2/C"
_symmetry_group_IT_number 15
_symmetry_cell_setting 'monoclinic'
loop_
_space_group_symop_operation_xyz
x,y,z
-x,y,1/2-z
-x,-y,-z
x,-y,1/2+z
1/2+x,1/2+y,z
1/2-x,1/2+y,1/2-z
1/2-x,1/2-y,-z
1/2+x,1/2-y,1/2+z
loop_
_atom_site_type_symbol
_atom_site_label
_atom_site_fract_x
_atom_site_fract_y
_atom_site_fract_z
Si Si1 0.203205 0.550000 0.633700
Si Si2 0.631573 0.405384 0.677467
Si Si3 0.010782 0.446078 0.552602
Si Si4 0.456908 0.535972 0.080895
Si Si5 0.085555 0.498210 0.805674
Si Si6 0.296219 0.823665 0.222416
Si Si7 0.861278 0.987849 0.130516
O O1 0.113657 0.389743 0.596029
O O2 0.274297 0.429177 0.688628
O O3 0.258553 0.576805 0.607724
O O4 0.166405 0.807804 0.642837
O O5 0.535696 0.520135 0.640111
O O6 0.630669 0.207732 0.716613
O O7 0.704453 0.609688 0.715599
O O8 0.000000 0.500000 0.500000
O O9 0.957275 0.187463 0.545862
O O10 0.968976 0.683126 0.564965
O O11 0.369998 0.510062 0.081896
O O12 0.166065 0.466350 0.798259
O O13 0.079915 0.246039 0.832558
O O14 0.000000 0.540556 0.750000
O O15 0.102424 0.746646 0.839655
#
# Coordination Sequence:
#
# PCOD8145501 Si02
#       7
#     8   8   8   8   8   8   8
#     4  10  22  39  59  88 124 165 204 257 307 362
#     4  11  20  34  58  87 123 166 210 250 292 359
#     4  11  24  45  70  93 120 157 207 262 323 380
#     4  11  24  42  65  95 124 161 205 259 313 372
#     4  11  23  37  55  86 128 174 212 249 297 357
#     4  11  20  33  56  86 121 167 212 245 292 356
#     4  11  23  40  61  87 126 166 204 255 312 364
#
# _framework density 22.281275999999998
#
# number of rings (size 3 to 8) (size 9 to 14) (size 15 to 20)
#    0.000    1.143    4.286    2.571    0.000    3.429 
#    0.000    1.429    0.000    0.000    0.000    0.000 
#    0.000    0.000    0.000    0.000    0.000    0.000 
#
# Total GULP energy -346963.773264 kJ/mol
# GULP energy per Si atom -12391.563331 kJ/mol
# Density = 2.223056 g / cm^3
# Si number density = 22.281276 Si / 1000 Ang^3
#
#
#
# Elastic Constant Matrix: (Units=GPa)
#
#
# Indices 1 2 3 4 5 6 
#
# 1 113.7545 26.4436 21.1040 -0.0004 -30.2070 0.0001
# 2 26.4436 97.9947 7.2644 -0.0016 -14.0109 0.0016
# 3 21.1040 7.2644 51.4181 -0.0004 -18.8501 0.0008
# 4 -0.0004 -0.0016 -0.0004 27.1127 -0.0005 -8.3574
# 5 -30.2070 -14.0109 -18.8501 -0.0005 28.7888 -0.0010
# 6 0.0001 0.0016 0.0008 -8.3574 -0.0010 27.6516
#
#
#
# Elastic Compliance Matrix: (Units=1/GPa)
#
#
# Indices 1 2 3 4 5 6 
#
# 1 0.012425 -0.001611 -0.000500 0.000000 0.011926 0.000001
# 2 -0.001611 0.011188 0.000601 0.000001 0.004149 0.000000
# 3 -0.000500 0.000601 0.025638 0.000001 0.016555 0.000000
# 4 0.000000 0.000001 0.000001 0.040672 0.000002 0.012293
# 5 0.011926 0.004149 0.016555 0.000002 0.060108 0.000002
# 6 0.000001 0.000000 0.000000 0.012293 0.000002 0.039880
#
#
# Mechanical properties :
#
#
# Convention : Reuss Voigt Hill
#
# Bulk Modulus (GPa) = 21.63020 41.42127 31.52573
# Shear Modulus (GPa) = 23.99931 30.60097 27.30014
#
# Velocity S-wave (km/s) = 3.28549 3.70995 3.50416
# Velocity P-wave (km/s) = 4.91136 6.08130 5.52737
#
# Compressibility (1/GPa) = 0.04623166
#
# Stress axis : x y z
#
# Youngs Moduli (GPa) = 80.48378 89.38279 39.00494
#
# Poissons Ratio (x) = 0.14397 0.01951
# Poissons Ratio (y) = 0.12963 -0.02346
# Poissons Ratio (z) = 0.04025 -0.05375
#
# Static dielectric constant tensor:
#      x y z
#    x 4.562370 0.000000 -0.163240 
#    y 0.000000 3.825140 0.000000 
#    z -0.163240 0.000000 3.760650 
# 
# 
# High freq. dielectric constant tensor:
#      x y z
#    x 1.889010 0.000000 -0.015880 
#    y 0.000000 1.874690 0.000000 
#    z -0.015880 0.000000 1.842300 
# 
# From -- ./inp_files/315130.got.cif
#   From: 2010.06.25/outbox.cif.g09.slc.cpg/sg15_158_cif.got.tgz:315130.got - 2010.06.28 07:06:18.
