data_PCOD8145111
_publ_section_title
;
Structure prediction by ZEFSAII (Michael W. Deem and Ramdas Pophale) SiO2 
 PCOD8145111
Probable space group: C 2/C
;
_chemical_formula_sum "Si O2"
_cell_formula_units_Z 56
_cell_length_a 11.675891
_cell_length_b 15.001745
_cell_length_c 19.243678
_cell_angle_alpha 90.000000
_cell_angle_beta 65.465543
_cell_angle_gamma 90.000000
_cell_volume 3066.363804
_symmetry_space_group_name_H-M "C 2/C"
_symmetry_group_IT_number 15
_symmetry_cell_setting 'monoclinic'
loop_
_space_group_symop_operation_xyz
x,y,z
-x,y,1/2-z
-x,-y,-z
x,-y,1/2+z
1/2+x,1/2+y,z
1/2-x,1/2+y,1/2-z
1/2-x,1/2-y,-z
1/2+x,1/2-y,1/2+z
loop_
_atom_site_type_symbol
_atom_site_label
_atom_site_fract_x
_atom_site_fract_y
_atom_site_fract_z
Si Si1 0.795900 0.062961 0.670191
Si Si2 0.019016 0.099469 0.525347
Si Si3 0.664965 0.900929 0.342117
Si Si4 0.887011 0.582703 0.910829
Si Si5 0.977734 0.921913 0.676349
Si Si6 0.712006 0.484043 0.058767
Si Si7 0.487063 0.742576 0.094486
O O1 0.739394 0.111242 0.751559
O O2 0.689441 0.055992 0.638372
O O3 0.912621 0.119744 0.610297
O O4 0.848719 0.965890 0.679867
O O5 0.004326 0.178166 0.473808
O O6 0.157997 0.098918 0.526132
O O7 0.000000 0.000000 0.500000
O O8 0.530719 0.951426 0.363578
O O9 0.638428 0.802868 0.380470
O O10 0.746531 0.954901 0.375882
O O11 0.892754 0.690118 0.925720
O O12 0.825913 0.534016 0.992215
O O13 0.000000 0.948895 0.750000
O O14 0.094878 0.950115 0.598866
O O15 0.970001 0.815589 0.668815
#
# Coordination Sequence:
#
# PCOD8145111 Si02
#       7
#     8   8   8   8   8   8   8
#     4  11  20  39  60  88 118 164 194 251 300 357
#     4  11  20  38  63  87 114 157 208 246 298 353
#     4  10  24  37  58  91 127 157 196 249 308 355
#     4  10  22  37  61  85 126 155 203 235 309 357
#     4  11  21  36  62  90 113 155 207 244 294 350
#     4  11  20  40  64  84 120 164 198 241 300 376
#     4  10  23  38  56  96 117 150 205 253 296 350
#
# _framework density 18.262672999999999
#
# number of rings (size 3 to 8) (size 9 to 14) (size 15 to 20)
#    0.857    0.571    5.714    0.857    2.000    2.857 
#    0.000    0.000    0.000    0.000    7.429    0.000 
#    0.000    0.000    0.000    0.000    0.000    0.000 
#
# Total GULP energy -346891.790252 kJ/mol
# GULP energy per Si atom -12388.992509 kJ/mol
# Density = 1.822111 g / cm^3
# Si number density = 18.262673 Si / 1000 Ang^3
#
#
#
# Elastic Constant Matrix: (Units=GPa)
#
#
# Indices 1 2 3 4 5 6 
#
# 1 101.6478 39.6952 37.7232 0.0000 4.6917 0.0000
# 2 39.6952 63.0328 40.5250 0.0000 1.4781 0.0000
# 3 37.7232 40.5250 134.6170 0.0000 -1.9556 0.0000
# 4 0.0000 0.0000 0.0000 26.4429 0.0000 3.3576
# 5 4.6917 1.4781 -1.9556 0.0000 35.1253 0.0000
# 6 0.0000 0.0000 0.0000 3.3576 0.0000 5.8596
#
#
#
# Elastic Compliance Matrix: (Units=1/GPa)
#
#
# Indices 1 2 3 4 5 6 
#
# 1 0.013369 -0.007390 -0.001544 0.000000 -0.001561 0.000000
# 2 -0.007390 0.023804 -0.005100 0.000000 -0.000299 0.000000
# 3 -0.001544 -0.005100 0.009410 0.000000 0.000945 0.000000
# 4 0.000000 0.000000 0.000000 0.040785 0.000000 -0.023370
# 5 -0.001561 -0.000299 0.000945 0.000000 0.028743 0.000000
# 6 0.000000 0.000000 0.000000 -0.023370 0.000000 0.184051
#
#
# Mechanical properties :
#
#
# Convention : Reuss Voigt Hill
#
# Bulk Modulus (GPa) = 54.00746 59.46492 56.73619
# Shear Modulus (GPa) = 14.95213 25.57585 20.26399
#
# Velocity S-wave (km/s) = 2.86444 3.74631 3.33466
# Velocity P-wave (km/s) = 6.37000 7.16552 6.77944
#
# Compressibility (1/GPa) = 0.01851596
#
# Stress axis : x y z
#
# Youngs Moduli (GPa) = 74.80090 42.00985 106.26823
#
# Poissons Ratio (x) = 0.31043 0.16412
# Poissons Ratio (y) = 0.55274 0.54192
# Poissons Ratio (z) = 0.11552 0.21423
#
# Static dielectric constant tensor:
#      x y z
#    x 3.501660 0.000000 -0.013560 
#    y 0.000000 3.157390 0.000000 
#    z -0.013560 0.000000 3.488470 
# 
# 
# High freq. dielectric constant tensor:
#      x y z
#    x 1.711360 0.000000 0.006420 
#    y 0.000000 1.677570 0.000000 
#    z 0.006420 0.000000 1.722330 
# 
# From -- ./inp_files/238336.got.cif
#   From: 2010.06.25/outbox.cif.g09.slc.cpg/sg15_120_cif.got.tgz:238336.got - 2010.06.28 07:06:18.
