data_PCOD8145282
_publ_section_title
;
Structure prediction by ZEFSAII (Michael W. Deem and Ramdas Pophale) SiO2 
 PCOD8145282
Probable space group: C 2/C
;
_chemical_formula_sum "Si O2"
_cell_formula_units_Z 44
_cell_length_a 23.628940
_cell_length_b 13.030975
_cell_length_c 8.786428
_cell_angle_alpha 90.000000
_cell_angle_beta 128.227467
_cell_angle_gamma 90.000000
_cell_volume 2125.264841
_symmetry_space_group_name_H-M "C 2/C"
_symmetry_group_IT_number 15
_symmetry_cell_setting 'monoclinic'
loop_
_space_group_symop_operation_xyz
x,y,z
-x,y,1/2-z
-x,-y,-z
x,-y,1/2+z
1/2+x,1/2+y,z
1/2-x,1/2+y,1/2-z
1/2-x,1/2-y,-z
1/2+x,1/2-y,1/2+z
loop_
_atom_site_type_symbol
_atom_site_label
_atom_site_fract_x
_atom_site_fract_y
_atom_site_fract_z
Si Si1 0.974136 0.702124 0.472336
Si Si2 0.562941 0.576744 0.647526
Si Si3 0.745506 0.627647 0.458976
Si Si4 0.598147 0.878788 0.388052
Si Si5 0.336909 0.503183 0.427085
Si Si6 0.500000 0.056478 0.250000
O O1 0.976419 0.814725 0.406820
O O2 0.904505 0.696698 0.469803
O O3 0.965179 0.622531 0.323391
O O4 0.049154 0.675801 0.679455
O O5 0.500000 0.500000 0.500000
O O6 0.626226 0.576214 0.627355
O O7 0.598836 0.552998 0.869131
O O8 0.750000 0.750000 0.500000
O O9 0.826100 0.593639 0.557311
O O10 0.700124 0.595740 0.232331
O O11 0.717848 0.563361 0.559335
O O12 0.565474 0.982646 0.407538
#
# Coordination Sequence:
#
# PCOD8145282 Si02
#       6
#     8   8   8   8   8   4
#     4  10  23  38  66  95 123 169 224 264 334 390
#     4  11  24  42  70  94 136 167 228 287 325 391
#     4  11  25  45  70  92 143 178 223 271 341 412
#     4  10  22  41  65  90 133 168 211 276 329 384
#     4  10  26  45  63 106 129 179 226 272 339 404
#     4  10  22  38  62 102 124 158 232 262 332 388
#
# _framework density 20.703303999999999
#
# number of rings (size 3 to 8) (size 9 to 14) (size 15 to 20)
#    0.000    1.818    0.000    3.818   17.818    0.000 
#    0.000    2.727    0.000    0.000    0.000    0.000 
#    0.000    0.000    0.000    0.000    0.000    0.000 
#
# Total GULP energy -272582.684025 kJ/mol
# GULP energy per Si atom -12390.122001 kJ/mol
# Density = 2.065618 g / cm^3
# Si number density = 20.703304 Si / 1000 Ang^3
#
#
#
# Elastic Constant Matrix: (Units=GPa)
#
#
# Indices 1 2 3 4 5 6 
#
# 1 91.6259 17.7708 26.8210 0.0000 12.8335 0.0000
# 2 17.7708 141.9490 46.6046 0.0000 5.5688 0.0000
# 3 26.8210 46.6046 108.6276 0.0000 -3.1451 0.0000
# 4 0.0000 0.0000 0.0000 32.0024 0.0000 -3.0835
# 5 12.8335 5.5688 -3.1451 0.0000 31.9772 0.0000
# 6 0.0000 0.0000 0.0000 -3.0835 0.0000 26.1196
#
#
#
# Elastic Compliance Matrix: (Units=1/GPa)
#
#
# Indices 1 2 3 4 5 6 
#
# 1 0.012642 -0.000347 -0.003126 0.000000 -0.005321 0.000000
# 2 -0.000347 0.008312 -0.003528 0.000000 -0.001655 0.000000
# 3 -0.003126 -0.003528 0.011578 0.000000 0.003008 0.000000
# 4 0.000000 0.000000 0.000000 0.031607 0.000000 0.003731
# 5 -0.005321 -0.001655 0.003008 0.000000 0.033992 0.000000
# 6 0.000000 0.000000 0.000000 0.003731 0.000000 0.038726
#
#
# Mechanical properties :
#
#
# Convention : Reuss Voigt Hill
#
# Bulk Modulus (GPa) = 53.97235 58.28837 56.13036
# Shear Modulus (GPa) = 31.83985 34.75358 33.29671
#
# Velocity S-wave (km/s) = 3.92588 4.10158 4.01469
# Velocity P-wave (km/s) = 6.83199 7.11659 6.97574
#
# Compressibility (1/GPa) = 0.01852800
#
# Stress axis : x y z
#
# Youngs Moduli (GPa) = 79.10337 120.31474 86.36779
#
# Poissons Ratio (x) = 0.04181 0.27001
# Poissons Ratio (y) = 0.02749 0.30471
# Poissons Ratio (z) = 0.24730 0.42447
#
# Static dielectric constant tensor:
#      x y z
#    x 4.070080 0.000000 -0.224720 
#    y 0.000000 3.867360 0.000000 
#    z -0.224720 0.000000 3.730930 
# 
# 
# High freq. dielectric constant tensor:
#      x y z
#    x 1.826790 0.000000 -0.016490 
#    y 0.000000 1.814780 0.000000 
#    z -0.016490 0.000000 1.800070 
# 
# From -- ./inp_files/54405.got.cif
#   From: 2010.06.25/outbox.cif.g09.slc.cpg/sg15_28_cif.got.tgz:54405.got - 2010.06.28 07:06:18.
