data_PCOD8145448
_publ_section_title
;
Structure prediction by ZEFSAII (Michael W. Deem and Ramdas Pophale) SiO2 
 PCOD8145448
Probable space group: C 2/C
;
_chemical_formula_sum "Si O2"
_cell_formula_units_Z 60
_cell_length_a 28.107994
_cell_length_b 7.964386
_cell_length_c 25.310143
_cell_angle_alpha 90.000000
_cell_angle_beta 153.425864
_cell_angle_gamma 90.000000
_cell_volume 2534.716812
_symmetry_space_group_name_H-M "C 2/C"
_symmetry_group_IT_number 15
_symmetry_cell_setting 'monoclinic'
loop_
_space_group_symop_operation_xyz
x,y,z
-x,y,1/2-z
-x,-y,-z
x,-y,1/2+z
1/2+x,1/2+y,z
1/2-x,1/2+y,1/2-z
1/2-x,1/2-y,-z
1/2+x,1/2-y,1/2+z
loop_
_atom_site_type_symbol
_atom_site_label
_atom_site_fract_x
_atom_site_fract_y
_atom_site_fract_z
Si Si1 0.028761 0.986543 0.927563
Si Si2 0.318984 0.441311 0.510620
Si Si3 0.479802 0.143051 0.909698
Si Si4 0.500000 0.975516 0.750000
Si Si5 0.610360 0.816799 0.068655
Si Si6 0.307306 0.395663 0.201930
Si Si7 0.884496 0.422097 0.734184
Si Si8 0.781153 0.425567 0.982955
O O1 0.060196 0.801177 0.981614
O O2 0.069727 0.990794 0.907142
O O3 0.899536 0.966854 0.802509
O O4 0.078005 0.136707 0.011326
O O5 0.235824 0.574420 0.405494
O O6 0.316208 0.454844 0.571974
O O7 0.276763 0.256951 0.452289
O O8 0.401562 0.186661 0.880308
O O9 0.413461 0.099317 0.790715
O O10 0.543506 0.970718 0.979937
O O11 0.464386 0.871011 0.765834
O O12 0.605055 0.077416 0.873004
O O13 0.733611 0.858699 0.178988
O O14 0.385818 0.235359 0.274414
O O15 0.232788 0.437646 0.077232
#
# Coordination Sequence:
#
# PCOD8145448 Si02
#       8
#     8   8   8   4   8   8   8   8
#     4  12  24  44  71 103 135 189 231 295 352 424
#     4  10  22  41  67  96 144 178 236 287 343 423
#     4  11  25  46  73  97 140 182 235 293 357 411
#     4  10  22  38  68  94 140 180 226 276 350 416
#     4  11  25  48  68 101 138 185 237 296 349 424
#     4  12  25  42  69 102 143 176 240 284 349 421
#     4  11  22  41  65  98 136 181 219 296 342 413
#     4  10  23  41  66 103 135 192 230 282 348 418
#
# _framework density 23.671284
#
# number of rings (size 3 to 8) (size 9 to 14) (size 15 to 20)
#    0.000    1.067    2.667    3.600    0.000    6.933 
#    2.400    0.000    0.000    0.000    0.000    0.000 
#    0.000    0.000    0.000    0.000    0.000    0.000 
#
# Total GULP energy -371651.853592 kJ/mol
# GULP energy per Si atom -12388.395120 kJ/mol
# Density = 2.361741 g / cm^3
# Si number density = 23.671284 Si / 1000 Ang^3
#
#
#
# Elastic Constant Matrix: (Units=GPa)
#
#
# Indices 1 2 3 4 5 6 
#
# 1 197.8121 32.3959 32.1407 0.0001 22.7315 0.0001
# 2 32.3959 105.2051 4.0391 0.0002 -3.2607 0.0001
# 3 32.1407 4.0391 55.6241 0.0004 8.5156 0.0003
# 4 0.0001 0.0002 0.0004 20.8292 0.0002 -0.2349
# 5 22.7315 -3.2607 8.5156 0.0002 26.7740 0.0001
# 6 0.0001 0.0001 0.0003 -0.2349 0.0001 34.5041
#
#
#
# Elastic Compliance Matrix: (Units=1/GPa)
#
#
# Indices 1 2 3 4 5 6 
#
# 1 0.006390 -0.002008 -0.002816 0.000000 -0.004774 0.000000
# 2 -0.002008 0.010217 -0.000035 0.000000 0.002960 0.000000
# 3 -0.002816 -0.000035 0.020227 0.000000 -0.004047 0.000000
# 4 0.000000 0.000000 0.000000 0.048013 0.000000 0.000327
# 5 -0.004774 0.002960 -0.004047 0.000000 0.043051 0.000000
# 6 0.000000 0.000000 0.000000 0.000327 0.000000 0.028984
#
#
# Mechanical properties :
#
#
# Convention : Reuss Voigt Hill
#
# Bulk Modulus (GPa) = 36.87710 55.08807 45.98258
# Shear Modulus (GPa) = 28.46773 35.75917 32.11345
#
# Velocity S-wave (km/s) = 3.47165 3.89093 3.68726
# Velocity P-wave (km/s) = 5.62872 6.59609 6.13151
#
# Compressibility (1/GPa) = 0.02711710
#
# Stress axis : x y z
#
# Youngs Moduli (GPa) = 156.48872 97.88056 49.43916
#
# Poissons Ratio (x) = 0.19651 0.13921
# Poissons Ratio (y) = 0.31417 0.00173
# Poissons Ratio (z) = 0.44063 0.00342
#
# Static dielectric constant tensor:
#      x y z
#    x 4.532480 0.000000 0.129740 
#    y 0.000000 4.273800 0.000000 
#    z 0.129740 0.000000 3.905560 
# 
# 
# High freq. dielectric constant tensor:
#      x y z
#    x 1.952820 0.000000 0.011530 
#    y 0.000000 1.945020 0.000000 
#    z 0.011530 0.000000 1.907880 
# 
# From -- ./inp_files/283425.got.cif
#   From: 2010.06.25/outbox.cif.g09.slc.cpg/sg15_142_cif.got.tgz:283425.got - 2010.06.28 07:06:18.
