data_PCOD8145837
_publ_section_title
;
Structure prediction by ZEFSAII (Michael W. Deem and Ramdas Pophale) SiO2 
 PCOD8145837
Probable space group: C 2/C
;
_chemical_formula_sum "Si O2"
_cell_formula_units_Z 28
_cell_length_a 17.843204
_cell_length_b 13.912949
_cell_length_c 11.652236
_cell_angle_alpha 90.000000
_cell_angle_beta 151.905088
_cell_angle_gamma 90.000000
_cell_volume 1362.262909
_symmetry_space_group_name_H-M "C 2/C"
_symmetry_group_IT_number 15
_symmetry_cell_setting 'monoclinic'
loop_
_space_group_symop_operation_xyz
x,y,z
-x,y,1/2-z
-x,-y,-z
x,-y,1/2+z
1/2+x,1/2+y,z
1/2-x,1/2+y,1/2-z
1/2-x,1/2-y,-z
1/2+x,1/2-y,1/2+z
loop_
_atom_site_type_symbol
_atom_site_label
_atom_site_fract_x
_atom_site_fract_y
_atom_site_fract_z
Si Si1 0.755965 0.209422 0.135763
Si Si2 0.868665 0.626624 0.154515
Si Si3 0.000000 0.556028 0.750000
Si Si4 0.615410 0.708081 0.658427
O O1 0.700289 0.293121 0.148459
O O2 0.933600 0.174549 0.403159
O O3 0.750000 0.250000 0.000000
O O4 0.635832 0.120704 0.990602
O O5 0.916942 0.513793 0.233796
O O6 0.867844 0.681518 0.274120
O O7 0.000000 0.678682 0.250000
O O8 0.698805 0.635436 0.860182
#
# Coordination Sequence:
#
# PCOD8145837 Si02
#       4
#     8   8   4   8
#     4  12  22  38  63  92 125 168 196 248 313 369
#     4   9  21  41  62  92 116 158 207 259 295 348
#     4  10  22  40  60  96 126 152 210 254 304 350
#     4  11  21  41  67  86 124 165 204 244 314 368
#
# _framework density 20.554036
#
# number of rings (size 3 to 8) (size 9 to 14) (size 15 to 20)
#    0.857    0.571    5.714    0.000    0.000    2.286 
#    5.143    0.000    6.286    0.000    0.000    0.000 
#    0.000    0.000    0.000    0.000    0.000    0.000 
#
# Total GULP energy -173504.026983 kJ/mol
# GULP energy per Si atom -12393.144784 kJ/mol
# Density = 2.050725 g / cm^3
# Si number density = 20.554036 Si / 1000 Ang^3
#
#
#
# Elastic Constant Matrix: (Units=GPa)
#
#
# Indices 1 2 3 4 5 6 
#
# 1 86.6772 14.8865 39.5108 0.0000 -2.9000 0.0000
# 2 14.8865 80.2184 39.1188 0.0000 -3.9139 0.0000
# 3 39.5108 39.1188 182.4393 0.0000 19.6081 0.0000
# 4 0.0000 0.0000 0.0000 26.2151 0.0000 10.3781
# 5 -2.9000 -3.9139 19.6081 0.0000 35.1423 0.0000
# 6 0.0000 0.0000 0.0000 10.3781 0.0000 30.0092
#
#
#
# Elastic Compliance Matrix: (Units=1/GPa)
#
#
# Indices 1 2 3 4 5 6 
#
# 1 0.013112 -0.000875 -0.002934 0.000000 0.002622 0.000000
# 2 -0.000875 0.014378 -0.003253 0.000000 0.003344 0.000000
# 3 -0.002934 -0.003253 0.007318 0.000000 -0.004688 0.000000
# 4 0.000000 0.000000 0.000000 0.044197 0.000000 -0.015285
# 5 0.002622 0.003344 -0.004688 0.000000 0.031660 0.000000
# 6 0.000000 0.000000 0.000000 -0.015285 0.000000 0.038609
#
#
# Mechanical properties :
#
#
# Convention : Reuss Voigt Hill
#
# Bulk Modulus (GPa) = 48.34398 59.59635 53.97016
# Shear Modulus (GPa) = 29.36130 35.32791 32.34460
#
# Velocity S-wave (km/s) = 3.78364 4.15032 3.97121
# Velocity P-wave (km/s) = 6.53142 7.21282 6.88056
#
# Compressibility (1/GPa) = 0.02068510
#
# Stress axis : x y z
#
# Youngs Moduli (GPa) = 76.26355 69.55200 136.64973
#
# Poissons Ratio (x) = 0.06083 0.40093
# Poissons Ratio (y) = 0.06670 0.44450
# Poissons Ratio (z) = 0.22376 0.22624
#
# Static dielectric constant tensor:
#      x y z
#    x 3.638980 0.000000 0.186320 
#    y 0.000000 3.318600 0.000000 
#    z 0.186320 0.000000 3.928640 
# 
# 
# High freq. dielectric constant tensor:
#      x y z
#    x 1.798020 0.000000 0.006840 
#    y 0.000000 1.761980 0.000000 
#    z 0.006840 0.000000 1.824030 
# 
# From -- ./inp_files/27425.got.cif
#   From: 2010.06.25/outbox.cif.g09.slc.cpg/sg15_14_cif.got.tgz:27425.got - 2010.06.28 07:06:18.
