data_PCOD8145260
_publ_section_title
;
Structure prediction by ZEFSAII (Michael W. Deem and Ramdas Pophale) SiO2 
 PCOD8145260
Probable space group: C 2/C
;
_chemical_formula_sum "Si O2"
_cell_formula_units_Z 60
_cell_length_a 27.355104
_cell_length_b 17.494731
_cell_length_c 12.202497
_cell_angle_alpha 90.000000
_cell_angle_beta 31.017295
_cell_angle_gamma 90.000000
_cell_volume 3009.205086
_symmetry_space_group_name_H-M "C 2/C"
_symmetry_group_IT_number 15
_symmetry_cell_setting 'monoclinic'
loop_
_space_group_symop_operation_xyz
x,y,z
-x,y,1/2-z
-x,-y,-z
x,-y,1/2+z
1/2+x,1/2+y,z
1/2-x,1/2+y,1/2-z
1/2-x,1/2-y,-z
1/2+x,1/2-y,1/2+z
loop_
_atom_site_type_symbol
_atom_site_label
_atom_site_fract_x
_atom_site_fract_y
_atom_site_fract_z
Si Si1 0.133120 0.044605 0.977829
Si Si2 0.069006 0.881144 0.025575
Si Si3 0.573262 0.943043 0.304159
Si Si4 0.231478 0.760645 0.662566
Si Si5 0.508704 0.618458 0.400741
Si Si6 0.940216 0.286874 0.261275
Si Si7 0.500000 0.974771 0.750000
Si Si8 0.324017 0.092118 0.696947
O O1 0.246321 0.048737 0.773048
O O2 0.087565 0.072534 0.179961
O O3 0.094426 0.097499 0.952016
O O4 0.107909 0.957608 0.005609
O O5 0.000000 0.843461 0.250000
O O6 0.155244 0.825363 0.833842
O O7 0.013754 0.902991 0.019327
O O8 0.543060 0.853461 0.360726
O O9 0.575076 0.973243 0.175599
O O10 0.672988 0.940657 0.181961
O O11 0.500000 0.000000 0.500000
O O12 0.250000 0.750000 0.500000
O O13 0.333203 0.784123 0.515239
O O14 0.196526 0.681151 0.778526
O O15 0.527221 0.708462 0.356654
O O16 0.000000 0.309163 0.250000
O O17 0.568066 0.920661 0.548858
#
# Coordination Sequence:
#
# PCOD8145260 Si02
#       8
#     8   8   8   8   8   8   4   8
#     4  11  23  39  68 101 129 177 222 282 340 404
#     4  12  26  41  67 101 137 174 224 289 347 400
#     4  10  22  38  60  93 127 164 215 267 327 389
#     4  12  23  41  67  94 120 179 227 267 329 411
#     4  11  21  44  65  98 133 173 225 274 341 409
#     4  12  21  40  73  95 125 173 232 274 326 411
#     4  10  24  38  58  92 130 172 202 276 338 380
#     4  11  22  41  62  92 126 168 220 266 332 395
#
# _framework density 19.93882
#
# number of rings (size 3 to 8) (size 9 to 14) (size 15 to 20)
#    0.000    0.800    7.333    0.400    2.800    0.000 
#    0.000    0.000    0.000    1.600    0.000    0.000 
#    0.000    0.000    0.000    0.000    0.000    0.000 
#
# Total GULP energy -371753.369633 kJ/mol
# GULP energy per Si atom -12391.778988 kJ/mol
# Density = 1.989344 g / cm^3
# Si number density = 19.938820 Si / 1000 Ang^3
#
#
#
# Elastic Constant Matrix: (Units=GPa)
#
#
# Indices 1 2 3 4 5 6 
#
# 1 145.9784 34.8621 57.3827 0.0000 -17.7904 0.0000
# 2 34.8621 129.4818 47.6381 0.0000 -6.1168 0.0000
# 3 57.3827 47.6381 91.3422 0.0000 -10.0974 0.0000
# 4 0.0000 0.0000 0.0000 32.7881 0.0000 -1.9828
# 5 -17.7904 -6.1168 -10.0974 0.0000 36.9419 0.0000
# 6 0.0000 0.0000 0.0000 -1.9828 0.0000 25.0912
#
#
#
# Elastic Compliance Matrix: (Units=1/GPa)
#
#
# Indices 1 2 3 4 5 6 
#
# 1 0.009428 -0.000420 -0.005372 0.000000 0.003003 0.000000
# 2 -0.000420 0.009577 -0.004721 0.000000 0.000093 0.000000
# 3 -0.005372 -0.004721 0.016924 0.000000 0.001257 0.000000
# 4 0.000000 0.000000 0.000000 0.030645 0.000000 0.002422
# 5 0.003003 0.000093 0.001257 0.000000 0.028875 0.000000
# 6 0.000000 0.000000 0.000000 0.002422 0.000000 0.040046
#
#
# Mechanical properties :
#
#
# Convention : Reuss Voigt Hill
#
# Bulk Modulus (GPa) = 67.09798 71.84093 69.46945
# Shear Modulus (GPa) = 30.96195 34.09219 32.52707
#
# Velocity S-wave (km/s) = 3.94489 4.13951 4.04337
# Velocity P-wave (km/s) = 7.38069 7.67830 7.53096
#
# Compressibility (1/GPa) = 0.01490358
#
# Stress axis : x y z
#
# Youngs Moduli (GPa) = 106.06422 104.41204 59.08942
#
# Poissons Ratio (x) = 0.04388 0.31742
# Poissons Ratio (y) = 0.04457 0.27894
# Poissons Ratio (z) = 0.56977 0.49289
#
# Static dielectric constant tensor:
#      x y z
#    x 4.270350 0.000000 0.039810 
#    y 0.000000 3.811350 0.000000 
#    z 0.039810 0.000000 2.498310 
# 
# 
# High freq. dielectric constant tensor:
#      x y z
#    x 1.801040 0.000000 -0.010200 
#    y 0.000000 1.790540 0.000000 
#    z -0.010200 0.000000 1.744260 
# 
# From -- ./inp_files/123968.got.cif
#   From: 2010.06.25/outbox.cif.g09.slc.cpg/sg15_62_cif.got.tgz:123968.got - 2010.06.28 07:06:18.
