data_PCOD8145672
_publ_section_title
;
Structure prediction by ZEFSAII (Michael W. Deem and Ramdas Pophale) SiO2 
 PCOD8145672
Probable space group: C 2/C
;
_chemical_formula_sum "Si O2"
_cell_formula_units_Z 40
_cell_length_a 19.091506
_cell_length_b 12.238122
_cell_length_c 16.671046
_cell_angle_alpha 90.000000
_cell_angle_beta 28.516266
_cell_angle_gamma 90.000000
_cell_volume 1859.549402
_symmetry_space_group_name_H-M "C 2/C"
_symmetry_group_IT_number 15
_symmetry_cell_setting 'monoclinic'
loop_
_space_group_symop_operation_xyz
x,y,z
-x,y,1/2-z
-x,-y,-z
x,-y,1/2+z
1/2+x,1/2+y,z
1/2-x,1/2+y,1/2-z
1/2-x,1/2-y,-z
1/2+x,1/2-y,1/2+z
loop_
_atom_site_type_symbol
_atom_site_label
_atom_site_fract_x
_atom_site_fract_y
_atom_site_fract_z
Si Si1 0.069809 0.634900 0.844865
Si Si2 0.831627 0.641907 0.443985
Si Si3 0.784529 0.077969 0.500489
Si Si4 0.802022 0.474820 0.134035
Si Si5 0.927014 0.124926 0.197070
O O1 0.136226 0.624212 0.688910
O O2 0.180562 0.581790 0.797597
O O3 0.051582 0.764728 0.876393
O O4 0.915251 0.574210 0.005439
O O5 0.750000 0.750000 0.500000
O O6 0.741820 0.548576 0.489481
O O7 0.823945 0.621084 0.547066
O O8 0.000000 0.646927 0.250000
O O9 0.818673 0.141993 0.383249
O O10 0.916508 0.084611 0.430353
O O11 0.641786 0.530596 0.290393
#
# Coordination Sequence:
#
# PCOD8145672 Si02
#       5
#     8   8   8   8   8
#     4  11  21  41  63  91 130 168 200 261 320 361
#     4  11  24  43  65  88 124 167 208 257 312 374
#     4  10  22  40  65  92 124 160 213 262 305 371
#     4  10  24  41  62  95 131 161 213 257 312 381
#     4  10  22  39  64  96 123 163 213 254 311 376
#
# _framework density 21.510589
#
# number of rings (size 3 to 8) (size 9 to 14) (size 15 to 20)
#    0.000    1.600    2.000    1.800    5.600    7.200 
#    3.600    0.000    0.000    0.000    0.000    0.000 
#    0.000    0.000    0.000    0.000    0.000    0.000 
#
# Total GULP energy -248009.966233 kJ/mol
# GULP energy per Si atom -12400.498312 kJ/mol
# Density = 2.146163 g / cm^3
# Si number density = 21.510589 Si / 1000 Ang^3
#
#
#
# Elastic Constant Matrix: (Units=GPa)
#
#
# Indices 1 2 3 4 5 6 
#
# 1 95.3877 47.4416 7.2676 0.0000 -10.8621 0.0000
# 2 47.4416 132.6000 24.9318 -0.0001 0.4945 0.0000
# 3 7.2676 24.9318 57.4450 -0.0003 3.9243 0.0001
# 4 0.0000 -0.0001 -0.0003 24.0904 0.0001 -6.4216
# 5 -10.8621 0.4945 3.9243 0.0001 19.3205 0.0000
# 6 0.0000 0.0000 0.0001 -6.4216 0.0000 35.0547
#
#
#
# Elastic Compliance Matrix: (Units=1/GPa)
#
#
# Indices 1 2 3 4 5 6 
#
# 1 0.013869 -0.004965 -0.000143 0.000000 0.007954 0.000000
# 2 -0.004965 0.009994 -0.003551 0.000000 -0.002326 0.000000
# 3 -0.000143 -0.003551 0.019233 0.000000 -0.003896 0.000000
# 4 0.000000 0.000000 0.000000 0.043641 0.000000 0.007995
# 5 0.007954 -0.002326 -0.003896 0.000000 0.057081 0.000000
# 6 0.000000 0.000000 0.000000 0.007995 0.000000 0.029991
#
#
# Mechanical properties :
#
#
# Convention : Reuss Voigt Hill
#
# Bulk Modulus (GPa) = 38.79056 49.41273 44.10164
# Shear Modulus (GPa) = 25.03493 29.41257 27.22375
#
# Velocity S-wave (km/s) = 3.41521 3.70179 3.56138
# Velocity P-wave (km/s) = 5.79862 6.42590 6.12030
#
# Compressibility (1/GPa) = 0.02577947
#
# Stress axis : x y z
#
# Youngs Moduli (GPa) = 72.10070 100.05914 51.99339
#
# Poissons Ratio (x) = 0.49679 0.00745
# Poissons Ratio (y) = 0.35798 0.18460
# Poissons Ratio (z) = 0.01032 0.35526
#
# Static dielectric constant tensor:
#      x y z
#    x 3.998440 0.000000 -0.063210 
#    y 0.000000 3.526130 0.000000 
#    z -0.063210 0.000000 3.884030 
# 
# 
# High freq. dielectric constant tensor:
#      x y z
#    x 1.850890 0.000000 -0.011910 
#    y 0.000000 1.844480 0.000000 
#    z -0.011910 0.000000 1.841090 
# 
# From -- ./inp_files/54058.got.cif
#   From: 2010.06.25/outbox.cif.g09.slc.cpg/sg15_28_cif.got.tgz:54058.got - 2010.06.28 07:06:18.
