data_PCOD8145415
_publ_section_title
;
Structure prediction by ZEFSAII (Michael W. Deem and Ramdas Pophale) SiO2 
 PCOD8145415
Probable space group: C 2/C
;
_chemical_formula_sum "Si O2"
_cell_formula_units_Z 44
_cell_length_a 14.342228
_cell_length_b 19.748579
_cell_length_c 11.512158
_cell_angle_alpha 90.000000
_cell_angle_beta 139.350435
_cell_angle_gamma 90.000000
_cell_volume 2124.112441
_symmetry_space_group_name_H-M "C 2/C"
_symmetry_group_IT_number 15
_symmetry_cell_setting 'monoclinic'
loop_
_space_group_symop_operation_xyz
x,y,z
-x,y,1/2-z
-x,-y,-z
x,-y,1/2+z
1/2+x,1/2+y,z
1/2-x,1/2+y,1/2-z
1/2-x,1/2-y,-z
1/2+x,1/2-y,1/2+z
loop_
_atom_site_type_symbol
_atom_site_label
_atom_site_fract_x
_atom_site_fract_y
_atom_site_fract_z
Si Si1 0.835739 0.890795 0.456588
Si Si2 0.151678 0.488389 0.702846
Si Si3 0.945395 0.287784 0.578242
Si Si4 0.665021 0.612797 0.275918
Si Si5 0.714387 0.752017 0.696250
Si Si6 0.500000 0.082892 0.250000
O O1 0.812455 0.907368 0.569514
O O2 0.780685 0.815890 0.374880
O O3 0.002101 0.897850 0.580858
O O4 0.744727 0.943579 0.294825
O O5 0.236109 0.432004 0.711997
O O6 0.000000 0.500000 0.500000
O O7 0.123166 0.462586 0.807448
O O8 0.054264 0.274603 0.575274
O O9 0.000000 0.252438 0.750000
O O10 0.794207 0.257557 0.395716
O O11 0.929013 0.368827 0.583981
O O12 0.706991 0.691167 0.304546
#
# Coordination Sequence:
#
# PCOD8145415 Si02
#       6
#     8   8   8   8   8   4
#     4  11  26  41  69  97 133 181 223 271 339 394
#     4  12  24  44  67  96 133 175 226 280 332 398
#     4  10  22  38  66  95 131 168 220 269 338 386
#     4  11  24  46  65  97 136 176 227 272 330 404
#     4  12  21  44  65  99 136 171 220 279 332 398
#     4  10  22  40  64  96 128 170 218 274 328 394
#
# _framework density 20.714535000000001
#
# number of rings (size 3 to 8) (size 9 to 14) (size 15 to 20)
#    0.545    0.364    3.636    3.818    0.000    0.000 
#    0.000    0.000    0.000    0.000    0.000    0.000 
#    0.000    0.000    0.000    0.000    0.000    0.000 
#
# Total GULP energy -272823.158544 kJ/mol
# GULP energy per Si atom -12401.052661 kJ/mol
# Density = 2.066739 g / cm^3
# Si number density = 20.714535 Si / 1000 Ang^3
#
#
#
# Elastic Constant Matrix: (Units=GPa)
#
#
# Indices 1 2 3 4 5 6 
#
# 1 121.8624 51.3826 30.0036 0.0000 13.3465 0.0000
# 2 51.3826 135.3486 46.5113 0.0000 14.5468 0.0000
# 3 30.0036 46.5113 111.0455 0.0000 15.8707 0.0000
# 4 0.0000 0.0000 0.0000 26.0821 0.0000 0.5451
# 5 13.3465 14.5468 15.8707 0.0000 25.2898 0.0000
# 6 0.0000 0.0000 0.0000 0.5451 0.0000 37.6063
#
#
#
# Elastic Compliance Matrix: (Units=1/GPa)
#
#
# Indices 1 2 3 4 5 6 
#
# 1 0.010109 -0.003190 -0.000983 0.000000 -0.002883 0.000000
# 2 -0.003190 0.009844 -0.002958 0.000000 -0.002123 0.000000
# 3 -0.000983 -0.002958 0.011197 0.000000 -0.004806 0.000000
# 4 0.000000 0.000000 0.000000 0.038352 0.000000 -0.000556
# 5 -0.002883 -0.002123 -0.004806 0.000000 0.045300 0.000000
# 6 0.000000 0.000000 0.000000 -0.000556 0.000000 0.026599
#
#
# Mechanical properties :
#
#
# Convention : Reuss Voigt Hill
#
# Bulk Modulus (GPa) = 59.21512 69.33905 64.27709
# Shear Modulus (GPa) = 30.99963 33.81958 32.40960
#
# Velocity S-wave (km/s) = 3.87268 4.04499 3.95977
# Velocity P-wave (km/s) = 6.97461 7.44058 7.21136
#
# Compressibility (1/GPa) = 0.01688758
#
# Stress axis : x y z
#
# Youngs Moduli (GPa) = 98.92369 101.58592 89.31137
#
# Poissons Ratio (x) = 0.32405 0.08781
# Poissons Ratio (y) = 0.31556 0.26417
# Poissons Ratio (z) = 0.09726 0.30048
#
# Static dielectric constant tensor:
#      x y z
#    x 3.778200 0.000000 0.085410 
#    y 0.000000 3.720900 0.000000 
#    z 0.085410 0.000000 3.688970 
# 
# 
# High freq. dielectric constant tensor:
#      x y z
#    x 1.817960 0.000000 0.003140 
#    y 0.000000 1.813340 0.000000 
#    z 0.003140 0.000000 1.807980 
# 
# From -- ./inp_files/99903.got.cif
#   From: 2010.06.25/outbox.cif.g09.slc.cpg/sg15_50_cif.got.tgz:99903.got - 2010.06.28 07:06:18.
