data_PCOD8145666
_publ_section_title
;
Structure prediction by ZEFSAII (Michael W. Deem and Ramdas Pophale) SiO2 
 PCOD8145666
Probable space group: C 2/C
;
_chemical_formula_sum "Si O2"
_cell_formula_units_Z 60
_cell_length_a 19.056517
_cell_length_b 10.978667
_cell_length_c 21.144061
_cell_angle_alpha 90.000000
_cell_angle_beta 39.380703
_cell_angle_gamma 90.000000
_cell_volume 2806.679270
_symmetry_space_group_name_H-M "C 2/C"
_symmetry_group_IT_number 15
_symmetry_cell_setting 'monoclinic'
loop_
_space_group_symop_operation_xyz
x,y,z
-x,y,1/2-z
-x,-y,-z
x,-y,1/2+z
1/2+x,1/2+y,z
1/2-x,1/2+y,1/2-z
1/2-x,1/2-y,-z
1/2+x,1/2-y,1/2+z
loop_
_atom_site_type_symbol
_atom_site_label
_atom_site_fract_x
_atom_site_fract_y
_atom_site_fract_z
Si Si1 0.894870 0.835959 0.210562
Si Si2 0.193686 0.617160 0.034332
Si Si3 0.818102 0.872673 0.940397
Si Si4 0.254191 0.355684 0.846950
Si Si5 0.960932 0.108769 0.141634
Si Si6 0.000000 0.308323 0.750000
Si Si7 0.959421 0.235583 0.527263
Si Si8 0.838971 0.606379 0.590093
O O1 0.961172 0.778877 0.221405
O O2 0.939178 0.781284 0.114839
O O3 0.764963 0.811267 0.313966
O O4 0.922698 0.976744 0.188950
O O5 0.095501 0.607142 0.154194
O O6 0.250000 0.750000 0.000000
O O7 0.270531 0.501609 0.000613
O O8 0.149514 0.604075 0.993938
O O9 0.820970 0.891338 0.863347
O O10 0.938921 0.848332 0.884042
O O11 0.750000 0.750000 0.000000
O O12 0.350162 0.309921 0.731936
O O13 0.159446 0.255338 0.923594
O O14 0.184212 0.470594 0.868504
O O15 0.991582 0.120370 0.045834
O O16 0.047615 0.345214 0.457982
#
# Coordination Sequence:
#
# PCOD8145666 Si02
#       8
#     8   8   8   8   8   4   8   8
#     4  11  24  38  66  98 130 173 224 274 334 394
#     4  11  22  41  69 100 129 170 230 279 326 390
#     4  11  23  45  67  96 133 175 220 276 335 389
#     4  10  23  42  65  93 126 177 226 261 332 406
#     4  11  24  41  66  94 129 174 221 274 328 410
#     4  12  22  42  66 102 132 172 226 284 334 382
#     4  12  22  42  62  93 136 168 219 273 338 392
#     4  10  22  39  64  93 130 174 217 269 330 394
#
# _framework density 21.377576000000001
#
# number of rings (size 3 to 8) (size 9 to 14) (size 15 to 20)
#    0.000    1.067    4.000    2.800    3.733    0.000 
#    2.400    1.333    0.000    0.000    0.000    0.000 
#    0.000    0.000    0.000    0.000    0.000    0.000 
#
# Total GULP energy -371760.329190 kJ/mol
# GULP energy per Si atom -12392.010973 kJ/mol
# Density = 2.132892 g / cm^3
# Si number density = 21.377576 Si / 1000 Ang^3
#
#
#
# Elastic Constant Matrix: (Units=GPa)
#
#
# Indices 1 2 3 4 5 6 
#
# 1 93.9930 19.1988 63.9034 0.0000 -8.0110 0.0000
# 2 19.1988 75.2602 38.8347 0.0000 -5.2806 0.0000
# 3 63.9034 38.8347 176.6497 0.0000 1.5216 0.0000
# 4 0.0000 0.0000 0.0000 30.6648 0.0000 2.6981
# 5 -8.0110 -5.2806 1.5216 0.0000 35.5409 0.0000
# 6 0.0000 0.0000 0.0000 2.6981 0.0000 21.3681
#
#
#
# Elastic Compliance Matrix: (Units=1/GPa)
#
#
# Indices 1 2 3 4 5 6 
#
# 1 0.014579 -0.000841 -0.005118 0.000000 0.003380 0.000000
# 2 -0.000841 0.015238 -0.003065 0.000000 0.002206 0.000000
# 3 -0.005118 -0.003065 0.008203 0.000000 -0.001960 0.000000
# 4 0.000000 0.000000 0.000000 0.032977 0.000000 -0.004164
# 5 0.003380 0.002206 -0.001960 0.000000 0.029310 0.000000
# 6 0.000000 0.000000 0.000000 -0.004164 0.000000 0.047324
#
#
# Mechanical properties :
#
#
# Convention : Reuss Voigt Hill
#
# Bulk Modulus (GPa) = 50.06958 65.53073 57.80016
# Shear Modulus (GPa) = 29.01311 32.44584 30.72948
#
# Velocity S-wave (km/s) = 3.68798 3.90006 3.79550
# Velocity P-wave (km/s) = 6.45038 7.14151 6.80472
#
# Compressibility (1/GPa) = 0.01997221
#
# Stress axis : x y z
#
# Youngs Moduli (GPa) = 68.59373 65.62578 121.90606
#
# Poissons Ratio (x) = 0.05518 0.62393
# Poissons Ratio (y) = 0.05768 0.37361
# Poissons Ratio (z) = 0.35107 0.20113
#
# Static dielectric constant tensor:
#      x y z
#    x 3.836380 0.000000 0.013630 
#    y 0.000000 3.760620 0.000000 
#    z 0.013630 0.000000 4.876690 
# 
# 
# High freq. dielectric constant tensor:
#      x y z
#    x 1.834930 0.000000 -0.005420 
#    y 0.000000 1.819830 0.000000 
#    z -0.005420 0.000000 1.863300 
# 
# From -- ./inp_files/248769.got.cif
#   From: 2010.06.25/outbox.cif.g09.slc.cpg/sg15_125_cif.got.tgz:248769.got - 2010.06.28 07:06:18.
