data_PCOD8145991
_publ_section_title
;
Structure prediction by ZEFSAII (Michael W. Deem and Ramdas Pophale) SiO2 
 PCOD8145991
Probable space group: C 2/C
;
_chemical_formula_sum "Si O2"
_cell_formula_units_Z 64
_cell_length_a 8.361099
_cell_length_b 29.124265
_cell_length_c 17.317169
_cell_angle_alpha 90.000000
_cell_angle_beta 138.540572
_cell_angle_gamma 90.000000
_cell_volume 2791.977787
_symmetry_space_group_name_H-M "C 2/C"
_symmetry_group_IT_number 15
_symmetry_cell_setting 'monoclinic'
loop_
_space_group_symop_operation_xyz
x,y,z
-x,y,1/2-z
-x,-y,-z
x,-y,1/2+z
1/2+x,1/2+y,z
1/2-x,1/2+y,1/2-z
1/2-x,1/2-y,-z
1/2+x,1/2-y,1/2+z
loop_
_atom_site_type_symbol
_atom_site_label
_atom_site_fract_x
_atom_site_fract_y
_atom_site_fract_z
Si Si1 0.764539 0.397744 0.370497
Si Si2 0.598735 0.188674 0.661300
Si Si3 0.282341 0.284811 0.856296
Si Si4 0.877178 0.136362 0.286542
Si Si5 0.651334 0.671457 0.594893
Si Si6 0.482692 0.016457 0.581675
Si Si7 0.412583 0.079332 0.097230
Si Si8 0.429156 0.580586 0.011950
O O1 0.500000 0.382666 0.250000
O O2 0.933795 0.355260 0.406497
O O3 0.793898 0.408251 0.471535
O O4 0.828218 0.442177 0.340879
O O5 0.651838 0.231548 0.625313
O O6 0.352674 0.198218 0.618216
O O7 0.815515 0.180862 0.802017
O O8 0.389546 0.311771 0.821764
O O9 0.000000 0.292057 0.750000
O O10 0.390794 0.308365 0.973766
O O11 0.600294 0.118640 0.188243
O O12 0.000000 0.135197 0.250000
O O13 0.054362 0.104893 0.399938
O O14 0.683927 0.616654 0.591093
O O15 0.227694 0.034890 0.526198
O O16 0.500000 0.000000 0.500000
O O17 0.553032 0.969690 0.651087
O O18 0.201196 0.071325 0.082325
#
# Coordination Sequence:
#
# PCOD8145991 Si02
#       8
#     8   8   8   8   8   8   8   8
#     4  11  23  41  63  95 131 172 221 277 333 399
#     4  11  23  42  68  98 134 179 228 278 339 404
#     4  11  25  42  66  99 135 174 222 281 340 405
#     4  11  24  41  67  92 127 172 216 270 333 398
#     4  10  23  41  67  97 133 177 227 277 339 405
#     4  10  22  40  64  94 130 173 221 271 330 402
#     4  11  24  40  66  97 130 173 221 273 338 396
#     4  11  21  44  65  93 133 168 219 278 329 400
#
# _framework density 22.922819
#
# number of rings (size 3 to 8) (size 9 to 14) (size 15 to 20)
#    0.000    1.250    1.250    5.250    3.500    4.000 
#    0.000    3.750    0.000    0.000    0.000    0.000 
#    0.000    0.000    0.000    0.000    0.000    0.000 
#
# Total GULP energy -396580.969426 kJ/mol
# GULP energy per Si atom -12393.155295 kJ/mol
# Density = 2.287065 g / cm^3
# Si number density = 22.922819 Si / 1000 Ang^3
#
#
#
# Elastic Constant Matrix: (Units=GPa)
#
#
# Indices 1 2 3 4 5 6 
#
# 1 85.3333 14.7231 0.1613 0.0000 -4.6232 0.0000
# 2 14.7231 121.4330 16.3124 0.0000 -14.9789 0.0000
# 3 0.1613 16.3124 59.8637 0.0000 4.1502 0.0000
# 4 0.0000 0.0000 0.0000 27.2060 0.0000 4.8238
# 5 -4.6232 -14.9789 4.1502 0.0000 31.6485 0.0000
# 6 0.0000 0.0000 0.0000 4.8238 0.0000 26.5640
#
#
#
# Elastic Compliance Matrix: (Units=1/GPa)
#
#
# Indices 1 2 3 4 5 6 
#
# 1 0.012011 -0.001359 0.000263 0.000000 0.001077 0.000000
# 2 -0.001359 0.009352 -0.002864 0.000000 0.004603 0.000000
# 3 0.000263 -0.002864 0.017737 0.000000 -0.003643 0.000000
# 4 0.000000 0.000000 0.000000 0.037979 0.000000 -0.006897
# 5 0.001077 0.004603 -0.003643 0.000000 0.034411 0.000000
# 6 0.000000 0.000000 0.000000 -0.006897 0.000000 0.038897
#
#
# Mechanical properties :
#
#
# Convention : Reuss Voigt Hill
#
# Bulk Modulus (GPa) = 32.07054 36.55816 34.31435
# Shear Modulus (GPa) = 29.63834 32.77925 31.20879
#
# Velocity S-wave (km/s) = 3.59968 3.78561 3.69382
# Velocity P-wave (km/s) = 5.59446 5.92375 5.76146
#
# Compressibility (1/GPa) = 0.03118126
#
# Stress axis : x y z
#
# Youngs Moduli (GPa) = 83.25668 106.92569 56.37981
#
# Poissons Ratio (x) = 0.14529 -0.01484
# Poissons Ratio (y) = 0.11313 0.16147
# Poissons Ratio (z) = -0.02192 0.30622
#
# Static dielectric constant tensor:
#      x y z
#    x 4.222090 0.000000 0.023650 
#    y 0.000000 4.393790 0.000000 
#    z 0.023650 0.000000 4.057440 
# 
# 
# High freq. dielectric constant tensor:
#      x y z
#    x 1.912350 0.000000 0.002420 
#    y 0.000000 1.913670 0.000000 
#    z 0.002420 0.000000 1.890120 
# 
# From -- ./inp_files/194248.got.cif
#   From: 2010.06.25/outbox.cif.g09.slc.cpg/sg15_98_cif.got.tgz:194248.got - 2010.06.28 07:06:18.
