data_PCOD8145004
_publ_section_title
;
Structure prediction by ZEFSAII (Michael W. Deem and Ramdas Pophale) SiO2 
 PCOD8145004
Probable space group: C 2/C
;
_chemical_formula_sum "Si O2"
_cell_formula_units_Z 60
_cell_length_a 13.371638
_cell_length_b 11.560966
_cell_length_c 21.127744
_cell_angle_alpha 90.000000
_cell_angle_beta 115.306404
_cell_angle_gamma 90.000000
_cell_volume 2952.684190
_symmetry_space_group_name_H-M "C 2/C"
_symmetry_group_IT_number 15
_symmetry_cell_setting 'monoclinic'
loop_
_space_group_symop_operation_xyz
x,y,z
-x,y,1/2-z
-x,-y,-z
x,-y,1/2+z
1/2+x,1/2+y,z
1/2-x,1/2+y,1/2-z
1/2-x,1/2-y,-z
1/2+x,1/2-y,1/2+z
loop_
_atom_site_type_symbol
_atom_site_label
_atom_site_fract_x
_atom_site_fract_y
_atom_site_fract_z
Si Si1 0.783283 0.209620 0.218532
Si Si2 0.584110 0.953002 0.442348
Si Si3 0.113670 0.581892 0.812151
Si Si4 0.650771 0.948631 0.595521
Si Si5 0.500000 0.437345 0.750000
Si Si6 0.225661 0.127298 0.019290
Si Si7 0.634215 0.406277 0.370754
Si Si8 0.703655 0.169691 0.335039
O O1 0.791948 0.341064 0.195729
O O2 0.682620 0.153039 0.152359
O O3 0.896909 0.140994 0.240342
O O4 0.757149 0.214024 0.285356
O O5 0.609847 0.880303 0.385555
O O6 0.621163 0.891870 0.518464
O O7 0.455005 0.983569 0.406789
O O8 0.656036 0.067619 0.456784
O O9 0.131835 0.445786 0.804225
O O10 0.000000 0.619358 0.750000
O O11 0.749115 0.041445 0.620519
O O12 0.469108 0.521118 0.683127
O O13 0.129504 0.078175 0.946816
O O14 0.250000 0.250000 0.000000
O O15 0.199082 0.134213 0.087455
O O16 0.628596 0.273139 0.344591
#
# Coordination Sequence:
#
# PCOD8145004 Si02
#       8
#     8   8   8   8   4   8   8   8
#     4  11  23  38  55  84 120 155 186 236 295 342
#     4   9  18  35  61  86 111 150 196 234 285 339
#     4  11  23  37  56  83 119 153 193 240 286 342
#     4   9  19  36  60  88 115 149 192 236 282 352
#     4  10  22  38  56  84 116 156 186 228 290 350
#     4   8  16  36  56  85 111 145 185 240 286 330
#     4   9  19  36  63  82 114 147 192 238 281 339
#     4  10  22  36  60  82 111 151 194 240 285 337
#
# _framework density 20.320495000000001
#
# number of rings (size 3 to 8) (size 9 to 14) (size 15 to 20)
#    0.000    2.400    0.667    0.800    6.533    0.533 
#    2.400    0.667    0.000    0.000    0.000    0.000 
#    0.000    0.000    0.000    0.000    0.000    0.000 
#
# Total GULP energy -371643.375237 kJ/mol
# GULP energy per Si atom -12388.112508 kJ/mol
# Density = 2.027424 g / cm^3
# Si number density = 20.320495 Si / 1000 Ang^3
#
#
#
# Elastic Constant Matrix: (Units=GPa)
#
#
# Indices 1 2 3 4 5 6 
#
# 1 45.9458 7.2249 44.7245 0.0000 -11.0047 0.0000
# 2 7.2249 73.1275 32.9793 0.0000 0.5316 0.0000
# 3 44.7245 32.9793 153.7112 0.0000 -17.7284 0.0000
# 4 0.0000 0.0000 0.0000 21.8440 0.0000 -4.5681
# 5 -11.0047 0.5316 -17.7284 0.0000 41.4606 0.0000
# 6 0.0000 0.0000 0.0000 -4.5681 0.0000 19.6287
#
#
#
# Elastic Compliance Matrix: (Units=1/GPa)
#
#
# Indices 1 2 3 4 5 6 
#
# 1 0.031231 0.000823 -0.008740 0.000000 0.004542 0.000000
# 2 0.000823 0.015271 -0.003696 0.000000 -0.001558 0.000000
# 3 -0.008740 -0.003696 0.010076 0.000000 0.002036 0.000000
# 4 0.000000 0.000000 0.000000 0.048121 0.000000 0.011199
# 5 0.004542 -0.001558 0.002036 0.000000 0.026215 0.000000
# 6 0.000000 0.000000 0.000000 0.011199 0.000000 0.053552
#
#
# Mechanical properties :
#
#
# Convention : Reuss Voigt Hill
#
# Bulk Modulus (GPa) = 29.98180 49.18246 39.58213
# Shear Modulus (GPa) = 22.85087 29.11037 25.98062
#
# Velocity S-wave (km/s) = 3.35703 3.78903 3.57955
# Velocity P-wave (km/s) = 5.46010 6.58773 6.05024
#
# Compressibility (1/GPa) = 0.03335357
#
# Stress axis : x y z
#
# Youngs Moduli (GPa) = 32.01983 65.48177 99.24157
#
# Poissons Ratio (x) = -0.05388 0.86735
# Poissons Ratio (y) = -0.02635 0.36676
# Poissons Ratio (z) = 0.27984 0.24200
#
# Static dielectric constant tensor:
#      x y z
#    x 3.440950 0.000000 0.197320 
#    y 0.000000 3.617440 0.000000 
#    z 0.197320 0.000000 5.874480 
# 
# 
# High freq. dielectric constant tensor:
#      x y z
#    x 1.755140 0.000000 -0.005980 
#    y 0.000000 1.781830 0.000000 
#    z -0.005980 0.000000 1.827400 
# 
# From -- ./inp_files/243770.got.cif
#   From: 2010.06.25/outbox.cif.g09.slc.cpg/sg15_122_cif.got.tgz:243770.got - 2010.06.28 07:06:18.
