data_PCOD8145170
_publ_section_title
;
Structure prediction by ZEFSAII (Michael W. Deem and Ramdas Pophale) SiO2 
 PCOD8145170
Probable space group: C 2/C
;
_chemical_formula_sum "Si O2"
_cell_formula_units_Z 56
_cell_length_a 11.348372
_cell_length_b 21.254860
_cell_length_c 17.410741
_cell_angle_alpha 90.000000
_cell_angle_beta 44.506241
_cell_angle_gamma 90.000000
_cell_volume 2943.872532
_symmetry_space_group_name_H-M "C 2/C"
_symmetry_group_IT_number 15
_symmetry_cell_setting 'monoclinic'
loop_
_space_group_symop_operation_xyz
x,y,z
-x,y,1/2-z
-x,-y,-z
x,-y,1/2+z
1/2+x,1/2+y,z
1/2-x,1/2+y,1/2-z
1/2-x,1/2-y,-z
1/2+x,1/2-y,1/2+z
loop_
_atom_site_type_symbol
_atom_site_label
_atom_site_fract_x
_atom_site_fract_y
_atom_site_fract_z
Si Si1 0.473458 0.792688 0.850845
Si Si2 0.612803 0.899118 0.877179
Si Si3 0.600499 0.565175 0.949883
Si Si4 0.158507 0.467394 0.293283
Si Si5 0.216683 0.437461 0.985836
Si Si6 0.395176 0.661674 0.948820
Si Si7 0.239926 0.070511 0.598228
O O1 0.500000 0.777861 0.750000
O O2 0.618077 0.836622 0.821920
O O3 0.485091 0.727978 0.892813
O O4 0.295462 0.827288 0.936848
O O5 0.667320 0.957044 0.797936
O O6 0.724034 0.895126 0.904202
O O7 0.428499 0.908802 0.995196
O O8 0.769265 0.553393 0.821965
O O9 0.659438 0.589173 0.006486
O O10 0.489429 0.622542 0.970470
O O11 0.500000 0.500000 0.000000
O O12 0.281694 0.437109 0.300343
O O13 0.969711 0.442785 0.391972
O O14 0.291652 0.505441 0.930642
O O15 0.392136 0.621624 0.871309
#
# Coordination Sequence:
#
# PCOD8145170 Si02
#       7
#     8   8   8   8   8   8   8
#     4  10  22  38  63  78 108 155 193 233 268 337
#     4   8  17  34  57  79 102 147 193 219 268 337
#     4  12  23  32  51  86 121 146 178 237 290 334
#     4   9  19  31  57  78 109 148 184 225 280 341
#     4   9  17  36  53  80 112 146 180 223 283 344
#     4  10  22  38  53  89 117 138 189 239 286 320
#     4   8  15  33  54  78 109 137 177 234 278 327
#
# _framework density 19.022563000000002
#
# number of rings (size 3 to 8) (size 9 to 14) (size 15 to 20)
#    0.000    2.571    1.429    2.143    4.000    0.000 
#    0.000    0.714    0.000    0.000    0.000    0.000 
#    0.000    0.000    0.000    0.000    0.000    0.000 
#
# Total GULP energy -347007.838989 kJ/mol
# GULP energy per Si atom -12393.137107 kJ/mol
# Density = 1.897927 g / cm^3
# Si number density = 19.022563 Si / 1000 Ang^3
#
#
#
# Elastic Constant Matrix: (Units=GPa)
#
#
# Indices 1 2 3 4 5 6 
#
# 1 129.0316 60.3052 13.2851 -0.0001 25.2862 -0.0002
# 2 60.3052 94.5498 8.3534 -0.0002 2.5397 0.0000
# 3 13.2851 8.3534 39.6840 -0.0006 6.9611 0.0002
# 4 -0.0001 -0.0002 -0.0006 12.5956 0.0000 3.5412
# 5 25.2862 2.5397 6.9611 0.0000 21.3432 0.0001
# 6 -0.0002 0.0000 0.0002 3.5412 0.0001 37.9407
#
#
#
# Elastic Compliance Matrix: (Units=1/GPa)
#
#
# Indices 1 2 3 4 5 6 
#
# 1 0.015568 -0.009448 -0.000196 0.000000 -0.017255 0.000000
# 2 -0.009448 0.016518 -0.002050 0.000000 0.009897 0.000000
# 3 -0.000196 -0.002050 0.027167 0.000001 -0.008384 0.000000
# 4 0.000000 0.000000 0.000001 0.081532 0.000000 -0.007610
# 5 -0.017255 0.009897 -0.008384 0.000000 0.068853 0.000000
# 6 0.000000 0.000000 0.000000 -0.007610 0.000000 0.027067
#
#
# Mechanical properties :
#
#
# Convention : Reuss Voigt Hill
#
# Bulk Modulus (GPa) = 27.88319 47.46142 37.67231
# Shear Modulus (GPa) = 18.37906 26.46403 22.42155
#
# Velocity S-wave (km/s) = 3.11170 3.73391 3.43692
# Velocity P-wave (km/s) = 5.25357 6.60255 5.96631
#
# Compressibility (1/GPa) = 0.03586390
#
# Stress axis : x y z
#
# Youngs Moduli (GPa) = 64.23574 60.53972 36.80946
#
# Poissons Ratio (x) = 0.57201 0.00721
# Poissons Ratio (y) = 0.60693 0.07546
# Poissons Ratio (z) = 0.01258 0.12411
#
# Static dielectric constant tensor:
#      x y z
#    x 3.890990 0.000000 0.230460 
#    y 0.000000 3.656240 0.000000 
#    z 0.230460 0.000000 3.345910 
# 
# 
# High freq. dielectric constant tensor:
#      x y z
#    x 1.739350 0.000000 0.014470 
#    y 0.000000 1.712620 0.000000 
#    z 0.014470 0.000000 1.733340 
# 
# From -- ./inp_files/174727.got.cif
#   From: 2010.06.25/outbox.cif.g09.slc.cpg/sg15_88_cif.got.tgz:174727.got - 2010.06.28 07:06:18.
