data_PCOD8145459
_publ_section_title
;
Structure prediction by ZEFSAII (Michael W. Deem and Ramdas Pophale) SiO2 
 PCOD8145459
Probable space group: C 2/C
;
_chemical_formula_sum "Si O2"
_cell_formula_units_Z 48
_cell_length_a 15.209602
_cell_length_b 15.752808
_cell_length_c 19.071861
_cell_angle_alpha 90.000000
_cell_angle_beta 151.218151
_cell_angle_gamma 90.000000
_cell_volume 2200.105885
_symmetry_space_group_name_H-M "C 2/C"
_symmetry_group_IT_number 15
_symmetry_cell_setting 'monoclinic'
loop_
_space_group_symop_operation_xyz
x,y,z
-x,y,1/2-z
-x,-y,-z
x,-y,1/2+z
1/2+x,1/2+y,z
1/2-x,1/2+y,1/2-z
1/2-x,1/2-y,-z
1/2+x,1/2-y,1/2+z
loop_
_atom_site_type_symbol
_atom_site_label
_atom_site_fract_x
_atom_site_fract_y
_atom_site_fract_z
Si Si1 0.774102 0.358557 0.784232
Si Si2 0.954100 0.856580 0.145003
Si Si3 0.633209 0.470170 0.153436
Si Si4 0.395295 0.136536 0.742681
Si Si5 0.430701 0.243783 0.521568
Si Si6 0.967404 0.334408 0.652577
O O1 0.686878 0.450494 0.741014
O O2 0.619980 0.295627 0.644895
O O3 0.916466 0.384037 0.823490
O O4 0.891590 0.321249 0.930503
O O5 0.041274 0.762751 0.201857
O O6 0.000000 0.904306 0.250000
O O7 0.023218 0.904770 0.124885
O O8 0.742346 0.844319 0.006953
O O9 0.808404 0.427194 0.238721
O O10 0.500000 0.500000 0.000000
O O11 0.500000 0.091654 0.750000
O O12 0.546387 0.192989 0.889529
O O13 0.239721 0.192860 0.596302
O O14 0.000000 0.377568 0.750000
#
# Coordination Sequence:
#
# PCOD8145459 Si02
#       6
#     8   8   8   8   8   8
#     4  11  24  42  71  98 134 178 218 278 334 400
#     4  10  23  42  67  98 136 170 218 272 326 395
#     4  12  25  44  65 100 142 174 213 284 345 381
#     4  11  24  44  72  97 130 174 227 276 329 397
#     4  10  23  45  72  94 130 174 234 268 326 400
#     4  10  22  38  69  98 129 174 223 261 326 409
#
# _framework density 21.817132999999998
#
# number of rings (size 3 to 8) (size 9 to 14) (size 15 to 20)
#    0.000    1.333    1.667    3.500    9.333    2.667 
#    3.000    0.833    0.000    0.000    0.000    0.000 
#    0.000    0.000    0.000    0.000    0.000    0.000 
#
# Total GULP energy -297399.304828 kJ/mol
# GULP energy per Si atom -12391.637701 kJ/mol
# Density = 2.176748 g / cm^3
# Si number density = 21.817133 Si / 1000 Ang^3
#
#
#
# Elastic Constant Matrix: (Units=GPa)
#
#
# Indices 1 2 3 4 5 6 
#
# 1 139.4095 35.4511 37.8469 0.0036 -5.7573 0.0028
# 2 35.4511 83.6765 28.1064 0.0024 1.7177 0.0023
# 3 37.8469 28.1064 116.1693 0.0006 -12.0745 0.0119
# 4 0.0036 0.0024 0.0006 9.7393 0.0014 2.6006
# 5 -5.7573 1.7177 -12.0745 0.0014 20.2770 0.0036
# 6 0.0028 0.0023 0.0119 2.6006 0.0036 27.1556
#
#
#
# Elastic Compliance Matrix: (Units=1/GPa)
#
#
# Indices 1 2 3 4 5 6 
#
# 1 0.008513 -0.003005 -0.001885 -0.000003 0.001549 0.000000
# 2 -0.003005 0.014263 -0.002863 -0.000002 -0.003767 0.000001
# 3 -0.001885 -0.002863 0.010537 0.000001 0.005982 -0.000005
# 4 -0.000003 -0.000002 0.000001 0.105372 -0.000005 -0.010091
# 5 0.001549 -0.003767 0.005982 -0.000005 0.053638 -0.000009
# 6 0.000000 0.000001 -0.000005 -0.010091 -0.000009 0.037791
#
#
# Mechanical properties :
#
#
# Convention : Reuss Voigt Hill
#
# Bulk Modulus (GPa) = 56.16325 60.22936 58.19631
# Shear Modulus (GPa) = 19.87623 27.29110 23.58366
#
# Velocity S-wave (km/s) = 3.02161 3.54065 3.29138
# Velocity P-wave (km/s) = 6.16215 6.66193 6.41691
#
# Compressibility (1/GPa) = 0.01780524
#
# Stress axis : x y z
#
# Youngs Moduli (GPa) = 117.46521 70.11105 94.90502
#
# Poissons Ratio (x) = 0.21070 0.17893
# Poissons Ratio (y) = 0.35301 0.27174
# Poissons Ratio (z) = 0.22147 0.20075
#
# Static dielectric constant tensor:
#      x y z
#    x 3.905410 0.000000 0.013570 
#    y 0.000000 4.116960 -0.000030 
#    z 0.013570 -0.000030 4.081540 
# 
# 
# High freq. dielectric constant tensor:
#      x y z
#    x 1.858970 0.000000 0.000170 
#    y 0.000000 1.841800 0.000000 
#    z 0.000170 0.000000 1.872110 
# 
# From -- ./inp_files/206497.got.cif
#   From: 2010.06.25/outbox.cif.g09.slc.cpg/sg15_104_cif.got.tgz:206497.got - 2010.06.28 07:06:18.
