data_PCOD8145903
_publ_section_title
;
Structure prediction by ZEFSAII (Michael W. Deem and Ramdas Pophale) SiO2 
 PCOD8145903
Probable space group: C 2/C
;
_chemical_formula_sum "Si O2"
_cell_formula_units_Z 40
_cell_length_a 30.908496
_cell_length_b 7.518422
_cell_length_c 16.985799
_cell_angle_alpha 90.000000
_cell_angle_beta 27.522492
_cell_angle_gamma 90.000000
_cell_volume 1823.994382
_symmetry_space_group_name_H-M "C 2/C"
_symmetry_group_IT_number 15
_symmetry_cell_setting 'monoclinic'
loop_
_space_group_symop_operation_xyz
x,y,z
-x,y,1/2-z
-x,-y,-z
x,-y,1/2+z
1/2+x,1/2+y,z
1/2-x,1/2+y,1/2-z
1/2-x,1/2-y,-z
1/2+x,1/2-y,1/2+z
loop_
_atom_site_type_symbol
_atom_site_label
_atom_site_fract_x
_atom_site_fract_y
_atom_site_fract_z
Si Si1 0.334920 0.919066 0.157754
Si Si2 0.979930 0.272331 0.689792
Si Si3 0.440053 0.616945 0.239496
Si Si4 0.635416 0.274372 0.476413
Si Si5 0.909688 0.555004 0.693404
O O1 0.235451 0.850512 0.288084
O O2 0.325437 0.976319 0.266105
O O3 0.369963 0.072002 0.042686
O O4 0.417737 0.771976 0.017511
O O5 0.911222 0.431605 0.769435
O O6 0.000000 0.288484 0.750000
O O7 0.921170 0.093675 0.762695
O O8 0.380751 0.707871 0.404789
O O9 0.410326 0.734085 0.212403
O O10 0.552026 0.621154 0.069073
O O11 0.000000 0.500000 0.500000
#
# Coordination Sequence:
#
# PCOD8145903 Si02
#       5
#     8   8   8   8   8
#     4  11  24  41  64  96 129 163 217 261 313 372
#     4  11  21  39  69  92 120 170 208 253 321 378
#     4  11  22  42  66  91 125 169 213 255 319 378
#     4  11  22  41  64  92 129 166 213 260 308 381
#     4  10  22  40  62  96 128 162 210 264 311 371
#
# _framework density 21.929891999999999
#
# number of rings (size 3 to 8) (size 9 to 14) (size 15 to 20)
#    0.000    1.200    6.000    2.400    0.000    4.000 
#    3.600    1.000    0.000    0.000    0.000    0.000 
#    0.000    0.000    0.000    0.000    0.000    0.000 
#
# Total GULP energy -247801.116210 kJ/mol
# GULP energy per Si atom -12390.055811 kJ/mol
# Density = 2.187998 g / cm^3
# Si number density = 21.929892 Si / 1000 Ang^3
#
#
#
# Elastic Constant Matrix: (Units=GPa)
#
#
# Indices 1 2 3 4 5 6 
#
# 1 78.4047 54.2853 27.4379 0.0001 14.4213 0.0000
# 2 54.2853 133.7839 18.9371 -0.0049 16.7230 0.0000
# 3 27.4379 18.9371 61.2543 -0.0023 -1.7244 0.0000
# 4 0.0001 -0.0049 -0.0023 8.5076 0.0002 9.3496
# 5 14.4213 16.7230 -1.7244 0.0002 23.4523 0.0001
# 6 0.0000 0.0000 0.0000 9.3496 0.0001 25.7574
#
#
#
# Elastic Compliance Matrix: (Units=1/GPa)
#
#
# Indices 1 2 3 4 5 6 
#
# 1 0.021806 -0.006549 -0.008006 -0.000010 -0.009328 0.000004
# 2 -0.006549 0.010647 -0.000459 0.000010 -0.003599 -0.000004
# 3 -0.008006 -0.000459 0.020243 0.000009 0.006739 -0.000003
# 4 -0.000010 0.000010 0.000009 0.195546 -0.000002 -0.070980
# 5 -0.009328 -0.003599 0.006739 -0.000002 0.051437 0.000000
# 6 0.000004 -0.000004 -0.000003 -0.070980 0.000000 0.064588
#
#
# Mechanical properties :
#
#
# Convention : Reuss Voigt Hill
#
# Bulk Modulus (GPa) = 44.11478 52.75148 48.43313
# Shear Modulus (GPa) = 12.44241 23.06231 17.75236
#
# Velocity S-wave (km/s) = 2.38454 3.24642 2.84827
# Velocity P-wave (km/s) = 5.26700 6.17731 5.74023
#
# Compressibility (1/GPa) = 0.02266814
#
# Stress axis : x y z
#
# Youngs Moduli (GPa) = 45.85909 93.92334 49.39963
#
# Poissons Ratio (x) = 0.61511 0.39547
# Poissons Ratio (y) = 0.30033 0.02269
# Poissons Ratio (z) = 0.36713 0.04314
#
# Static dielectric constant tensor:
#      x y z
#    x 4.768890 0.000000 -0.012960 
#    y 0.000000 2.778790 0.000000 
#    z -0.012960 0.000000 3.766020 
# 
# 
# High freq. dielectric constant tensor:
#      x y z
#    x 1.862310 0.000000 0.008850 
#    y 0.000000 1.862200 0.000000 
#    z 0.008850 0.000000 1.838860 
# 
# From -- ./inp_files/224196.got.cif
#   From: 2010.06.25/outbox.cif.g09.slc.cpg/sg15_113_cif.got.tgz:224196.got - 2010.06.28 07:06:18.
