data_PCOD8145070
_publ_section_title
;
Structure prediction by ZEFSAII (Michael W. Deem and Ramdas Pophale) SiO2 
 PCOD8145070
Probable space group: C 2/C
;
_chemical_formula_sum "Si O2"
_cell_formula_units_Z 48
_cell_length_a 15.905460
_cell_length_b 22.007089
_cell_length_c 9.780000
_cell_angle_alpha 90.000000
_cell_angle_beta 125.595847
_cell_angle_gamma 90.000000
_cell_volume 2783.649759
_symmetry_space_group_name_H-M "C 2/C"
_symmetry_group_IT_number 15
_symmetry_cell_setting 'monoclinic'
loop_
_space_group_symop_operation_xyz
x,y,z
-x,y,1/2-z
-x,-y,-z
x,-y,1/2+z
1/2+x,1/2+y,z
1/2-x,1/2+y,1/2-z
1/2-x,1/2-y,-z
1/2+x,1/2-y,1/2+z
loop_
_atom_site_type_symbol
_atom_site_label
_atom_site_fract_x
_atom_site_fract_y
_atom_site_fract_z
Si Si1 0.595481 0.235793 0.019880
Si Si2 0.862860 0.292132 0.243008
Si Si3 0.242428 0.211101 0.131523
Si Si4 0.817574 0.133854 0.850820
Si Si5 0.570599 0.518379 0.439481
Si Si6 0.121129 0.108376 0.887620
O O1 0.643003 0.199623 0.196851
O O2 0.604294 0.308963 0.050875
O O3 0.652494 0.223480 0.930394
O O4 0.481278 0.208235 0.900951
O O5 0.805932 0.245363 0.286512
O O6 0.800555 0.354951 0.211214
O O7 0.250000 0.250000 0.000000
O O8 0.172937 0.151690 0.048979
O O9 0.814423 0.118714 0.688033
O O10 0.854598 0.074031 0.962526
O O11 0.500000 0.541125 0.250000
O O12 0.500000 0.500000 0.500000
O O13 0.636650 0.459917 0.455690
O O14 0.000000 0.123449 0.750000
#
# Coordination Sequence:
#
# PCOD8145070 Si02
#       6
#     8   8   8   8   8   8
#     4  10  22  38  57  89 117 150 192 235 291 347
#     4  10  22  37  57  85 118 153 190 233 293 343
#     4  11  20  33  58  86 113 153 185 237 298 339
#     4  11  20  39  55  85 119 147 190 237 281 349
#     4  11  23  36  57  85 113 158 191 232 291 336
#     4  11  21  37  54  83 121 145 190 234 287 344
#
# _framework density 17.243548000000001
#
# number of rings (size 3 to 8) (size 9 to 14) (size 15 to 20)
#    0.000    1.333    6.667    3.000    2.333    1.333 
#    0.000    0.000    0.000    1.000    0.000    0.000 
#    0.000    0.000    0.000    0.000    0.000    0.000 
#
# Total GULP energy -297367.057529 kJ/mol
# GULP energy per Si atom -12390.294064 kJ/mol
# Density = 1.720430 g / cm^3
# Si number density = 17.243548 Si / 1000 Ang^3
#
#
#
# Elastic Constant Matrix: (Units=GPa)
#
#
# Indices 1 2 3 4 5 6 
#
# 1 88.5964 45.1461 40.9974 0.0000 -1.7114 0.0000
# 2 45.1461 122.2319 53.8845 0.0000 14.9926 0.0000
# 3 40.9974 53.8845 133.1781 0.0000 2.4995 0.0000
# 4 0.0000 0.0000 0.0000 39.3319 0.0000 8.9201
# 5 -1.7114 14.9926 2.4995 0.0000 35.9152 0.0000
# 6 0.0000 0.0000 0.0000 8.9201 0.0000 27.4674
#
#
#
# Elastic Compliance Matrix: (Units=1/GPa)
#
#
# Indices 1 2 3 4 5 6 
#
# 1 0.015009 -0.004666 -0.002786 0.000000 0.002857 0.000000
# 2 -0.004666 0.011979 -0.003317 0.000000 -0.004992 0.000000
# 3 -0.002786 -0.003317 0.009698 0.000000 0.000577 0.000000
# 4 0.000000 0.000000 0.000000 0.027446 0.000000 -0.008913
# 5 0.002857 -0.004992 0.000577 0.000000 0.030023 0.000000
# 6 0.000000 0.000000 0.000000 -0.008913 0.000000 0.039301
#
#
# Mechanical properties :
#
#
# Convention : Reuss Voigt Hill
#
# Bulk Modulus (GPa) = 66.01428 69.34028 67.67728
# Shear Modulus (GPa) = 31.24155 34.14144 32.69150
#
# Velocity S-wave (km/s) = 4.26112 4.45450 4.35888
# Velocity P-wave (km/s) = 7.91051 8.17045 8.04153
#
# Compressibility (1/GPa) = 0.01514824
#
# Stress axis : x y z
#
# Youngs Moduli (GPa) = 66.62600 83.48010 103.11824
#
# Poissons Ratio (x) = 0.38949 0.28731
# Poissons Ratio (y) = 0.31086 0.34202
# Poissons Ratio (z) = 0.18564 0.27688
#
# Static dielectric constant tensor:
#      x y z
#    x 2.873960 0.000000 -0.304540 
#    y 0.000000 3.390460 0.000000 
#    z -0.304540 0.000000 3.383630 
# 
# 
# High freq. dielectric constant tensor:
#      x y z
#    x 1.661630 0.000000 -0.013050 
#    y 0.000000 1.645000 0.000000 
#    z -0.013050 0.000000 1.688390 
# 
# From -- ./inp_files/40947.got.cif
#   From: 2010.06.25/outbox.cif.g09.slc.cpg/sg15_21_cif.got.tgz:40947.got - 2010.06.28 07:06:18.
