data_PCOD8145713
_publ_section_title
;
Structure prediction by ZEFSAII (Michael W. Deem and Ramdas Pophale) SiO2 
 PCOD8145713
Probable space group: C 2/C
;
_chemical_formula_sum "Si O2"
_cell_formula_units_Z 44
_cell_length_a 12.385702
_cell_length_b 12.896663
_cell_length_c 13.189849
_cell_angle_alpha 90.000000
_cell_angle_beta 107.446394
_cell_angle_gamma 90.000000
_cell_volume 2009.949791
_symmetry_space_group_name_H-M "C 2/C"
_symmetry_group_IT_number 15
_symmetry_cell_setting 'monoclinic'
loop_
_space_group_symop_operation_xyz
x,y,z
-x,y,1/2-z
-x,-y,-z
x,-y,1/2+z
1/2+x,1/2+y,z
1/2-x,1/2+y,1/2-z
1/2-x,1/2-y,-z
1/2+x,1/2-y,1/2+z
loop_
_atom_site_type_symbol
_atom_site_label
_atom_site_fract_x
_atom_site_fract_y
_atom_site_fract_z
Si Si1 0.974860 0.609089 0.356542
Si Si2 0.616264 0.807312 0.343728
Si Si3 0.000000 0.028619 0.750000
Si Si4 0.149930 0.488698 0.506838
Si Si5 0.885697 0.092113 0.054836
Si Si6 0.139489 0.832089 0.166093
O O1 0.885506 0.532376 0.386401
O O2 0.923320 0.722923 0.341280
O O3 0.000000 0.569742 0.250000
O O4 0.093942 0.596923 0.452203
O O5 0.500000 0.794270 0.250000
O O6 0.599959 0.896402 0.422071
O O7 0.651171 0.702229 0.410406
O O8 0.724369 0.827754 0.301086
O O9 0.108728 0.100764 0.756986
O O10 0.012997 0.955958 0.852108
O O11 0.284168 0.491227 0.534997
O O12 0.916824 0.109903 0.946619
#
# Coordination Sequence:
#
# PCOD8145713 Si02
#       6
#     8   8   4   8   8   8
#     4  11  21  38  66  96 130 163 208 266 322 366
#     4  11  21  42  68  95 125 172 219 255 311 386
#     4  12  26  42  64  94 134 168 206 266 330 376
#     4  10  22  39  66  94 129 168 214 264 306 380
#     4  11  22  43  64  91 127 176 214 254 314 390
#     4  11  23  44  65  93 135 164 211 270 316 372
#
# _framework density 21.891093000000001
#
# number of rings (size 3 to 8) (size 9 to 14) (size 15 to 20)
#    0.000    1.091    5.455    2.182    0.000    5.818 
#    0.000    0.909    0.000    0.000    0.000    0.000 
#    0.000    0.000    0.000    0.000    0.000    0.000 
#
# Total GULP energy -272670.717343 kJ/mol
# GULP energy per Si atom -12394.123516 kJ/mol
# Density = 2.184127 g / cm^3
# Si number density = 21.891093 Si / 1000 Ang^3
#
#
#
# Elastic Constant Matrix: (Units=GPa)
#
#
# Indices 1 2 3 4 5 6 
#
# 1 80.5375 25.5817 25.0736 0.0000 -7.3505 0.0000
# 2 25.5817 61.8632 22.3502 0.0000 2.5298 0.0000
# 3 25.0736 22.3502 93.4813 0.0000 -12.0001 0.0000
# 4 0.0000 0.0000 0.0000 24.1966 0.0000 5.2238
# 5 -7.3505 2.5298 -12.0001 0.0000 43.0184 0.0000
# 6 0.0000 0.0000 0.0000 5.2238 0.0000 24.5439
#
#
#
# Elastic Compliance Matrix: (Units=1/GPa)
#
#
# Indices 1 2 3 4 5 6 
#
# 1 0.015118 -0.005451 -0.002467 0.000000 0.002216 0.000000
# 2 -0.005451 0.019881 -0.003693 0.000000 -0.003131 0.000000
# 3 -0.002467 -0.003693 0.012670 0.000000 0.003330 0.000000
# 4 0.000000 0.000000 0.000000 0.043319 0.000000 -0.009220
# 5 0.002216 -0.003131 0.003330 0.000000 0.024737 0.000000
# 6 0.000000 0.000000 0.000000 -0.009220 0.000000 0.042706
#
#
# Mechanical properties :
#
#
# Convention : Reuss Voigt Hill
#
# Bulk Modulus (GPa) = 40.90643 42.43257 41.66950
# Shear Modulus (GPa) = 26.34319 29.21021 27.77670
#
# Velocity S-wave (km/s) = 3.47273 3.65683 3.56597
# Velocity P-wave (km/s) = 5.89972 6.10372 6.00259
#
# Compressibility (1/GPa) = 0.02444604
#
# Stress axis : x y z
#
# Youngs Moduli (GPa) = 66.14471 50.29915 78.92932
#
# Poissons Ratio (x) = 0.27418 0.19475
# Poissons Ratio (y) = 0.36055 0.29150
# Poissons Ratio (z) = 0.16321 0.18576
#
# Static dielectric constant tensor:
#      x y z
#    x 3.844210 0.000000 -0.159260 
#    y 0.000000 3.897940 0.000000 
#    z -0.159260 0.000000 4.041940 
# 
# 
# High freq. dielectric constant tensor:
#      x y z
#    x 1.858000 0.000000 -0.013520 
#    y 0.000000 1.853070 0.000000 
#    z -0.013520 0.000000 1.861150 
# 
# From -- ./inp_files/86175.got.cif
#   From: 2010.06.25/outbox.cif.g09.slc.cpg/sg15_44_cif.got.tgz:86175.got - 2010.06.28 07:06:18.
