data_PCOD8145427
_publ_section_title
;
Structure prediction by ZEFSAII (Michael W. Deem and Ramdas Pophale) SiO2 
 PCOD8145427
Probable space group: C 2/C
;
_chemical_formula_sum "Si O2"
_cell_formula_units_Z 64
_cell_length_a 15.577302
_cell_length_b 13.470975
_cell_length_c 17.496868
_cell_angle_alpha 90.000000
_cell_angle_beta 56.955930
_cell_angle_gamma 90.000000
_cell_volume 3077.697088
_symmetry_space_group_name_H-M "C 2/C"
_symmetry_group_IT_number 15
_symmetry_cell_setting 'monoclinic'
loop_
_space_group_symop_operation_xyz
x,y,z
-x,y,1/2-z
-x,-y,-z
x,-y,1/2+z
1/2+x,1/2+y,z
1/2-x,1/2+y,1/2-z
1/2-x,1/2-y,-z
1/2+x,1/2-y,1/2+z
loop_
_atom_site_type_symbol
_atom_site_label
_atom_site_fract_x
_atom_site_fract_y
_atom_site_fract_z
Si Si1 0.585716 0.799617 0.506936
Si Si2 0.604073 0.126375 0.471515
Si Si3 0.749763 0.287902 0.350109
Si Si4 0.155987 0.956601 0.312652
Si Si5 0.444293 0.199832 0.848725
Si Si6 0.243166 0.054303 0.607423
Si Si7 0.956387 0.864625 0.353962
Si Si8 0.115968 0.186065 0.336965
O O1 0.494114 0.881777 0.537769
O O2 0.689712 0.860231 0.463131
O O3 0.573929 0.738505 0.590715
O O4 0.594213 0.725117 0.431813
O O5 0.648384 0.233588 0.428060
O O6 0.559376 0.123911 0.579128
O O7 0.695556 0.048616 0.421144
O O8 0.716607 0.402659 0.352544
O O9 0.829833 0.272653 0.379892
O O10 0.792042 0.244048 0.249789
O O11 0.216576 0.924279 0.207699
O O12 0.039717 0.918612 0.365839
O O13 0.152220 0.073503 0.326304
O O14 0.500000 0.145374 0.750000
O O15 0.511617 0.298017 0.837771
O O16 0.138076 0.057191 0.609312
O O17 0.000000 0.835064 0.250000
#
# Coordination Sequence:
#
# PCOD8145427 Si02
#       8
#     8   8   8   8   8   8   8   8
#     4  11  22  43  60  93 126 166 209 258 315 373
#     4  11  22  39  64  94 121 170 207 256 313 385
#     4  11  20  39  62  94 129 161 206 258 320 372
#     4  11  22  40  64  96 121 166 210 258 316 376
#     4   9  22  39  61  90 131 159 204 260 314 366
#     4  11  23  39  66  87 125 166 213 254 317 377
#     4  10  24  41  62  89 126 163 214 260 309 369
#     4  10  22  38  67  92 125 163 205 262 314 374
#
# _framework density 20.794768999999999
#
# number of rings (size 3 to 8) (size 9 to 14) (size 15 to 20)
#    0.000    1.500    3.750    1.125    1.750    3.000 
#    0.000    0.625    0.000    0.000    0.000    0.000 
#    0.000    0.000    0.000    0.000    0.000    0.000 
#
# Total GULP energy -396641.289321 kJ/mol
# GULP energy per Si atom -12395.040291 kJ/mol
# Density = 2.074744 g / cm^3
# Si number density = 20.794769 Si / 1000 Ang^3
#
#
#
# Elastic Constant Matrix: (Units=GPa)
#
#
# Indices 1 2 3 4 5 6 
#
# 1 86.9134 42.7765 37.7747 0.0000 -10.0529 0.0000
# 2 42.7765 100.6089 17.0374 0.0000 -4.4828 0.0000
# 3 37.7747 17.0374 69.9432 0.0000 -7.9629 0.0000
# 4 0.0000 0.0000 0.0000 33.1825 0.0000 -12.7655
# 5 -10.0529 -4.4828 -7.9629 0.0000 28.7400 0.0000
# 6 0.0000 0.0000 0.0000 -12.7655 0.0000 33.2451
#
#
#
# Elastic Compliance Matrix: (Units=1/GPa)
#
#
# Indices 1 2 3 4 5 6 
#
# 1 0.018528 -0.006364 -0.008087 0.000000 0.003248 0.000000
# 2 -0.006364 0.012578 0.000354 0.000000 -0.000166 0.000000
# 3 -0.008087 0.000354 0.018858 0.000000 0.002451 0.000000
# 4 0.000000 0.000000 0.000000 0.035360 0.000000 0.013577
# 5 0.003248 -0.000166 0.002451 0.000000 0.036584 0.000000
# 6 0.000000 0.000000 0.000000 0.013577 0.000000 0.035293
#
#
# Mechanical properties :
#
#
# Convention : Reuss Voigt Hill
#
# Bulk Modulus (GPa) = 45.93251 50.29361 48.11306
# Shear Modulus (GPa) = 25.95386 29.69198 27.82292
#
# Velocity S-wave (km/s) = 3.53667 3.78280 3.66180
# Velocity P-wave (km/s) = 6.23008 6.58161 6.40826
#
# Compressibility (1/GPa) = 0.02177107
#
# Stress axis : x y z
#
# Youngs Moduli (GPa) = 53.97233 79.50553 53.02906
#
# Poissons Ratio (x) = 0.50594 0.42883
# Poissons Ratio (y) = 0.34345 -0.01878
# Poissons Ratio (z) = 0.43646 -0.02815
#
# Static dielectric constant tensor:
#      x y z
#    x 3.941420 0.000000 -0.183830 
#    y 0.000000 3.449930 0.000000 
#    z -0.183830 0.000000 3.920230 
# 
# 
# High freq. dielectric constant tensor:
#      x y z
#    x 1.821250 0.000000 -0.016820 
#    y 0.000000 1.787440 0.000000 
#    z -0.016820 0.000000 1.825470 
# 
# From -- ./inp_files/205410.got.cif
#   From: 2010.06.25/outbox.cif.g09.slc.cpg/sg15_103_cif.got.tgz:205410.got - 2010.06.28 07:06:18.
