data_PCOD8145276
_publ_section_title
;
Structure prediction by ZEFSAII (Michael W. Deem and Ramdas Pophale) SiO2 
 PCOD8145276
Probable space group: C 2/C
;
_chemical_formula_sum "Si O2"
_cell_formula_units_Z 48
_cell_length_a 28.837378
_cell_length_b 12.427101
_cell_length_c 14.373944
_cell_angle_alpha 90.000000
_cell_angle_beta 25.596155
_cell_angle_gamma 90.000000
_cell_volume 2225.413174
_symmetry_space_group_name_H-M "C 2/C"
_symmetry_group_IT_number 15
_symmetry_cell_setting 'monoclinic'
loop_
_space_group_symop_operation_xyz
x,y,z
-x,y,1/2-z
-x,-y,-z
x,-y,1/2+z
1/2+x,1/2+y,z
1/2-x,1/2+y,1/2-z
1/2-x,1/2-y,-z
1/2+x,1/2-y,1/2+z
loop_
_atom_site_type_symbol
_atom_site_label
_atom_site_fract_x
_atom_site_fract_y
_atom_site_fract_z
Si Si1 0.438497 0.496094 0.264169
Si Si2 0.248451 0.186261 0.599412
Si Si3 0.005261 0.387608 0.040503
Si Si4 0.610928 0.994001 0.097770
Si Si5 0.012662 0.154112 0.986114
Si Si6 0.233937 0.606885 0.212335
O O1 0.500000 0.513245 0.250000
O O2 0.495212 0.401099 0.101176
O O3 0.315446 0.469757 0.509941
O O4 0.434850 0.601106 0.204539
O O5 0.250000 0.250000 0.500000
O O6 0.129931 0.135355 0.820584
O O7 0.277086 0.268998 0.633488
O O8 0.339325 0.094333 0.436218
O O9 0.978104 0.278760 0.032809
O O10 0.126823 0.376490 0.848942
O O11 0.000000 0.500000 0.000000
O O12 0.921619 0.394957 0.276965
O O13 0.500000 0.033612 0.250000
O O14 0.705189 0.946722 0.862386
#
# Coordination Sequence:
#
# PCOD8145276 Si02
#       6
#     8   8   8   8   8   8
#     4  11  23  41  65  93 129 165 220 261 311 375
#     4  11  20  40  66  85 124 172 207 247 326 391
#     4  10  22  41  65  90 124 162 206 259 322 381
#     4  10  22  38  61  95 123 154 213 270 309 369
#     4  10  23  41  67  91 126 174 210 257 322 381
#     4  10  22  39  62  90 121 165 210 255 316 375
#
# _framework density 21.569029
#
# number of rings (size 3 to 8) (size 9 to 14) (size 15 to 20)
#    0.000    1.667    1.667    3.000    0.000    5.333 
#    3.000    0.833    0.000    0.000    0.000    0.000 
#    0.000    0.000    0.000    0.000    0.000    0.000 
#
# Total GULP energy -297359.223567 kJ/mol
# GULP energy per Si atom -12389.967649 kJ/mol
# Density = 2.151994 g / cm^3
# Si number density = 21.569029 Si / 1000 Ang^3
#
#
#
# Elastic Constant Matrix: (Units=GPa)
#
#
# Indices 1 2 3 4 5 6 
#
# 1 55.9828 34.0999 14.3357 0.0000 28.2625 0.0000
# 2 34.0999 138.6001 36.1751 0.0000 14.3024 0.0000
# 3 14.3357 36.1751 122.4415 0.0000 25.0017 0.0000
# 4 0.0000 0.0000 0.0000 30.6084 0.0000 2.3102
# 5 28.2625 14.3024 25.0017 0.0000 29.9992 0.0000
# 6 0.0000 0.0000 0.0000 2.3102 0.0000 33.7423
#
#
#
# Elastic Compliance Matrix: (Units=1/GPa)
#
#
# Indices 1 2 3 4 5 6 
#
# 1 0.041009 -0.007430 0.005494 0.000000 -0.039672 0.000000
# 2 -0.007430 0.009283 -0.002890 0.000000 0.004983 0.000000
# 3 0.005494 -0.002890 0.011030 0.000000 -0.012991 0.000000
# 4 0.000000 0.000000 0.000000 0.032840 0.000000 -0.002248
# 5 -0.039672 0.004983 -0.012991 0.000000 0.079161 0.000000
# 6 0.000000 0.000000 0.000000 -0.002248 0.000000 0.029790
#
#
# Mechanical properties :
#
#
# Convention : Reuss Voigt Hill
#
# Bulk Modulus (GPa) = 19.35292 54.02732 36.69012
# Shear Modulus (GPa) = 21.74009 34.36424 28.05217
#
# Velocity S-wave (km/s) = 3.17824 3.99585 3.61026
# Velocity P-wave (km/s) = 4.73923 6.81117 5.86738
#
# Compressibility (1/GPa) = 0.05167179
#
# Stress axis : x y z
#
# Youngs Moduli (GPa) = 24.38472 107.72207 90.65774
#
# Poissons Ratio (x) = 0.80035 -0.49811
# Poissons Ratio (y) = 0.18117 0.26202
# Poissons Ratio (z) = -0.13398 0.31134
#
# Static dielectric constant tensor:
#      x y z
#    x 3.753760 0.000000 0.145030 
#    y 0.000000 4.234160 0.000000 
#    z 0.145030 0.000000 4.356370 
# 
# 
# High freq. dielectric constant tensor:
#      x y z
#    x 1.817270 0.000000 0.015070 
#    y 0.000000 1.851430 0.000000 
#    z 0.015070 0.000000 1.866920 
# 
# From -- ./inp_files/181698.got.cif
#   From: 2010.06.25/outbox.cif.g09.slc.cpg/sg15_91_cif.got.tgz:181698.got - 2010.06.28 07:06:18.
