data_PCOD8145910
_publ_section_title
;
Structure prediction by ZEFSAII (Michael W. Deem and Ramdas Pophale) SiO2 
 PCOD8145910
Probable space group: C 2/C
;
_chemical_formula_sum "Si O2"
_cell_formula_units_Z 52
_cell_length_a 18.754799
_cell_length_b 18.725048
_cell_length_c 8.431708
_cell_angle_alpha 90.000000
_cell_angle_beta 54.684573
_cell_angle_gamma 90.000000
_cell_volume 2416.192183
_symmetry_space_group_name_H-M "C 2/C"
_symmetry_group_IT_number 15
_symmetry_cell_setting 'monoclinic'
loop_
_space_group_symop_operation_xyz
x,y,z
-x,y,1/2-z
-x,-y,-z
x,-y,1/2+z
1/2+x,1/2+y,z
1/2-x,1/2+y,1/2-z
1/2-x,1/2-y,-z
1/2+x,1/2-y,1/2+z
loop_
_atom_site_type_symbol
_atom_site_label
_atom_site_fract_x
_atom_site_fract_y
_atom_site_fract_z
Si Si1 0.159977 0.320536 0.692835
Si Si2 0.940095 0.544968 0.187546
Si Si3 0.210153 0.912064 0.169671
Si Si4 0.052007 0.186963 0.842024
Si Si5 0.000000 0.752068 0.750000
Si Si6 0.808550 0.306060 0.513746
Si Si7 0.271901 0.956920 0.430598
O O1 0.099761 0.384472 0.841598
O O2 0.225386 0.350312 0.477679
O O3 0.101093 0.255947 0.705238
O O4 0.212696 0.290280 0.775371
O O5 0.864788 0.493057 0.345909
O O6 0.000000 0.574936 0.250000
O O7 0.000000 0.500000 0.000000
O O8 0.115261 0.878088 0.309844
O O9 0.254155 0.937872 0.273738
O O10 0.200749 0.983654 0.075135
O O11 0.000000 0.161351 0.750000
O O12 0.004242 0.203702 0.074835
O O13 0.087648 0.704130 0.654264
O O14 0.750000 0.250000 0.500000
O O15 0.771359 0.384615 0.530152
#
# Coordination Sequence:
#
# PCOD8145910 Si02
#       7
#     8   8   8   8   4   8   8
#     4  10  22  40  63 104 135 180 232 279 354 433
#     4  11  21  33  57  94 138 174 208 270 349 420
#     4  11  24  45  67 100 134 188 235 284 360 427
#     4  11  25  44  73  99 142 183 239 301 346 421
#     4  10  26  44  68 118 138 180 242 292 374 424
#     4  11  24  42  71  99 140 181 223 299 353 427
#     4  11  23  40  65  92 135 179 228 280 343 432
#
# _framework density 21.521467000000001
#
# number of rings (size 3 to 8) (size 9 to 14) (size 15 to 20)
#    0.000    1.231    0.000    7.385    9.692    0.000 
#    2.769    0.769    1.692    0.000    0.000    0.000 
#    0.000    0.000    0.000    0.000    0.000    0.000 
#
# Total GULP energy -322117.248387 kJ/mol
# GULP energy per Si atom -12389.124938 kJ/mol
# Density = 2.147248 g / cm^3
# Si number density = 21.521467 Si / 1000 Ang^3
#
#
#
# Elastic Constant Matrix: (Units=GPa)
#
#
# Indices 1 2 3 4 5 6 
#
# 1 99.4433 31.3648 32.2128 0.0000 14.5237 0.0000
# 2 31.3648 97.2288 24.6804 0.0000 -21.4786 0.0000
# 3 32.2128 24.6804 91.7623 0.0000 10.5846 0.0000
# 4 0.0000 0.0000 0.0000 37.1701 0.0000 -0.1991
# 5 14.5237 -21.4786 10.5846 0.0000 30.2791 0.0000
# 6 0.0000 0.0000 0.0000 -0.1991 0.0000 30.0851
#
#
#
# Elastic Compliance Matrix: (Units=1/GPa)
#
#
# Indices 1 2 3 4 5 6 
#
# 1 0.014334 -0.006480 -0.002048 0.000000 -0.010757 0.000000
# 2 -0.006480 0.017169 -0.004279 0.000000 0.016783 0.000000
# 3 -0.002048 -0.004279 0.013551 0.000000 -0.006790 0.000000
# 4 0.000000 0.000000 0.000000 0.026904 0.000000 0.000178
# 5 -0.010757 0.016783 -0.006790 0.000000 0.052464 0.000000
# 6 0.000000 0.000000 0.000000 0.000178 0.000000 0.033240
#
#
# Mechanical properties :
#
#
# Convention : Reuss Voigt Hill
#
# Bulk Modulus (GPa) = 51.44210 51.66115 51.55162
# Shear Modulus (GPa) = 26.34935 32.85193 29.60064
#
# Velocity S-wave (km/s) = 3.50284 3.91125 3.71266
# Velocity P-wave (km/s) = 6.34936 6.66736 6.51030
#
# Compressibility (1/GPa) = 0.01943933
#
# Stress axis : x y z
#
# Youngs Moduli (GPa) = 69.76215 58.24397 73.79644
#
# Poissons Ratio (x) = 0.37744 0.15116
# Poissons Ratio (y) = 0.45208 0.31576
# Poissons Ratio (z) = 0.14290 0.24922
#
# Static dielectric constant tensor:
#      x y z
#    x 4.045130 0.000000 0.435760 
#    y 0.000000 4.227070 0.000000 
#    z 0.435760 0.000000 4.040970 
# 
# 
# High freq. dielectric constant tensor:
#      x y z
#    x 1.847830 0.000000 0.017230 
#    y 0.000000 1.855160 0.000000 
#    z 0.017230 0.000000 1.839120 
# 
# From -- ./inp_files/48955.got.cif
#   From: 2010.06.25/outbox.cif.g09.slc.cpg/sg15_25_cif.got.tgz:48955.got - 2010.06.28 07:06:18.
