data_PCOD8145693
_publ_section_title
;
Structure prediction by ZEFSAII (Michael W. Deem and Ramdas Pophale) SiO2 
 PCOD8145693
Probable space group: C 2/C
;
_chemical_formula_sum "Si O2"
_cell_formula_units_Z 60
_cell_length_a 19.649588
_cell_length_b 11.766928
_cell_length_c 14.525461
_cell_angle_alpha 90.000000
_cell_angle_beta 123.781726
_cell_angle_gamma 90.000000
_cell_volume 2791.464261
_symmetry_space_group_name_H-M "C 2/C"
_symmetry_group_IT_number 15
_symmetry_cell_setting 'monoclinic'
loop_
_space_group_symop_operation_xyz
x,y,z
-x,y,1/2-z
-x,-y,-z
x,-y,1/2+z
1/2+x,1/2+y,z
1/2-x,1/2+y,1/2-z
1/2-x,1/2-y,-z
1/2+x,1/2-y,1/2+z
loop_
_atom_site_type_symbol
_atom_site_label
_atom_site_fract_x
_atom_site_fract_y
_atom_site_fract_z
Si Si1 0.500000 0.886347 0.750000
Si Si2 0.024522 0.082738 0.935007
Si Si3 0.884016 0.793378 0.224513
Si Si4 0.890848 0.708305 0.907809
Si Si5 0.314295 0.984343 0.932649
Si Si6 0.692371 0.560931 0.979540
Si Si7 0.013876 0.561472 0.916421
Si Si8 0.241113 0.348180 0.778905
O O1 0.577118 0.802915 0.811223
O O2 0.486837 0.967908 0.824752
O O3 0.099422 0.021049 0.935722
O O4 0.947217 0.110726 0.810688
O O5 0.056862 0.205804 0.990237
O O6 0.000000 0.000000 0.000000
O O7 0.815406 0.844615 0.106153
O O8 0.837965 0.734009 0.275644
O O9 0.853074 0.609970 0.945255
O O10 0.818169 0.774974 0.802236
O O11 0.950891 0.667106 0.870100
O O12 0.273342 0.946601 0.806060
O O13 0.250093 0.970971 0.969013
O O14 0.390514 0.902800 0.020274
O O15 0.740138 0.599771 0.106512
O O16 0.000000 0.500000 0.000000
#
# Coordination Sequence:
#
# PCOD8145693 Si02
#       8
#     4   8   8   8   8   8   8   8
#     4  12  22  38  70  98 126 170 234 288 338 402
#     4  11  25  42  67  98 135 182 223 280 347 410
#     4  12  21  39  65 100 129 164 231 287 340 399
#     4  10  22  41  63  94 135 168 226 276 340 398
#     4  11  22  41  65  98 133 176 224 279 347 402
#     4  11  24  39  64  97 132 166 226 285 332 403
#     4  10  22  39  65  96 132 171 217 279 348 407
#     4  11  24  37  67  95 134 172 217 287 338 403
#
# _framework density 21.494095999999999
#
# number of rings (size 3 to 8) (size 9 to 14) (size 15 to 20)
#    0.000    1.067    2.667    5.200    9.333    0.000 
#    0.000    1.333    0.000    4.800    0.000    0.000 
#    0.000    0.000    0.000    0.000    0.000    0.000 
#
# Total GULP energy -371674.213404 kJ/mol
# GULP energy per Si atom -12389.140447 kJ/mol
# Density = 2.144517 g / cm^3
# Si number density = 21.494096 Si / 1000 Ang^3
#
#
#
# Elastic Constant Matrix: (Units=GPa)
#
#
# Indices 1 2 3 4 5 6 
#
# 1 175.2892 52.0234 50.1669 0.0000 0.9709 0.0000
# 2 52.0234 63.2303 35.5477 0.0000 -7.8607 0.0000
# 3 50.1669 35.5477 76.9791 0.0000 -4.9927 0.0000
# 4 0.0000 0.0000 0.0000 14.9723 0.0000 -2.6353
# 5 0.9709 -7.8607 -4.9927 0.0000 34.0736 0.0000
# 6 0.0000 0.0000 0.0000 -2.6353 0.0000 47.7011
#
#
#
# Elastic Compliance Matrix: (Units=1/GPa)
#
#
# Indices 1 2 3 4 5 6 
#
# 1 0.008127 -0.005233 -0.003002 0.000000 -0.001879 0.000000
# 2 -0.005233 0.025155 -0.007895 0.000000 0.004796 0.000000
# 3 -0.003002 -0.007895 0.018658 0.000000 0.000998 0.000000
# 4 0.000000 0.000000 0.000000 0.067446 0.000000 0.003726
# 5 -0.001879 0.004796 0.000998 0.000000 0.030654 0.000000
# 6 0.000000 0.000000 0.000000 0.003726 0.000000 0.021170
#
#
# Mechanical properties :
#
#
# Convention : Reuss Voigt Hill
#
# Bulk Modulus (GPa) = 50.81201 65.66385 58.23793
# Shear Modulus (GPa) = 23.80613 31.20012 27.50313
#
# Velocity S-wave (km/s) = 3.33162 3.81408 3.58098
# Velocity P-wave (km/s) = 6.20410 7.07194 6.65219
#
# Compressibility (1/GPa) = 0.01968039
#
# Stress axis : x y z
#
# Youngs Moduli (GPa) = 123.03989 39.75307 53.59760
#
# Poissons Ratio (x) = 0.20802 0.16090
# Poissons Ratio (y) = 0.64384 0.42316
# Poissons Ratio (z) = 0.36937 0.31386
#
# Static dielectric constant tensor:
#      x y z
#    x 5.441810 0.000000 0.499210 
#    y 0.000000 3.412450 0.000000 
#    z 0.499210 0.000000 3.779100 
# 
# 
# High freq. dielectric constant tensor:
#      x y z
#    x 1.869890 0.000000 0.017220 
#    y 0.000000 1.802950 0.000000 
#    z 0.017220 0.000000 1.838990 
# 
# From -- ./inp_files/167699.got.cif
#   From: 2010.06.25/outbox.cif.g09.slc.cpg/sg15_84_cif.got.tgz:167699.got - 2010.06.28 07:06:18.
