data_PCOD8145444
_publ_section_title
;
Structure prediction by ZEFSAII (Michael W. Deem and Ramdas Pophale) SiO2 
 PCOD8145444
Probable space group: C 2/C
;
_chemical_formula_sum "Si O2"
_cell_formula_units_Z 52
_cell_length_a 9.484165
_cell_length_b 14.851366
_cell_length_c 30.404381
_cell_angle_alpha 90.000000
_cell_angle_beta 36.241726
_cell_angle_gamma 90.000000
_cell_volume 2531.809861
_symmetry_space_group_name_H-M "C 2/C"
_symmetry_group_IT_number 15
_symmetry_cell_setting 'monoclinic'
loop_
_space_group_symop_operation_xyz
x,y,z
-x,y,1/2-z
-x,-y,-z
x,-y,1/2+z
1/2+x,1/2+y,z
1/2-x,1/2+y,1/2-z
1/2-x,1/2-y,-z
1/2+x,1/2-y,1/2+z
loop_
_atom_site_type_symbol
_atom_site_label
_atom_site_fract_x
_atom_site_fract_y
_atom_site_fract_z
Si Si1 0.254753 0.478482 0.691996
Si Si2 0.500000 0.851677 0.250000
Si Si3 0.976736 0.940692 0.962349
Si Si4 0.028754 0.432081 0.452146
Si Si5 0.119320 0.262868 0.889843
Si Si6 0.157447 0.237792 0.454904
Si Si7 0.114083 0.058848 0.173768
O O1 0.195645 0.581207 0.723443
O O2 0.392568 0.488618 0.611219
O O3 0.408539 0.426055 0.689260
O O4 0.000000 0.426774 0.750000
O O5 0.634035 0.789288 0.181143
O O6 0.096518 0.842763 0.937122
O O7 0.699398 0.931464 0.021613
O O8 0.000000 0.000000 0.000000
O O9 0.000000 0.500000 0.500000
O O10 0.076054 0.331439 0.455356
O O11 0.255282 0.463625 0.366257
O O12 0.185622 0.365494 0.883875
O O13 0.940814 0.260746 0.893092
O O14 0.987846 0.217235 0.963940
O O15 0.000000 0.064701 0.250000
#
# Coordination Sequence:
#
# PCOD8145444 Si02
#       7
#     8   4   8   8   8   8   8
#     4  10  25  43  64  97 143 173 217 279 341 395
#     4  10  22  38  68  92 136 180 220 272 338 400
#     4  12  25  43  72 104 134 181 232 280 341 407
#     4  12  24  45  69  97 141 178 223 288 343 398
#     4  11  22  40  69 102 133 172 234 277 336 407
#     4  11  25  41  69 102 135 175 230 285 339 398
#     4  12  25  43  69 101 134 183 225 276 342 412
#
# _framework density 20.538667
#
# number of rings (size 3 to 8) (size 9 to 14) (size 15 to 20)
#    0.462    0.308    3.846    3.231    6.462    0.000 
#    0.000    0.769    0.000    0.000    0.000    0.000 
#    0.000    0.000    0.000    0.000    0.000    0.000 
#
# Total GULP energy -322410.126836 kJ/mol
# GULP energy per Si atom -12400.389494 kJ/mol
# Density = 2.049192 g / cm^3
# Si number density = 20.538667 Si / 1000 Ang^3
#
#
#
# Elastic Constant Matrix: (Units=GPa)
#
#
# Indices 1 2 3 4 5 6 
#
# 1 157.1259 47.9059 45.8708 -0.0005 -17.9395 -0.0004
# 2 47.9059 113.8292 22.2626 0.0025 -7.1011 -0.0010
# 3 45.8708 22.2626 106.5701 0.0132 -7.3438 -0.0024
# 4 -0.0005 0.0025 0.0132 40.2733 -0.0003 -8.6536
# 5 -17.9395 -7.1011 -7.3438 -0.0003 35.4406 -0.0008
# 6 -0.0004 -0.0010 -0.0024 -8.6536 -0.0008 32.5678
#
#
#
# Elastic Compliance Matrix: (Units=1/GPa)
#
#
# Indices 1 2 3 4 5 6 
#
# 1 0.008390 -0.002787 -0.002815 0.000001 0.003105 0.000000
# 2 -0.002787 0.010160 -0.000893 0.000000 0.000440 0.000000
# 3 -0.002815 -0.000893 0.010826 -0.000004 0.000639 0.000000
# 4 0.000001 0.000000 -0.000004 0.026334 0.000000 0.006997
# 5 0.003105 0.000440 0.000639 0.000000 0.030009 0.000001
# 6 0.000000 0.000000 0.000000 0.006997 0.000001 0.032564
#
#
# Mechanical properties :
#
#
# Convention : Reuss Voigt Hill
#
# Bulk Modulus (GPa) = 61.02485 67.73377 64.37931
# Shear Modulus (GPa) = 36.56710 39.08873 37.82792
#
# Velocity S-wave (km/s) = 4.22406 4.36728 4.29626
# Velocity P-wave (km/s) = 7.31894 7.64729 7.48492
#
# Compressibility (1/GPa) = 0.01638677
#
# Stress axis : x y z
#
# Youngs Moduli (GPa) = 119.18322 98.42538 92.37190
#
# Poissons Ratio (x) = 0.27430 0.26006
# Poissons Ratio (y) = 0.33214 0.08245
# Poissons Ratio (z) = 0.33554 0.08785
#
# Static dielectric constant tensor:
#      x y z
#    x 3.759740 0.000000 -0.146620 
#    y 0.000000 3.760140 0.000000 
#    z -0.146620 0.000000 3.831230 
# 
# 
# High freq. dielectric constant tensor:
#      x y z
#    x 1.799280 0.000000 -0.015790 
#    y 0.000000 1.803760 0.000000 
#    z -0.015790 0.000000 1.812380 
# 
# From -- ./inp_files/308186.got.cif
#   From: 2010.06.25/outbox.cif.g09.slc.cpg/sg15_155_cif.got.tgz:308186.got - 2010.06.28 07:06:18.
