data_PCOD8145014
_publ_section_title
;
Structure prediction by ZEFSAII (Michael W. Deem and Ramdas Pophale) SiO2 
 PCOD8145014
Probable space group: C 2/C
;
_chemical_formula_sum "Si O2"
_cell_formula_units_Z 56
_cell_length_a 14.301624
_cell_length_b 16.721857
_cell_length_c 21.117181
_cell_angle_alpha 90.000000
_cell_angle_beta 147.509038
_cell_angle_gamma 90.000000
_cell_volume 2712.781247
_symmetry_space_group_name_H-M "C 2/C"
_symmetry_group_IT_number 15
_symmetry_cell_setting 'monoclinic'
loop_
_space_group_symop_operation_xyz
x,y,z
-x,y,1/2-z
-x,-y,-z
x,-y,1/2+z
1/2+x,1/2+y,z
1/2-x,1/2+y,1/2-z
1/2-x,1/2-y,-z
1/2+x,1/2-y,1/2+z
loop_
_atom_site_type_symbol
_atom_site_label
_atom_site_fract_x
_atom_site_fract_y
_atom_site_fract_z
Si Si1 0.538427 0.093716 0.164624
Si Si2 0.000000 0.294965 0.750000
Si Si3 0.000000 0.970682 0.250000
Si Si4 0.388161 0.686936 0.052205
Si Si5 0.578910 0.919776 0.364088
Si Si6 0.757541 0.340421 0.418597
Si Si7 0.991300 0.667892 0.548407
Si Si8 0.306121 0.602025 0.211049
O O1 0.599264 0.146291 0.258467
O O2 0.704949 0.075969 0.216601
O O3 0.441252 0.013034 0.130721
O O4 0.413669 0.155343 0.056753
O O5 0.150631 0.241061 0.867196
O O6 0.864637 0.915253 0.135522
O O7 0.899805 0.021835 0.244202
O O8 0.545117 0.668053 0.190490
O O9 0.250000 0.750000 0.000000
O O10 0.283701 0.605359 0.975812
O O11 0.470924 0.735132 0.040113
O O12 0.500000 0.899970 0.250000
O O13 0.488041 0.869781 0.369268
O O14 0.833771 0.349279 0.390808
O O15 0.820543 0.631280 0.417105
#
# Coordination Sequence:
#
# PCOD8145014 Si02
#       8
#     8   4   4   8   8   8   8   8
#     4  11  22  41  63  86 129 160 204 251 309 369
#     4  11  22  40  62  91 122 166 202 251 308 370
#     4  11  20  36  62  91 120 146 216 249 302 352
#     4  10  22  36  61  88 125 155 202 248 304 362
#     4  11  23  39  61  89 125 169 194 250 317 364
#     4  10  22  39  65  91 116 161 208 260 299 356
#     4  10  22  39  63  91 123 157 210 256 303 361
#     4  11  22  38  64  93 118 164 206 259 300 360
#
# _framework density 20.643021000000001
#
# number of rings (size 3 to 8) (size 9 to 14) (size 15 to 20)
#    0.000    1.429    0.714    5.571    4.000    2.286 
#    0.000    0.714    6.286    0.000    0.000    0.000 
#    0.000    0.000    0.000    0.000    0.000    0.000 
#
# Total GULP energy -347033.548693 kJ/mol
# GULP energy per Si atom -12394.055310 kJ/mol
# Density = 2.059604 g / cm^3
# Si number density = 20.643021 Si / 1000 Ang^3
#
#
#
# Elastic Constant Matrix: (Units=GPa)
#
#
# Indices 1 2 3 4 5 6 
#
# 1 95.9547 52.9706 37.4579 0.0000 -5.9477 -0.0001
# 2 52.9706 134.9926 31.2087 -0.0002 3.8957 -0.0002
# 3 37.4579 31.2087 77.6665 -0.0004 0.4779 -0.0003
# 4 0.0000 -0.0002 -0.0004 -16.3617 0.0001 -9.0853
# 5 -5.9477 3.8957 0.4779 0.0001 31.5571 -0.0001
# 6 -0.0001 -0.0002 -0.0003 -9.0853 -0.0001 30.9002
#
#
#
# Elastic Compliance Matrix: (Units=1/GPa)
#
#
# Indices 1 2 3 4 5 6 
#
# 1 0.015518 -0.004915 -0.005532 0.000000 0.003615 0.000000
# 2 -0.004915 0.009752 -0.001535 0.000000 -0.002107 0.000000
# 3 -0.005532 -0.001535 0.016167 0.000000 -0.001098 0.000000
# 4 0.000000 0.000000 0.000000 -0.052541 0.000000 -0.015448
# 5 0.003615 -0.002107 -0.001098 0.000000 0.032647 0.000000
# 6 0.000000 0.000000 0.000000 -0.015448 0.000000 0.027820
#
#
# Mechanical properties :
#
#
# Convention : Reuss Voigt Hill
#
# Bulk Modulus (GPa) = 57.22823 61.32090 59.27457
# Shear Modulus (GPa) = 63.16950 21.68421 42.42686
#
# Velocity S-wave (km/s) = 5.53781 3.24456 4.53842
# Velocity P-wave (km/s) = 8.28690 6.61862 7.49930
#
# Compressibility (1/GPa) = 0.01747389
#
# Stress axis : x y z
#
# Youngs Moduli (GPa) = 64.44044 102.54187 61.85381
#
# Poissons Ratio (x) = 0.50397 0.34215
# Poissons Ratio (y) = 0.31671 0.09497
# Poissons Ratio (z) = 0.35646 0.15744
#
# Static dielectric constant tensor:
#      x y z
#    x 4.024190 0.000000 0.002350 
#    y 0.000000 3.983510 -0.000010 
#    z 0.002350 -0.000010 4.220270 
# 
# 
# High freq. dielectric constant tensor:
#      x y z
#    x 1.809100 0.000000 0.006630 
#    y 0.000000 1.815280 0.000000 
#    z 0.006630 0.000000 1.798980 
# 
# From -- ./inp_files/245204.got.cif
#   From: 2010.06.25/outbox.cif.g09.slc.cpg/sg15_123_cif.got.tgz:245204.got - 2010.06.28 07:06:18.
