data_PCOD8145945
_publ_section_title
;
Structure prediction by ZEFSAII (Michael W. Deem and Ramdas Pophale) SiO2 
 PCOD8145945
Probable space group: C 2/C
;
_chemical_formula_sum "Si O2"
_cell_formula_units_Z 60
_cell_length_a 22.196858
_cell_length_b 24.448033
_cell_length_c 9.125177
_cell_angle_alpha 90.000000
_cell_angle_beta 35.070142
_cell_angle_gamma 90.000000
_cell_volume 2845.288684
_symmetry_space_group_name_H-M "C 2/C"
_symmetry_group_IT_number 15
_symmetry_cell_setting 'monoclinic'
loop_
_space_group_symop_operation_xyz
x,y,z
-x,y,1/2-z
-x,-y,-z
x,-y,1/2+z
1/2+x,1/2+y,z
1/2-x,1/2+y,1/2-z
1/2-x,1/2-y,-z
1/2+x,1/2-y,1/2+z
loop_
_atom_site_type_symbol
_atom_site_label
_atom_site_fract_x
_atom_site_fract_y
_atom_site_fract_z
Si Si1 0.913112 0.876568 0.249237
Si Si2 0.000000 0.735099 0.750000
Si Si3 0.389107 0.157903 0.457909
Si Si4 0.353584 0.612753 0.256341
Si Si5 0.629747 0.740746 0.711148
Si Si6 0.621372 0.523479 0.488938
Si Si7 0.685121 0.196372 0.583582
Si Si8 0.813808 0.905819 0.154036
O O1 0.870199 0.816817 0.374773
O O2 0.853628 0.925248 0.453727
O O3 0.898350 0.892087 0.108472
O O4 0.036438 0.872260 0.039518
O O5 0.905638 0.702138 0.858779
O O6 0.059310 0.767647 0.500033
O O7 0.500000 0.125963 0.250000
O O8 0.410063 0.209806 0.310061
O O9 0.365224 0.176255 0.667905
O O10 0.300285 0.117294 0.571857
O O11 0.344996 0.547417 0.238327
O O12 0.263723 0.650279 0.362520
O O13 0.353030 0.624756 0.430096
O O14 0.750000 0.750000 0.500000
O O15 0.693567 0.470483 0.366857
O O16 0.500000 0.505418 0.750000
O O17 0.750000 0.250000 0.500000
#
# Coordination Sequence:
#
# PCOD8145945 Si02
#       8
#     8   4   8   8   8   8   8   8
#     4  11  23  37  64  98 133 169 212 273 338 407
#     4  12  26  42  68  94 140 186 224 270 332 412
#     4  11  24  44  63  91 138 178 220 280 327 393
#     4  10  23  38  61  96 129 166 216 267 338 395
#     4  12  25  42  66 101 135 178 224 270 336 409
#     4  10  22  40  63  97 132 166 212 281 341 399
#     4  11  24  41  65  93 133 176 220 272 330 404
#     4  11  22  40  67  88 129 176 220 269 332 396
#
# _framework density 21.087491
#
# number of rings (size 3 to 8) (size 9 to 14) (size 15 to 20)
#    0.000    1.067    2.667    3.600    7.467    2.667 
#    0.000    0.000    1.467    2.400    0.000    0.000 
#    0.000    0.000    0.000    0.000    0.000    0.000 
#
# Total GULP energy -371695.289573 kJ/mol
# GULP energy per Si atom -12389.842986 kJ/mol
# Density = 2.103950 g / cm^3
# Si number density = 21.087491 Si / 1000 Ang^3
#
#
#
# Elastic Constant Matrix: (Units=GPa)
#
#
# Indices 1 2 3 4 5 6 
#
# 1 85.6474 28.1790 21.2232 0.0000 -10.6276 0.0000
# 2 28.1790 138.9784 42.0507 0.0000 -15.9277 0.0000
# 3 21.2232 42.0507 100.2131 0.0000 -7.1512 0.0000
# 4 0.0000 0.0000 0.0000 27.5799 0.0000 -0.3158
# 5 -10.6276 -15.9277 -7.1512 0.0000 39.3319 0.0000
# 6 0.0000 0.0000 0.0000 -0.3158 0.0000 29.5458
#
#
#
# Elastic Compliance Matrix: (Units=1/GPa)
#
#
# Indices 1 2 3 4 5 6 
#
# 1 0.013028 -0.001808 -0.001825 0.000000 0.002456 0.000000
# 2 -0.001808 0.008796 -0.003129 0.000000 0.002504 0.000000
# 3 -0.001825 -0.003129 0.011705 0.000000 0.000368 0.000000
# 4 0.000000 0.000000 0.000000 0.036263 0.000000 0.000388
# 5 0.002456 0.002504 0.000368 0.000000 0.027169 0.000000
# 6 0.000000 0.000000 0.000000 0.000388 0.000000 0.033850
#
#
# Mechanical properties :
#
#
# Convention : Reuss Voigt Hill
#
# Bulk Modulus (GPa) = 49.99091 56.41608 53.20350
# Shear Modulus (GPa) = 33.11212 34.85058 33.98135
#
# Velocity S-wave (km/s) = 3.96691 4.06971 4.01864
# Velocity P-wave (km/s) = 6.68877 6.99248 6.84231
#
# Compressibility (1/GPa) = 0.02000364
#
# Stress axis : x y z
#
# Youngs Moduli (GPa) = 76.76020 113.69151 85.43664
#
# Poissons Ratio (x) = 0.20552 0.15594
# Poissons Ratio (y) = 0.13876 0.26735
# Poissons Ratio (z) = 0.14010 0.35577
#
# Static dielectric constant tensor:
#      x y z
#    x 4.235760 0.000000 0.128870 
#    y 0.000000 4.099780 0.000000 
#    z 0.128870 0.000000 4.006360 
# 
# 
# High freq. dielectric constant tensor:
#      x y z
#    x 1.833610 0.000000 0.014320 
#    y 0.000000 1.815770 0.000000 
#    z 0.014320 0.000000 1.829460 
# 
# From -- ./inp_files/58721.got.cif
#   From: 2010.06.25/outbox.cif.g09.slc.cpg/sg15_30_cif.got.tgz:58721.got - 2010.06.28 07:06:18.
