data_PCOD8145876
_publ_section_title
;
Structure prediction by ZEFSAII (Michael W. Deem and Ramdas Pophale) SiO2 
 PCOD8145876
Probable space group: C 2/C
;
_chemical_formula_sum "Si O2"
_cell_formula_units_Z 56
_cell_length_a 12.697950
_cell_length_b 9.956318
_cell_length_c 29.277528
_cell_angle_alpha 90.000000
_cell_angle_beta 49.915592
_cell_angle_gamma 90.000000
_cell_volume 2831.933706
_symmetry_space_group_name_H-M "C 2/C"
_symmetry_group_IT_number 15
_symmetry_cell_setting 'monoclinic'
loop_
_space_group_symop_operation_xyz
x,y,z
-x,y,1/2-z
-x,-y,-z
x,-y,1/2+z
1/2+x,1/2+y,z
1/2-x,1/2+y,1/2-z
1/2-x,1/2-y,-z
1/2+x,1/2-y,1/2+z
loop_
_atom_site_type_symbol
_atom_site_label
_atom_site_fract_x
_atom_site_fract_y
_atom_site_fract_z
Si Si1 0.547295 0.325665 0.449306
Si Si2 0.816235 0.912349 0.572678
Si Si3 0.583690 0.124273 0.362712
Si Si4 0.430786 0.779124 0.815463
Si Si5 0.212082 0.830670 0.570630
Si Si6 0.624757 0.465670 0.685360
Si Si7 0.861637 0.569694 0.948558
O O1 0.401536 0.310211 0.516450
O O2 0.578974 0.484041 0.432079
O O3 0.547032 0.259700 0.399926
O O4 0.657999 0.254366 0.449769
O O5 0.724123 0.834961 0.635491
O O6 0.712913 0.997190 0.571593
O O7 0.534158 0.164563 0.325816
O O8 0.741148 0.073063 0.321760
O O9 0.508279 0.002462 0.410414
O O10 0.500000 0.834911 0.750000
O O11 0.407679 0.619922 0.817484
O O12 0.128336 0.892394 0.635656
O O13 0.114479 0.727937 0.569662
O O14 0.272050 0.945703 0.520093
O O15 0.500000 0.406217 0.750000
#
# Coordination Sequence:
#
# PCOD8145876 Si02
#       7
#     8   8   8   8   8   8   8
#     4   9  19  34  57  90 114 152 198 245 307 366
#     4   9  19  36  56  85 123 149 197 251 299 362
#     4  10  22  40  62  86 117 158 204 246 312 360
#     4  10  23  43  59  87 123 158 204 251 295 373
#     4   9  19  36  56  85 123 149 197 251 299 362
#     4  10  23  43  59  87 123 158 204 251 295 373
#     4   9  19  34  57  90 114 152 198 245 307 366
#
# _framework density 19.774474999999999
#
# number of rings (size 3 to 8) (size 9 to 14) (size 15 to 20)
#    0.000    2.571    0.000    0.000    6.000    2.286 
#   10.286   10.000    0.000    0.000    0.000    0.000 
#    0.000    0.000    0.000    0.000    0.000    0.000 
#
# Total GULP energy -346937.060562 kJ/mol
# GULP energy per Si atom -12390.609306 kJ/mol
# Density = 1.972947 g / cm^3
# Si number density = 19.774475 Si / 1000 Ang^3
#
#
#
# Elastic Constant Matrix: (Units=GPa)
#
#
# Indices 1 2 3 4 5 6 
#
# 1 62.9316 29.3433 50.7240 0.0000 -5.5487 0.0000
# 2 29.3433 66.9960 51.0745 0.0000 -6.1887 0.0000
# 3 50.7240 51.0745 169.2106 0.0000 -15.3221 0.0000
# 4 0.0000 0.0000 0.0000 31.6033 0.0000 -1.6360
# 5 -5.5487 -6.1887 -15.3221 0.0000 35.6755 0.0000
# 6 0.0000 0.0000 0.0000 -1.6360 0.0000 21.4482
#
#
#
# Elastic Compliance Matrix: (Units=1/GPa)
#
#
# Indices 1 2 3 4 5 6 
#
# 1 0.022779 -0.006187 -0.004929 0.000000 0.000353 0.000000
# 2 -0.006187 0.021095 -0.004441 0.000000 0.000790 0.000000
# 3 -0.004929 -0.004441 0.008936 0.000000 0.002301 0.000000
# 4 0.000000 0.000000 0.000000 0.031768 0.000000 0.002423
# 5 0.000353 0.000790 0.002301 0.000000 0.029210 0.000000
# 6 0.000000 0.000000 0.000000 0.002423 0.000000 0.046809
#
#
# Mechanical properties :
#
#
# Convention : Reuss Voigt Hill
#
# Bulk Modulus (GPa) = 46.09118 62.38022 54.23570
# Shear Modulus (GPa) = 25.13289 28.94515 27.03902
#
# Velocity S-wave (km/s) = 3.56894 3.83007 3.70181
# Velocity P-wave (km/s) = 6.35155 7.15357 6.76445
#
# Compressibility (1/GPa) = 0.02169612
#
# Stress axis : x y z
#
# Youngs Moduli (GPa) = 43.90011 47.40559 111.90367
#
# Poissons Ratio (x) = 0.29328 0.55159
# Poissons Ratio (y) = 0.27159 0.49698
# Poissons Ratio (z) = 0.21639 0.21053
#
# Static dielectric constant tensor:
#      x y z
#    x 3.648760 0.000000 -0.105540 
#    y 0.000000 3.956450 0.000000 
#    z -0.105540 0.000000 3.786390 
# 
# 
# High freq. dielectric constant tensor:
#      x y z
#    x 1.762980 0.000000 -0.002380 
#    y 0.000000 1.770560 0.000000 
#    z -0.002380 0.000000 1.773490 
# 
# From -- ./inp_files/312864.got.cif
#   From: 2010.06.25/outbox.cif.g09.slc.cpg/sg15_157_cif.got.tgz:312864.got - 2010.06.28 07:06:18.
