data_PCOD8145366
_publ_section_title
;
Structure prediction by ZEFSAII (Michael W. Deem and Ramdas Pophale) SiO2 
 PCOD8145366
Probable space group: C 2/C
;
_chemical_formula_sum "Si O2"
_cell_formula_units_Z 32
_cell_length_a 19.290796
_cell_length_b 7.567970
_cell_length_c 17.458950
_cell_angle_alpha 90.000000
_cell_angle_beta 144.383827
_cell_angle_gamma 90.000000
_cell_volume 1484.340673
_symmetry_space_group_name_H-M "C 2/C"
_symmetry_group_IT_number 15
_symmetry_cell_setting 'monoclinic'
loop_
_space_group_symop_operation_xyz
x,y,z
-x,y,1/2-z
-x,-y,-z
x,-y,1/2+z
1/2+x,1/2+y,z
1/2-x,1/2+y,1/2-z
1/2-x,1/2-y,-z
1/2+x,1/2-y,1/2+z
loop_
_atom_site_type_symbol
_atom_site_label
_atom_site_fract_x
_atom_site_fract_y
_atom_site_fract_z
Si Si1 0.279997 0.797370 0.440950
Si Si2 0.917898 0.375729 0.020406
Si Si3 0.395489 0.494769 0.467129
Si Si4 0.356580 0.082511 0.292278
O O1 0.250000 0.750000 0.500000
O O2 0.392952 0.677473 0.513912
O O3 0.166260 0.749890 0.285001
O O4 0.314278 0.003293 0.463852
O O5 0.909291 0.170995 0.038887
O O6 0.905652 0.355659 0.917633
O O7 0.046397 0.452361 0.158957
O O8 0.500000 0.500000 0.500000
O O9 0.267216 0.474156 0.308864
#
# Coordination Sequence:
#
# PCOD8145366 Si02
#       4
#     8   8   8   8
#     4  10  24  42  63  96 137 169 218 280 340 392
#     4  11  20  40  67  90 135 172 214 285 320 392
#     4  10  22  38  64  95 125 170 229 262 328 403
#     4   9  22  39  61  98 126 169 226 266 326 401
#
# _framework density 21.558392999999999
#
# number of rings (size 3 to 8) (size 9 to 14) (size 15 to 20)
#    1.500    0.500    0.000    4.500    3.500    2.000 
#    0.000    0.000    0.000    0.000    0.000    0.000 
#    0.000    0.000    0.000    0.000    0.000    0.000 
#
# Total GULP energy -198251.601933 kJ/mol
# GULP energy per Si atom -12390.725121 kJ/mol
# Density = 2.150933 g / cm^3
# Si number density = 21.558393 Si / 1000 Ang^3
#
#
#
# Elastic Constant Matrix: (Units=GPa)
#
#
# Indices 1 2 3 4 5 6 
#
# 1 102.3595 18.8368 12.5383 0.0000 -1.8555 0.0000
# 2 18.8368 126.3996 6.3931 0.0000 5.9789 0.0000
# 3 12.5383 6.3931 94.1338 0.0000 13.8352 0.0000
# 4 0.0000 0.0000 0.0000 27.9889 0.0000 3.3633
# 5 -1.8555 5.9789 13.8352 0.0000 21.2320 0.0000
# 6 0.0000 0.0000 0.0000 3.3633 0.0000 24.5476
#
#
#
# Elastic Compliance Matrix: (Units=1/GPa)
#
#
# Indices 1 2 3 4 5 6 
#
# 1 0.010299 -0.001566 -0.001617 0.000000 0.002395 0.000000
# 2 -0.001566 0.008261 0.000011 0.000000 -0.002470 0.000000
# 3 -0.001617 0.000011 0.012009 0.000000 -0.007970 0.000000
# 4 0.000000 0.000000 0.000000 0.036327 0.000000 -0.004977
# 5 0.002395 -0.002470 -0.007970 0.000000 0.053197 0.000000
# 6 0.000000 0.000000 0.000000 -0.004977 0.000000 0.041419
#
#
# Mechanical properties :
#
#
# Convention : Reuss Voigt Hill
#
# Bulk Modulus (GPa) = 41.28258 44.26992 42.77625
# Shear Modulus (GPa) = 28.41990 33.76201 31.09096
#
# Velocity S-wave (km/s) = 3.63475 3.96166 3.80172
# Velocity P-wave (km/s) = 6.06679 6.44250 6.25746
#
# Compressibility (1/GPa) = 0.02422330
#
# Stress axis : x y z
#
# Youngs Moduli (GPa) = 97.09413 121.04858 83.26921
#
# Poissons Ratio (x) = 0.18960 0.13468
# Poissons Ratio (y) = 0.15208 -0.00088
# Poissons Ratio (z) = 0.15705 -0.00129
#
# Static dielectric constant tensor:
#      x y z
#    x 3.362890 0.000000 0.159350 
#    y 0.000000 4.423140 0.000000 
#    z 0.159350 0.000000 3.835970 
# 
# 
# High freq. dielectric constant tensor:
#      x y z
#    x 1.803010 0.000000 0.019990 
#    y 0.000000 1.856560 0.000000 
#    z 0.019990 0.000000 1.842000 
# 
# From -- ./inp_files/213006.got.cif
#   From: 2010.06.25/outbox.cif.g09.slc.cpg/sg15_107_cif.got.tgz:213006.got - 2010.06.28 07:06:18.
