data_PCOD8145856
_publ_section_title
;
Structure prediction by ZEFSAII (Michael W. Deem and Ramdas Pophale) SiO2 
 PCOD8145856
Probable space group: C 2/C
;
_chemical_formula_sum "Si O2"
_cell_formula_units_Z 40
_cell_length_a 26.331200
_cell_length_b 7.697676
_cell_length_c 10.345020
_cell_angle_alpha 90.000000
_cell_angle_beta 98.930828
_cell_angle_gamma 90.000000
_cell_volume 2071.401373
_symmetry_space_group_name_H-M "C 2/C"
_symmetry_group_IT_number 15
_symmetry_cell_setting 'monoclinic'
loop_
_space_group_symop_operation_xyz
x,y,z
-x,y,1/2-z
-x,-y,-z
x,-y,1/2+z
1/2+x,1/2+y,z
1/2-x,1/2+y,1/2-z
1/2-x,1/2-y,-z
1/2+x,1/2-y,1/2+z
loop_
_atom_site_type_symbol
_atom_site_label
_atom_site_fract_x
_atom_site_fract_y
_atom_site_fract_z
Si Si1 0.127239 0.190948 0.696196
Si Si2 0.060097 0.522077 0.259265
Si Si3 0.309520 0.787962 0.021785
Si Si4 0.620894 0.697487 0.213132
Si Si5 0.854897 0.647713 0.042586
O O1 0.082199 0.337137 0.663338
O O2 0.163794 0.189330 0.586878
O O3 0.101508 0.001355 0.705201
O O4 0.160675 0.236355 0.838298
O O5 0.072976 0.325720 0.220084
O O6 0.088419 0.562432 0.407199
O O7 0.000000 0.546177 0.250000
O O8 0.314119 0.994732 0.006868
O O9 0.250000 0.750000 0.000000
O O10 0.334547 0.724608 0.164821
O O11 0.645245 0.734458 0.083374
#
# Coordination Sequence:
#
# PCOD8145856 Si02
#       5
#     8   8   8   8   8
#     4  10  22  40  61  90 127 158 203 258 301 372
#     4   9  21  40  65  89 128 163 205 255 314 360
#     4  11  22  40  64  89 120 167 207 253 314 369
#     4  11  21  40  62  90 127 159 205 258 303 369
#     4   9  20  42  62  85 131 154 203 258 302 362
#
# _framework density 19.310597999999999
#
# number of rings (size 3 to 8) (size 9 to 14) (size 15 to 20)
#    1.200    0.800    2.000    1.200    0.000    4.800 
#    0.000    4.000    0.000    0.000    0.000    0.000 
#    0.000    0.000    0.000    0.000    0.000    0.000 
#
# Total GULP energy -247866.967885 kJ/mol
# GULP energy per Si atom -12393.348394 kJ/mol
# Density = 1.926665 g / cm^3
# Si number density = 19.310598 Si / 1000 Ang^3
#
#
#
# Elastic Constant Matrix: (Units=GPa)
#
#
# Indices 1 2 3 4 5 6 
#
# 1 132.7850 43.3008 32.6424 0.0000 1.0688 0.0000
# 2 43.3008 156.3397 25.5896 0.0000 -4.0069 0.0000
# 3 32.6424 25.5896 123.9497 0.0000 -13.6995 0.0000
# 4 0.0000 0.0000 0.0000 23.3790 0.0000 -8.1684
# 5 1.0688 -4.0069 -13.6995 0.0000 19.7879 0.0000
# 6 0.0000 0.0000 0.0000 -8.1684 0.0000 9.5870
#
#
#
# Elastic Compliance Matrix: (Units=1/GPa)
#
#
# Indices 1 2 3 4 5 6 
#
# 1 0.008773 -0.002142 -0.002131 0.000000 -0.002383 0.000000
# 2 -0.002142 0.007146 -0.000800 0.000000 0.001009 0.000000
# 3 -0.002131 -0.000800 0.009517 0.000000 0.006542 0.000000
# 4 0.000000 0.000000 0.000000 0.060903 0.000000 0.051891
# 5 -0.002383 0.001009 0.006542 0.000000 0.055398 0.000000
# 6 0.000000 0.000000 0.000000 0.051891 0.000000 0.148520
#
#
# Mechanical properties :
#
#
# Convention : Reuss Voigt Hill
#
# Bulk Modulus (GPa) = 65.40259 68.45999 66.93129
# Shear Modulus (GPa) = 16.36657 31.32024 23.84341
#
# Velocity S-wave (km/s) = 2.91442 4.03168 3.51769
# Velocity P-wave (km/s) = 6.72810 7.56317 7.15783
#
# Compressibility (1/GPa) = 0.01528991
#
# Stress axis : x y z
#
# Youngs Moduli (GPa) = 113.99111 139.93195 105.07167
#
# Poissons Ratio (x) = 0.29972 0.22396
# Poissons Ratio (y) = 0.24416 0.08403
# Poissons Ratio (z) = 0.24297 0.11191
#
# Static dielectric constant tensor:
#      x y z
#    x 3.044050 0.000000 -0.075210 
#    y 0.000000 3.663140 0.000000 
#    z -0.075210 0.000000 3.586940 
# 
# 
# High freq. dielectric constant tensor:
#      x y z
#    x 1.708840 0.000000 -0.009600 
#    y 0.000000 1.765610 0.000000 
#    z -0.009600 0.000000 1.760920 
# 
# From -- ./inp_files/115981.got.cif
#   From: 2010.06.25/outbox.cif.g09.slc.cpg/sg15_58_cif.got.tgz:115981.got - 2010.06.28 07:06:18.
