data_PCOD8145094
_publ_section_title
;
Structure prediction by ZEFSAII (Michael W. Deem and Ramdas Pophale) SiO2 
 PCOD8145094
Probable space group: C 2/C
;
_chemical_formula_sum "Si O2"
_cell_formula_units_Z 48
_cell_length_a 13.043967
_cell_length_b 25.030945
_cell_length_c 17.119241
_cell_angle_alpha 90.000000
_cell_angle_beta 154.598197
_cell_angle_gamma 90.000000
_cell_volume 2397.683440
_symmetry_space_group_name_H-M "C 2/C"
_symmetry_group_IT_number 15
_symmetry_cell_setting 'monoclinic'
loop_
_space_group_symop_operation_xyz
x,y,z
-x,y,1/2-z
-x,-y,-z
x,-y,1/2+z
1/2+x,1/2+y,z
1/2-x,1/2+y,1/2-z
1/2-x,1/2-y,-z
1/2+x,1/2-y,1/2+z
loop_
_atom_site_type_symbol
_atom_site_label
_atom_site_fract_x
_atom_site_fract_y
_atom_site_fract_z
Si Si1 0.167360 0.259775 0.171806
Si Si2 0.696115 0.323135 0.819332
Si Si3 0.174243 0.213110 0.019767
Si Si4 0.662040 0.072776 0.162162
Si Si5 0.750948 0.093618 0.400718
Si Si6 0.353440 0.463926 0.226046
O O1 0.102843 0.208503 0.179591
O O2 0.287620 0.241991 0.172590
O O3 0.398925 0.291570 0.361529
O O4 0.946506 0.299373 0.019943
O O5 0.500000 0.316421 0.750000
O O6 0.735883 0.385122 0.829332
O O7 0.268926 0.153107 0.076266
O O8 0.250000 0.250000 0.000000
O O9 0.765451 0.090764 0.317124
O O10 0.763780 0.015494 0.210007
O O11 0.372044 0.072154 0.957231
O O12 0.500000 0.064458 0.250000
O O13 0.980130 0.066561 0.597678
O O14 0.500000 0.480134 0.250000
#
# Coordination Sequence:
#
# PCOD8145094 Si02
#       6
#     8   8   8   8   8   8
#     4  10  22  37  59  89 126 164 211 261 319 382
#     4  11  22  41  63  86 121 168 217 268 324 385
#     4  11  22  37  60  96 133 169 208 258 323 402
#     4  11  24  44  66  94 128 170 218 273 327 392
#     4  12  23  40  66  94 133 172 210 266 337 391
#     4  11  24  43  68  95 127 168 218 273 332 389
#
# _framework density 20.019324000000001
#
# number of rings (size 3 to 8) (size 9 to 14) (size 15 to 20)
#    0.000    1.000    3.333    4.000    2.333    1.333 
#    0.000    0.000    0.000    0.000    0.000    0.000 
#    0.000    0.000    0.000    0.000    0.000    0.000 
#
# Total GULP energy -297449.436338 kJ/mol
# GULP energy per Si atom -12393.726514 kJ/mol
# Density = 1.997376 g / cm^3
# Si number density = 20.019324 Si / 1000 Ang^3
#
#
#
# Elastic Constant Matrix: (Units=GPa)
#
#
# Indices 1 2 3 4 5 6 
#
# 1 126.3577 36.0105 47.3556 -0.0005 -1.6901 0.0000
# 2 36.0105 100.5989 52.0193 -0.0025 -1.0802 -0.0013
# 3 47.3556 52.0193 122.1011 0.0014 3.3636 0.0028
# 4 -0.0005 -0.0025 0.0014 4.5537 0.0011 -1.4220
# 5 -1.6901 -1.0802 3.3636 0.0011 29.8805 0.0015
# 6 0.0000 -0.0013 0.0028 -1.4220 0.0015 34.9882
#
#
#
# Elastic Compliance Matrix: (Units=1/GPa)
#
#
# Indices 1 2 3 4 5 6 
#
# 1 0.009561 -0.001905 -0.002919 0.000001 0.000801 0.000000
# 2 -0.001905 0.013163 -0.004895 0.000009 0.000919 0.000001
# 3 -0.002919 -0.004895 0.011452 -0.000007 -0.001631 -0.000001
# 4 0.000001 0.000009 -0.000007 0.222426 -0.000008 0.009040
# 5 0.000801 0.000919 -0.001631 -0.000008 0.033729 -0.000002
# 6 0.000000 0.000001 -0.000001 0.009040 -0.000002 0.028948
#
#
# Mechanical properties :
#
#
# Convention : Reuss Voigt Hill
#
# Bulk Modulus (GPa) = 67.84037 68.86983 68.35510
# Shear Modulus (GPa) = 14.55054 28.12930 21.33992
#
# Velocity S-wave (km/s) = 2.69889 3.75254 3.26846
# Velocity P-wave (km/s) = 6.60856 7.29738 6.96150
#
# Compressibility (1/GPa) = 0.01474049
#
# Stress axis : x y z
#
# Youngs Moduli (GPa) = 104.58613 75.97006 87.31964
#
# Poissons Ratio (x) = 0.14470 0.25488
# Poissons Ratio (y) = 0.19920 0.42739
# Poissons Ratio (z) = 0.30528 0.37184
#
# Static dielectric constant tensor:
#      x y z
#    x 3.547040 0.000000 -0.026600 
#    y 0.000000 3.475290 -0.000010 
#    z -0.026600 -0.000010 3.986220 
# 
# 
# High freq. dielectric constant tensor:
#      x y z
#    x 1.786300 0.000000 0.004150 
#    y 0.000000 1.773300 0.000000 
#    z 0.004150 0.000000 1.805810 
# 
# From -- ./inp_files/148691.got.cif
#   From: 2010.06.25/outbox.cif.g09.slc.cpg/sg15_75_cif.got.tgz:148691.got - 2010.06.28 07:06:18.
