data_PCOD8145321
_publ_section_title
;
Structure prediction by ZEFSAII (Michael W. Deem and Ramdas Pophale) SiO2 
 PCOD8145321
Probable space group: C 2/C
;
_chemical_formula_sum "Si O2"
_cell_formula_units_Z 64
_cell_length_a 21.144380
_cell_length_b 11.492517
_cell_length_c 26.802728
_cell_angle_alpha 90.000000
_cell_angle_beta 29.833849
_cell_angle_gamma 90.000000
_cell_volume 3240.189685
_symmetry_space_group_name_H-M "C 2/C"
_symmetry_group_IT_number 15
_symmetry_cell_setting 'monoclinic'
loop_
_space_group_symop_operation_xyz
x,y,z
-x,y,1/2-z
-x,-y,-z
x,-y,1/2+z
1/2+x,1/2+y,z
1/2-x,1/2+y,1/2-z
1/2-x,1/2-y,-z
1/2+x,1/2-y,1/2+z
loop_
_atom_site_type_symbol
_atom_site_label
_atom_site_fract_x
_atom_site_fract_y
_atom_site_fract_z
Si Si1 0.376761 0.759986 0.775663
Si Si2 0.874960 0.000588 0.304376
Si Si3 0.683936 0.670564 0.244470
Si Si4 0.595043 0.281289 0.560430
Si Si5 0.244765 0.559637 0.488353
Si Si6 0.664730 0.601715 0.366620
Si Si7 0.627445 0.651519 0.928069
Si Si8 0.147060 0.668369 0.095224
O O1 0.386879 0.620880 0.767828
O O2 0.261803 0.802697 0.820529
O O3 0.355765 0.803970 0.845206
O O4 0.510409 0.808178 0.663117
O O5 0.000000 0.035646 0.250000
O O6 0.831238 0.093787 0.294125
O O7 0.765790 0.996363 0.421126
O O8 0.554691 0.743815 0.340054
O O9 0.693954 0.591367 0.287387
O O10 0.804729 0.756344 0.155524
O O11 0.624902 0.392948 0.575370
O O12 0.650895 0.166931 0.546825
O O13 0.657338 0.309566 0.464092
O O14 0.180323 0.466845 0.568634
O O15 0.524153 0.648671 0.476574
O O16 0.685962 0.475888 0.377066
O O17 0.250000 0.750000 0.000000
#
# Coordination Sequence:
#
# PCOD8145321 Si02
#       8
#     8   8   8   8   8   8   8   8
#     4  11  24  42  63  95 128 170 219 260 322 390
#     4  12  21  42  65  94 128 166 218 265 330 385
#     4  11  24  40  67  92 125 171 214 268 316 383
#     4  10  22  38  63  91 127 163 209 256 322 383
#     4  11  21  38  60  95 126 165 201 266 326 373
#     4  10  25  44  65  92 127 175 216 267 318 381
#     4  10  22  46  63  91 126 169 221 260 318 382
#     4  11  22  39  62  95 130 163 208 263 322 388
#
# _framework density 19.751930000000002
#
# number of rings (size 3 to 8) (size 9 to 14) (size 15 to 20)
#    0.000    1.250    5.000    0.750    3.500    1.000 
#    0.000    0.625    0.000    0.000    0.000    0.000 
#    0.000    0.000    0.000    0.000    0.000    0.000 
#
# Total GULP energy -396780.662850 kJ/mol
# GULP energy per Si atom -12399.395714 kJ/mol
# Density = 1.970697 g / cm^3
# Si number density = 19.751930 Si / 1000 Ang^3
#
#
#
# Elastic Constant Matrix: (Units=GPa)
#
#
# Indices 1 2 3 4 5 6 
#
# 1 74.3695 27.6439 29.0454 -0.0005 -6.4145 0.0006
# 2 27.6439 111.6434 43.4340 -0.0031 -4.6082 0.0010
# 3 29.0454 43.4340 105.5580 -0.0041 0.4603 0.0005
# 4 -0.0005 -0.0031 -0.0041 28.5867 -0.0010 1.0164
# 5 -6.4145 -4.6082 0.4603 -0.0010 27.6256 0.0003
# 6 0.0006 0.0010 0.0005 1.0164 0.0003 30.6965
#
#
#
# Elastic Compliance Matrix: (Units=1/GPa)
#
#
# Indices 1 2 3 4 5 6 
#
# 1 0.015988 -0.002504 -0.003383 0.000000 0.003351 0.000000
# 2 -0.002504 0.011152 -0.003906 0.000001 0.001344 0.000000
# 3 -0.003383 -0.003906 0.012019 0.000001 -0.001637 0.000000
# 4 0.000000 0.000001 0.000001 0.035023 0.000001 -0.001160
# 5 0.003351 0.001344 -0.001637 0.000001 0.037228 -0.000001
# 6 0.000000 0.000000 0.000000 -0.001160 -0.000001 0.032615
#
#
# Mechanical properties :
#
#
# Convention : Reuss Voigt Hill
#
# Bulk Modulus (GPa) = 51.09305 54.64638 52.86972
# Shear Modulus (GPa) = 29.38857 30.14493 29.76675
#
# Velocity S-wave (km/s) = 3.86149 3.91087 3.88626
# Velocity P-wave (km/s) = 6.76794 6.93683 6.85291
#
# Compressibility (1/GPa) = 0.01957213
#
# Stress axis : x y z
#
# Youngs Moduli (GPa) = 62.54846 89.66988 83.20427
#
# Poissons Ratio (x) = 0.22454 0.28152
# Poissons Ratio (y) = 0.15663 0.32496
# Poissons Ratio (z) = 0.21163 0.35021
#
# Static dielectric constant tensor:
#      x y z
#    x 3.604380 0.000000 -0.089040 
#    y 0.000000 3.553370 0.000000 
#    z -0.089040 0.000000 3.692820 
# 
# 
# High freq. dielectric constant tensor:
#      x y z
#    x 1.767430 0.000000 0.005910 
#    y 0.000000 1.770310 0.000000 
#    z 0.005910 0.000000 1.778990 
# 
# From -- ./inp_files/300827.got.cif
#   From: 2010.06.25/outbox.cif.g09.slc.cpg/sg15_151_cif.got.tgz:300827.got - 2010.06.28 07:06:18.
