data_PCOD8145753
_publ_section_title
;
Structure prediction by ZEFSAII (Michael W. Deem and Ramdas Pophale) SiO2 
 PCOD8145753
Probable space group: C 2/C
;
_chemical_formula_sum "Si O2"
_cell_formula_units_Z 48
_cell_length_a 26.508059
_cell_length_b 11.292036
_cell_length_c 20.421772
_cell_angle_alpha 90.000000
_cell_angle_beta 158.823672
_cell_angle_gamma 90.000000
_cell_volume 2208.201256
_symmetry_space_group_name_H-M "C 2/C"
_symmetry_group_IT_number 15
_symmetry_cell_setting 'monoclinic'
loop_
_space_group_symop_operation_xyz
x,y,z
-x,y,1/2-z
-x,-y,-z
x,-y,1/2+z
1/2+x,1/2+y,z
1/2-x,1/2+y,1/2-z
1/2-x,1/2-y,-z
1/2+x,1/2-y,1/2+z
loop_
_atom_site_type_symbol
_atom_site_label
_atom_site_fract_x
_atom_site_fract_y
_atom_site_fract_z
Si Si1 0.873888 0.013581 0.781955
Si Si2 0.780653 0.250245 0.720541
Si Si3 0.730990 0.649375 0.564646
Si Si4 0.074920 0.925643 0.410521
Si Si5 0.410443 0.271893 0.886830
Si Si6 0.349278 0.107106 0.576553
O O1 0.779948 0.110578 0.705050
O O2 0.974092 0.082504 0.851826
O O3 0.947461 0.912821 0.918197
O O4 0.761330 0.936635 0.608582
O O5 0.695893 0.326719 0.564109
O O6 0.710406 0.267350 0.705774
O O7 0.943520 0.291416 0.917213
O O8 0.635163 0.558530 0.488740
O O9 0.856391 0.702279 0.758705
O O10 0.635780 0.751640 0.417510
O O11 0.800393 0.574682 0.590131
O O12 0.000000 0.903565 0.250000
O O13 0.500000 0.046907 0.750000
#
# Coordination Sequence:
#
# PCOD8145753 Si02
#       6
#     8   8   8   8   8   8
#     4  11  25  48  69  99 142 182 227 287 347 400
#     4  12  27  46  70 100 140 185 231 272 345 426
#     4  10  23  40  70 103 137 174 234 282 351 398
#     4  12  25  47  73  97 139 185 226 284 348 409
#     4  11  26  45  73 100 140 183 224 292 339 410
#     4  10  22  39  68 104 135 176 233 295 333 402
#
# _framework density 21.737148999999999
#
# number of rings (size 3 to 8) (size 9 to 14) (size 15 to 20)
#    0.000    1.000    3.333    2.000   11.667    3.333 
#    0.000    0.000    0.000    0.000    0.000    0.000 
#    0.000    0.000    0.000    0.000    0.000    0.000 
#
# Total GULP energy -297591.354528 kJ/mol
# GULP energy per Si atom -12399.639772 kJ/mol
# Density = 2.168767 g / cm^3
# Si number density = 21.737149 Si / 1000 Ang^3
#
#
#
# Elastic Constant Matrix: (Units=GPa)
#
#
# Indices 1 2 3 4 5 6 
#
# 1 90.9960 27.1002 18.8245 0.0000 6.6882 0.0000
# 2 27.1002 91.6052 38.9203 -0.0003 -3.9708 0.0001
# 3 18.8245 38.9203 104.5573 -0.0003 11.3035 0.0001
# 4 0.0000 -0.0003 -0.0003 47.3884 -0.0001 -21.5174
# 5 6.6882 -3.9708 11.3035 -0.0001 31.4340 0.0000
# 6 0.0000 0.0001 0.0001 -21.5174 0.0000 73.3503
#
#
#
# Elastic Compliance Matrix: (Units=1/GPa)
#
#
# Indices 1 2 3 4 5 6 
#
# 1 0.012376 -0.003528 -0.000606 0.000000 -0.002861 0.000000
# 2 -0.003528 0.014356 -0.005188 0.000000 0.004430 0.000000
# 3 -0.000606 -0.005188 0.012133 0.000000 -0.004889 0.000000
# 4 0.000000 0.000000 0.000000 0.024345 0.000000 0.007142
# 5 -0.002861 0.004430 -0.004889 0.000000 0.034739 0.000000
# 6 0.000000 0.000000 0.000000 0.007142 0.000000 0.015728
#
#
# Mechanical properties :
#
#
# Convention : Reuss Voigt Hill
#
# Bulk Modulus (GPa) = 49.45011 50.76094 50.10552
# Shear Modulus (GPa) = 35.95564 43.92208 39.93886
#
# Velocity S-wave (km/s) = 4.07149 4.49998 4.29109
# Velocity P-wave (km/s) = 6.70084 7.09948 6.90304
#
# Compressibility (1/GPa) = 0.02022240
#
# Stress axis : x y z
#
# Youngs Moduli (GPa) = 80.80322 69.65640 82.42132
#
# Poissons Ratio (x) = 0.24574 0.04991
# Poissons Ratio (y) = 0.28507 0.42757
# Poissons Ratio (z) = 0.04893 0.36135
#
# Static dielectric constant tensor:
#      x y z
#    x 3.905020 0.000000 -0.089800 
#    y 0.000000 3.878470 0.000000 
#    z -0.089800 0.000000 4.118700 
# 
# 
# High freq. dielectric constant tensor:
#      x y z
#    x 1.860080 0.000000 -0.007860 
#    y 0.000000 1.843900 0.000000 
#    z -0.007860 0.000000 1.871910 
# 
# From -- ./inp_files/257660.got.cif
#   From: 2010.06.25/outbox.cif.g09.slc.cpg/sg15_129_cif.got.tgz:257660.got - 2010.06.28 07:06:18.
