data_PCOD8145201
_publ_section_title
;
Structure prediction by ZEFSAII (Michael W. Deem and Ramdas Pophale) SiO2 
 PCOD8145201
Probable space group: C 2/C
;
_chemical_formula_sum "Si O2"
_cell_formula_units_Z 48
_cell_length_a 22.954295
_cell_length_b 19.396620
_cell_length_c 5.084674
_cell_angle_alpha 90.000000
_cell_angle_beta 69.130526
_cell_angle_gamma 90.000000
_cell_volume 2115.355476
_symmetry_space_group_name_H-M "C 2/C"
_symmetry_group_IT_number 15
_symmetry_cell_setting 'monoclinic'
loop_
_space_group_symop_operation_xyz
x,y,z
-x,y,1/2-z
-x,-y,-z
x,-y,1/2+z
1/2+x,1/2+y,z
1/2-x,1/2+y,1/2-z
1/2-x,1/2-y,-z
1/2+x,1/2-y,1/2+z
loop_
_atom_site_type_symbol
_atom_site_label
_atom_site_fract_x
_atom_site_fract_y
_atom_site_fract_z
Si Si1 0.892030 0.733158 0.536230
Si Si2 0.539833 0.099993 0.949169
Si Si3 0.073343 0.959119 0.641291
Si Si4 0.235231 0.316260 0.198211
Si Si5 0.370164 0.684391 0.593611
Si Si6 0.676970 0.955272 0.167061
O O1 0.945595 0.676208 0.460541
O O2 0.827002 0.699410 0.531505
O O3 0.907586 0.792066 0.296029
O O4 0.881798 0.760352 0.846234
O O5 0.500000 0.105316 0.750000
O O6 0.603115 0.060118 0.781659
O O7 0.500000 0.063045 0.250000
O O8 0.103509 0.886260 0.550576
O O9 0.000000 0.949035 0.750000
O O10 0.096034 0.012835 0.384715
O O11 0.296708 0.327237 0.277408
O O12 0.218606 0.386140 0.062646
O O13 0.250000 0.250000 0.000000
O O14 0.694903 0.992294 0.408769
#
# Coordination Sequence:
#
# PCOD8145201 Si02
#       6
#     8   8   8   8   8   8
#     4  10  22  38  58  90 121 150 199 258 306 359
#     4  11  23  40  62  88 124 166 207 255 311 368
#     4  10  22  39  56  80 116 153 192 243 300 359
#     4   9  22  42  65  91 126 165 204 253 315 372
#     4  11  21  37  63  87 115 158 201 246 308 377
#     4  11  25  42  63  94 129 165 212 266 311 365
#
# _framework density 22.691222
#
# number of rings (size 3 to 8) (size 9 to 14) (size 15 to 20)
#    0.000    1.667    0.000    3.500    0.000   14.667 
#    0.000    0.000    0.000    0.000    0.000    0.000 
#    0.000    0.000    0.000    0.000    0.000    0.000 
#
# Total GULP energy -297538.699172 kJ/mol
# GULP energy per Si atom -12397.445799 kJ/mol
# Density = 2.263958 g / cm^3
# Si number density = 22.691222 Si / 1000 Ang^3
#
#
#
# Elastic Constant Matrix: (Units=GPa)
#
#
# Indices 1 2 3 4 5 6 
#
# 1 61.2340 20.4193 17.8795 0.0000 6.6434 0.0000
# 2 20.4193 112.7550 25.0454 0.0000 0.2504 0.0000
# 3 17.8795 25.0454 112.2242 0.0000 23.1433 0.0000
# 4 0.0000 0.0000 0.0000 11.4949 0.0000 -2.4204
# 5 6.6434 0.2504 23.1433 0.0000 28.2230 0.0000
# 6 0.0000 0.0000 0.0000 -2.4204 0.0000 22.7857
#
#
#
# Elastic Compliance Matrix: (Units=1/GPa)
#
#
# Indices 1 2 3 4 5 6 
#
# 1 0.018092 -0.002906 -0.001638 0.000000 -0.002890 0.000000
# 2 -0.002906 0.009889 -0.002247 0.000000 0.002439 0.000000
# 3 -0.001638 -0.002247 0.011541 0.000000 -0.009059 0.000000
# 4 0.000000 0.000000 0.000000 0.088986 0.000000 0.009453
# 5 -0.002890 0.002439 -0.009059 0.000000 0.043519 0.000000
# 6 0.000000 0.000000 0.000000 0.009453 0.000000 0.044891
#
#
# Mechanical properties :
#
#
# Convention : Reuss Voigt Hill
#
# Bulk Modulus (GPa) = 38.55050 45.87796 42.21423
# Shear Modulus (GPa) = 20.90778 27.35864 24.13321
#
# Velocity S-wave (km/s) = 3.03876 3.47608 3.26475
# Velocity P-wave (km/s) = 5.41647 6.03101 5.73198
#
# Compressibility (1/GPa) = 0.02594000
#
# Stress axis : x y z
#
# Youngs Moduli (GPa) = 55.27426 101.12536 86.64620
#
# Poissons Ratio (x) = 0.29388 0.14191
# Poissons Ratio (y) = 0.16063 0.19468
# Poissons Ratio (z) = 0.09053 0.22721
#
# Static dielectric constant tensor:
#      x y z
#    x 4.420530 0.000000 -0.053680 
#    y 0.000000 4.183290 0.000000 
#    z -0.053680 0.000000 4.117320 
# 
# 
# High freq. dielectric constant tensor:
#      x y z
#    x 1.895690 0.000000 -0.002960 
#    y 0.000000 1.906070 0.000000 
#    z -0.002960 0.000000 1.887870 
# 
# From -- ./inp_files/15419.got.cif
#   From: 2010.06.25/outbox.cif.g09.slc.cpg/sg15_8_cif.got.tgz:15419.got - 2010.06.28 07:06:18.
