data_PCOD8145214
_publ_section_title
;
Structure prediction by ZEFSAII (Michael W. Deem and Ramdas Pophale) SiO2 
 PCOD8145214
Probable space group: C 2/C
;
_chemical_formula_sum "Si O2"
_cell_formula_units_Z 52
_cell_length_a 12.170250
_cell_length_b 29.088467
_cell_length_c 8.850006
_cell_angle_alpha 90.000000
_cell_angle_beta 55.403857
_cell_angle_gamma 90.000000
_cell_volume 2579.026805
_symmetry_space_group_name_H-M "C 2/C"
_symmetry_group_IT_number 15
_symmetry_cell_setting 'monoclinic'
loop_
_space_group_symop_operation_xyz
x,y,z
-x,y,1/2-z
-x,-y,-z
x,-y,1/2+z
1/2+x,1/2+y,z
1/2-x,1/2+y,1/2-z
1/2-x,1/2-y,-z
1/2+x,1/2-y,1/2+z
loop_
_atom_site_type_symbol
_atom_site_label
_atom_site_fract_x
_atom_site_fract_y
_atom_site_fract_z
Si Si1 0.612779 0.293667 0.789777
Si Si2 0.500000 0.505872 0.750000
Si Si3 0.406040 0.436397 0.582111
Si Si4 0.000000 0.640008 0.750000
Si Si5 0.318511 0.127600 0.142222
Si Si6 0.500000 0.828515 0.750000
Si Si7 0.333708 0.196385 0.647427
Si Si8 0.947583 0.851844 0.127837
O O1 0.500000 0.287871 0.750000
O O2 0.725790 0.330290 0.655334
O O3 0.693114 0.246905 0.763765
O O4 0.537244 0.309818 0.999323
O O5 0.416904 0.474007 0.703513
O O6 0.598795 0.538217 0.575923
O O7 0.264887 0.413025 0.719566
O O8 0.526068 0.397932 0.494457
O O9 0.106479 0.609993 0.570145
O O10 0.059165 0.672951 0.830280
O O11 0.419261 0.140382 0.196401
O O12 0.605604 0.798281 0.569929
O O13 0.204754 0.163807 0.749017
O O14 0.000000 0.865672 0.250000
#
# Coordination Sequence:
#
# PCOD8145214 Si02
#       8
#     8   4   8   4   8   4   8   8
#     4  11  24  38  58  86 121 167 217 274 302 345
#     4  10  22  40  72 100 126 148 194 266 324 384
#     4  10  22  42  66 103 121 156 200 256 331 363
#     4  10  22  38  59  87 112 176 204 252 298 358
#     4  10  23  41  63  88 128 163 214 251 307 381
#     4  10  24  40  55  87 118 178 202 254 298 376
#     4  11  23  38  58  83 124 167 219 256 303 363
#     4  11  24  38  62  90 124 164 205 260 310 369
#
# _framework density 20.162645000000001
#
# number of rings (size 3 to 8) (size 9 to 14) (size 15 to 20)
#    0.000    1.538    1.538    2.769   11.846    2.462 
#    0.000    0.000    0.000    2.769    0.000    0.000 
#    0.000    0.000    0.000    0.000    0.000    0.000 
#
# Total GULP energy -322266.673543 kJ/mol
# GULP energy per Si atom -12394.872059 kJ/mol
# Density = 2.011675 g / cm^3
# Si number density = 20.162645 Si / 1000 Ang^3
#
#
#
# Elastic Constant Matrix: (Units=GPa)
#
#
# Indices 1 2 3 4 5 6 
#
# 1 85.3314 38.5164 51.7607 0.0000 -4.8532 0.0000
# 2 38.5164 109.4550 59.1029 0.0000 -5.4267 0.0000
# 3 51.7607 59.1029 159.8757 0.0000 -4.7493 0.0000
# 4 0.0000 0.0000 0.0000 9.3366 0.0000 -10.0923
# 5 -4.8532 -5.4267 -4.7493 0.0000 33.0369 0.0000
# 6 0.0000 0.0000 0.0000 -10.0923 0.0000 15.6486
#
#
#
# Elastic Compliance Matrix: (Units=1/GPa)
#
#
# Indices 1 2 3 4 5 6 
#
# 1 0.015602 -0.003402 -0.003758 0.000000 0.001193 0.000000
# 2 -0.003402 0.012210 -0.003382 0.000000 0.001020 0.000000
# 3 -0.003758 -0.003382 0.008726 0.000000 0.000147 0.000000
# 4 0.000000 0.000000 0.000000 0.353643 0.000000 0.228077
# 5 0.001193 0.001020 0.000147 0.000000 0.030633 0.000000
# 6 0.000000 0.000000 0.000000 0.228077 0.000000 0.210999
#
#
# Mechanical properties :
#
#
# Convention : Reuss Voigt Hill
#
# Bulk Modulus (GPa) = 64.70806 72.60246 68.65526
# Shear Modulus (GPa) = 7.59822 25.28989 16.44405
#
# Velocity S-wave (km/s) = 1.94336 3.54544 2.85892
# Velocity P-wave (km/s) = 6.09904 7.26958 6.70988
#
# Compressibility (1/GPa) = 0.01545402
#
# Stress axis : x y z
#
# Youngs Moduli (GPa) = 64.09432 81.89962 114.59597
#
# Poissons Ratio (x) = 0.27860 0.43068
# Poissons Ratio (y) = 0.21803 0.38759
# Poissons Ratio (z) = 0.24088 0.27700
#
# Static dielectric constant tensor:
#      x y z
#    x 3.578340 0.000000 0.054660 
#    y 0.000000 3.580810 0.000000 
#    z 0.054660 0.000000 4.240810 
# 
# 
# High freq. dielectric constant tensor:
#      x y z
#    x 1.778130 0.000000 0.007860 
#    y 0.000000 1.763920 0.000000 
#    z 0.007860 0.000000 1.815000 
# 
# From -- ./inp_files/34136.got.cif
#   From: 2010.06.25/outbox.cif.g09.slc.cpg/sg15_18_cif.got.tgz:34136.got - 2010.06.28 07:06:18.
