data_PCOD8145085
_publ_section_title
;
Structure prediction by ZEFSAII (Michael W. Deem and Ramdas Pophale) SiO2 
 PCOD8145085
Probable space group: C 2/C
;
_chemical_formula_sum "Si O2"
_cell_formula_units_Z 56
_cell_length_a 19.022573
_cell_length_b 13.827469
_cell_length_c 9.333489
_cell_angle_alpha 90.000000
_cell_angle_beta 113.815009
_cell_angle_gamma 90.000000
_cell_volume 2245.989536
_symmetry_space_group_name_H-M "C 2/C"
_symmetry_group_IT_number 15
_symmetry_cell_setting 'monoclinic'
loop_
_space_group_symop_operation_xyz
x,y,z
-x,y,1/2-z
-x,-y,-z
x,-y,1/2+z
1/2+x,1/2+y,z
1/2-x,1/2+y,1/2-z
1/2-x,1/2-y,-z
1/2+x,1/2-y,1/2+z
loop_
_atom_site_type_symbol
_atom_site_label
_atom_site_fract_x
_atom_site_fract_y
_atom_site_fract_z
Si Si1 0.414364 0.576768 0.203526
Si Si2 0.861701 0.560831 0.772624
Si Si3 0.707815 0.518052 0.196034
Si Si4 0.109469 0.811237 0.085965
Si Si5 0.563436 0.253878 0.568916
Si Si6 0.659772 0.893968 0.559694
Si Si7 0.318659 0.673864 0.555125
O O1 0.500000 0.533915 0.250000
O O2 0.371092 0.502868 0.275860
O O3 0.416603 0.683415 0.274792
O O4 0.379124 0.595224 0.012890
O O5 0.768980 0.572808 0.736560
O O6 0.886371 0.455151 0.854938
O O7 0.869457 0.557450 0.609662
O O8 0.917930 0.642581 0.881097
O O9 0.749239 0.596771 0.335035
O O10 0.699334 0.569495 0.032300
O O11 0.147419 0.719210 0.045032
O O12 0.154769 0.846414 0.261899
O O13 0.023199 0.778147 0.045837
O O14 0.611204 0.279460 0.469565
O O15 0.250000 0.750000 0.500000
#
# Coordination Sequence:
#
# PCOD8145085 Si02
#       7
#     8   8   8   8   8   8   8
#     4   9  19  39  63  89 122 163 216 275 328 391
#     4  10  22  40  57  87 133 170 218 265 320 402
#     4   9  22  38  57  91 124 173 221 269 333 385
#     4  11  21  37  60  95 123 169 221 264 336 386
#     4  10  22  37  62  88 132 168 206 271 331 399
#     4  10  22  37  58  88 125 171 218 263 326 390
#     4  11  21  37  59  91 128 166 222 274 321 388
#
# _framework density 24.933332
#
# number of rings (size 3 to 8) (size 9 to 14) (size 15 to 20)
#    0.857    1.143    2.857    0.429    4.000    2.286 
#    0.000    0.000    0.000    0.857    0.000    2.000 
#    0.000    0.000    0.000    0.000    0.000    0.000 
#
# Total GULP energy -346881.284275 kJ/mol
# GULP energy per Si atom -12388.617296 kJ/mol
# Density = 2.487658 g / cm^3
# Si number density = 24.933332 Si / 1000 Ang^3
#
#
#
# Elastic Constant Matrix: (Units=GPa)
#
#
# Indices 1 2 3 4 5 6 
#
# 1 118.1470 42.3927 30.0314 0.0000 -6.2935 0.0000
# 2 42.3927 104.9609 45.5872 0.0000 -4.4508 0.0000
# 3 30.0314 45.5872 152.1479 0.0000 -5.3623 0.0000
# 4 0.0000 0.0000 0.0000 11.1195 0.0000 -2.1936
# 5 -6.2935 -4.4508 -5.3623 0.0000 31.5752 0.0000
# 6 0.0000 0.0000 0.0000 -2.1936 0.0000 37.1653
#
#
#
# Elastic Compliance Matrix: (Units=1/GPa)
#
#
# Indices 1 2 3 4 5 6 
#
# 1 0.010056 -0.003636 -0.000848 0.000000 0.001348 0.000000
# 2 -0.003636 0.012298 -0.002949 0.000000 0.000508 0.000000
# 3 -0.000848 -0.002949 0.007649 0.000000 0.000714 0.000000
# 4 0.000000 0.000000 0.000000 0.090992 0.000000 0.005371
# 5 0.001348 0.000508 0.000714 0.000000 0.032132 0.000000
# 6 0.000000 0.000000 0.000000 0.005371 0.000000 0.027224
#
#
# Mechanical properties :
#
#
# Convention : Reuss Voigt Hill
#
# Bulk Modulus (GPa) = 66.06510 67.91982 66.99246
# Shear Modulus (GPa) = 24.96721 33.12166 29.04444
#
# Velocity S-wave (km/s) = 3.16786 3.64869 3.41674
# Velocity P-wave (km/s) = 6.31939 6.71195 6.51862
#
# Compressibility (1/GPa) = 0.01513659
#
# Stress axis : x y z
#
# Youngs Moduli (GPa) = 99.44278 81.31110 130.73996
#
# Poissons Ratio (x) = 0.29566 0.11086
# Poissons Ratio (y) = 0.36158 0.38559
# Poissons Ratio (z) = 0.08432 0.23981
#
# Static dielectric constant tensor:
#      x y z
#    x 4.624080 0.000000 0.030180 
#    y 0.000000 3.695030 0.000000 
#    z 0.030180 0.000000 4.656540 
# 
# 
# High freq. dielectric constant tensor:
#      x y z
#    x 1.987410 0.000000 -0.003350 
#    y 0.000000 1.994920 0.000000 
#    z -0.003350 0.000000 2.013700 
# 
# From -- ./inp_files/49137.got.cif
#   From: 2010.06.25/outbox.cif.g09.slc.cpg/sg15_25_cif.got.tgz:49137.got - 2010.06.28 07:06:18.
