data_PCOD8145576
_publ_section_title
;
Structure prediction by ZEFSAII (Michael W. Deem and Ramdas Pophale) SiO2 
 PCOD8145576
Probable space group: C 2/C
;
_chemical_formula_sum "Si O2"
_cell_formula_units_Z 48
_cell_length_a 12.432001
_cell_length_b 16.687614
_cell_length_c 11.930200
_cell_angle_alpha 90.000000
_cell_angle_beta 67.143813
_cell_angle_gamma 90.000000
_cell_volume 2280.710640
_symmetry_space_group_name_H-M "C 2/C"
_symmetry_group_IT_number 15
_symmetry_cell_setting 'monoclinic'
loop_
_space_group_symop_operation_xyz
x,y,z
-x,y,1/2-z
-x,-y,-z
x,-y,1/2+z
1/2+x,1/2+y,z
1/2-x,1/2+y,1/2-z
1/2-x,1/2-y,-z
1/2+x,1/2-y,1/2+z
loop_
_atom_site_type_symbol
_atom_site_label
_atom_site_fract_x
_atom_site_fract_y
_atom_site_fract_z
Si Si1 0.525898 0.674540 0.863985
Si Si2 0.372444 0.773915 0.317906
Si Si3 0.351602 0.181430 0.067479
Si Si4 0.259498 0.902453 0.219619
Si Si5 0.769983 0.844960 0.508388
Si Si6 0.125779 0.435869 0.751432
O O1 0.500000 0.709932 0.750000
O O2 0.570962 0.744320 0.924767
O O3 0.624603 0.606066 0.813061
O O4 0.408583 0.639320 0.967454
O O5 0.500000 0.736605 0.250000
O O6 0.371922 0.831493 0.427551
O O7 0.285988 0.698669 0.361491
O O8 0.337193 0.828044 0.227641
O O9 0.390351 0.103340 0.119693
O O10 0.272117 0.898479 0.080059
O O11 0.305059 0.982780 0.257527
O O12 0.750000 0.750000 0.500000
O O13 0.700046 0.874853 0.644930
O O14 0.000000 0.454172 0.750000
#
# Coordination Sequence:
#
# PCOD8145576 Si02
#       6
#     8   8   8   8   8   8
#     4   9  19  41  66  92 120 161 211 267 310 373
#     4  10  22  39  62  88 125 170 201 262 323 367
#     4  10  22  39  63  92 127 157 221 261 305 395
#     4  10  24  42  61  91 132 161 210 260 320 380
#     4  11  23  41  72  94 120 172 218 260 315 378
#     4  12  26  40  63  96 127 168 210 263 323 378
#
# _framework density 21.046071999999999
#
# number of rings (size 3 to 8) (size 9 to 14) (size 15 to 20)
#    0.000    1.667    0.000    5.000    9.333    1.333 
#    0.000    2.500    0.000    0.000    0.000    0.000 
#    0.000    0.000    0.000    0.000    0.000    0.000 
#
# Total GULP energy -297623.897786 kJ/mol
# GULP energy per Si atom -12400.995741 kJ/mol
# Density = 2.099817 g / cm^3
# Si number density = 21.046072 Si / 1000 Ang^3
#
#
#
# Elastic Constant Matrix: (Units=GPa)
#
#
# Indices 1 2 3 4 5 6 
#
# 1 144.4966 24.8218 33.4146 0.0000 -9.4018 0.0000
# 2 24.8218 53.6658 7.4468 0.0000 -7.4581 0.0000
# 3 33.4146 7.4468 47.8286 0.0000 -0.6884 0.0000
# 4 0.0000 0.0000 0.0000 16.9218 0.0000 6.5301
# 5 -9.4018 -7.4581 -0.6884 0.0000 30.8869 0.0000
# 6 0.0000 0.0000 0.0000 6.5301 0.0000 25.8445
#
#
#
# Elastic Compliance Matrix: (Units=1/GPa)
#
#
# Indices 1 2 3 4 5 6 
#
# 1 0.008885 -0.003063 -0.005704 0.000000 0.001838 0.000000
# 2 -0.003063 0.020758 -0.001034 0.000000 0.004057 0.000000
# 3 -0.005704 -0.001034 0.025034 0.000000 -0.001428 0.000000
# 4 0.000000 0.000000 0.000000 0.065480 0.000000 -0.016545
# 5 0.001838 0.004057 -0.001428 0.000000 0.033883 0.000000
# 6 0.000000 0.000000 0.000000 -0.016545 0.000000 0.042873
#
#
# Mechanical properties :
#
#
# Convention : Reuss Voigt Hill
#
# Bulk Modulus (GPa) = 28.51032 41.92858 35.21945
# Shear Modulus (GPa) = 21.90993 26.75115 24.33054
#
# Velocity S-wave (km/s) = 3.23003 3.56908 3.40378
# Velocity P-wave (km/s) = 5.24278 6.07865 5.67612
#
# Compressibility (1/GPa) = 0.03507501
#
# Stress axis : x y z
#
# Youngs Moduli (GPa) = 112.54409 48.17487 39.94629
#
# Poissons Ratio (x) = 0.14755 0.22787
# Poissons Ratio (y) = 0.34469 0.04130
# Poissons Ratio (z) = 0.64199 0.04980
#
# Static dielectric constant tensor:
#      x y z
#    x 4.256450 0.000000 0.042380 
#    y 0.000000 3.376990 0.000000 
#    z 0.042380 0.000000 3.924800 
# 
# 
# High freq. dielectric constant tensor:
#      x y z
#    x 1.851100 0.000000 0.003520 
#    y 0.000000 1.785650 0.000000 
#    z 0.003520 0.000000 1.832460 
# 
# From -- ./inp_files/87765.got.cif
#   From: 2010.06.25/outbox.cif.g09.slc.cpg/sg15_44_cif.got.tgz:87765.got - 2010.06.28 07:06:18.
