data_PCOD8145229
_publ_section_title
;
Structure prediction by ZEFSAII (Michael W. Deem and Ramdas Pophale) SiO2 
 PCOD8145229
Probable space group: C 2/C
;
_chemical_formula_sum "Si O2"
_cell_formula_units_Z 40
_cell_length_a 24.967868
_cell_length_b 9.101051
_cell_length_c 8.450565
_cell_angle_alpha 90.000000
_cell_angle_beta 113.425693
_cell_angle_gamma 90.000000
_cell_volume 1761.980140
_symmetry_space_group_name_H-M "C 2/C"
_symmetry_group_IT_number 15
_symmetry_cell_setting 'monoclinic'
loop_
_space_group_symop_operation_xyz
x,y,z
-x,y,1/2-z
-x,-y,-z
x,-y,1/2+z
1/2+x,1/2+y,z
1/2-x,1/2+y,1/2-z
1/2-x,1/2-y,-z
1/2+x,1/2-y,1/2+z
loop_
_atom_site_type_symbol
_atom_site_label
_atom_site_fract_x
_atom_site_fract_y
_atom_site_fract_z
Si Si1 0.062290 0.575416 0.063050
Si Si2 0.777609 0.374398 0.922604
Si Si3 0.380210 0.684197 0.028727
Si Si4 0.656037 0.607186 0.162146
Si Si5 0.136231 0.617054 0.443748
O O1 0.062134 0.717227 0.942091
O O2 0.083791 0.632711 0.257968
O O3 0.108385 0.452589 0.067400
O O4 0.000000 0.500000 0.000000
O O5 0.827910 0.283514 0.888286
O O6 0.724142 0.439840 0.757859
O O7 0.809064 0.513124 0.047588
O O8 0.750000 0.250000 0.000000
O O9 0.382440 0.529720 0.941768
O O10 0.371991 0.666788 0.207704
O O11 0.657316 0.723094 0.021013
#
# Coordination Sequence:
#
# PCOD8145229 Si02
#       5
#     8   8   8   8   8
#     4  11  23  42  64  88 119 163 217 275 322 371
#     4   9  19  36  58  92 134 175 211 254 311 383
#     4  10  22  38  59  91 130 172 216 263 317 384
#     4  11  21  38  61  95 136 170 207 261 320 388
#     4  11  22  38  64  94 124 168 218 261 316 384
#
# _framework density 22.701732
#
# number of rings (size 3 to 8) (size 9 to 14) (size 15 to 20)
#    0.000    1.600    0.000    6.600    0.000    4.800 
#    0.000   11.000    0.000    4.800    0.000    0.000 
#    0.000    0.000    0.000    0.000    0.000    0.000 
#
# Total GULP energy -247786.814120 kJ/mol
# GULP energy per Si atom -12389.340706 kJ/mol
# Density = 2.265006 g / cm^3
# Si number density = 22.701732 Si / 1000 Ang^3
#
#
#
# Elastic Constant Matrix: (Units=GPa)
#
#
# Indices 1 2 3 4 5 6 
#
# 1 106.4216 59.2963 37.5630 0.0000 6.2151 0.0000
# 2 59.2963 147.3289 34.1633 0.0000 1.7689 0.0000
# 3 37.5630 34.1633 104.1317 0.0000 9.1120 0.0000
# 4 0.0000 0.0000 0.0000 38.2967 0.0000 -1.7502
# 5 6.2151 1.7689 9.1120 0.0000 24.5215 0.0000
# 6 0.0000 0.0000 0.0000 -1.7502 0.0000 40.3423
#
#
#
# Elastic Compliance Matrix: (Units=1/GPa)
#
#
# Indices 1 2 3 4 5 6 
#
# 1 0.013125 -0.004546 -0.003081 0.000000 -0.001854 0.000000
# 2 -0.004546 0.008924 -0.001377 0.000000 0.001020 0.000000
# 3 -0.003081 -0.001377 0.011462 0.000000 -0.003379 0.000000
# 4 0.000000 0.000000 0.000000 0.026164 0.000000 0.001135
# 5 -0.001854 0.001020 -0.003379 0.000000 0.042432 0.000000
# 6 0.000000 0.000000 0.000000 0.001135 0.000000 0.024837
#
#
# Mechanical properties :
#
#
# Convention : Reuss Voigt Hill
#
# Bulk Modulus (GPa) = 64.50245 68.88082 66.69164
# Shear Modulus (GPa) = 33.30642 35.75605 34.53123
#
# Velocity S-wave (km/s) = 3.83447 3.97298 3.90434
# Velocity P-wave (km/s) = 6.93390 7.17312 7.05452
#
# Compressibility (1/GPa) = 0.01550329
#
# Stress axis : x y z
#
# Youngs Moduli (GPa) = 76.18912 112.05392 87.24370
#
# Poissons Ratio (x) = 0.50939 0.26880
# Poissons Ratio (y) = 0.34635 0.12016
# Poissons Ratio (z) = 0.23474 0.15433
#
# Static dielectric constant tensor:
#      x y z
#    x 4.339400 0.000000 0.027830 
#    y 0.000000 4.186050 0.000000 
#    z 0.027830 0.000000 3.933970 
# 
# 
# High freq. dielectric constant tensor:
#      x y z
#    x 1.876760 0.000000 -0.006760 
#    y 0.000000 1.907770 0.000000 
#    z -0.006760 0.000000 1.881890 
# 
# From -- ./inp_files/60086.got.cif
#   From: 2010.06.25/outbox.cif.g09.slc.cpg/sg15_31_cif.got.tgz:60086.got - 2010.06.28 07:06:18.
