data_PCOD8145128
_publ_section_title
;
Structure prediction by ZEFSAII (Michael W. Deem and Ramdas Pophale) SiO2 
 PCOD8145128
Probable space group: C 2/C
;
_chemical_formula_sum "Si O2"
_cell_formula_units_Z 64
_cell_length_a 17.102656
_cell_length_b 25.658268
_cell_length_c 13.661416
_cell_angle_alpha 90.000000
_cell_angle_beta 149.179410
_cell_angle_gamma 90.000000
_cell_volume 3071.529102
_symmetry_space_group_name_H-M "C 2/C"
_symmetry_group_IT_number 15
_symmetry_cell_setting 'monoclinic'
loop_
_space_group_symop_operation_xyz
x,y,z
-x,y,1/2-z
-x,-y,-z
x,-y,1/2+z
1/2+x,1/2+y,z
1/2-x,1/2+y,1/2-z
1/2-x,1/2-y,-z
1/2+x,1/2-y,1/2+z
loop_
_atom_site_type_symbol
_atom_site_label
_atom_site_fract_x
_atom_site_fract_y
_atom_site_fract_z
Si Si1 0.154939 0.308562 0.688302
Si Si2 0.199064 0.701664 0.663161
Si Si3 0.820686 0.508016 0.782252
Si Si4 0.672195 0.160538 0.421513
Si Si5 0.174007 0.476229 0.436509
Si Si6 0.868162 0.932161 0.176120
Si Si7 0.119741 0.103790 0.610017
Si Si8 0.785900 0.909457 0.719295
O O1 0.237666 0.257483 0.734836
O O2 0.198988 0.308193 0.850343
O O3 0.214683 0.357598 0.690195
O O4 0.972713 0.304821 0.482857
O O5 0.217994 0.694491 0.565986
O O6 0.302426 0.658894 0.830015
O O7 0.775991 0.519920 0.621747
O O8 0.752406 0.560424 0.754339
O O9 0.733486 0.456505 0.724089
O O10 0.000000 0.500000 0.000000
O O11 0.500000 0.142036 0.250000
O O12 0.765247 0.107917 0.505196
O O13 0.267022 0.518318 0.600854
O O14 0.201696 0.421679 0.524506
O O15 0.000000 0.491796 0.250000
O O16 0.940882 0.899746 0.343609
O O17 0.000000 0.954680 0.250000
O O18 0.965041 0.096490 0.381480
#
# Coordination Sequence:
#
# PCOD8145128 Si02
#       8
#     8   8   8   8   8   8   8   8
#     4  11  21  39  60  92 127 168 215 265 326 377
#     4  10  22  37  63  90 125 170 213 266 317 389
#     4  12  23  42  65  91 128 166 210 263 319 382
#     4   9  19  35  58  88 128 169 212 255 315 383
#     4  12  25  40  61  89 123 168 213 258 323 383
#     4  11  21  35  58  90 130 169 209 259 309 378
#     4  11  23  40  60  93 129 166 216 259 320 375
#     4  12  25  41  63  93 130 170 211 266 318 385
#
# _framework density 20.836528000000001
#
# number of rings (size 3 to 8) (size 9 to 14) (size 15 to 20)
#    0.000    1.000    2.500    4.875    1.750    3.000 
#    0.000    0.625    0.000    0.750    0.000    0.000 
#    0.000    0.000    0.000    0.000    0.000    0.000 
#
# Total GULP energy -396569.374599 kJ/mol
# GULP energy per Si atom -12392.792956 kJ/mol
# Density = 2.078910 g / cm^3
# Si number density = 20.836528 Si / 1000 Ang^3
#
#
#
# Elastic Constant Matrix: (Units=GPa)
#
#
# Indices 1 2 3 4 5 6 
#
# 1 64.3194 45.7217 40.8322 0.0000 1.1199 0.0000
# 2 45.7217 153.7534 47.9405 0.0000 14.9658 0.0000
# 3 40.8322 47.9405 92.3094 0.0000 16.7944 0.0000
# 4 0.0000 0.0000 0.0000 32.8473 0.0000 7.5268
# 5 1.1199 14.9658 16.7944 0.0000 38.8257 0.0000
# 6 0.0000 0.0000 0.0000 7.5268 0.0000 30.0152
#
#
#
# Elastic Compliance Matrix: (Units=1/GPa)
#
#
# Indices 1 2 3 4 5 6 
#
# 1 0.024995 -0.005011 -0.009415 0.000000 0.005283 0.000000
# 2 -0.005011 0.008832 -0.001929 0.000000 -0.002425 0.000000
# 3 -0.009415 -0.001929 0.017165 0.000000 -0.006410 0.000000
# 4 0.000000 0.000000 0.000000 0.032300 0.000000 -0.008100
# 5 0.005283 -0.002425 -0.006410 0.000000 0.029311 0.000000
# 6 0.000000 0.000000 0.000000 -0.008100 0.000000 0.035348
#
#
# Mechanical properties :
#
#
# Convention : Reuss Voigt Hill
#
# Bulk Modulus (GPa) = 54.69780 64.37453 59.53616
# Shear Modulus (GPa) = 26.77319 32.06349 29.41834
#
# Velocity S-wave (km/s) = 3.58846 3.92702 3.76155
# Velocity P-wave (km/s) = 6.59373 7.17803 6.89208
#
# Compressibility (1/GPa) = 0.01828227
#
# Stress axis : x y z
#
# Youngs Moduli (GPa) = 40.00876 113.22987 58.25650
#
# Poissons Ratio (x) = 0.56744 0.54846
# Poissons Ratio (y) = 0.20050 0.11236
# Poissons Ratio (z) = 0.37667 0.21838
#
# Static dielectric constant tensor:
#      x y z
#    x 3.874950 0.000000 -0.011080 
#    y 0.000000 3.658550 0.000000 
#    z -0.011080 0.000000 3.876810 
# 
# 
# High freq. dielectric constant tensor:
#      x y z
#    x 1.804830 0.000000 0.017810 
#    y 0.000000 1.808290 0.000000 
#    z 0.017810 0.000000 1.819710 
# 
# From -- ./inp_files/164283.got.cif
#   From: 2010.06.25/outbox.cif.g09.slc.cpg/sg15_83_cif.got.tgz:164283.got - 2010.06.28 07:06:18.
