data_PCOD8145771
_publ_section_title
;
Structure prediction by ZEFSAII (Michael W. Deem and Ramdas Pophale) SiO2 
 PCOD8145771
Probable space group: C 2/C
;
_chemical_formula_sum "Si O2"
_cell_formula_units_Z 60
_cell_length_a 8.415057
_cell_length_b 25.303196
_cell_length_c 15.118607
_cell_angle_alpha 90.000000
_cell_angle_beta 65.803822
_cell_angle_gamma 90.000000
_cell_volume 2936.359815
_symmetry_space_group_name_H-M "C 2/C"
_symmetry_group_IT_number 15
_symmetry_cell_setting 'monoclinic'
loop_
_space_group_symop_operation_xyz
x,y,z
-x,y,1/2-z
-x,-y,-z
x,-y,1/2+z
1/2+x,1/2+y,z
1/2-x,1/2+y,1/2-z
1/2-x,1/2-y,-z
1/2+x,1/2-y,1/2+z
loop_
_atom_site_type_symbol
_atom_site_label
_atom_site_fract_x
_atom_site_fract_y
_atom_site_fract_z
Si Si1 0.201720 0.802934 0.691340
Si Si2 0.131276 0.051813 0.565429
Si Si3 0.292265 0.818386 0.301285
Si Si4 0.986855 0.560525 0.028938
Si Si5 0.000000 0.124345 0.750000
Si Si6 0.674182 0.906308 0.761187
Si Si7 0.990527 0.940527 0.911425
Si Si8 0.732714 0.144513 0.496328
O O1 0.237482 0.743123 0.711526
O O2 0.296686 0.843354 0.736969
O O3 0.283699 0.808879 0.572945
O O4 0.000000 0.815677 0.750000
O O5 0.315960 0.074100 0.488345
O O6 0.080005 0.087733 0.657962
O O7 0.996717 0.056357 0.516333
O O8 0.127303 0.989859 0.595679
O O9 0.500000 0.833245 0.250000
O O10 0.231910 0.832997 0.414329
O O11 0.163573 0.844107 0.257082
O O12 0.847054 0.568336 0.137804
O O13 0.927608 0.601820 0.964929
O O14 0.000000 0.500000 0.000000
O O15 0.500000 0.918005 0.750000
O O16 0.825798 0.939531 0.679696
O O17 0.897834 0.885270 0.915473
#
# Coordination Sequence:
#
# PCOD8145771 Si02
#       8
#     8   8   8   8   4   8   8   8
#     4  10  22  39  70  93 123 165 216 273 332 383
#     4  11  24  41  59  94 130 168 214 260 321 391
#     4  11  25  46  64  96 132 172 222 274 332 392
#     4  11  23  38  62  95 129 165 209 260 318 389
#     4  12  26  42  68  94 130 182 218 268 330 394
#     4  11  23  40  64  96 126 165 213 271 321 380
#     4  11  22  41  65  91 127 169 209 263 318 384
#     4  11  21  42  68  91 129 169 213 266 328 385
#
# _framework density 20.433464000000001
#
# number of rings (size 3 to 8) (size 9 to 14) (size 15 to 20)
#    0.000    1.067    5.333    1.200    2.800    0.000 
#    0.000    0.000    0.000    5.600    0.000    0.000 
#    0.000    0.000    0.000    0.000    0.000    0.000 
#
# Total GULP energy -371683.766138 kJ/mol
# GULP energy per Si atom -12389.458871 kJ/mol
# Density = 2.038696 g / cm^3
# Si number density = 20.433464 Si / 1000 Ang^3
#
#
#
# Elastic Constant Matrix: (Units=GPa)
#
#
# Indices 1 2 3 4 5 6 
#
# 1 92.1878 13.2692 27.7986 0.0000 -5.9003 0.0000
# 2 13.2692 67.5517 34.8004 0.0000 -0.2727 0.0000
# 3 27.7986 34.8004 98.9134 0.0000 -5.7546 0.0000
# 4 0.0000 0.0000 0.0000 38.7356 0.0000 4.3242
# 5 -5.9003 -0.2727 -5.7546 0.0000 36.3398 0.0000
# 6 0.0000 0.0000 0.0000 4.3242 0.0000 33.2360
#
#
#
# Elastic Compliance Matrix: (Units=1/GPa)
#
#
# Indices 1 2 3 4 5 6 
#
# 1 0.011959 -0.000801 -0.002994 0.000000 0.001462 0.000000
# 2 -0.000801 0.018162 -0.006222 0.000000 -0.000979 0.000000
# 3 -0.002994 -0.006222 0.013231 0.000000 0.001562 0.000000
# 4 0.000000 0.000000 0.000000 0.026197 0.000000 -0.003408
# 5 0.001462 -0.000979 0.001562 0.000000 0.027995 0.000000
# 6 0.000000 0.000000 0.000000 -0.003408 0.000000 0.030531
#
#
# Mechanical properties :
#
#
# Convention : Reuss Voigt Hill
#
# Bulk Modulus (GPa) = 42.88370 45.59883 44.24127
# Shear Modulus (GPa) = 32.07550 33.84793 32.96171
#
# Velocity S-wave (km/s) = 3.96631 4.07442 4.02073
# Velocity P-wave (km/s) = 6.48136 6.67074 6.57673
#
# Compressibility (1/GPa) = 0.02331889
#
# Stress axis : x y z
#
# Youngs Moduli (GPa) = 83.61826 55.05976 75.57856
#
# Poissons Ratio (x) = 0.04409 0.22630
# Poissons Ratio (y) = 0.06695 0.47024
# Poissons Ratio (z) = 0.25037 0.34257
#
# Static dielectric constant tensor:
#      x y z
#    x 4.077350 0.000000 0.001900 
#    y 0.000000 3.781760 0.000000 
#    z 0.001900 0.000000 3.653800 
# 
# 
# High freq. dielectric constant tensor:
#      x y z
#    x 1.807230 0.000000 -0.001400 
#    y 0.000000 1.799710 0.000000 
#    z -0.001400 0.000000 1.799370 
# 
# From -- ./inp_files/137793.got.cif
#   From: 2010.06.25/outbox.cif.g09.slc.cpg/sg15_69_cif.got.tgz:137793.got - 2010.06.28 07:06:18.
