data_PCOD8145993
_publ_section_title
;
Structure prediction by ZEFSAII (Michael W. Deem and Ramdas Pophale) SiO2 
 PCOD8145993
Probable space group: C 2/C
;
_chemical_formula_sum "Si O2"
_cell_formula_units_Z 52
_cell_length_a 20.126835
_cell_length_b 25.479680
_cell_length_c 13.695157
_cell_angle_alpha 90.000000
_cell_angle_beta 158.126072
_cell_angle_gamma 90.000000
_cell_volume 2616.610941
_symmetry_space_group_name_H-M "C 2/C"
_symmetry_group_IT_number 15
_symmetry_cell_setting 'monoclinic'
loop_
_space_group_symop_operation_xyz
x,y,z
-x,y,1/2-z
-x,-y,-z
x,-y,1/2+z
1/2+x,1/2+y,z
1/2-x,1/2+y,1/2-z
1/2-x,1/2-y,-z
1/2+x,1/2-y,1/2+z
loop_
_atom_site_type_symbol
_atom_site_label
_atom_site_fract_x
_atom_site_fract_y
_atom_site_fract_z
Si Si1 0.352941 0.265735 0.338154
Si Si2 0.837858 0.612596 0.473545
Si Si3 0.351745 0.131690 0.969342
Si Si4 0.746128 0.724623 0.389913
Si Si5 0.016443 0.940632 0.054286
Si Si6 0.645271 0.852434 0.718361
Si Si7 0.000000 0.093707 0.750000
O O1 0.224236 0.309676 0.116675
O O2 0.549613 0.284847 0.579209
O O3 0.343842 0.261686 0.443889
O O4 0.319263 0.209554 0.243157
O O5 0.838310 0.668869 0.526776
O O6 0.877555 0.618016 0.414095
O O7 0.647214 0.585778 0.226419
O O8 0.000000 0.581455 0.750000
O O9 0.197504 0.087405 0.762781
O O10 0.500000 0.117619 0.250000
O O11 0.457831 0.132685 0.012259
O O12 0.750000 0.750000 0.500000
O O13 0.996130 0.939622 0.144547
O O14 0.000000 0.000000 0.000000
O O15 0.820480 0.871835 0.014849
#
# Coordination Sequence:
#
# PCOD8145993 Si02
#       7
#     8   8   8   8   8   8   4
#     4  11  22  35  57  97 130 170 212 255 315 389
#     4  10  22  42  62  89 129 174 212 260 322 379
#     4  12  24  41  65  97 130 168 221 271 318 387
#     4  11  20  36  57  88 132 174 209 253 309 378
#     4  11  25  48  69  94 126 162 220 277 326 381
#     4  10  22  40  64  94 136 169 215 256 323 390
#     4  10  22  46  70  94 126 170 206 274 324 386
#
# _framework density 19.873034000000001
#
# number of rings (size 3 to 8) (size 9 to 14) (size 15 to 20)
#    0.000    1.231    4.615    2.308    1.077    1.231 
#    2.769    1.538    0.000    0.000    0.000    0.000 
#    0.000    0.000    0.000    0.000    0.000    0.000 
#
# Total GULP energy -322266.214848 kJ/mol
# GULP energy per Si atom -12394.854417 kJ/mol
# Density = 1.982780 g / cm^3
# Si number density = 19.873034 Si / 1000 Ang^3
#
#
#
# Elastic Constant Matrix: (Units=GPa)
#
#
# Indices 1 2 3 4 5 6 
#
# 1 84.3321 48.1589 37.0587 0.0000 12.1495 0.0000
# 2 48.1589 110.0093 60.4209 0.0000 5.3662 0.0000
# 3 37.0587 60.4209 166.5875 0.0000 10.0988 0.0000
# 4 0.0000 0.0000 0.0000 16.0446 0.0000 -0.9076
# 5 12.1495 5.3662 10.0988 0.0000 38.0602 0.0000
# 6 0.0000 0.0000 0.0000 -0.9076 0.0000 24.4769
#
#
#
# Elastic Compliance Matrix: (Units=1/GPa)
#
#
# Indices 1 2 3 4 5 6 
#
# 1 0.016631 -0.006475 -0.001103 0.000000 -0.004104 0.000000
# 2 -0.006475 0.013882 -0.003660 0.000000 0.001081 0.000000
# 3 -0.001103 -0.003660 0.007646 0.000000 -0.001161 0.000000
# 4 0.000000 0.000000 0.000000 0.062457 0.000000 0.002316
# 5 -0.004104 0.001081 -0.001161 0.000000 0.027740 0.000000
# 6 0.000000 0.000000 0.000000 0.002316 0.000000 0.040941
#
#
# Mechanical properties :
#
#
# Convention : Reuss Voigt Hill
#
# Bulk Modulus (GPa) = 63.75862 72.46733 68.11297
# Shear Modulus (GPa) = 25.38066 30.06904 27.72485
#
# Velocity S-wave (km/s) = 3.57759 3.89402 3.73915
# Velocity P-wave (km/s) = 7.01556 7.53407 7.27944
#
# Compressibility (1/GPa) = 0.01568415
#
# Stress axis : x y z
#
# Youngs Moduli (GPa) = 60.12813 72.03441 130.78699
#
# Poissons Ratio (x) = 0.46642 0.14420
# Poissons Ratio (y) = 0.38933 0.47870
# Poissons Ratio (z) = 0.06629 0.26366
#
# Static dielectric constant tensor:
#      x y z
#    x 3.772950 0.000000 0.295110 
#    y 0.000000 3.382370 0.000000 
#    z 0.295110 0.000000 4.030350 
# 
# 
# High freq. dielectric constant tensor:
#      x y z
#    x 1.780560 0.000000 0.010570 
#    y 0.000000 1.743690 0.000000 
#    z 0.010570 0.000000 1.801370 
# 
# From -- ./inp_files/169882.got.cif
#   From: 2010.06.25/outbox.cif.g09.slc.cpg/sg15_85_cif.got.tgz:169882.got - 2010.06.28 07:06:18.
