data_PCOD8145497
_publ_section_title
;
Structure prediction by ZEFSAII (Michael W. Deem and Ramdas Pophale) SiO2 
 PCOD8145497
Probable space group: C 2/C
;
_chemical_formula_sum "Si O2"
_cell_formula_units_Z 44
_cell_length_a 9.934675
_cell_length_b 26.940686
_cell_length_c 9.379541
_cell_angle_alpha 90.000000
_cell_angle_beta 57.546588
_cell_angle_gamma 90.000000
_cell_volume 2118.350696
_symmetry_space_group_name_H-M "C 2/C"
_symmetry_group_IT_number 15
_symmetry_cell_setting 'monoclinic'
loop_
_space_group_symop_operation_xyz
x,y,z
-x,y,1/2-z
-x,-y,-z
x,-y,1/2+z
1/2+x,1/2+y,z
1/2-x,1/2+y,1/2-z
1/2-x,1/2-y,-z
1/2+x,1/2-y,1/2+z
loop_
_atom_site_type_symbol
_atom_site_label
_atom_site_fract_x
_atom_site_fract_y
_atom_site_fract_z
Si Si1 0.154887 0.149064 0.750219
Si Si2 0.000000 0.502700 0.750000
Si Si3 0.896048 0.646536 0.169250
Si Si4 0.546029 0.666137 0.383733
Si Si5 0.951374 0.718515 0.615525
Si Si6 0.886850 0.564630 0.555032
O O1 0.284830 0.192628 0.670359
O O2 0.227893 0.097964 0.648524
O O3 0.000000 0.165902 0.750000
O O4 0.094586 0.140960 0.945578
O O5 0.895080 0.534963 0.699490
O O6 0.118911 0.469755 0.583462
O O7 0.713979 0.639578 0.321214
O O8 0.000000 0.653636 0.250000
O O9 0.909238 0.695296 0.061985
O O10 0.955027 0.598827 0.046164
O O11 0.500000 0.656302 0.250000
O O12 0.560368 0.723968 0.414048
O O13 0.000000 0.708454 0.750000
#
# Coordination Sequence:
#
# PCOD8145497 Si02
#       6
#     8   4   8   8   8   8
#     4  11  24  39  61  95 132 160 202 261 311 355
#     4  10  22  44  74  90 114 158 208 248 308 398
#     4  11  22  37  62  89 125 164 207 253 298 373
#     4  11  23  37  59  92 130 167 210 260 300 345
#     4  10  22  39  59  87 125 178 222 240 285 368
#     4  10  23  42  69  93 118 157 207 248 311 388
#
# _framework density 20.770876999999999
#
# number of rings (size 3 to 8) (size 9 to 14) (size 15 to 20)
#    0.000    1.455    0.909    4.364    7.636    7.273 
#    0.000    0.909    0.000    0.000    0.000    0.000 
#    0.000    0.000    0.000    0.000    0.000    0.000 
#
# Total GULP energy -272835.334920 kJ/mol
# GULP energy per Si atom -12401.606133 kJ/mol
# Density = 2.072360 g / cm^3
# Si number density = 20.770877 Si / 1000 Ang^3
#
#
#
# Elastic Constant Matrix: (Units=GPa)
#
#
# Indices 1 2 3 4 5 6 
#
# 1 83.1700 33.9959 23.1925 0.0000 4.0533 0.0000
# 2 33.9959 80.7493 40.9100 0.0000 8.7265 0.0000
# 3 23.1925 40.9100 122.6431 0.0000 8.0544 0.0000
# 4 0.0000 0.0000 0.0000 35.5654 0.0000 -0.7169
# 5 4.0533 8.7265 8.0544 0.0000 40.2126 0.0000
# 6 0.0000 0.0000 0.0000 -0.7169 0.0000 13.6022
#
#
#
# Elastic Compliance Matrix: (Units=1/GPa)
#
#
# Indices 1 2 3 4 5 6 
#
# 1 0.014597 -0.005707 -0.000853 0.000000 -0.000062 0.000000
# 2 -0.005707 0.017340 -0.004556 0.000000 -0.002275 0.000000
# 3 -0.000853 -0.004556 0.009894 0.000000 -0.000907 0.000000
# 4 0.000000 0.000000 0.000000 0.028147 0.000000 0.001484
# 5 -0.000062 -0.002275 -0.000907 0.000000 0.025550 0.000000
# 6 0.000000 0.000000 0.000000 0.001484 0.000000 0.073596
#
#
# Mechanical properties :
#
#
# Convention : Reuss Voigt Hill
#
# Bulk Modulus (GPa) = 51.01637 53.63990 52.32813
# Shear Modulus (GPa) = 25.26683 30.44032 27.85358
#
# Velocity S-wave (km/s) = 3.49155 3.83238 3.66593
# Velocity P-wave (km/s) = 6.39292 6.74266 6.57012
#
# Compressibility (1/GPa) = 0.01960155
#
# Stress axis : x y z
#
# Youngs Moduli (GPa) = 68.50726 57.66856 101.06930
#
# Poissons Ratio (x) = 0.32910 0.08618
# Poissons Ratio (y) = 0.39095 0.46044
# Poissons Ratio (z) = 0.05842 0.26272
#
# Static dielectric constant tensor:
#      x y z
#    x 3.353130 0.000000 0.274590 
#    y 0.000000 3.788880 0.000000 
#    z 0.274590 0.000000 3.909670 
# 
# 
# High freq. dielectric constant tensor:
#      x y z
#    x 1.800970 0.000000 0.010160 
#    y 0.000000 1.800280 0.000000 
#    z 0.010160 0.000000 1.839830 
# 
# From -- ./inp_files/25997.got.cif
#   From: 2010.06.25/outbox.cif.g09.slc.cpg/sg15_13_cif.got.tgz:25997.got - 2010.06.28 07:06:18.
