data_PCOD8145063
_publ_section_title
;
Structure prediction by ZEFSAII (Michael W. Deem and Ramdas Pophale) SiO2 
 PCOD8145063
Probable space group: C 2/C
;
_chemical_formula_sum "Si O2"
_cell_formula_units_Z 64
_cell_length_a 28.672541
_cell_length_b 14.011738
_cell_length_c 9.436070
_cell_angle_alpha 90.000000
_cell_angle_beta 98.964632
_cell_angle_gamma 90.000000
_cell_volume 3744.653581
_symmetry_space_group_name_H-M "C 2/C"
_symmetry_group_IT_number 15
_symmetry_cell_setting 'monoclinic'
loop_
_space_group_symop_operation_xyz
x,y,z
-x,y,1/2-z
-x,-y,-z
x,-y,1/2+z
1/2+x,1/2+y,z
1/2-x,1/2+y,1/2-z
1/2-x,1/2-y,-z
1/2+x,1/2-y,1/2+z
loop_
_atom_site_type_symbol
_atom_site_label
_atom_site_fract_x
_atom_site_fract_y
_atom_site_fract_z
Si Si1 0.946561 0.598513 0.560232
Si Si2 0.367720 0.832414 0.850202
Si Si3 0.273586 0.721341 0.867888
Si Si4 0.188283 0.501128 0.563338
Si Si5 0.633106 0.187751 0.480708
Si Si6 0.054230 0.402968 0.111863
Si Si7 0.248811 0.986926 0.154463
Si Si8 0.783259 0.194517 0.409034
O O1 0.914844 0.681004 0.468973
O O2 0.939546 0.500230 0.471970
O O3 0.930985 0.582268 0.716495
O O4 0.000454 0.633273 0.577424
O O5 0.325794 0.762417 0.872893
O O6 0.380352 0.820165 0.691196
O O7 0.352300 0.939628 0.882379
O O8 0.282757 0.608024 0.860335
O O9 0.234226 0.765663 0.747625
O O10 0.250000 0.750000 0.000000
O O11 0.170387 0.608005 0.543783
O O12 0.203762 0.465303 0.415083
O O13 0.235761 0.493883 0.677906
O O14 0.586054 0.178935 0.553331
O O15 0.661361 0.285103 0.530741
O O16 0.221760 0.079770 0.081846
O O17 0.750000 0.250000 0.500000
#
# Coordination Sequence:
#
# PCOD8145063 Si02
#       8
#     8   8   8   8   8   8   8   8
#     4  10  22  37  55  79 110 137 184 228 280 335
#     4  12  23  35  51  81 108 146 189 224 271 327
#     4  12  23  34  52  81 110 145 191 230 273 320
#     4  12  20  32  51  74 104 148 181 217 261 317
#     4  12  23  34  55  76 108 150 187 221 273 328
#     4  10  22  37  55  80 106 144 178 231 279 335
#     4  12  22  36  52  72 112 150 188 226 264 312
#     4  12  21  38  52  75 110 151 187 223 270 327
#
# _framework density 17.091032999999999
#
# number of rings (size 3 to 8) (size 9 to 14) (size 15 to 20)
#    0.000    0.500    8.750    0.750    3.500    1.500 
#    0.000    0.000    0.000    0.000    0.000    0.875 
#    0.000    0.000    0.000    0.000    0.000    0.000 
#
# Total GULP energy -396651.153401 kJ/mol
# GULP energy per Si atom -12395.348544 kJ/mol
# Density = 1.705213 g / cm^3
# Si number density = 17.091033 Si / 1000 Ang^3
#
#
#
# Elastic Constant Matrix: (Units=GPa)
#
#
# Indices 1 2 3 4 5 6 
#
# 1 100.8140 27.4322 52.7467 0.0000 -0.4726 0.0000
# 2 27.4322 66.8421 27.9312 0.0000 3.6271 0.0000
# 3 52.7467 27.9312 133.7871 0.0000 -2.5526 0.0000
# 4 0.0000 0.0000 0.0000 17.3010 0.0000 2.5452
# 5 -0.4726 3.6271 -2.5526 0.0000 31.2545 0.0000
# 6 0.0000 0.0000 0.0000 2.5452 0.0000 27.3052
#
#
#
# Elastic Compliance Matrix: (Units=1/GPa)
#
#
# Indices 1 2 3 4 5 6 
#
# 1 0.013230 -0.003578 -0.004464 0.000000 0.000251 0.000000
# 2 -0.003578 0.017508 -0.002288 0.000000 -0.002273 0.000000
# 3 -0.004464 -0.002288 0.009731 0.000000 0.000993 0.000000
# 4 0.000000 0.000000 0.000000 0.058604 0.000000 -0.005463
# 5 0.000251 -0.002273 0.000993 0.000000 0.032344 0.000000
# 6 0.000000 0.000000 0.000000 -0.005463 0.000000 0.037132
#
#
# Mechanical properties :
#
#
# Convention : Reuss Voigt Hill
#
# Bulk Modulus (GPa) = 50.48126 57.51816 53.99971
# Shear Modulus (GPa) = 25.53462 28.06099 26.79781
#
# Velocity S-wave (km/s) = 3.86947 4.05638 3.96402
# Velocity P-wave (km/s) = 7.04021 7.46096 7.25364
#
# Compressibility (1/GPa) = 0.01980933
#
# Stress axis : x y z
#
# Youngs Moduli (GPa) = 75.58786 57.11548 102.76166
#
# Poissons Ratio (x) = 0.20434 0.45875
# Poissons Ratio (y) = 0.27043 0.23513
# Poissons Ratio (z) = 0.33744 0.13069
#
# Static dielectric constant tensor:
#      x y z
#    x 3.203380 0.000000 0.058660 
#    y 0.000000 3.099480 0.000000 
#    z 0.058660 0.000000 3.521010 
# 
# 
# High freq. dielectric constant tensor:
#      x y z
#    x 1.643730 0.000000 -0.002870 
#    y 0.000000 1.623760 0.000000 
#    z -0.002870 0.000000 1.688120 
# 
# From -- ./inp_files/69735.got.cif
#   From: 2010.06.25/outbox.cif.g09.slc.cpg/sg15_35_cif.got.tgz:69735.got - 2010.06.28 07:06:18.
