data_PCOD8145860
_publ_section_title
;
Structure prediction by ZEFSAII (Michael W. Deem and Ramdas Pophale) SiO2 
 PCOD8145860
Probable space group: C 2/C
;
_chemical_formula_sum "Si O2"
_cell_formula_units_Z 44
_cell_length_a 16.725012
_cell_length_b 10.036379
_cell_length_c 13.571597
_cell_angle_alpha 90.000000
_cell_angle_beta 100.619108
_cell_angle_gamma 90.000000
_cell_volume 2239.093708
_symmetry_space_group_name_H-M "C 2/C"
_symmetry_group_IT_number 15
_symmetry_cell_setting 'monoclinic'
loop_
_space_group_symop_operation_xyz
x,y,z
-x,y,1/2-z
-x,-y,-z
x,-y,1/2+z
1/2+x,1/2+y,z
1/2-x,1/2+y,1/2-z
1/2-x,1/2-y,-z
1/2+x,1/2-y,1/2+z
loop_
_atom_site_type_symbol
_atom_site_label
_atom_site_fract_x
_atom_site_fract_y
_atom_site_fract_z
Si Si1 0.500000 0.067298 0.750000
Si Si2 0.658523 0.297716 0.462162
Si Si3 0.764279 0.958308 0.449995
Si Si4 0.347164 0.812000 0.929345
Si Si5 0.015895 0.350580 0.042044
Si Si6 0.147156 0.614972 0.293447
O O1 0.472938 0.156645 0.836977
O O2 0.427985 0.976235 0.692283
O O3 0.750000 0.250000 0.500000
O O4 0.661445 0.457173 0.482559
O O5 0.596040 0.220290 0.518564
O O6 0.635782 0.259214 0.344103
O O7 0.694253 0.926593 0.513841
O O8 0.795042 0.821111 0.412334
O O9 0.728534 0.043270 0.351215
O O10 0.351639 0.873008 0.822498
O O11 0.435491 0.770397 0.990674
O O12 0.000000 0.500000 0.000000
#
# Coordination Sequence:
#
# PCOD8145860 Si02
#       6
#     4   8   8   8   8   8
#     4  12  22  36  64  94 116 166 212 256 314 366
#     4  10  22  40  61  91 123 163 206 259 312 370
#     4  10  24  42  58  94 130 166 208 260 322 374
#     4  11  23  40  63  91 130 165 211 265 309 385
#     4  12  21  40  62  89 128 160 212 262 307 375
#     4  11  21  36  65  91 118 167 207 255 313 370
#
# _framework density 19.650807
#
# number of rings (size 3 to 8) (size 9 to 14) (size 15 to 20)
#    0.000    1.091    5.455    1.091    2.545    2.182 
#    0.000    0.000    0.000    0.000    0.000    0.000 
#    0.000    0.000    0.000    0.000    0.000    0.000 
#
# Total GULP energy -272721.856806 kJ/mol
# GULP energy per Si atom -12396.448037 kJ/mol
# Density = 1.960608 g / cm^3
# Si number density = 19.650807 Si / 1000 Ang^3
#
#
#
# Elastic Constant Matrix: (Units=GPa)
#
#
# Indices 1 2 3 4 5 6 
#
# 1 117.4299 34.7405 39.8812 0.0000 -6.4494 0.0000
# 2 34.7405 72.7275 23.5564 0.0000 -0.2261 0.0000
# 3 39.8812 23.5564 114.4459 0.0000 -3.9865 0.0000
# 4 0.0000 0.0000 0.0000 21.5137 0.0000 4.2646
# 5 -6.4494 -0.2261 -3.9865 0.0000 31.9820 0.0000
# 6 0.0000 0.0000 0.0000 4.2646 0.0000 34.3719
#
#
#
# Elastic Compliance Matrix: (Units=1/GPa)
#
#
# Indices 1 2 3 4 5 6 
#
# 1 0.010836 -0.004251 -0.002838 0.000000 0.001801 0.000000
# 2 -0.004251 0.016402 -0.001929 0.000000 -0.000982 0.000000
# 3 -0.002838 -0.001929 0.010148 0.000000 0.000679 0.000000
# 4 0.000000 0.000000 0.000000 0.047654 0.000000 -0.005913
# 5 0.001801 -0.000982 0.000679 0.000000 0.031708 0.000000
# 6 0.000000 0.000000 0.000000 -0.005913 0.000000 0.029827
#
#
# Mechanical properties :
#
#
# Convention : Reuss Voigt Hill
#
# Bulk Modulus (GPa) = 51.68178 55.66216 53.67197
# Shear Modulus (GPa) = 29.22903 31.33520 30.28212
#
# Velocity S-wave (km/s) = 3.86089 3.99758 3.92983
# Velocity P-wave (km/s) = 6.79945 7.04944 6.92557
#
# Compressibility (1/GPa) = 0.01934918
#
# Stress axis : x y z
#
# Youngs Moduli (GPa) = 92.28219 60.96649 98.54642
#
# Poissons Ratio (x) = 0.25919 0.27971
# Poissons Ratio (y) = 0.39233 0.19008
# Poissons Ratio (z) = 0.26193 0.11759
#
# Static dielectric constant tensor:
#      x y z
#    x 3.816230 0.000000 0.079290 
#    y 0.000000 3.816470 0.000000 
#    z 0.079290 0.000000 3.656650 
# 
# 
# High freq. dielectric constant tensor:
#      x y z
#    x 1.771880 0.000000 -0.003360 
#    y 0.000000 1.748480 0.000000 
#    z -0.003360 0.000000 1.772570 
# 
# From -- ./inp_files/151425.got.cif
#   From: 2010.06.25/outbox.cif.g09.slc.cpg/sg15_76_cif.got.tgz:151425.got - 2010.06.28 07:06:18.
