data_PCOD8145615
_publ_section_title
;
Structure prediction by ZEFSAII (Michael W. Deem and Ramdas Pophale) SiO2 
 PCOD8145615
Probable space group: C 2/C
;
_chemical_formula_sum "Si O2"
_cell_formula_units_Z 48
_cell_length_a 18.331913
_cell_length_b 20.305396
_cell_length_c 7.851747
_cell_angle_alpha 90.000000
_cell_angle_beta 51.379381
_cell_angle_gamma 90.000000
_cell_volume 2283.500428
_symmetry_space_group_name_H-M "C 2/C"
_symmetry_group_IT_number 15
_symmetry_cell_setting 'monoclinic'
loop_
_space_group_symop_operation_xyz
x,y,z
-x,y,1/2-z
-x,-y,-z
x,-y,1/2+z
1/2+x,1/2+y,z
1/2-x,1/2+y,1/2-z
1/2-x,1/2-y,-z
1/2+x,1/2-y,1/2+z
loop_
_atom_site_type_symbol
_atom_site_label
_atom_site_fract_x
_atom_site_fract_y
_atom_site_fract_z
Si Si1 0.017397 0.425725 0.527116
Si Si2 0.189302 0.794467 0.213577
Si Si3 0.613209 0.440732 0.711449
Si Si4 0.209171 0.366150 0.124565
Si Si5 0.426438 0.583257 0.621412
Si Si6 0.085916 0.684643 0.522089
O O1 0.123928 0.407835 0.327643
O O2 0.000000 0.414192 0.750000
O O3 0.000000 0.500000 0.500000
O O4 0.941943 0.382228 0.535059
O O5 0.248307 0.819458 0.290577
O O6 0.133814 0.856529 0.211611
O O7 0.106011 0.744897 0.371714
O O8 0.250000 0.750000 0.000000
O O9 0.717805 0.413872 0.579063
O O10 0.612069 0.519682 0.724957
O O11 0.587484 0.420844 0.559005
O O12 0.540808 0.411400 0.962000
O O13 0.173385 0.322942 0.020238
O O14 0.000000 0.712276 0.750000
#
# Coordination Sequence:
#
# PCOD8145615 Si02
#       6
#     8   8   8   8   8   8
#     4  11  23  42  65  92 128 166 217 273 332 385
#     4  11  23  38  60  92 129 168 210 266 328 389
#     4   9  19  37  61  88 117 157 213 255 314 370
#     4  10  22  39  63  91 117 171 217 262 314 397
#     4   9  20  37  60  87 124 159 201 266 316 371
#     4  10  23  40  62  86 124 165 209 261 323 386
#
# _framework density 21.020358000000002
#
# number of rings (size 3 to 8) (size 9 to 14) (size 15 to 20)
#    0.000    2.000    0.000    3.000    4.667    8.000 
#    0.000    0.000    7.333    0.000    0.000    0.000 
#    0.000    0.000    0.000    0.000    0.000    0.000 
#
# Total GULP energy -297313.618770 kJ/mol
# GULP energy per Si atom -12388.067449 kJ/mol
# Density = 2.097252 g / cm^3
# Si number density = 21.020358 Si / 1000 Ang^3
#
#
#
# Elastic Constant Matrix: (Units=GPa)
#
#
# Indices 1 2 3 4 5 6 
#
# 1 81.1455 42.3377 35.5284 0.0000 -21.3776 0.0000
# 2 42.3377 158.8471 76.9369 0.0000 -22.5846 0.0000
# 3 35.5284 76.9369 126.7148 0.0000 -20.8555 0.0000
# 4 0.0000 0.0000 0.0000 24.9312 0.0000 42.4005
# 5 -21.3776 -22.5846 -20.8555 0.0000 27.6066 0.0000
# 6 0.0000 0.0000 0.0000 42.4005 0.0000 -49.5247
#
#
#
# Elastic Compliance Matrix: (Units=1/GPa)
#
#
# Indices 1 2 3 4 5 6 
#
# 1 0.016866 -0.002246 -0.001733 0.000000 0.009913 0.000000
# 2 -0.002246 0.009553 -0.004763 0.000000 0.002478 0.000000
# 3 -0.001733 -0.004763 0.011885 0.000000 0.003740 0.000000
# 4 0.000000 0.000000 0.000000 0.016331 0.000000 0.013982
# 5 0.009913 0.002478 0.003740 0.000000 0.048752 0.000000
# 6 0.000000 0.000000 0.000000 0.013982 0.000000 -0.008221
#
#
# Mechanical properties :
#
#
# Convention : Reuss Voigt Hill
#
# Bulk Modulus (GPa) = 48.03200 75.14594 61.58897
# Shear Modulus (GPa) = 41.80898 14.72959 28.26929
#
# Velocity S-wave (km/s) = 4.46463 2.65000 3.67120
# Velocity P-wave (km/s) = 7.03399 6.72236 6.87994
#
# Compressibility (1/GPa) = 0.02081945
#
# Stress axis : x y z
#
# Youngs Moduli (GPa) = 59.29025 104.67718 84.13914
#
# Poissons Ratio (x) = 0.23514 0.14585
# Poissons Ratio (y) = 0.13318 0.40073
# Poissons Ratio (z) = 0.10278 0.49855
#
# Static dielectric constant tensor:
#      x y z
#    x 3.820830 0.000000 -0.244610 
#    y 0.000000 3.912620 0.000000 
#    z -0.244610 0.000000 4.067340 
# 
# 
# High freq. dielectric constant tensor:
#      x y z
#    x 1.818830 0.000000 -0.011010 
#    y 0.000000 1.827450 0.000000 
#    z -0.011010 0.000000 1.837450 
# 
# From -- ./inp_files/57709.got.cif
#   From: 2010.06.25/outbox.cif.g09.slc.cpg/sg15_29_cif.got.tgz:57709.got - 2010.06.28 07:06:18.
