data_PCOD8145198
_publ_section_title
;
Structure prediction by ZEFSAII (Michael W. Deem and Ramdas Pophale) SiO2 
 PCOD8145198
Probable space group: C 2/C
;
_chemical_formula_sum "Si O2"
_cell_formula_units_Z 64
_cell_length_a 9.536140
_cell_length_b 26.876665
_cell_length_c 13.417352
_cell_angle_alpha 90.000000
_cell_angle_beta 102.681225
_cell_angle_gamma 90.000000
_cell_volume 3354.976708
_symmetry_space_group_name_H-M "C 2/C"
_symmetry_group_IT_number 15
_symmetry_cell_setting 'monoclinic'
loop_
_space_group_symop_operation_xyz
x,y,z
-x,y,1/2-z
-x,-y,-z
x,-y,1/2+z
1/2+x,1/2+y,z
1/2-x,1/2+y,1/2-z
1/2-x,1/2-y,-z
1/2+x,1/2-y,1/2+z
loop_
_atom_site_type_symbol
_atom_site_label
_atom_site_fract_x
_atom_site_fract_y
_atom_site_fract_z
Si Si1 0.158174 0.616446 0.374114
Si Si2 0.153067 0.864041 0.306991
Si Si3 0.666233 0.881095 0.648956
Si Si4 0.851097 0.298475 0.013178
Si Si5 0.380486 0.560185 0.521397
Si Si6 0.813044 0.053853 0.016756
Si Si7 0.148799 0.387301 0.334274
Si Si8 0.172973 0.296716 0.029931
O O1 0.201445 0.630880 0.268614
O O2 0.264345 0.572418 0.419365
O O3 0.184374 0.664505 0.443392
O O4 0.996770 0.597917 0.372844
O O5 0.140469 0.907875 0.383835
O O6 0.223963 0.889987 0.223829
O O7 0.249044 0.818284 0.360142
O O8 0.000000 0.842065 0.250000
O O9 0.684894 0.829896 0.591250
O O10 0.772398 0.922097 0.617355
O O11 0.750000 0.250000 0.000000
O O12 0.841096 0.334079 0.108238
O O13 0.013831 0.279731 0.033886
O O14 0.537524 0.574235 0.504019
O O15 0.344431 0.503597 0.542229
O O16 0.681771 0.068385 0.919798
O O17 0.000000 0.395300 0.250000
O O18 0.250000 0.250000 0.000000
#
# Coordination Sequence:
#
# PCOD8145198 Si02
#       8
#     8   8   8   8   8   8   8   8
#     4   9  20  40  59  81 119 154 195 240 287 352
#     4  11  22  40  62  88 122 161 197 245 299 355
#     4   9  20  40  59  83 115 158 193 237 296 343
#     4  10  22  38  60  86 121 154 195 247 293 351
#     4  10  22  39  59  89 121 152 198 244 293 353
#     4  10  22  39  60  88 120 155 194 246 296 346
#     4  11  22  42  62  87 123 159 198 245 298 355
#     4  10  22  38  58  89 119 153 198 244 292 353
#
# _framework density 19.076139000000001
#
# number of rings (size 3 to 8) (size 9 to 14) (size 15 to 20)
#    0.000    2.000    2.500    0.000    3.500    4.000 
#    4.500    0.000    0.000    0.000    0.000    0.000 
#    0.000    0.000    0.000    0.000    0.000    0.000 
#
# Total GULP energy -396604.975742 kJ/mol
# GULP energy per Si atom -12393.905492 kJ/mol
# Density = 1.903272 g / cm^3
# Si number density = 19.076139 Si / 1000 Ang^3
#
#
#
# Elastic Constant Matrix: (Units=GPa)
#
#
# Indices 1 2 3 4 5 6 
#
# 1 122.4585 50.5414 44.4540 0.0000 -4.2259 0.0000
# 2 50.5414 72.1307 21.5985 0.0000 -0.0856 0.0000
# 3 44.4540 21.5985 94.0736 0.0000 -3.3498 0.0000
# 4 0.0000 0.0000 0.0000 -419.0920 0.0000 -74.2661
# 5 -4.2259 -0.0856 -3.3498 0.0000 37.2179 0.0000
# 6 0.0000 0.0000 0.0000 -74.2661 0.0000 22.7979
#
#
#
# Elastic Compliance Matrix: (Units=1/GPa)
#
#
# Indices 1 2 3 4 5 6 
#
# 1 0.012990 -0.007811 -0.004307 0.000000 0.001069 0.000000
# 2 -0.007811 0.019587 -0.000838 0.000000 -0.000917 0.000000
# 3 -0.004307 -0.000838 0.012882 0.000000 0.000668 0.000000
# 4 0.000000 0.000000 0.000000 -0.001513 0.000000 -0.004928
# 5 0.001069 -0.000917 0.000668 0.000000 0.027048 0.000000
# 6 0.000000 0.000000 0.000000 -0.004928 0.000000 0.027810
#
#
# Mechanical properties :
#
#
# Convention : Reuss Voigt Hill
#
# Bulk Modulus (GPa) = 51.16323 57.98339 54.57331
# Shear Modulus (GPa) = 38.10018 -60.34398 -11.12190
#
# Velocity S-wave (km/s) = 4.47393 -5.63044 -2.41721
# Velocity P-wave (km/s) = 7.31894 3.43620 4.56943
#
# Compressibility (1/GPa) = 0.01954529
#
# Stress axis : x y z
#
# Youngs Moduli (GPa) = 76.98029 51.05427 77.63038
#
# Poissons Ratio (x) = 0.39880 0.33436
# Poissons Ratio (y) = 0.60131 0.06509
# Poissons Ratio (z) = 0.33156 0.04281
#
# Static dielectric constant tensor:
#      x y z
#    x 3.780730 0.000000 0.102290 
#    y 0.000000 3.344020 0.000000 
#    z 0.102290 0.000000 3.575490 
# 
# 
# High freq. dielectric constant tensor:
#      x y z
#    x 1.757670 0.000000 -0.004710 
#    y 0.000000 1.725630 0.000000 
#    z -0.004710 0.000000 1.751500 
# 
# From -- ./inp_files/138666.got.cif
#   From: 2010.06.25/outbox.cif.g09.slc.cpg/sg15_70_cif.got.tgz:138666.got - 2010.06.28 07:06:18.
