data_PCOD8145622
_publ_section_title
;
Structure prediction by ZEFSAII (Michael W. Deem and Ramdas Pophale) SiO2 
 PCOD8145622
Probable space group: C 2/C
;
_chemical_formula_sum "Si O2"
_cell_formula_units_Z 32
_cell_length_a 13.762695
_cell_length_b 8.397217
_cell_length_c 13.290055
_cell_angle_alpha 90.000000
_cell_angle_beta 105.353974
_cell_angle_gamma 90.000000
_cell_volume 1481.090502
_symmetry_space_group_name_H-M "C 2/C"
_symmetry_group_IT_number 15
_symmetry_cell_setting 'monoclinic'
loop_
_space_group_symop_operation_xyz
x,y,z
-x,y,1/2-z
-x,-y,-z
x,-y,1/2+z
1/2+x,1/2+y,z
1/2-x,1/2+y,1/2-z
1/2-x,1/2-y,-z
1/2+x,1/2-y,1/2+z
loop_
_atom_site_type_symbol
_atom_site_label
_atom_site_fract_x
_atom_site_fract_y
_atom_site_fract_z
Si Si1 0.222599 0.352692 0.589148
Si Si2 0.409295 0.125034 0.971216
Si Si3 0.407823 0.343163 0.787127
Si Si4 0.465176 0.692247 0.851307
O O1 0.250000 0.250000 0.500000
O O2 0.191268 0.523741 0.532948
O O3 0.316118 0.377994 0.687773
O O4 0.132543 0.283256 0.633100
O O5 0.383846 0.203852 0.857631
O O6 0.435782 0.267039 0.055181
O O7 0.500000 0.000000 0.000000
O O8 0.500000 0.272534 0.750000
O O9 0.442381 0.505141 0.851466
O O10 0.500000 0.746740 0.750000
#
# Coordination Sequence:
#
# PCOD8145622 Si02
#       4
#     8   8   8   8
#     4  11  24  42  65  95 128 170 215 264 319 381
#     4  10  22  39  63  92 124 165 208 259 318 376
#     4  11  22  41  65  95 130 167 212 266 320 382
#     4  10  23  42  64  94 128 168 213 265 322 381
#
# _framework density 21.605702999999998
#
# number of rings (size 3 to 8) (size 9 to 14) (size 15 to 20)
#    0.000    1.500    0.000    5.250    0.000   12.000 
#    0.000    7.500    0.000    0.000    0.000    0.000 
#    0.000    0.000    0.000    0.000    0.000    0.000 
#
# Total GULP energy -198286.964513 kJ/mol
# GULP energy per Si atom -12392.935282 kJ/mol
# Density = 2.155653 g / cm^3
# Si number density = 21.605703 Si / 1000 Ang^3
#
#
#
# Elastic Constant Matrix: (Units=GPa)
#
#
# Indices 1 2 3 4 5 6 
#
# 1 118.5503 49.4143 63.7417 0.0000 -0.6677 0.0000
# 2 49.4143 129.9345 77.2834 0.0000 12.8816 0.0000
# 3 63.7417 77.2834 142.8712 0.0000 21.6390 0.0000
# 4 0.0000 0.0000 0.0000 38.6713 0.0000 0.3910
# 5 -0.6677 12.8816 21.6390 0.0000 45.7799 0.0000
# 6 0.0000 0.0000 0.0000 0.3910 0.0000 42.8999
#
#
#
# Elastic Compliance Matrix: (Units=1/GPa)
#
#
# Indices 1 2 3 4 5 6 
#
# 1 0.011768 -0.002033 -0.004592 0.000000 0.002914 0.000000
# 2 -0.002033 0.011702 -0.005299 0.000000 -0.000818 0.000000
# 3 -0.004592 -0.005299 0.012601 0.000000 -0.004532 0.000000
# 4 0.000000 0.000000 0.000000 0.025861 0.000000 -0.000236
# 5 0.002914 -0.000818 -0.004532 0.000000 0.024258 0.000000
# 6 0.000000 0.000000 0.000000 -0.000236 0.000000 0.023312
#
#
# Mechanical properties :
#
#
# Convention : Reuss Voigt Hill
#
# Bulk Modulus (GPa) = 81.81435 85.80387 83.80911
# Shear Modulus (GPa) = 36.38318 38.86466 37.62392
#
# Velocity S-wave (km/s) = 4.10806 4.24584 4.17752
# Velocity P-wave (km/s) = 7.77501 7.98974 7.88311
#
# Compressibility (1/GPa) = 0.01222279
#
# Stress axis : x y z
#
# Youngs Moduli (GPa) = 84.97582 85.45267 79.35931
#
# Poissons Ratio (x) = 0.17374 0.36441
# Poissons Ratio (y) = 0.17277 0.42055
# Poissons Ratio (z) = 0.39020 0.45284
#
# Static dielectric constant tensor:
#      x y z
#    x 4.087290 0.000000 0.239420 
#    y 0.000000 4.140230 0.000000 
#    z 0.239420 0.000000 4.189130 
# 
# 
# High freq. dielectric constant tensor:
#      x y z
#    x 1.847180 0.000000 0.012210 
#    y 0.000000 1.860320 0.000000 
#    z 0.012210 0.000000 1.860100 
# 
# From -- ./inp_files/93423.got.cif
#   From: 2010.06.25/outbox.cif.g09.slc.cpg/sg15_47_cif.got.tgz:93423.got - 2010.06.28 07:06:18.
