data_PCOD8145736
_publ_section_title
;
Structure prediction by ZEFSAII (Michael W. Deem and Ramdas Pophale) SiO2 
 PCOD8145736
Probable space group: C 2/C
;
_chemical_formula_sum "Si O2"
_cell_formula_units_Z 48
_cell_length_a 23.877581
_cell_length_b 11.049560
_cell_length_c 8.994407
_cell_angle_alpha 90.000000
_cell_angle_beta 65.755319
_cell_angle_gamma 90.000000
_cell_volume 2163.752164
_symmetry_space_group_name_H-M "C 2/C"
_symmetry_group_IT_number 15
_symmetry_cell_setting 'monoclinic'
loop_
_space_group_symop_operation_xyz
x,y,z
-x,y,1/2-z
-x,-y,-z
x,-y,1/2+z
1/2+x,1/2+y,z
1/2-x,1/2+y,1/2-z
1/2-x,1/2-y,-z
1/2+x,1/2-y,1/2+z
loop_
_atom_site_type_symbol
_atom_site_label
_atom_site_fract_x
_atom_site_fract_y
_atom_site_fract_z
Si Si1 0.702159 0.169200 0.722452
Si Si2 0.572985 0.544459 0.192014
Si Si3 0.441623 0.911556 0.912210
Si Si4 0.663424 0.728757 0.955578
Si Si5 0.106348 0.835538 0.958244
Si Si6 0.374455 0.059239 0.197892
O O1 0.680159 0.190190 0.578539
O O2 0.775173 0.157761 0.660315
O O3 0.674108 0.277668 0.856118
O O4 0.676902 0.038156 0.793583
O O5 0.500000 0.548578 0.250000
O O6 0.587802 0.572031 0.347193
O O7 0.606427 0.641747 0.050882
O O8 0.600878 0.412609 0.116805
O O9 0.500000 0.936243 0.750000
O O10 0.383532 0.928043 0.864035
O O11 0.441445 0.776801 0.982906
O O12 0.436875 0.012618 0.047021
O O13 0.643894 0.809763 0.839026
#
# Coordination Sequence:
#
# PCOD8145736 Si02
#       6
#     8   8   8   8   8   8
#     4   9  21  44  60  94 127 163 216 267 317 382
#     4  11  24  41  65  93 131 170 215 261 327 384
#     4  11  24  41  65  93 133 169 217 265 321 387
#     4  10  22  39  67  89 129 170 207 269 321 380
#     4  10  24  42  63  94 128 169 215 266 313 389
#     4  11  22  41  64  97 124 169 218 266 325 380
#
# _framework density 22.183686000000002
#
# number of rings (size 3 to 8) (size 9 to 14) (size 15 to 20)
#    0.000    1.667    1.667    1.500    7.000    0.667 
#    0.000    3.333    0.000    0.000    0.000    0.000 
#    0.000    0.000    0.000    0.000    0.000    0.000 
#
# Total GULP energy -297557.770869 kJ/mol
# GULP energy per Si atom -12398.240453 kJ/mol
# Density = 2.213319 g / cm^3
# Si number density = 22.183686 Si / 1000 Ang^3
#
#
#
# Elastic Constant Matrix: (Units=GPa)
#
#
# Indices 1 2 3 4 5 6 
#
# 1 55.3670 20.0197 26.1497 0.0000 -23.8321 0.0000
# 2 20.0197 70.4615 15.0425 0.0000 1.0709 0.0000
# 3 26.1497 15.0425 82.4228 0.0000 -13.6585 0.0000
# 4 0.0000 0.0000 0.0000 52.9992 0.0000 0.6363
# 5 -23.8321 1.0709 -13.6585 0.0000 40.6728 0.0000
# 6 0.0000 0.0000 0.0000 0.6363 0.0000 15.2305
#
#
#
# Elastic Compliance Matrix: (Units=1/GPa)
#
#
# Indices 1 2 3 4 5 6 
#
# 1 0.030437 -0.007704 -0.005572 0.000000 0.016166 0.000000
# 2 -0.007704 0.016790 -0.001526 0.000000 -0.005469 0.000000
# 3 -0.005572 -0.001526 0.014448 0.000000 0.001628 0.000000
# 4 0.000000 0.000000 0.000000 0.018878 0.000000 -0.000789
# 5 0.016166 -0.005469 0.001628 0.000000 0.034750 0.000000
# 6 0.000000 0.000000 0.000000 -0.000789 0.000000 0.065691
#
#
# Mechanical properties :
#
#
# Convention : Reuss Voigt Hill
#
# Bulk Modulus (GPa) = 31.18013 36.74166 33.96090
# Shear Modulus (GPa) = 22.59499 31.58311 27.08905
#
# Velocity S-wave (km/s) = 3.19492 3.77730 3.49825
# Velocity P-wave (km/s) = 5.26270 5.96845 5.62665
#
# Compressibility (1/GPa) = 0.03207170
#
# Stress axis : x y z
#
# Youngs Moduli (GPa) = 32.85472 59.55932 69.21153
#
# Poissons Ratio (x) = 0.45885 0.38562
# Poissons Ratio (y) = 0.25312 0.10564
# Poissons Ratio (z) = 0.18305 0.09090
#
# Static dielectric constant tensor:
#      x y z
#    x 3.776010 0.000000 -0.139230 
#    y 0.000000 3.886140 0.000000 
#    z -0.139230 0.000000 4.340140 
# 
# 
# High freq. dielectric constant tensor:
#      x y z
#    x 1.848310 0.000000 -0.011210 
#    y 0.000000 1.873870 0.000000 
#    z -0.011210 0.000000 1.892900 
# 
# From -- ./inp_files/60850.got.cif
#   From: 2010.06.25/outbox.cif.g09.slc.cpg/sg15_31_cif.got.tgz:60850.got - 2010.06.28 07:06:18.
