data_PCOD8145106
_publ_section_title
;
Structure prediction by ZEFSAII (Michael W. Deem and Ramdas Pophale) SiO2 
 PCOD8145106
Probable space group: C 2/C
;
_chemical_formula_sum "Si O2"
_cell_formula_units_Z 48
_cell_length_a 10.007316
_cell_length_b 16.345126
_cell_length_c 18.505108
_cell_angle_alpha 90.000000
_cell_angle_beta 51.554205
_cell_angle_gamma 90.000000
_cell_volume 2370.655140
_symmetry_space_group_name_H-M "C 2/C"
_symmetry_group_IT_number 15
_symmetry_cell_setting 'monoclinic'
loop_
_space_group_symop_operation_xyz
x,y,z
-x,y,1/2-z
-x,-y,-z
x,-y,1/2+z
1/2+x,1/2+y,z
1/2-x,1/2+y,1/2-z
1/2-x,1/2-y,-z
1/2+x,1/2-y,1/2+z
loop_
_atom_site_type_symbol
_atom_site_label
_atom_site_fract_x
_atom_site_fract_y
_atom_site_fract_z
Si Si1 0.802032 0.121256 0.818400
Si Si2 0.808739 0.454113 0.295068
Si Si3 0.819087 0.898355 0.733462
Si Si4 0.962801 0.749374 0.611276
Si Si5 0.235901 0.862937 0.456106
Si Si6 0.305190 0.544662 0.387656
O O1 0.748066 0.093909 0.756762
O O2 0.678170 0.195786 0.883527
O O3 0.000000 0.148378 0.750000
O O4 0.761782 0.050622 0.890535
O O5 0.793429 0.552469 0.287976
O O6 0.699689 0.421427 0.400070
O O7 0.000000 0.431945 0.250000
O O8 0.853114 0.804227 0.703921
O O9 0.737563 0.902551 0.841353
O O10 0.991637 0.951248 0.676243
O O11 0.064572 0.809071 0.522741
O O12 0.100294 0.695779 0.609672
O O13 0.278409 0.918973 0.511981
#
# Coordination Sequence:
#
# PCOD8145106 Si02
#       6
#     8   8   8   8   8   8
#     4  11  21  41  63  88 121 165 199 244 309 364
#     4  11  21  39  65  89 114 163 211 246 290 367
#     4   9  19  38  60  82 119 159 198 239 306 354
#     4  10  22  37  60  92 126 154 201 252 306 346
#     4  10  22  37  61  92 121 158 206 251 293 356
#     4   9  18  37  63  83 115 165 201 234 295 371
#
# _framework density 20.247567
#
# number of rings (size 3 to 8) (size 9 to 14) (size 15 to 20)
#    0.000    2.000    5.000    0.000    0.000   10.667 
#    0.000    0.833    0.000    0.000    0.000    0.000 
#    0.000    0.000    0.000    0.000    0.000    0.000 
#
# Total GULP energy -297467.733772 kJ/mol
# GULP energy per Si atom -12394.488907 kJ/mol
# Density = 2.020148 g / cm^3
# Si number density = 20.247567 Si / 1000 Ang^3
#
#
#
# Elastic Constant Matrix: (Units=GPa)
#
#
# Indices 1 2 3 4 5 6 
#
# 1 91.2889 48.7762 29.9554 0.0001 -0.7316 0.0000
# 2 48.7762 123.4229 56.2627 0.0000 6.0249 0.0000
# 3 29.9554 56.2627 77.5712 0.0000 17.2865 0.0000
# 4 0.0001 0.0000 0.0000 16.6152 0.0000 -7.2686
# 5 -0.7316 6.0249 17.2865 0.0000 32.1160 0.0000
# 6 0.0000 0.0000 0.0000 -7.2686 0.0000 38.3070
#
#
#
# Elastic Compliance Matrix: (Units=1/GPa)
#
#
# Indices 1 2 3 4 5 6 
#
# 1 0.014314 -0.004472 -0.002890 0.000000 0.002721 0.000000
# 2 -0.004472 0.013725 -0.008672 0.000000 0.001991 0.000000
# 3 -0.002890 -0.008672 0.022668 0.000000 -0.010640 0.000000
# 4 0.000000 0.000000 0.000000 0.065634 0.000000 0.012454
# 5 0.002721 0.001991 -0.010640 0.000000 0.036553 0.000000
# 6 0.000000 0.000000 0.000000 0.012454 0.000000 0.028468
#
#
# Mechanical properties :
#
#
# Convention : Reuss Voigt Hill
#
# Bulk Modulus (GPa) = 53.64964 62.47462 58.06213
# Shear Modulus (GPa) = 22.76412 27.89356 25.32884
#
# Velocity S-wave (km/s) = 3.35668 3.71566 3.54072
# Velocity P-wave (km/s) = 6.44806 7.02357 6.74196
#
# Compressibility (1/GPa) = 0.01863946
#
# Stress axis : x y z
#
# Youngs Moduli (GPa) = 69.86231 72.85723 44.11431
#
# Poissons Ratio (x) = 0.32582 0.12750
# Poissons Ratio (y) = 0.31243 0.38255
# Poissons Ratio (z) = 0.20192 0.63181
#
# Static dielectric constant tensor:
#      x y z
#    x 3.702300 0.000000 0.049750 
#    y 0.000000 3.825750 0.000000 
#    z 0.049750 0.000000 3.689270 
# 
# 
# High freq. dielectric constant tensor:
#      x y z
#    x 1.773240 0.000000 -0.001400 
#    y 0.000000 1.793790 0.000000 
#    z -0.001400 0.000000 1.774940 
# 
# From -- ./inp_files/190232.got.cif
#   From: 2010.06.25/outbox.cif.g09.slc.cpg/sg15_96_cif.got.tgz:190232.got - 2010.06.28 07:06:18.
