data_PCOD8145873
_publ_section_title
;
Structure prediction by ZEFSAII (Michael W. Deem and Ramdas Pophale) SiO2 
 PCOD8145873
Probable space group: C 2/C
;
_chemical_formula_sum "Si O2"
_cell_formula_units_Z 48
_cell_length_a 11.425423
_cell_length_b 16.285263
_cell_length_c 19.468605
_cell_angle_alpha 90.000000
_cell_angle_beta 139.770406
_cell_angle_gamma 90.000000
_cell_volume 2339.564281
_symmetry_space_group_name_H-M "C 2/C"
_symmetry_group_IT_number 15
_symmetry_cell_setting 'monoclinic'
loop_
_space_group_symop_operation_xyz
x,y,z
-x,y,1/2-z
-x,-y,-z
x,-y,1/2+z
1/2+x,1/2+y,z
1/2-x,1/2+y,1/2-z
1/2-x,1/2-y,-z
1/2+x,1/2-y,1/2+z
loop_
_atom_site_type_symbol
_atom_site_label
_atom_site_fract_x
_atom_site_fract_y
_atom_site_fract_z
Si Si1 0.230198 0.357388 0.552438
Si Si2 0.501214 0.415674 0.461334
Si Si3 0.344115 0.806329 0.626438
Si Si4 0.889222 0.656073 0.995603
Si Si5 0.834183 0.322983 0.127216
Si Si6 0.902065 0.027930 0.637466
O O1 0.148363 0.366377 0.439029
O O2 0.339646 0.273777 0.614154
O O3 0.375348 0.429976 0.626595
O O4 0.071588 0.359426 0.536546
O O5 0.500000 0.500000 0.500000
O O6 0.695879 0.377321 0.563935
O O7 0.349536 0.351320 0.417541
O O8 0.473948 0.438122 0.369097
O O9 0.500000 0.826465 0.750000
O O10 0.250179 0.719494 0.603070
O O11 0.433887 0.805642 0.590660
O O12 0.796441 0.567432 0.958166
O O13 0.000000 0.349093 0.250000
O O14 0.000000 0.057145 0.750000
#
# Coordination Sequence:
#
# PCOD8145873 Si02
#       6
#     8   8   8   8   8   8
#     4  11  23  44  63  98 132 166 220 273 318 397
#     4  11  23  45  64  95 134 167 222 275 315 404
#     4  10  22  41  66  93 126 176 214 263 329 384
#     4  10  22  40  61  95 132 161 221 266 316 396
#     4  11  25  43  69  92 129 179 217 264 334 389
#     4  11  24  40  66  97 132 173 216 270 335 384
#
# _framework density 20.516639999999999
#
# number of rings (size 3 to 8) (size 9 to 14) (size 15 to 20)
#    0.000    1.333    3.333    1.500    2.333    3.333 
#    0.000    0.000    0.000    0.000    0.000    0.000 
#    0.000    0.000    0.000    0.000    0.000    0.000 
#
# Total GULP energy -297645.675073 kJ/mol
# GULP energy per Si atom -12401.903128 kJ/mol
# Density = 2.046994 g / cm^3
# Si number density = 20.516640 Si / 1000 Ang^3
#
#
#
# Elastic Constant Matrix: (Units=GPa)
#
#
# Indices 1 2 3 4 5 6 
#
# 1 111.9691 19.2392 37.8517 0.0000 -8.1621 0.0000
# 2 19.2392 94.5215 16.8888 0.0000 -4.6936 0.0000
# 3 37.8517 16.8888 120.9921 0.0001 -16.3338 0.0000
# 4 0.0000 0.0000 0.0001 22.0435 0.0000 -2.8839
# 5 -8.1621 -4.6936 -16.3338 0.0000 28.3031 0.0000
# 6 0.0000 0.0000 0.0000 -2.8839 0.0000 32.5657
#
#
#
# Elastic Compliance Matrix: (Units=1/GPa)
#
#
# Indices 1 2 3 4 5 6 
#
# 1 0.010232 -0.001522 -0.002846 0.000000 0.001056 0.000000
# 2 -0.001522 0.011103 -0.000959 0.000000 0.000849 0.000000
# 3 -0.002846 -0.000959 0.009931 0.000000 0.004751 0.000000
# 4 0.000000 0.000000 0.000000 0.045897 0.000000 0.004064
# 5 0.001056 0.000849 0.004751 0.000000 0.038519 0.000000
# 6 0.000000 0.000000 0.000000 0.004064 0.000000 0.031067
#
#
# Mechanical properties :
#
#
# Convention : Reuss Voigt Hill
#
# Bulk Modulus (GPa) = 48.51649 52.82689 50.67169
# Shear Modulus (GPa) = 30.43736 33.48265 31.96001
#
# Velocity S-wave (km/s) = 3.85586 4.04415 3.95113
# Velocity P-wave (km/s) = 6.59714 6.90008 6.75031
#
# Compressibility (1/GPa) = 0.02061155
#
# Stress axis : x y z
#
# Youngs Moduli (GPa) = 97.73699 90.06691 100.69853
#
# Poissons Ratio (x) = 0.13705 0.28658
# Poissons Ratio (y) = 0.14872 0.09659
# Poissons Ratio (z) = 0.27815 0.08639
#
# Static dielectric constant tensor:
#      x y z
#    x 4.078910 0.000000 -0.200110 
#    y 0.000000 3.892720 0.000000 
#    z -0.200110 0.000000 3.480430 
# 
# 
# High freq. dielectric constant tensor:
#      x y z
#    x 1.811850 0.000000 -0.013060 
#    y 0.000000 1.817120 0.000000 
#    z -0.013060 0.000000 1.787210 
# 
# From -- ./inp_files/119353.got.cif
#   From: 2010.06.25/outbox.cif.g09.slc.cpg/sg15_60_cif.got.tgz:119353.got - 2010.06.28 07:06:18.
