data_PCOD8145101
_publ_section_title
;
Structure prediction by ZEFSAII (Michael W. Deem and Ramdas Pophale) SiO2 
 PCOD8145101
Probable space group: C 2/C
;
_chemical_formula_sum "Si O2"
_cell_formula_units_Z 44
_cell_length_a 20.854235
_cell_length_b 9.114399
_cell_length_c 12.102313
_cell_angle_alpha 90.000000
_cell_angle_beta 88.200222
_cell_angle_gamma 90.000000
_cell_volume 2299.198051
_symmetry_space_group_name_H-M "C 2/C"
_symmetry_group_IT_number 15
_symmetry_cell_setting 'monoclinic'
loop_
_space_group_symop_operation_xyz
x,y,z
-x,y,1/2-z
-x,-y,-z
x,-y,1/2+z
1/2+x,1/2+y,z
1/2-x,1/2+y,1/2-z
1/2-x,1/2-y,-z
1/2+x,1/2-y,1/2+z
loop_
_atom_site_type_symbol
_atom_site_label
_atom_site_fract_x
_atom_site_fract_y
_atom_site_fract_z
Si Si1 0.706414 0.951802 0.647774
Si Si2 0.000000 0.915973 0.250000
Si Si3 0.808335 0.023683 0.473696
Si Si4 0.307685 0.272364 0.778658
Si Si5 0.108393 0.221512 0.605071
Si Si6 0.592489 0.405659 0.882748
O O1 0.738991 0.984693 0.527539
O O2 0.747980 0.837168 0.715415
O O3 0.636665 0.882726 0.625867
O O4 0.697110 0.097178 0.720866
O O5 0.944332 0.813146 0.299965
O O6 0.972933 0.019730 0.154256
O O7 0.832265 0.894468 0.389366
O O8 0.859039 0.032591 0.573429
O O9 0.805713 0.174531 0.406208
O O10 0.374768 0.318927 0.719896
O O11 0.077412 0.208826 0.483466
#
# Coordination Sequence:
#
# PCOD8145101 Si02
#       6
#     8   4   8   8   8   8
#     4  11  23  35  61  93 127 156 193 247 307 359
#     4  12  20  42  66  84 116 166 216 238 290 364
#     4   9  20  38  59  91 121 156 198 245 301 358
#     4  11  21  37  61  92 126 157 192 243 305 366
#     4  10  22  37  60  88 117 159 202 250 290 349
#     4   9  21  37  64  88 115 158 209 245 291 352
#
# _framework density 19.137108000000001
#
# number of rings (size 3 to 8) (size 9 to 14) (size 15 to 20)
#    1.091    0.727    1.818    2.727    5.091    0.000 
#    0.000    0.909    0.000    3.273    0.000    0.000 
#    0.000    0.000    0.000    0.000    0.000    0.000 
#
# Total GULP energy -272728.308089 kJ/mol
# GULP energy per Si atom -12396.741277 kJ/mol
# Density = 1.909355 g / cm^3
# Si number density = 19.137108 Si / 1000 Ang^3
#
#
#
# Elastic Constant Matrix: (Units=GPa)
#
#
# Indices 1 2 3 4 5 6 
#
# 1 65.1722 40.2188 36.6936 0.0000 -1.1618 0.0000
# 2 40.2188 105.6225 44.3244 0.0000 3.6801 0.0000
# 3 36.6936 44.3244 97.3101 0.0000 -5.6889 0.0000
# 4 0.0000 0.0000 0.0000 19.8653 0.0000 2.1603
# 5 -1.1618 3.6801 -5.6889 0.0000 32.8276 0.0000
# 6 0.0000 0.0000 0.0000 2.1603 0.0000 29.3448
#
#
#
# Elastic Compliance Matrix: (Units=1/GPa)
#
#
# Indices 1 2 3 4 5 6 
#
# 1 0.022296 -0.006172 -0.005566 0.000000 0.000516 0.000000
# 2 -0.006172 0.013582 -0.004001 0.000000 -0.002434 0.000000
# 3 -0.005566 -0.004001 0.014358 0.000000 0.002740 0.000000
# 4 0.000000 0.000000 0.000000 0.050745 0.000000 -0.003736
# 5 0.000516 -0.002434 0.002740 0.000000 0.031228 0.000000
# 6 0.000000 0.000000 0.000000 -0.003736 0.000000 0.034353
#
#
# Mechanical properties :
#
#
# Convention : Reuss Voigt Hill
#
# Bulk Modulus (GPa) = 53.31319 56.73093 55.02206
# Shear Modulus (GPa) = 24.47474 26.19875 25.33674
#
# Velocity S-wave (km/s) = 3.58007 3.70402 3.64257
# Velocity P-wave (km/s) = 6.70882 6.92833 6.81946
#
# Compressibility (1/GPa) = 0.01875708
#
# Stress axis : x y z
#
# Youngs Moduli (GPa) = 44.85180 73.62733 69.64779
#
# Poissons Ratio (x) = 0.45443 0.38764
# Poissons Ratio (y) = 0.27683 0.27869
# Poissons Ratio (z) = 0.24963 0.29462
#
# Static dielectric constant tensor:
#      x y z
#    x 3.236490 0.000000 -0.025960 
#    y 0.000000 3.207500 0.000000 
#    z -0.025960 0.000000 3.474140 
# 
# 
# High freq. dielectric constant tensor:
#      x y z
#    x 1.723280 0.000000 -0.004840 
#    y 0.000000 1.716220 0.000000 
#    z -0.004840 0.000000 1.755750 
# 
# From -- ./inp_files/110051.got.cif
#   From: 2010.06.25/outbox.cif.g09.slc.cpg/sg15_56_cif.got.tgz:110051.got - 2010.06.28 07:06:18.
