data_PCOD8145300
_publ_section_title
;
Structure prediction by ZEFSAII (Michael W. Deem and Ramdas Pophale) SiO2 
 PCOD8145300
Probable space group: C 2/C
;
_chemical_formula_sum "Si O2"
_cell_formula_units_Z 52
_cell_length_a 5.144183
_cell_length_b 23.121793
_cell_length_c 21.516801
_cell_angle_alpha 90.000000
_cell_angle_beta 68.518887
_cell_angle_gamma 90.000000
_cell_volume 2381.496181
_symmetry_space_group_name_H-M "C 2/C"
_symmetry_group_IT_number 15
_symmetry_cell_setting 'monoclinic'
loop_
_space_group_symop_operation_xyz
x,y,z
-x,y,1/2-z
-x,-y,-z
x,-y,1/2+z
1/2+x,1/2+y,z
1/2-x,1/2+y,1/2-z
1/2-x,1/2-y,-z
1/2+x,1/2-y,1/2+z
loop_
_atom_site_type_symbol
_atom_site_label
_atom_site_fract_x
_atom_site_fract_y
_atom_site_fract_z
Si Si1 0.878136 0.290421 0.577045
Si Si2 0.508314 0.394414 0.870988
Si Si3 0.633206 0.780264 0.420291
Si Si4 0.068498 0.404772 0.418245
Si Si5 0.047531 0.931975 0.001481
Si Si6 0.000000 0.411665 0.750000
Si Si7 0.724060 0.505027 0.181528
O O1 0.759905 0.352113 0.610206
O O2 0.613311 0.248844 0.596010
O O3 0.098191 0.262168 0.606258
O O4 0.039956 0.296249 0.498273
O O5 0.634599 0.399620 0.929580
O O6 0.417507 0.459502 0.861913
O O7 0.739795 0.373655 0.799014
O O8 0.694972 0.843062 0.384902
O O9 0.203048 0.423109 0.472000
O O10 0.118742 0.450446 0.359724
O O11 0.734990 0.399682 0.453466
O O12 0.000000 0.000000 0.000000
O O13 0.066324 0.451901 0.802813
O O14 0.500000 0.481003 0.250000
#
# Coordination Sequence:
#
# PCOD8145300 Si02
#       7
#     8   8   8   8   8   4   8
#     4  10  22  38  62  90 131 167 214 260 319 387
#     4  11  23  40  65  95 129 174 214 273 328 392
#     4  10  22  39  59  95 128 173 207 261 324 384
#     4  12  24  41  65  96 133 167 215 263 331 394
#     4  12  24  36  62 103 133 163 207 270 332 388
#     4  10  24  42  66  92 130 174 224 260 348 386
#     4  10  24  43  63  94 126 174 216 271 328 398
#
# _framework density 21.835014000000001
#
# number of rings (size 3 to 8) (size 9 to 14) (size 15 to 20)
#    0.000    1.231    3.077    2.308   10.769    0.000 
#    0.000    0.000    1.692    0.000    0.000    0.000 
#    0.000    0.000    0.000    0.000    0.000    0.000 
#
# Total GULP energy -322355.207238 kJ/mol
# GULP energy per Si atom -12398.277201 kJ/mol
# Density = 2.178532 g / cm^3
# Si number density = 21.835014 Si / 1000 Ang^3
#
#
#
# Elastic Constant Matrix: (Units=GPa)
#
#
# Indices 1 2 3 4 5 6 
#
# 1 88.8513 7.5230 32.6899 0.0000 -13.3462 0.0000
# 2 7.5230 88.3454 39.7505 0.0000 -16.8461 0.0000
# 3 32.6899 39.7505 98.9451 0.0000 -13.1706 0.0000
# 4 0.0000 0.0000 0.0000 13.5494 0.0000 -8.2059
# 5 -13.3462 -16.8461 -13.1706 0.0000 30.1246 0.0000
# 6 0.0000 0.0000 0.0000 -8.2059 0.0000 33.0662
#
#
#
# Elastic Compliance Matrix: (Units=1/GPa)
#
#
# Indices 1 2 3 4 5 6 
#
# 1 0.013527 0.001854 -0.004542 0.000000 0.005043 0.000000
# 2 0.001854 0.015032 -0.005758 0.000000 0.006710 0.000000
# 3 -0.004542 -0.005758 0.014041 0.000000 0.000906 0.000000
# 4 0.000000 0.000000 0.000000 0.086859 0.000000 0.021555
# 5 0.005043 0.006710 0.000906 0.000000 0.039578 0.000000
# 6 0.000000 0.000000 0.000000 0.021555 0.000000 0.035592
#
#
# Mechanical properties :
#
#
# Convention : Reuss Voigt Hill
#
# Bulk Modulus (GPa) = 38.90168 48.45207 43.67688
# Shear Modulus (GPa) = 21.73059 28.42659 25.07859
#
# Velocity S-wave (km/s) = 3.15813 3.61207 3.39270
# Velocity P-wave (km/s) = 5.58151 6.29558 5.94927
#
# Compressibility (1/GPa) = 0.02570583
#
# Stress axis : x y z
#
# Youngs Moduli (GPa) = 73.92852 66.52641 71.21861
#
# Poissons Ratio (x) = -0.12332 0.32350
# Poissons Ratio (y) = -0.13704 0.41009
# Poissons Ratio (z) = 0.33581 0.38307
#
# Static dielectric constant tensor:
#      x y z
#    x 4.140740 0.000000 -0.080910 
#    y 0.000000 3.993020 0.000000 
#    z -0.080910 0.000000 3.814870 
# 
# 
# High freq. dielectric constant tensor:
#      x y z
#    x 1.873950 0.000000 -0.008220 
#    y 0.000000 1.854440 0.000000 
#    z -0.008220 0.000000 1.826370 
# 
# From -- ./inp_files/227974.got.cif
#   From: 2010.06.25/outbox.cif.g09.slc.cpg/sg15_114_cif.got.tgz:227974.got - 2010.06.28 07:06:18.
