data_PCOD8145628
_publ_section_title
;
Structure prediction by ZEFSAII (Michael W. Deem and Ramdas Pophale) SiO2 
 PCOD8145628
Probable space group: C 2/C
;
_chemical_formula_sum "Si O2"
_cell_formula_units_Z 52
_cell_length_a 12.870502
_cell_length_b 18.908766
_cell_length_c 15.267814
_cell_angle_alpha 90.000000
_cell_angle_beta 42.975707
_cell_angle_gamma 90.000000
_cell_volume 2532.919090
_symmetry_space_group_name_H-M "C 2/C"
_symmetry_group_IT_number 15
_symmetry_cell_setting 'monoclinic'
loop_
_space_group_symop_operation_xyz
x,y,z
-x,y,1/2-z
-x,-y,-z
x,-y,1/2+z
1/2+x,1/2+y,z
1/2-x,1/2+y,1/2-z
1/2-x,1/2-y,-z
1/2+x,1/2-y,1/2+z
loop_
_atom_site_type_symbol
_atom_site_label
_atom_site_fract_x
_atom_site_fract_y
_atom_site_fract_z
Si Si1 0.432967 0.790264 0.634498
Si Si2 0.638677 0.064973 0.602615
Si Si3 0.169940 0.820897 0.931936
Si Si4 0.500000 0.594694 0.250000
Si Si5 0.608051 0.912173 0.601244
Si Si6 0.531722 0.566255 0.041226
Si Si7 0.287199 0.810505 0.545309
O O1 0.306448 0.782950 0.790683
O O2 0.569543 0.733031 0.552615
O O3 0.513229 0.867565 0.587865
O O4 0.355429 0.776329 0.589541
O O5 0.500000 0.053439 0.750000
O O6 0.788065 0.082730 0.569023
O O7 0.597650 0.131180 0.565925
O O8 0.657494 0.990609 0.536737
O O9 0.240367 0.871603 0.961969
O O10 0.062288 0.865456 0.932745
O O11 0.485677 0.547765 0.170611
O O12 0.360180 0.646521 0.339840
O O13 0.500000 0.922058 0.750000
O O14 0.500000 0.500000 0.000000
O O15 0.250000 0.750000 0.500000
#
# Coordination Sequence:
#
# PCOD8145628 Si02
#       7
#     8   8   8   4   8   8   8
#     4  11  23  39  66  92 131 171 211 270 331 393
#     4  10  22  39  63  94 125 164 217 267 327 401
#     4  11  22  42  66  95 127 171 219 268 333 399
#     4  10  22  40  58  96 128 164 220 270 328 394
#     4   9  20  40  64  90 127 166 213 267 327 390
#     4  11  21  41  69  91 130 177 219 273 341 402
#     4  11  24  38  61  90 130 169 211 270 330 394
#
# _framework density 20.529672999999999
#
# number of rings (size 3 to 8) (size 9 to 14) (size 15 to 20)
#    0.000    1.538    3.077    2.308    1.077    1.846 
#    0.000    4.615    1.692    0.000    0.000    0.000 
#    0.000    0.000    0.000    0.000    0.000    0.000 
#
# Total GULP energy -322151.693697 kJ/mol
# GULP energy per Si atom -12390.449758 kJ/mol
# Density = 2.048295 g / cm^3
# Si number density = 20.529673 Si / 1000 Ang^3
#
#
#
# Elastic Constant Matrix: (Units=GPa)
#
#
# Indices 1 2 3 4 5 6 
#
# 1 63.5721 15.5717 30.8248 -0.0011 5.3265 0.0004
# 2 15.5717 117.7316 51.2591 -0.0010 2.6640 0.0004
# 3 30.8248 51.2591 93.9447 -0.0020 -4.6513 0.0009
# 4 -0.0011 -0.0010 -0.0020 32.8269 0.0008 -1.7006
# 5 5.3265 2.6640 -4.6513 0.0008 26.9917 -0.0002
# 6 0.0004 0.0004 0.0009 -1.7006 -0.0002 28.9485
#
#
#
# Elastic Compliance Matrix: (Units=1/GPa)
#
#
# Indices 1 2 3 4 5 6 
#
# 1 0.019369 0.000563 -0.006913 0.000000 -0.005069 0.000000
# 2 0.000563 0.011284 -0.006457 0.000000 -0.002337 0.000000
# 3 -0.006913 -0.006457 0.016678 0.000000 0.004876 0.000000
# 4 0.000000 0.000000 0.000000 0.030556 -0.000001 0.001795
# 5 -0.005069 -0.002337 0.004876 -0.000001 0.039120 0.000000
# 6 0.000000 0.000000 0.000000 0.001795 0.000000 0.034650
#
#
# Mechanical properties :
#
#
# Convention : Reuss Voigt Hill
#
# Bulk Modulus (GPa) = 46.05099 52.28439 49.16769
# Shear Modulus (GPa) = 27.09887 29.59292 28.34589
#
# Velocity S-wave (km/s) = 3.63710 3.80079 3.71985
# Velocity P-wave (km/s) = 6.33389 6.69211 6.51546
#
# Compressibility (1/GPa) = 0.02171506
#
# Stress axis : x y z
#
# Youngs Moduli (GPa) = 51.62826 88.62320 59.96057
#
# Poissons Ratio (x) = -0.04989 0.41454
# Poissons Ratio (y) = -0.02906 0.38718
# Poissons Ratio (z) = 0.35693 0.57226
#
# Static dielectric constant tensor:
#      x y z
#    x 4.017880 0.000000 0.055910 
#    y 0.000000 4.121760 0.000000 
#    z 0.055910 0.000000 4.040110 
# 
# 
# High freq. dielectric constant tensor:
#      x y z
#    x 1.809440 0.000000 -0.015300 
#    y 0.000000 1.805870 0.000000 
#    z -0.015300 0.000000 1.791380 
# 
# From -- ./inp_files/155443.got.cif
#   From: 2010.06.25/outbox.cif.g09.slc.cpg/sg15_78_cif.got.tgz:155443.got - 2010.06.28 07:06:18.
