data_PCOD8145240
_publ_section_title
;
Structure prediction by ZEFSAII (Michael W. Deem and Ramdas Pophale) SiO2 
 PCOD8145240
Probable space group: C 2/C
;
_chemical_formula_sum "Si O2"
_cell_formula_units_Z 64
_cell_length_a 30.359392
_cell_length_b 13.678379
_cell_length_c 9.447322
_cell_angle_alpha 90.000000
_cell_angle_beta 62.228041
_cell_angle_gamma 90.000000
_cell_volume 3471.250956
_symmetry_space_group_name_H-M "C 2/C"
_symmetry_group_IT_number 15
_symmetry_cell_setting 'monoclinic'
loop_
_space_group_symop_operation_xyz
x,y,z
-x,y,1/2-z
-x,-y,-z
x,-y,1/2+z
1/2+x,1/2+y,z
1/2-x,1/2+y,1/2-z
1/2-x,1/2-y,-z
1/2+x,1/2-y,1/2+z
loop_
_atom_site_type_symbol
_atom_site_label
_atom_site_fract_x
_atom_site_fract_y
_atom_site_fract_z
Si Si1 0.311925 0.100225 0.197294
Si Si2 0.192335 0.409641 0.128203
Si Si3 0.054475 0.896092 0.997175
Si Si4 0.058737 0.091973 0.818901
Si Si5 0.304309 0.595134 0.554654
Si Si6 0.347204 0.702360 0.739298
Si Si7 0.200688 0.128676 0.423209
Si Si8 0.643938 0.289857 0.752609
O O1 0.349779 0.189207 0.168367
O O2 0.259673 0.138597 0.335095
O O3 0.328008 0.005274 0.261545
O O4 0.308622 0.071638 0.037963
O O5 0.247878 0.379965 0.093746
O O6 0.154160 0.325055 0.229628
O O7 0.069883 0.920302 0.135341
O O8 0.996740 0.866791 0.072787
O O9 0.087173 0.806022 0.888800
O O10 0.066417 0.988286 0.881392
O O11 0.095772 0.168268 0.836152
O O12 0.312289 0.626403 0.705332
O O13 0.316059 0.481508 0.513553
O O14 0.345272 0.660987 0.414434
O O15 0.323047 0.704661 0.931273
O O16 0.182089 0.154645 0.296501
#
# Coordination Sequence:
#
# PCOD8145240 Si02
#       8
#     8   8   8   8   8   8   8   8
#     4  11  25  40  56  82 115 153 198 242 279 329
#     4  11  25  40  57  80 116 154 196 242 281 329
#     4  10  22  38  60  85 118 151 187 232 285 342
#     4  10  22  39  57  88 118 149 188 233 284 341
#     4  11  22  37  56  84 123 152 191 234 279 343
#     4  12  23  37  58  85 118 155 194 234 281 340
#     4  11  22  34  57  88 117 153 190 229 283 345
#     4  12  21  38  59  82 115 158 193 228 287 338
#
# _framework density 18.437156999999999
#
# number of rings (size 3 to 8) (size 9 to 14) (size 15 to 20)
#    0.000    1.000    3.750    3.750    8.750    0.000 
#    0.000    0.000    0.000    0.750    0.000    0.000 
#    0.000    0.000    0.000    0.000    0.000    0.000 
#
# Total GULP energy -396923.393862 kJ/mol
# GULP energy per Si atom -12403.856058 kJ/mol
# Density = 1.839519 g / cm^3
# Si number density = 18.437157 Si / 1000 Ang^3
#
#
#
# Elastic Constant Matrix: (Units=GPa)
#
#
# Indices 1 2 3 4 5 6 
#
# 1 80.3606 57.1798 41.2580 0.0000 7.4198 0.0000
# 2 57.1798 100.8692 43.7776 0.0000 -1.3156 0.0000
# 3 41.2580 43.7776 86.5402 0.0000 -1.2412 0.0000
# 4 0.0000 0.0000 0.0000 33.6434 0.0000 0.4994
# 5 7.4198 -1.3156 -1.2412 0.0000 23.0612 0.0000
# 6 0.0000 0.0000 0.0000 0.4994 0.0000 28.0646
#
#
#
# Elastic Compliance Matrix: (Units=1/GPa)
#
#
# Indices 1 2 3 4 5 6 
#
# 1 0.024430 -0.011345 -0.006035 0.000000 -0.008832 0.000000
# 2 -0.011345 0.017974 -0.003620 0.000000 0.004481 0.000000
# 3 -0.006035 -0.003620 0.016301 0.000000 0.002613 0.000000
# 4 0.000000 0.000000 0.000000 0.029731 0.000000 -0.000529
# 5 -0.008832 0.004481 0.002613 0.000000 0.046601 0.000000
# 6 0.000000 0.000000 0.000000 -0.000529 0.000000 0.035642
#
#
# Mechanical properties :
#
#
# Convention : Reuss Voigt Hill
#
# Bulk Modulus (GPa) = 59.85585 61.35565 60.60575
# Shear Modulus (GPa) = 22.90995 25.32415 24.11705
#
# Velocity S-wave (km/s) = 3.52887 3.71015 3.62065
# Velocity P-wave (km/s) = 7.00994 7.19056 7.10082
#
# Compressibility (1/GPa) = 0.01670680
#
# Stress axis : x y z
#
# Youngs Moduli (GPa) = 40.93338 55.63528 61.34626
#
# Poissons Ratio (x) = 0.63117 0.37021
# Poissons Ratio (y) = 0.46438 0.22205
# Poissons Ratio (z) = 0.24702 0.20138
#
# Static dielectric constant tensor:
#      x y z
#    x 3.408730 0.000000 0.145610 
#    y 0.000000 3.277280 0.000000 
#    z 0.145610 0.000000 3.468190 
# 
# 
# High freq. dielectric constant tensor:
#      x y z
#    x 1.703930 0.000000 0.019200 
#    y 0.000000 1.699350 0.000000 
#    z 0.019200 0.000000 1.727660 
# 
# From -- ./inp_files/69940.got.cif
#   From: 2010.06.25/outbox.cif.g09.slc.cpg/sg15_35_cif.got.tgz:69940.got - 2010.06.28 07:06:18.
