data_PCOD8145078
_publ_section_title
;
Structure prediction by ZEFSAII (Michael W. Deem and Ramdas Pophale) SiO2 
 PCOD8145078
Probable space group: C 2/C
;
_chemical_formula_sum "Si O2"
_cell_formula_units_Z 60
_cell_length_a 33.695450
_cell_length_b 5.343845
_cell_length_c 15.341966
_cell_angle_alpha 90.000000
_cell_angle_beta 79.403706
_cell_angle_gamma 90.000000
_cell_volume 2715.415792
_symmetry_space_group_name_H-M "C 2/C"
_symmetry_group_IT_number 15
_symmetry_cell_setting 'monoclinic'
loop_
_space_group_symop_operation_xyz
x,y,z
-x,y,1/2-z
-x,-y,-z
x,-y,1/2+z
1/2+x,1/2+y,z
1/2-x,1/2+y,1/2-z
1/2-x,1/2-y,-z
1/2+x,1/2-y,1/2+z
loop_
_atom_site_type_symbol
_atom_site_label
_atom_site_fract_x
_atom_site_fract_y
_atom_site_fract_z
Si Si1 0.632197 0.444103 0.148318
Si Si2 0.358293 0.591555 0.542555
Si Si3 0.564003 0.084292 0.125730
Si Si4 0.000000 0.106228 0.750000
Si Si5 0.430652 0.715310 0.230029
Si Si6 0.276861 0.390411 0.337538
Si Si7 0.597324 0.079885 0.929895
Si Si8 0.768390 0.107034 0.635166
O O1 0.606945 0.195619 0.138338
O O2 0.612371 0.575698 0.240816
O O3 0.677402 0.368448 0.150773
O O4 0.630380 0.622284 0.063734
O O5 0.375853 0.330924 0.572593
O O6 0.310301 0.595580 0.567918
O O7 0.375407 0.831525 0.587130
O O8 0.525249 0.244406 0.167849
O O9 0.559092 0.827780 0.179368
O O10 0.564867 0.050902 0.020918
O O11 0.030967 0.961051 0.801101
O O12 0.427208 0.907563 0.151233
O O13 0.255444 0.142608 0.383574
O O14 0.276169 0.392213 0.234272
O O15 0.256001 0.642807 0.383165
#
# Coordination Sequence:
#
# PCOD8145078 Si02
#       8
#     8   8   8   4   8   8   8   8
#     4  10  23  39  66  90 133 170 229 272 339 384
#     4  11  23  43  62  99 131 173 224 286 316 405
#     4  10  23  45  65 101 135 168 221 279 320 410
#     4  10  24  44  68 100 138 170 218 270 336 402
#     4  11  23  43  70  98 129 184 214 277 337 398
#     4  10  22  37  57  91 124 179 217 277 326 395
#     4  11  25  41  72  98 136 174 227 268 335 386
#     4  10  22  37  57  88 134 166 228 271 331 385
#
# _framework density 22.096064999999999
#
# number of rings (size 3 to 8) (size 9 to 14) (size 15 to 20)
#    0.000    1.600    1.333    2.000    7.467    2.667 
#    0.000    2.667    0.000    0.000    0.000    0.000 
#    0.000    0.000    0.000    0.000    0.000    0.000 
#
# Total GULP energy -371967.040962 kJ/mol
# GULP energy per Si atom -12398.901365 kJ/mol
# Density = 2.204577 g / cm^3
# Si number density = 22.096065 Si / 1000 Ang^3
#
#
#
# Elastic Constant Matrix: (Units=GPa)
#
#
# Indices 1 2 3 4 5 6 
#
# 1 118.2814 38.0576 32.9296 0.0000 -23.0878 0.0000
# 2 38.0576 126.2385 20.6613 0.0000 -9.8137 0.0000
# 3 32.9296 20.6613 77.1717 0.0000 -12.9495 0.0000
# 4 0.0000 0.0000 0.0000 22.8919 0.0000 1.3978
# 5 -23.0878 -9.8137 -12.9495 0.0000 26.0411 0.0000
# 6 0.0000 0.0000 0.0000 1.3978 0.0000 15.7710
#
#
#
# Elastic Compliance Matrix: (Units=1/GPa)
#
#
# Indices 1 2 3 4 5 6 
#
# 1 0.011596 -0.002394 -0.002982 0.000000 0.007896 0.000000
# 2 -0.002394 0.008896 -0.001259 0.000000 0.000604 0.000000
# 3 -0.002982 -0.001259 0.015323 0.000000 0.004501 0.000000
# 4 0.000000 0.000000 0.000000 0.043921 0.000000 -0.003893
# 5 0.007896 0.000604 0.004501 0.000000 0.047867 0.000000
# 6 0.000000 0.000000 0.000000 -0.003893 0.000000 0.063752
#
#
# Mechanical properties :
#
#
# Convention : Reuss Voigt Hill
#
# Bulk Modulus (GPa) = 44.35557 56.10986 50.23271
# Shear Modulus (GPa) = 23.56912 28.27699 25.92305
#
# Velocity S-wave (km/s) = 3.26953 3.58121 3.42891
# Velocity P-wave (km/s) = 5.86265 6.52295 6.20159
#
# Compressibility (1/GPa) = 0.02254508
#
# Stress axis : x y z
#
# Youngs Moduli (GPa) = 86.23521 112.40687 65.26120
#
# Poissons Ratio (x) = 0.26911 0.19463
# Poissons Ratio (y) = 0.20645 0.08216
# Poissons Ratio (z) = 0.25718 0.14151
#
# Static dielectric constant tensor:
#      x y z
#    x 3.914740 0.000000 -0.203720 
#    y 0.000000 4.109900 0.000000 
#    z -0.203720 0.000000 4.045860 
# 
# 
# High freq. dielectric constant tensor:
#      x y z
#    x 1.868150 0.000000 -0.013700 
#    y 0.000000 1.875100 0.000000 
#    z -0.013700 0.000000 1.871300 
# 
# From -- ./inp_files/223642.got.cif
#   From: 2010.06.25/outbox.cif.g09.slc.cpg/sg15_112_cif.got.tgz:223642.got - 2010.06.28 07:06:18.
