data_PCOD8145505
_publ_section_title
;
Structure prediction by ZEFSAII (Michael W. Deem and Ramdas Pophale) SiO2 
 PCOD8145505
Probable space group: C 2/C
;
_chemical_formula_sum "Si O2"
_cell_formula_units_Z 32
_cell_length_a 17.736369
_cell_length_b 7.216015
_cell_length_c 18.947756
_cell_angle_alpha 90.000000
_cell_angle_beta 39.709834
_cell_angle_gamma 90.000000
_cell_volume 1549.361366
_symmetry_space_group_name_H-M "C 2/C"
_symmetry_group_IT_number 15
_symmetry_cell_setting 'monoclinic'
loop_
_space_group_symop_operation_xyz
x,y,z
-x,y,1/2-z
-x,-y,-z
x,-y,1/2+z
1/2+x,1/2+y,z
1/2-x,1/2+y,1/2-z
1/2-x,1/2-y,-z
1/2+x,1/2-y,1/2+z
loop_
_atom_site_type_symbol
_atom_site_label
_atom_site_fract_x
_atom_site_fract_y
_atom_site_fract_z
Si Si1 0.402605 0.511147 0.686227
Si Si2 0.708808 0.255489 0.350772
Si Si3 0.734225 0.932659 0.423947
Si Si4 0.171848 0.974390 0.993314
O O1 0.384038 0.664358 0.638257
O O2 0.326253 0.322232 0.726182
O O3 0.358437 0.598484 0.792524
O O4 0.537971 0.451871 0.592487
O O5 0.656660 0.083232 0.435338
O O6 0.743255 0.418452 0.380875
O O7 0.762237 0.013522 0.480959
O O8 0.663581 0.742851 0.481624
#
# Coordination Sequence:
#
# PCOD8145505 Si02
#       4
#     8   8   8   8
#     4  10  22  39  62  86 125 157 197 249 303 348
#     4  10  22  39  59  90 123 154 202 249 289 371
#     4   9  23  39  64  87 122 154 208 247 293 368
#     4  11  20  43  62  88 121 161 198 252 301 351
#
# _framework density 20.653670999999999
#
# number of rings (size 3 to 8) (size 9 to 14) (size 15 to 20)
#    1.500    0.500    0.000    3.750    0.000    1.000 
#    9.000    0.000   11.000    0.000    0.000    0.000 
#    0.000    0.000    0.000    0.000    0.000    0.000 
#
# Total GULP energy -198223.592433 kJ/mol
# GULP energy per Si atom -12388.974527 kJ/mol
# Density = 2.060666 g / cm^3
# Si number density = 20.653671 Si / 1000 Ang^3
#
#
#
# Elastic Constant Matrix: (Units=GPa)
#
#
# Indices 1 2 3 4 5 6 
#
# 1 46.0551 35.0829 24.4931 -0.0001 14.0779 0.0005
# 2 35.0829 82.1879 21.5664 0.0006 9.9858 -0.0004
# 3 24.4931 21.5664 53.8131 0.0002 5.9201 -0.0001
# 4 -0.0001 0.0006 0.0002 42.5386 0.0000 15.1904
# 5 14.0779 9.9858 5.9201 0.0000 40.3216 0.0000
# 6 0.0005 -0.0004 -0.0001 15.1904 0.0000 27.9497
#
#
#
# Elastic Compliance Matrix: (Units=1/GPa)
#
#
# Indices 1 2 3 4 5 6 
#
# 1 0.041238 -0.013205 -0.012455 0.000001 -0.009299 -0.000001
# 2 -0.013205 0.018101 -0.001279 -0.000001 0.000315 0.000001
# 3 -0.012455 -0.001279 0.024649 0.000000 0.001046 0.000000
# 4 0.000001 -0.000001 0.000000 0.029169 0.000000 -0.015853
# 5 -0.009299 0.000315 0.001046 0.000000 0.027816 0.000000
# 6 -0.000001 0.000001 0.000000 -0.015853 0.000000 0.044395
#
#
# Mechanical properties :
#
#
# Convention : Reuss Voigt Hill
#
# Bulk Modulus (GPa) = 33.20960 38.26009 35.73484
# Shear Modulus (GPa) = 20.05761 28.88957 24.47359
#
# Velocity S-wave (km/s) = 3.11969 3.74406 3.44605
# Velocity P-wave (km/s) = 5.39359 6.10372 5.75961
#
# Compressibility (1/GPa) = 0.03011178
#
# Stress axis : x y z
#
# Youngs Moduli (GPa) = 24.24925 55.24489 40.56975
#
# Poissons Ratio (x) = 0.72952 0.50528
# Poissons Ratio (y) = 0.32021 0.05188
# Poissons Ratio (z) = 0.30201 0.07064
#
# Static dielectric constant tensor:
#      x y z
#    x 3.434870 0.000000 0.409620 
#    y 0.000000 3.703070 0.000000 
#    z 0.409620 0.000000 3.599110 
# 
# 
# High freq. dielectric constant tensor:
#      x y z
#    x 1.791940 0.000000 0.035140 
#    y 0.000000 1.808500 0.000000 
#    z 0.035140 0.000000 1.793620 
# 
# From -- ./inp_files/102228.got.cif
#   From: 2010.06.25/outbox.cif.g09.slc.cpg/sg15_52_cif.got.tgz:102228.got - 2010.06.28 07:06:18.
