data_PCOD8145766
_publ_section_title
;
Structure prediction by ZEFSAII (Michael W. Deem and Ramdas Pophale) SiO2 
 PCOD8145766
Probable space group: C 2/C
;
_chemical_formula_sum "Si O2"
_cell_formula_units_Z 48
_cell_length_a 13.220687
_cell_length_b 12.531720
_cell_length_c 21.941413
_cell_angle_alpha 90.000000
_cell_angle_beta 140.936448
_cell_angle_gamma 90.000000
_cell_volume 2290.842849
_symmetry_space_group_name_H-M "C 2/C"
_symmetry_group_IT_number 15
_symmetry_cell_setting 'monoclinic'
loop_
_space_group_symop_operation_xyz
x,y,z
-x,y,1/2-z
-x,-y,-z
x,-y,1/2+z
1/2+x,1/2+y,z
1/2-x,1/2+y,1/2-z
1/2-x,1/2-y,-z
1/2+x,1/2-y,1/2+z
loop_
_atom_site_type_symbol
_atom_site_label
_atom_site_fract_x
_atom_site_fract_y
_atom_site_fract_z
Si Si1 0.310929 0.433715 0.166456
Si Si2 0.294331 0.160419 0.344024
Si Si3 0.853857 0.350510 0.528265
Si Si4 0.682578 0.710659 0.531360
Si Si5 0.877840 0.709413 0.836954
Si Si6 0.921364 0.539025 0.647531
O O1 0.500000 0.448129 0.250000
O O2 0.228809 0.534923 0.159656
O O3 0.240675 0.419434 0.066091
O O4 0.268009 0.335440 0.190586
O O5 0.479528 0.191226 0.421155
O O6 0.237071 0.217284 0.378811
O O7 0.187761 0.201818 0.238979
O O8 0.750000 0.250000 0.500000
O O9 0.896282 0.424114 0.605790
O O10 0.750000 0.750000 0.500000
O O11 0.491197 0.726157 0.437593
O O12 0.743115 0.590198 0.571799
O O13 0.968116 0.614750 0.843075
O O14 0.000000 0.521367 0.750000
#
# Coordination Sequence:
#
# PCOD8145766 Si02
#       6
#     8   8   8   8   8   8
#     4  12  26  44  72 104 140 185 236 286 354 424
#     4  12  24  44  73 104 138 183 240 290 345 424
#     4  12  27  49  71 101 146 187 230 294 363 423
#     4  10  22  39  70 101 136 176 233 292 344 403
#     4  11  23  44  68 107 141 183 234 296 347 413
#     4  11  23  44  72 104 141 182 236 295 351 415
#
# _framework density 20.952988000000001
#
# number of rings (size 3 to 8) (size 9 to 14) (size 15 to 20)
#    0.000    0.667    5.000    3.500    7.000    2.000 
#    0.000    0.833    0.000    0.000    0.000    0.000 
#    0.000    0.000    0.000    0.000    0.000    0.000 
#
# Total GULP energy -297638.939980 kJ/mol
# GULP energy per Si atom -12401.622499 kJ/mol
# Density = 2.090530 g / cm^3
# Si number density = 20.952988 Si / 1000 Ang^3
#
#
#
# Elastic Constant Matrix: (Units=GPa)
#
#
# Indices 1 2 3 4 5 6 
#
# 1 89.9984 46.3350 43.8796 0.0000 -0.7838 0.0000
# 2 46.3350 109.0327 49.1625 0.0000 -7.0413 0.0000
# 3 43.8796 49.1625 134.5027 -0.0001 -17.4810 0.0000
# 4 0.0000 0.0000 -0.0001 42.0587 0.0000 -4.0280
# 5 -0.7838 -7.0413 -17.4810 0.0000 46.3354 0.0000
# 6 0.0000 0.0000 0.0000 -4.0280 0.0000 35.9814
#
#
#
# Elastic Compliance Matrix: (Units=1/GPa)
#
#
# Indices 1 2 3 4 5 6 
#
# 1 0.015383 -0.005131 -0.003376 0.000000 -0.001793 0.000000
# 2 -0.005131 0.012694 -0.002867 0.000000 0.000761 0.000000
# 3 -0.003376 -0.002867 0.010011 0.000000 0.003284 0.000000
# 4 0.000000 0.000000 0.000000 0.024034 0.000000 0.002690
# 5 -0.001793 0.000761 0.003284 0.000000 0.022906 0.000000
# 6 0.000000 0.000000 0.000000 0.002690 0.000000 0.028093
#
#
# Mechanical properties :
#
#
# Convention : Reuss Voigt Hill
#
# Bulk Modulus (GPa) = 65.18947 68.03202 66.61074
# Shear Modulus (GPa) = 35.46519 37.81887 36.64203
#
# Velocity S-wave (km/s) = 4.11859 4.25307 4.18637
# Velocity P-wave (km/s) = 7.33464 7.52712 7.43150
#
# Compressibility (1/GPa) = 0.01533990
#
# Stress axis : x y z
#
# Youngs Moduli (GPa) = 65.00501 78.77828 99.88980
#
# Poissons Ratio (x) = 0.40420 0.33726
# Poissons Ratio (y) = 0.33353 0.28639
# Poissons Ratio (z) = 0.21948 0.22586
#
# Static dielectric constant tensor:
#      x y z
#    x 3.911110 0.000000 0.100100 
#    y 0.000000 3.717490 0.000000 
#    z 0.100100 0.000000 4.279770 
# 
# 
# High freq. dielectric constant tensor:
#      x y z
#    x 1.825300 0.000000 -0.008080 
#    y 0.000000 1.812060 0.000000 
#    z -0.008080 0.000000 1.838550 
# 
# From -- ./inp_files/152186.got.cif
#   From: 2010.06.25/outbox.cif.g09.slc.cpg/sg15_77_cif.got.tgz:152186.got - 2010.06.28 07:06:18.
