data_PCOD8145537
_publ_section_title
;
Structure prediction by ZEFSAII (Michael W. Deem and Ramdas Pophale) SiO2 
 PCOD8145537
Probable space group: C 2/C
;
_chemical_formula_sum "Si O2"
_cell_formula_units_Z 52
_cell_length_a 17.902936
_cell_length_b 16.250927
_cell_length_c 12.659210
_cell_angle_alpha 90.000000
_cell_angle_beta 45.000329
_cell_angle_gamma 90.000000
_cell_volume 2604.332909
_symmetry_space_group_name_H-M "C 2/C"
_symmetry_group_IT_number 15
_symmetry_cell_setting 'monoclinic'
loop_
_space_group_symop_operation_xyz
x,y,z
-x,y,1/2-z
-x,-y,-z
x,-y,1/2+z
1/2+x,1/2+y,z
1/2-x,1/2+y,1/2-z
1/2-x,1/2-y,-z
1/2+x,1/2-y,1/2+z
loop_
_atom_site_type_symbol
_atom_site_label
_atom_site_fract_x
_atom_site_fract_y
_atom_site_fract_z
Si Si1 0.198781 0.293251 0.334091
Si Si2 0.151803 0.115618 0.678468
Si Si3 0.597862 0.044624 0.848072
Si Si4 0.304067 0.205378 0.043797
Si Si5 0.500000 0.874998 0.250000
Si Si6 0.217132 0.043251 0.231649
Si Si7 0.580269 0.365620 0.017926
O O1 0.263128 0.315301 0.375374
O O2 0.125956 0.368789 0.372555
O O3 0.287147 0.267588 0.158687
O O4 0.116739 0.222150 0.439748
O O5 0.139690 0.113020 0.566255
O O6 0.044057 0.136976 0.845644
O O7 0.193519 0.027851 0.673220
O O8 0.570503 0.064371 0.753049
O O9 0.695832 0.982412 0.767019
O O10 0.500000 0.000000 0.000000
O O11 0.251494 0.118789 0.124463
O O12 0.250000 0.250000 0.000000
O O13 0.426449 0.185634 0.894055
O O14 0.111501 0.065301 0.401625
#
# Coordination Sequence:
#
# PCOD8145537 Si02
#       7
#     8   8   8   8   4   8   8
#     4  10  23  39  62  90 124 160 205 258 317 364
#     4  10  22  39  61  87 121 158 204 251 309 378
#     4  11  23  40  63  92 124 163 207 262 309 378
#     4  11  23  40  63  92 124 163 207 262 309 378
#     4  12  24  40  64  92 128 164 222 248 328 368
#     4  10  23  39  62  90 124 160 205 258 317 364
#     4  10  22  39  61  87 121 158 204 251 309 378
#
# _framework density 19.966726000000001
#
# number of rings (size 3 to 8) (size 9 to 14) (size 15 to 20)
#    0.000    1.538    3.077    0.923    4.308    0.000 
#    0.000    3.077    0.000    0.000    0.000    0.000 
#    0.000    0.000    0.000    0.000    0.000    0.000 
#
# Total GULP energy -322341.739582 kJ/mol
# GULP energy per Si atom -12397.759215 kJ/mol
# Density = 1.992128 g / cm^3
# Si number density = 19.966726 Si / 1000 Ang^3
#
#
#
# Elastic Constant Matrix: (Units=GPa)
#
#
# Indices 1 2 3 4 5 6 
#
# 1 92.7610 32.7344 7.2118 0.0000 6.8036 0.0000
# 2 32.7344 100.0915 32.7333 0.0000 -0.0006 0.0000
# 3 7.2118 32.7333 92.7588 0.0000 -6.8057 0.0000
# 4 0.0000 0.0000 0.0000 21.5229 0.0000 0.0014
# 5 6.8036 -0.0006 -6.8057 0.0000 22.1252 0.0000
# 6 0.0000 0.0000 0.0000 0.0014 0.0000 21.5271
#
#
#
# Elastic Compliance Matrix: (Units=1/GPa)
#
#
# Indices 1 2 3 4 5 6 
#
# 1 0.012510 -0.004163 0.000219 0.000000 -0.003779 0.000000
# 2 -0.004163 0.012714 -0.004163 0.000000 0.000000 0.000000
# 3 0.000219 -0.004163 0.012510 0.000000 0.003781 0.000000
# 4 0.000000 0.000000 0.000000 0.046462 0.000000 -0.000003
# 5 -0.003779 0.000000 0.003781 0.000000 0.047522 0.000000
# 6 0.000000 0.000000 0.000000 -0.000003 0.000000 0.046453
#
#
# Mechanical properties :
#
#
# Convention : Reuss Voigt Hill
#
# Bulk Modulus (GPa) = 46.46816 47.88560 47.17688
# Shear Modulus (GPa) = 24.80683 27.23050 26.01866
#
# Velocity S-wave (km/s) = 3.52861 3.69696 3.61377
# Velocity P-wave (km/s) = 6.31860 6.50063 6.41026
#
# Compressibility (1/GPa) = 0.02152011
#
# Stress axis : x y z
#
# Youngs Moduli (GPa) = 79.93857 78.65530 79.93602
#
# Poissons Ratio (x) = 0.32743 -0.01752
# Poissons Ratio (y) = 0.33278 0.33276
# Poissons Ratio (z) = -0.01752 0.32743
#
# Static dielectric constant tensor:
#      x y z
#    x 3.746370 0.000000 -0.000030 
#    y 0.000000 3.800640 0.000000 
#    z -0.000030 0.000000 3.746410 
# 
# 
# High freq. dielectric constant tensor:
#      x y z
#    x 1.783540 0.000000 0.000000 
#    y 0.000000 1.788460 0.000000 
#    z 0.000000 0.000000 1.783540 
# 
# From -- ./inp_files/106644.got.cif
#   From: 2010.06.25/outbox.cif.g09.slc.cpg/sg15_54_cif.got.tgz:106644.got - 2010.06.28 07:06:18.
