data_PCOD8145185
_publ_section_title
;
Structure prediction by ZEFSAII (Michael W. Deem and Ramdas Pophale) SiO2 
 PCOD8145185
Probable space group: C 2/C
;
_chemical_formula_sum "Si O2"
_cell_formula_units_Z 56
_cell_length_a 23.428566
_cell_length_b 8.837846
_cell_length_c 18.045973
_cell_angle_alpha 90.000000
_cell_angle_beta 52.883095
_cell_angle_gamma 90.000000
_cell_volume 2979.558353
_symmetry_space_group_name_H-M "C 2/C"
_symmetry_group_IT_number 15
_symmetry_cell_setting 'monoclinic'
loop_
_space_group_symop_operation_xyz
x,y,z
-x,y,1/2-z
-x,-y,-z
x,-y,1/2+z
1/2+x,1/2+y,z
1/2-x,1/2+y,1/2-z
1/2-x,1/2-y,-z
1/2+x,1/2-y,1/2+z
loop_
_atom_site_type_symbol
_atom_site_label
_atom_site_fract_x
_atom_site_fract_y
_atom_site_fract_z
Si Si1 0.123673 0.993364 0.743637
Si Si2 0.336320 0.820397 0.758819
Si Si3 0.212234 0.413046 0.119089
Si Si4 0.065754 0.447790 0.396984
Si Si5 0.346671 0.342959 0.931014
Si Si6 0.999026 0.773019 0.835597
Si Si7 0.309767 0.259976 0.710955
O O1 0.120062 0.172981 0.751435
O O2 0.153738 0.953373 0.639032
O O3 0.045234 0.922962 0.813510
O O4 0.171594 0.927750 0.773691
O O5 0.259832 0.771959 0.784907
O O6 0.320337 0.918925 0.845504
O O7 0.387777 0.905231 0.660454
O O8 0.173024 0.324616 0.083406
O O9 0.204205 0.339595 0.205577
O O10 0.295279 0.415356 0.032517
O O11 0.028775 0.371976 0.354858
O O12 0.122918 0.322542 0.384925
O O13 0.000000 0.500000 0.500000
O O14 0.419552 0.323279 0.919885
O O15 0.000000 0.722165 0.750000
#
# Coordination Sequence:
#
# PCOD8145185 Si02
#       7
#     8   8   8   8   8   8   8
#     4   9  18  33  54  79 106 143 179 226 276 328
#     4  11  20  35  56  81 115 144 179 235 284 324
#     4   9  19  34  57  81 104 145 189 223 270 334
#     4  10  22  38  57  87 113 146 195 234 271 340
#     4   9  18  36  56  77 106 146 189 223 267 343
#     4   9  18  37  58  76 110 153 183 221 284 341
#     4   9  19  37  56  76 113 151 179 215 287 337
#
# _framework density 18.794730999999999
#
# number of rings (size 3 to 8) (size 9 to 14) (size 15 to 20)
#    0.000    2.571    0.000    4.286    2.000    0.571 
#    5.143    7.857    0.000    0.000    0.000    0.000 
#    0.000    0.000    0.000    0.000    0.000    0.000 
#
# Total GULP energy -346965.059970 kJ/mol
# GULP energy per Si atom -12391.609285 kJ/mol
# Density = 1.875195 g / cm^3
# Si number density = 18.794731 Si / 1000 Ang^3
#
#
#
# Elastic Constant Matrix: (Units=GPa)
#
#
# Indices 1 2 3 4 5 6 
#
# 1 94.2846 39.7818 39.2514 -0.0011 -16.3661 0.0006
# 2 39.7818 130.4785 41.3497 -0.0030 -8.6248 0.0029
# 3 39.2514 41.3497 87.1376 -0.0012 -33.1983 0.0015
# 4 -0.0011 -0.0030 -0.0012 14.6218 0.0007 -8.5764
# 5 -16.3661 -8.6248 -33.1983 0.0007 30.0009 -0.0007
# 6 0.0006 0.0029 0.0015 -8.5764 -0.0007 20.0937
#
#
#
# Elastic Compliance Matrix: (Units=1/GPa)
#
#
# Indices 1 2 3 4 5 6 
#
# 1 0.013867 -0.002793 -0.004054 0.000000 0.002276 0.000000
# 2 -0.002793 0.009828 -0.005030 0.000001 -0.004265 -0.000001
# 3 -0.004054 -0.005030 0.024716 -0.000001 0.023692 0.000000
# 4 0.000000 0.000001 -0.000001 0.091231 -0.000002 0.038939
# 5 0.002276 -0.004265 0.023692 -0.000002 0.059565 0.000000
# 6 0.000000 -0.000001 0.000000 0.038939 0.000000 0.066387
#
#
# Mechanical properties :
#
#
# Convention : Reuss Voigt Hill
#
# Bulk Modulus (GPa) = 40.55799 61.40739 50.98269
# Shear Modulus (GPa) = 16.80286 25.71113 21.25699
#
# Velocity S-wave (km/s) = 2.99326 3.70266 3.36669
# Velocity P-wave (km/s) = 5.79417 7.14305 6.50368
#
# Compressibility (1/GPa) = 0.02465605
#
# Stress axis : x y z
#
# Youngs Moduli (GPa) = 72.11141 101.75138 40.45963
#
# Poissons Ratio (x) = 0.28417 0.16404
# Poissons Ratio (y) = 0.20139 0.20353
# Poissons Ratio (z) = 0.29237 0.51185
#
# Static dielectric constant tensor:
#      x y z
#    x 3.666170 0.000000 -0.270170 
#    y 0.000000 3.511790 0.000000 
#    z -0.270170 0.000000 3.546210 
# 
# 
# High freq. dielectric constant tensor:
#      x y z
#    x 1.731250 0.000000 -0.021370 
#    y 0.000000 1.724840 0.000000 
#    z -0.021370 0.000000 1.717280 
# 
# From -- ./inp_files/218175.got.cif
#   From: 2010.06.25/outbox.cif.g09.slc.cpg/sg15_110_cif.got.tgz:218175.got - 2010.06.28 07:06:18.
