data_PCOD8145243
_publ_section_title
;
Structure prediction by ZEFSAII (Michael W. Deem and Ramdas Pophale) SiO2 
 PCOD8145243
Probable space group: C 2/C
;
_chemical_formula_sum "Si O2"
_cell_formula_units_Z 64
_cell_length_a 7.520999
_cell_length_b 27.551727
_cell_length_c 27.335061
_cell_angle_alpha 90.000000
_cell_angle_beta 145.631478
_cell_angle_gamma 90.000000
_cell_volume 3197.560851
_symmetry_space_group_name_H-M "C 2/C"
_symmetry_group_IT_number 15
_symmetry_cell_setting 'monoclinic'
loop_
_space_group_symop_operation_xyz
x,y,z
-x,y,1/2-z
-x,-y,-z
x,-y,1/2+z
1/2+x,1/2+y,z
1/2-x,1/2+y,1/2-z
1/2-x,1/2-y,-z
1/2+x,1/2-y,1/2+z
loop_
_atom_site_type_symbol
_atom_site_label
_atom_site_fract_x
_atom_site_fract_y
_atom_site_fract_z
Si Si1 0.659519 0.877539 0.901660
Si Si2 0.665726 0.622646 0.903355
Si Si3 0.306660 0.694467 0.352220
Si Si4 0.299381 0.942210 0.250000
Si Si5 0.749557 0.877539 0.598340
Si Si6 0.807535 0.694427 0.852512
Si Si7 0.245600 0.122645 0.596645
Si Si8 0.207933 0.052377 0.250000
O O1 0.742839 0.829749 0.890139
O O2 0.394686 0.863529 0.881562
O O3 0.528349 0.919057 0.835611
O O4 0.974995 0.897771 0.999095
O O5 0.545088 0.581406 0.837566
O O6 0.746738 0.670799 0.891543
O O7 0.408155 0.636433 0.886052
O O8 0.980422 0.602230 0.000905
O O9 0.597995 0.670251 0.390138
O O10 0.396561 0.749957 0.382187
O O11 0.000000 0.689013 0.250000
O O12 0.500000 0.925212 0.250000
O O13 0.480310 0.918595 0.337566
O O14 0.292949 0.999729 0.249999
O O15 0.014684 0.919056 0.664389
O O16 0.500000 0.688627 0.750000
O O17 0.102517 0.670799 0.891543
O O18 0.000000 0.044533 0.250000
#
# Coordination Sequence:
#
# PCOD8145243 Si02
#       8
#     8   8   8   8   8   8   8   8
#     4  10  22  41  62  87 123 161 201 249 301 359
#     4  10  22  41  62  87 123 161 201 249 301 359
#     4  11  23  39  65  94 123 163 204 247 307 364
#     4  10  22  38  60  87 119 158 202 250 305 358
#     4  10  22  41  62  87 123 161 201 249 301 359
#     4  11  23  39  65  94 123 163 204 247 307 364
#     4  10  22  41  62  87 123 161 201 249 301 359
#     4  10  22  38  60  87 119 158 202 250 305 358
#
# _framework density 20.015257999999999
#
# number of rings (size 3 to 8) (size 9 to 14) (size 15 to 20)
#    0.000    1.750    2.500    0.750    3.500    4.000 
#    0.000    5.000    0.000    0.000    0.000    0.000 
#    0.000    0.000    0.000    0.000    0.000    0.000 
#
# Total GULP energy -396780.527206 kJ/mol
# GULP energy per Si atom -12399.391475 kJ/mol
# Density = 1.996970 g / cm^3
# Si number density = 20.015258 Si / 1000 Ang^3
#
#
#
# Elastic Constant Matrix: (Units=GPa)
#
#
# Indices 1 2 3 4 5 6 
#
# 1 90.6773 56.4148 42.6419 0.0000 0.0291 0.0000
# 2 56.4148 154.3424 78.9203 0.0000 0.6859 0.0000
# 3 42.6419 78.9203 164.5380 -0.0001 2.2219 0.0000
# 4 0.0000 0.0000 -0.0001 15.6132 0.0000 -0.3883
# 5 0.0291 0.6859 2.2219 0.0000 24.5650 0.0000
# 6 0.0000 0.0000 0.0000 -0.3883 0.0000 28.3479
#
#
#
# Elastic Compliance Matrix: (Units=1/GPa)
#
#
# Indices 1 2 3 4 5 6 
#
# 1 0.014595 -0.004505 -0.001625 0.000000 0.000256 0.000000
# 2 -0.004505 0.009975 -0.003618 0.000000 0.000054 0.000000
# 3 -0.001625 -0.003618 0.008243 0.000000 -0.000643 0.000000
# 4 0.000000 0.000000 0.000000 0.064070 0.000000 0.000878
# 5 0.000256 0.000054 -0.000643 0.000000 0.040765 0.000000
# 6 0.000000 0.000000 0.000000 0.000878 0.000000 0.035288
#
#
# Mechanical properties :
#
#
# Convention : Reuss Voigt Hill
#
# Bulk Modulus (GPa) = 75.09021 85.05685 80.07353
# Shear Modulus (GPa) = 25.39735 29.14394 27.27064
#
# Velocity S-wave (km/s) = 3.56603 3.82001 3.69520
# Velocity P-wave (km/s) = 7.38602 7.87686 7.63538
#
# Compressibility (1/GPa) = 0.01331732
#
# Stress axis : x y z
#
# Youngs Moduli (GPa) = 68.51675 100.24632 121.31773
#
# Poissons Ratio (x) = 0.45159 0.19716
# Poissons Ratio (y) = 0.30866 0.43892
# Poissons Ratio (z) = 0.11135 0.36269
#
# Static dielectric constant tensor:
#      x y z
#    x 3.715820 0.000000 0.010110 
#    y 0.000000 3.458600 0.000000 
#    z 0.010110 0.000000 4.047370 
# 
# 
# High freq. dielectric constant tensor:
#      x y z
#    x 1.787720 0.000000 0.000440 
#    y 0.000000 1.760190 0.000000 
#    z 0.000440 0.000000 1.802260 
# 
# From -- ./inp_files/180838.got.cif
#   From: 2010.06.25/outbox.cif.g09.slc.cpg/sg15_91_cif.got.tgz:180838.got - 2010.06.28 07:06:18.
