data_PCOD8145274
_publ_section_title
;
Structure prediction by ZEFSAII (Michael W. Deem and Ramdas Pophale) SiO2 
 PCOD8145274
Probable space group: C 2/C
;
_chemical_formula_sum "Si O2"
_cell_formula_units_Z 48
_cell_length_a 12.490340
_cell_length_b 22.921952
_cell_length_c 11.116923
_cell_angle_alpha 90.000000
_cell_angle_beta 44.420697
_cell_angle_gamma 90.000000
_cell_volume 2227.715463
_symmetry_space_group_name_H-M "C 2/C"
_symmetry_group_IT_number 15
_symmetry_cell_setting 'monoclinic'
loop_
_space_group_symop_operation_xyz
x,y,z
-x,y,1/2-z
-x,-y,-z
x,-y,1/2+z
1/2+x,1/2+y,z
1/2-x,1/2+y,1/2-z
1/2-x,1/2-y,-z
1/2+x,1/2-y,1/2+z
loop_
_atom_site_type_symbol
_atom_site_label
_atom_site_fract_x
_atom_site_fract_y
_atom_site_fract_z
Si Si1 0.822451 0.656652 0.878818
Si Si2 0.205186 0.679763 0.336636
Si Si3 0.690773 0.430835 0.864118
Si Si4 0.668165 0.438218 0.366678
Si Si5 0.638302 0.780639 0.394811
Si Si6 0.823562 0.869470 0.378133
O O1 0.736760 0.595959 0.925183
O O2 0.793065 0.697451 0.787599
O O3 0.000000 0.642585 0.750000
O O4 0.756982 0.687491 0.051907
O O5 0.215545 0.610418 0.302945
O O6 0.327210 0.711196 0.147922
O O7 0.038844 0.706403 0.442492
O O8 0.743645 0.497621 0.812227
O O9 0.512957 0.433515 0.973371
O O10 0.729541 0.405439 0.963921
O O11 0.716546 0.411111 0.200964
O O12 0.730084 0.809247 0.432848
O O13 0.000000 0.851981 0.250000
#
# Coordination Sequence:
#
# PCOD8145274 Si02
#       6
#     8   8   8   8   8   8
#     4   9  20  41  61  90 123 163 202 257 313 366
#     4  11  24  39  64  94 125 163 213 250 316 364
#     4  10  22  38  61  95 120 163 209 252 308 377
#     4   9  20  40  64  88 126 159 207 257 307 368
#     4  10  23  42  61  90 128 165 207 261 304 373
#     4   9  20  40  62  85 125 166 205 253 311 364
#
# _framework density 21.546735000000002
#
# number of rings (size 3 to 8) (size 9 to 14) (size 15 to 20)
#    0.000    2.333    0.000    0.500    9.333    2.000 
#    3.000    2.500    0.000    0.000    0.000    0.000 
#    0.000    0.000    0.000    0.000    0.000    0.000 
#
# Total GULP energy -297534.806042 kJ/mol
# GULP energy per Si atom -12397.283585 kJ/mol
# Density = 2.149769 g / cm^3
# Si number density = 21.546735 Si / 1000 Ang^3
#
#
#
# Elastic Constant Matrix: (Units=GPa)
#
#
# Indices 1 2 3 4 5 6 
#
# 1 94.6265 31.8948 9.4360 0.0000 10.1773 0.0000
# 2 31.8948 111.2896 15.0149 0.0000 -10.4861 0.0000
# 3 9.4360 15.0149 56.6374 0.0000 0.1029 0.0000
# 4 0.0000 0.0000 0.0000 29.9790 0.0000 -2.7650
# 5 10.1773 -10.4861 0.1029 0.0000 16.6439 0.0000
# 6 0.0000 0.0000 0.0000 -2.7650 0.0000 32.8361
#
#
#
# Elastic Compliance Matrix: (Units=1/GPa)
#
#
# Indices 1 2 3 4 5 6 
#
# 1 0.013493 -0.004800 -0.000955 0.000000 -0.011269 0.000000
# 2 -0.004800 0.011641 -0.002305 0.000000 0.010284 0.000000
# 3 -0.000955 -0.002305 0.018428 0.000000 -0.000982 0.000000
# 4 0.000000 0.000000 0.000000 0.033618 0.000000 0.002831
# 5 -0.011269 0.010284 -0.000982 0.000000 0.073458 0.000000
# 6 0.000000 0.000000 0.000000 0.002831 0.000000 0.030693
#
#
# Mechanical properties :
#
#
# Convention : Reuss Voigt Hill
#
# Bulk Modulus (GPa) = 36.44033 41.69386 39.06710
# Shear Modulus (GPa) = 24.20159 29.63899 26.92029
#
# Velocity S-wave (km/s) = 3.35507 3.71289 3.53851
# Velocity P-wave (km/s) = 5.65311 6.14599 5.90469
#
# Compressibility (1/GPa) = 0.02744212
#
# Stress axis : x y z
#
# Youngs Moduli (GPa) = 74.11275 85.90218 54.26478
#
# Poissons Ratio (x) = 0.41232 0.05182
# Poissons Ratio (y) = 0.35574 0.12509
# Poissons Ratio (z) = 0.07078 0.19802
#
# Static dielectric constant tensor:
#      x y z
#    x 3.934100 0.000000 0.212890 
#    y 0.000000 4.049260 0.000000 
#    z 0.212890 0.000000 3.638920 
# 
# 
# High freq. dielectric constant tensor:
#      x y z
#    x 1.849790 0.000000 0.012280 
#    y 0.000000 1.851420 0.000000 
#    z 0.012280 0.000000 1.826700 
# 
# From -- ./inp_files/89404.got.cif
#   From: 2010.06.25/outbox.cif.g09.slc.cpg/sg15_45_cif.got.tgz:89404.got - 2010.06.28 07:06:18.
