data_PCOD8145414
_publ_section_title
;
Structure prediction by ZEFSAII (Michael W. Deem and Ramdas Pophale) SiO2 
 PCOD8145414
Probable space group: C 2/C
;
_chemical_formula_sum "Si O2"
_cell_formula_units_Z 48
_cell_length_a 10.315396
_cell_length_b 17.458523
_cell_length_c 20.474837
_cell_angle_alpha 90.000000
_cell_angle_beta 34.981114
_cell_angle_gamma 90.000000
_cell_volume 2113.978873
_symmetry_space_group_name_H-M "C 2/C"
_symmetry_group_IT_number 15
_symmetry_cell_setting 'monoclinic'
loop_
_space_group_symop_operation_xyz
x,y,z
-x,y,1/2-z
-x,-y,-z
x,-y,1/2+z
1/2+x,1/2+y,z
1/2-x,1/2+y,1/2-z
1/2-x,1/2-y,-z
1/2+x,1/2-y,1/2+z
loop_
_atom_site_type_symbol
_atom_site_label
_atom_site_fract_x
_atom_site_fract_y
_atom_site_fract_z
Si Si1 0.144339 0.015235 0.131570
Si Si2 0.757633 0.019422 0.698445
Si Si3 0.590243 0.228736 0.814173
Si Si4 0.680344 0.330584 0.400407
Si Si5 0.249428 0.848182 0.841028
Si Si6 0.943891 0.585519 0.595215
O O1 0.285114 0.944942 0.103249
O O2 0.000000 0.053734 0.250000
O O3 0.999771 0.977400 0.133756
O O4 0.299019 0.081301 0.036546
O O5 0.743007 0.081839 0.646314
O O6 0.572030 0.036010 0.831322
O O7 0.716853 0.938190 0.682348
O O8 0.787505 0.216599 0.679539
O O9 0.341346 0.209303 0.888284
O O10 0.629359 0.314173 0.825321
O O11 0.625911 0.172755 0.861572
O O12 0.418771 0.329640 0.529510
O O13 0.500000 0.812697 0.750000
#
# Coordination Sequence:
#
# PCOD8145414 Si02
#       6
#     8   8   8   8   8   8
#     4   9  18  35  58 100 123 163 216 271 316 379
#     4  10  22  38  66  95 130 169 226 269 321 387
#     4  10  23  45  67  92 133 178 217 267 341 393
#     4  10  23  45  71  92 129 186 219 266 334 408
#     4  12  27  41  64 104 134 168 220 286 329 388
#     4   9  19  37  63  90 128 172 213 267 326 392
#
# _framework density 22.705997
#
# number of rings (size 3 to 8) (size 9 to 14) (size 15 to 20)
#    0.000    2.000    0.000    2.000    7.000    4.000 
#   18.000    0.000    0.000    0.000    0.000    0.000 
#    0.000    0.000    0.000    0.000    0.000    0.000 
#
# Total GULP energy -297516.070961 kJ/mol
# GULP energy per Si atom -12396.502957 kJ/mol
# Density = 2.265432 g / cm^3
# Si number density = 22.705997 Si / 1000 Ang^3
#
#
#
# Elastic Constant Matrix: (Units=GPa)
#
#
# Indices 1 2 3 4 5 6 
#
# 1 107.1187 21.3311 35.4753 -0.0320 -11.8954 0.0237
# 2 21.3311 60.1601 24.1639 0.2449 2.3720 -0.0698
# 3 35.4753 24.1639 178.1141 0.2971 -8.8550 -0.0115
# 4 -0.0320 0.2449 0.2971 13.0062 0.0162 2.9062
# 5 -11.8954 2.3720 -8.8550 0.0162 25.2874 -0.0549
# 6 0.0237 -0.0698 -0.0115 2.9062 -0.0549 26.5599
#
#
#
# Elastic Compliance Matrix: (Units=1/GPa)
#
#
# Indices 1 2 3 4 5 6 
#
# 1 0.011088 -0.003536 -0.001479 0.000127 0.005030 -0.000023
# 2 -0.003536 0.018870 -0.002062 -0.000329 -0.004155 0.000079
# 3 -0.001479 -0.002062 0.006273 -0.000113 0.001694 0.000015
# 4 0.000127 -0.000329 -0.000113 0.078823 -0.000019 -0.008626
# 5 0.005030 -0.004155 0.001694 -0.000019 0.042895 0.000076
# 6 -0.000023 0.000079 0.000015 -0.008626 0.000076 0.038595
#
#
# Mechanical properties :
#
#
# Convention : Reuss Voigt Hill
#
# Bulk Modulus (GPa) = 45.29608 56.37040 50.83324
# Shear Modulus (GPa) = 22.92993 30.59889 26.76441
#
# Velocity S-wave (km/s) = 3.18128 3.67497 3.43700
# Velocity P-wave (km/s) = 5.78674 6.54884 6.17955
#
# Compressibility (1/GPa) = 0.02207697
#
# Stress axis : x y z
#
# Youngs Moduli (GPa) = 90.18775 52.99548 159.41245
#
# Poissons Ratio (x) = 0.18741 0.23574
# Poissons Ratio (y) = 0.31894 0.32865
# Poissons Ratio (z) = 0.13337 0.10926
#
# Static dielectric constant tensor:
#      x y z
#    x 4.009970 0.000040 0.061980 
#    y 0.000040 3.854740 0.000020 
#    z 0.061980 0.000020 4.401550 
# 
# 
# High freq. dielectric constant tensor:
#      x y z
#    x 1.892420 0.000000 0.003820 
#    y 0.000000 1.874460 0.000010 
#    z 0.003820 0.000010 1.908180 
# 
# From -- ./inp_files/270817.got.cif
#   From: 2010.06.25/outbox.cif.g09.slc.cpg/sg15_136_cif.got.tgz:270817.got - 2010.06.28 07:06:18.
