data_PCOD8145375
_publ_section_title
;
Structure prediction by ZEFSAII (Michael W. Deem and Ramdas Pophale) SiO2 
 PCOD8145375
Probable space group: C 2/C
;
_chemical_formula_sum "Si O2"
_cell_formula_units_Z 56
_cell_length_a 13.444022
_cell_length_b 14.676807
_cell_length_c 17.974996
_cell_angle_alpha 90.000000
_cell_angle_beta 48.765308
_cell_angle_gamma 90.000000
_cell_volume 2667.206538
_symmetry_space_group_name_H-M "C 2/C"
_symmetry_group_IT_number 15
_symmetry_cell_setting 'monoclinic'
loop_
_space_group_symop_operation_xyz
x,y,z
-x,y,1/2-z
-x,-y,-z
x,-y,1/2+z
1/2+x,1/2+y,z
1/2-x,1/2+y,1/2-z
1/2-x,1/2-y,-z
1/2+x,1/2-y,1/2+z
loop_
_atom_site_type_symbol
_atom_site_label
_atom_site_fract_x
_atom_site_fract_y
_atom_site_fract_z
Si Si1 0.500000 0.298571 0.250000
Si Si2 0.500000 0.005227 0.750000
Si Si3 0.603247 0.273582 0.550009
Si Si4 0.128522 0.082014 0.146607
Si Si5 0.543360 0.853945 0.612616
Si Si6 0.264082 0.096486 0.607394
Si Si7 0.624462 0.140645 0.796382
Si Si8 0.311510 0.783757 0.641468
O O1 0.455635 0.238959 0.341982
O O2 0.371883 0.359253 0.297592
O O3 0.609970 0.068093 0.736262
O O4 0.566423 0.941439 0.654234
O O5 0.750000 0.250000 0.500000
O O6 0.580204 0.377056 0.590646
O O7 0.506462 0.202173 0.637228
O O8 0.591664 0.265281 0.466573
O O9 0.189200 0.164265 0.164575
O O10 0.000000 0.041191 0.250000
O O11 0.236718 0.002855 0.085425
O O12 0.659651 0.848071 0.494351
O O13 0.398623 0.856203 0.645123
O O14 0.357405 0.088073 0.634139
O O15 0.751945 0.204474 0.722177
#
# Coordination Sequence:
#
# PCOD8145375 Si02
#       8
#     4   4   8   8   8   8   8   8
#     4  11  24  48  65  90 126 178 227 270 326 397
#     4  11  26  40  63 104 136 166 215 282 316 375
#     4  10  22  38  64  98 131 171 215 269 331 391
#     4  11  22  38  62  97 134 169 211 274 333 384
#     4  11  25  44  67  92 132 173 221 272 326 393
#     4  12  25  42  71  94 128 175 225 271 329 391
#     4  12  23  42  68  97 134 175 221 266 326 395
#     4  11  22  40  66  93 131 174 219 264 327 398
#
# _framework density 20.995749
#
# number of rings (size 3 to 8) (size 9 to 14) (size 15 to 20)
#    0.000    0.857    5.000    3.000    6.000    1.143 
#    0.000    0.000    0.000    2.571    0.000    0.000 
#    0.000    0.000    0.000    0.000    0.000    0.000 
#
# Total GULP energy -347123.215588 kJ/mol
# GULP energy per Si atom -12397.257700 kJ/mol
# Density = 2.094796 g / cm^3
# Si number density = 20.995749 Si / 1000 Ang^3
#
#
#
# Elastic Constant Matrix: (Units=GPa)
#
#
# Indices 1 2 3 4 5 6 
#
# 1 101.3977 45.4163 42.3099 0.0000 10.0265 0.0000
# 2 45.4163 104.9224 40.0849 0.0000 4.7951 0.0000
# 3 42.3099 40.0849 109.0392 0.0000 6.0830 0.0000
# 4 0.0000 0.0000 0.0000 25.8114 0.0000 -0.0714
# 5 10.0265 4.7951 6.0830 0.0000 32.4132 0.0000
# 6 0.0000 0.0000 0.0000 -0.0714 0.0000 36.2902
#
#
#
# Elastic Compliance Matrix: (Units=1/GPa)
#
#
# Indices 1 2 3 4 5 6 
#
# 1 0.013580 -0.004414 -0.003485 0.000000 -0.002894 0.000000
# 2 -0.004414 0.012548 -0.002903 0.000000 0.000054 0.000000
# 3 -0.003485 -0.002903 0.011628 0.000000 -0.000675 0.000000
# 4 0.000000 0.000000 0.000000 0.038743 0.000000 0.000076
# 5 -0.002894 0.000054 -0.000675 0.000000 0.031865 0.000000
# 6 0.000000 0.000000 0.000000 0.000076 0.000000 0.027556
#
#
# Mechanical properties :
#
#
# Convention : Reuss Voigt Hill
#
# Bulk Modulus (GPa) = 61.91524 63.44239 62.67882
# Shear Modulus (GPa) = 30.69202 31.40617 31.04910
#
# Velocity S-wave (km/s) = 3.82752 3.87180 3.84972
# Velocity P-wave (km/s) = 7.00619 7.09014 7.04829
#
# Compressibility (1/GPa) = 0.01615111
#
# Stress axis : x y z
#
# Youngs Moduli (GPa) = 73.63953 79.69212 85.99804
#
# Poissons Ratio (x) = 0.35179 0.29970
# Poissons Ratio (y) = 0.32507 0.24966
# Poissons Ratio (z) = 0.25663 0.23136
#
# Static dielectric constant tensor:
#      x y z
#    x 4.111830 0.000000 0.484130 
#    y 0.000000 3.837510 0.000000 
#    z 0.484130 0.000000 4.140350 
# 
# 
# High freq. dielectric constant tensor:
#      x y z
#    x 1.819720 0.000000 0.006240 
#    y 0.000000 1.815780 0.000000 
#    z 0.006240 0.000000 1.825650 
# 
# From -- ./inp_files/244535.got.cif
#   From: 2010.06.25/outbox.cif.g09.slc.cpg/sg15_123_cif.got.tgz:244535.got - 2010.06.28 07:06:18.
