data_PCOD8145286
_publ_section_title
;
Structure prediction by ZEFSAII (Michael W. Deem and Ramdas Pophale) SiO2 
 PCOD8145286
Probable space group: C 2/C
;
_chemical_formula_sum "Si O2"
_cell_formula_units_Z 60
_cell_length_a 24.172354
_cell_length_b 15.912621
_cell_length_c 8.800008
_cell_angle_alpha 90.000000
_cell_angle_beta 105.118742
_cell_angle_gamma 90.000000
_cell_volume 3267.723810
_symmetry_space_group_name_H-M "C 2/C"
_symmetry_group_IT_number 15
_symmetry_cell_setting 'monoclinic'
loop_
_space_group_symop_operation_xyz
x,y,z
-x,y,1/2-z
-x,-y,-z
x,-y,1/2+z
1/2+x,1/2+y,z
1/2-x,1/2+y,1/2-z
1/2-x,1/2-y,-z
1/2+x,1/2-y,1/2+z
loop_
_atom_site_type_symbol
_atom_site_label
_atom_site_fract_x
_atom_site_fract_y
_atom_site_fract_z
Si Si1 0.064497 0.307147 0.322810
Si Si2 0.289729 0.963090 0.764375
Si Si3 0.500000 0.113707 0.250000
Si Si4 0.831756 0.241039 0.954005
Si Si5 0.201667 0.694078 0.393546
Si Si6 0.581663 0.956041 0.560757
Si Si7 0.740929 0.888210 0.459060
Si Si8 0.095347 0.350820 0.014070
O O1 0.101195 0.239987 0.449020
O O2 0.064791 0.396437 0.408256
O O3 0.094142 0.315181 0.181245
O O4 0.000000 0.274199 0.250000
O O5 0.267301 0.893893 0.628430
O O6 0.355854 0.933701 0.829530
O O7 0.255323 0.952858 0.897270
O O8 0.282282 0.058538 0.701928
O O9 0.465639 0.053042 0.341843
O O10 0.541904 0.178149 0.370529
O O11 0.825361 0.259701 0.771819
O O12 0.803046 0.313435 0.037446
O O13 0.803321 0.150643 0.969299
O O14 0.250000 0.750000 0.500000
O O15 0.154630 0.679116 0.487895
O O16 0.586551 0.049014 0.499461
#
# Coordination Sequence:
#
# PCOD8145286 Si02
#       8
#     8   8   4   8   8   8   8   8
#     4  12  24  38  56  82 117 168 203 244 301 356
#     4  11  22  38  58  85 116 153 204 244 304 357
#     4  12  22  38  50  80 120 162 204 256 274 348
#     4  10  23  42  56  84 124 155 200 253 305 353
#     4  11  25  39  59  83 117 159 203 255 308 354
#     4  12  23  37  50  83 120 163 204 245 283 350
#     4  10  22  38  62  82 118 158 194 254 305 354
#     4  12  25  34  57  76 117 158 208 244 290 346
#
# _framework density 18.361404
#
# number of rings (size 3 to 8) (size 9 to 14) (size 15 to 20)
#    0.000    0.800    5.333    2.800   11.200    0.000 
#    0.000    0.000    0.000    0.000    0.000    0.933 
#    2.000    0.000    0.000    0.000    0.000    0.000 
#
# Total GULP energy -371965.212999 kJ/mol
# GULP energy per Si atom -12398.840433 kJ/mol
# Density = 1.831961 g / cm^3
# Si number density = 18.361404 Si / 1000 Ang^3
#
#
#
# Elastic Constant Matrix: (Units=GPa)
#
#
# Indices 1 2 3 4 5 6 
#
# 1 118.7936 42.0259 63.0280 0.0000 -0.0216 0.0000
# 2 42.0259 50.4469 33.9619 0.0000 0.6037 0.0000
# 3 63.0280 33.9619 121.9477 0.0000 -3.9903 0.0000
# 4 0.0000 0.0000 0.0000 29.1583 0.0000 4.0587
# 5 -0.0216 0.6037 -3.9903 0.0000 43.8150 0.0000
# 6 0.0000 0.0000 0.0000 4.0587 0.0000 26.8278
#
#
#
# Elastic Compliance Matrix: (Units=1/GPa)
#
#
# Indices 1 2 3 4 5 6 
#
# 1 0.013970 -0.008327 -0.004912 0.000000 -0.000326 0.000000
# 2 -0.008327 0.029401 -0.003909 0.000000 -0.000765 0.000000
# 3 -0.004912 -0.003909 0.011865 0.000000 0.001132 0.000000
# 4 0.000000 0.000000 0.000000 0.035033 0.000000 -0.005300
# 5 -0.000326 -0.000765 0.001132 0.000000 0.022937 0.000000
# 6 0.000000 0.000000 0.000000 -0.005300 0.000000 0.038077
#
#
# Mechanical properties :
#
#
# Convention : Reuss Voigt Hill
#
# Bulk Modulus (GPa) = 47.75796 63.24665 55.50230
# Shear Modulus (GPa) = 25.96615 30.10504 28.03560
#
# Velocity S-wave (km/s) = 3.76463 4.05357 3.91177
# Velocity P-wave (km/s) = 6.70544 7.51191 7.12010
#
# Compressibility (1/GPa) = 0.02093892
#
# Stress axis : x y z
#
# Youngs Moduli (GPa) = 71.58233 34.01246 84.28432
#
# Poissons Ratio (x) = 0.28323 0.41399
# Poissons Ratio (y) = 0.59609 0.32948
# Poissons Ratio (z) = 0.35160 0.13296
#
# Static dielectric constant tensor:
#      x y z
#    x 3.628070 0.000000 0.096410 
#    y 0.000000 3.127850 0.000000 
#    z 0.096410 0.000000 3.772550 
# 
# 
# High freq. dielectric constant tensor:
#      x y z
#    x 1.702950 0.000000 -0.004340 
#    y 0.000000 1.658940 0.000000 
#    z -0.004340 0.000000 1.742510 
# 
# From -- ./inp_files/61577.got.cif
#   From: 2010.06.25/outbox.cif.g09.slc.cpg/sg15_31_cif.got.tgz:61577.got - 2010.06.28 07:06:18.
