data_PCOD8145912
_publ_section_title
;
Structure prediction by ZEFSAII (Michael W. Deem and Ramdas Pophale) SiO2 
 PCOD8145912
Probable space group: C 2/C
;
_chemical_formula_sum "Si O2"
_cell_formula_units_Z 44
_cell_length_a 19.450354
_cell_length_b 12.991960
_cell_length_c 9.127897
_cell_angle_alpha 90.000000
_cell_angle_beta 83.099526
_cell_angle_gamma 90.000000
_cell_volume 2289.895103
_symmetry_space_group_name_H-M "C 2/C"
_symmetry_group_IT_number 15
_symmetry_cell_setting 'monoclinic'
loop_
_space_group_symop_operation_xyz
x,y,z
-x,y,1/2-z
-x,-y,-z
x,-y,1/2+z
1/2+x,1/2+y,z
1/2-x,1/2+y,1/2-z
1/2-x,1/2-y,-z
1/2+x,1/2-y,1/2+z
loop_
_atom_site_type_symbol
_atom_site_label
_atom_site_fract_x
_atom_site_fract_y
_atom_site_fract_z
Si Si1 0.917338 0.788776 0.596247
Si Si2 0.652809 0.200753 0.600550
Si Si3 0.500000 0.449715 0.750000
Si Si4 0.487089 0.104911 0.922506
Si Si5 0.704029 0.609535 0.909172
Si Si6 0.136076 0.064068 0.617829
O O1 0.869374 0.758609 0.745374
O O2 0.870261 0.832008 0.476899
O O3 0.970949 0.877897 0.628565
O O4 0.960792 0.691214 0.527798
O O5 0.591613 0.139519 0.536432
O O6 0.675434 0.283631 0.476097
O O7 0.712844 0.118470 0.621200
O O8 0.559836 0.520143 0.667397
O O9 0.500000 0.087042 0.750000
O O10 0.500000 0.000000 0.000000
O O11 0.674083 0.591248 0.756885
O O12 0.683487 0.516670 0.020023
#
# Coordination Sequence:
#
# PCOD8145912 Si02
#       6
#     8   8   4   8   8   8
#     4  11  21  41  65  92 125 158 206 265 311 369
#     4  10  22  42  61  82 125 168 201 249 315 363
#     4  12  20  38  68  92 128 154 196 268 320 366
#     4  10  22  40  63  86 118 160 208 256 299 359
#     4  11  23  39  60  90 125 163 199 251 311 386
#     4  12  24  37  64  98 123 158 209 255 321 374
#
# _framework density 19.214855
#
# number of rings (size 3 to 8) (size 9 to 14) (size 15 to 20)
#    0.000    1.091    6.364    0.545    2.545    5.091 
#    0.000    1.818    0.000    0.000    0.000    0.000 
#    0.000    0.000    0.000    0.000    0.000    0.000 
#
# Total GULP energy -272875.682544 kJ/mol
# GULP energy per Si atom -12403.440116 kJ/mol
# Density = 1.917112 g / cm^3
# Si number density = 19.214855 Si / 1000 Ang^3
#
#
#
# Elastic Constant Matrix: (Units=GPa)
#
#
# Indices 1 2 3 4 5 6 
#
# 1 117.7497 61.0290 57.7906 0.0000 4.7151 0.0000
# 2 61.0290 118.5013 55.4908 0.0000 8.7832 0.0000
# 3 57.7906 55.4908 94.7936 0.0000 19.1037 0.0000
# 4 0.0000 0.0000 0.0000 37.2699 0.0000 8.2814
# 5 4.7151 8.7832 19.1037 0.0000 13.7486 0.0000
# 6 0.0000 0.0000 0.0000 8.2814 0.0000 13.6395
#
#
#
# Elastic Compliance Matrix: (Units=1/GPa)
#
#
# Indices 1 2 3 4 5 6 
#
# 1 0.014277 -0.004264 -0.008014 0.000000 0.008963 0.000000
# 2 -0.004264 0.012978 -0.005030 0.000000 0.000160 0.000000
# 3 -0.008014 -0.005030 0.023859 0.000000 -0.027190 0.000000
# 4 0.000000 0.000000 0.000000 0.031016 0.000000 -0.018831
# 5 0.008963 0.000160 -0.027190 0.000000 0.107339 0.000000
# 6 0.000000 0.000000 0.000000 -0.018831 0.000000 0.084750
#
#
# Mechanical properties :
#
#
# Convention : Reuss Voigt Hill
#
# Bulk Modulus (GPa) = 60.61407 75.51837 68.06622
# Shear Modulus (GPa) = 15.90658 23.38056 19.64357
#
# Velocity S-wave (km/s) = 2.88032 3.49204 3.20083
# Velocity P-wave (km/s) = 6.53265 7.45966 7.01150
#
# Compressibility (1/GPa) = 0.01649782
#
# Stress axis : x y z
#
# Youngs Moduli (GPa) = 70.04211 77.05102 41.91281
#
# Poissons Ratio (x) = 0.32858 0.33589
# Poissons Ratio (y) = 0.29869 0.21082
# Poissons Ratio (z) = 0.56132 0.38756
#
# Static dielectric constant tensor:
#      x y z
#    x 3.813240 0.000000 0.015520 
#    y 0.000000 3.474290 0.000000 
#    z 0.015520 0.000000 3.762840 
# 
# 
# High freq. dielectric constant tensor:
#      x y z
#    x 1.754040 0.000000 -0.004080 
#    y 0.000000 1.751520 0.000000 
#    z -0.004080 0.000000 1.747250 
# 
# From -- ./inp_files/54341.got.cif
#   From: 2010.06.25/outbox.cif.g09.slc.cpg/sg15_28_cif.got.tgz:54341.got - 2010.06.28 07:06:18.
