data_PCOD8145020
_publ_section_title
;
Structure prediction by ZEFSAII (Michael W. Deem and Ramdas Pophale) SiO2 
 PCOD8145020
Probable space group: C 2/C
;
_chemical_formula_sum "Si O2"
_cell_formula_units_Z 56
_cell_length_a 9.687978
_cell_length_b 18.678022
_cell_length_c 17.588605
_cell_angle_alpha 90.000000
_cell_angle_beta 129.295703
_cell_angle_gamma 90.000000
_cell_volume 2463.050813
_symmetry_space_group_name_H-M "C 2/C"
_symmetry_group_IT_number 15
_symmetry_cell_setting 'monoclinic'
loop_
_space_group_symop_operation_xyz
x,y,z
-x,y,1/2-z
-x,-y,-z
x,-y,1/2+z
1/2+x,1/2+y,z
1/2-x,1/2+y,1/2-z
1/2-x,1/2-y,-z
1/2+x,1/2-y,1/2+z
loop_
_atom_site_type_symbol
_atom_site_label
_atom_site_fract_x
_atom_site_fract_y
_atom_site_fract_z
Si Si1 0.628864 0.089194 0.603960
Si Si2 0.721734 0.368636 0.613634
Si Si3 0.084322 0.932765 0.901590
Si Si4 0.626896 0.975230 0.938975
Si Si5 0.946432 0.217991 0.566507
Si Si6 0.500000 0.750899 0.750000
Si Si7 0.337959 0.806105 0.973458
Si Si8 0.500000 0.550172 0.750000
O O1 0.629213 0.074874 0.513976
O O2 0.510207 0.159869 0.576623
O O3 0.829455 0.102019 0.705020
O O4 0.555399 0.020413 0.624279
O O5 0.606283 0.404593 0.638863
O O6 0.868905 0.423986 0.632930
O O7 0.577914 0.351651 0.495485
O O8 0.822542 0.299973 0.682670
O O9 0.051947 0.998550 0.835700
O O10 0.195983 0.867889 0.901646
O O11 0.209265 0.967954 0.010107
O O12 0.750000 0.250000 0.500000
O O13 0.007451 0.202770 0.675128
O O14 0.095350 0.269370 0.580903
O O15 0.250000 0.750000 0.000000
#
# Coordination Sequence:
#
# PCOD8145020 Si02
#       8
#     8   8   8   8   8   4   8   4
#     4   9  19  37  62  93 124 171 213 272 330 394
#     4  11  21  38  62  94 130 171 217 281 333 395
#     4  10  22  37  63  96 129 170 220 269 343 393
#     4   9  19  37  62  89 123 167 218 265 328 398
#     4  10  22  41  62  94 131 171 225 269 330 404
#     4  10  24  36  61  96 123 180 222 270 328 400
#     4  11  21  41  68  96 129 177 225 271 333 410
#     4  10  22  36  61  96 131 166 220 278 332 402
#
# _framework density 22.736031000000001
#
# number of rings (size 3 to 8) (size 9 to 14) (size 15 to 20)
#    0.000    2.000    1.429    3.000    4.000    0.000 
#    0.000   11.429    0.000    0.000   22.286    0.000 
#    0.000    0.000    0.000    0.000    0.000    0.000 
#
# Total GULP energy -347004.417879 kJ/mol
# GULP energy per Si atom -12393.014924 kJ/mol
# Density = 2.268428 g / cm^3
# Si number density = 22.736031 Si / 1000 Ang^3
#
#
#
# Elastic Constant Matrix: (Units=GPa)
#
#
# Indices 1 2 3 4 5 6 
#
# 1 124.5758 27.5423 31.5340 0.0000 13.4610 0.0000
# 2 27.5423 55.9341 19.3383 0.0000 5.9515 0.0000
# 3 31.5340 19.3383 92.1424 0.0000 8.6916 0.0000
# 4 0.0000 0.0000 0.0000 26.2524 0.0000 6.4034
# 5 13.4610 5.9515 8.6916 0.0000 33.3496 0.0000
# 6 0.0000 0.0000 0.0000 6.4034 0.0000 46.5033
#
#
#
# Elastic Compliance Matrix: (Units=1/GPa)
#
#
# Indices 1 2 3 4 5 6 
#
# 1 0.009716 -0.003707 -0.002296 0.000000 -0.002662 0.000000
# 2 -0.003707 0.020888 -0.002978 0.000000 -0.001455 0.000000
# 3 -0.002296 -0.002978 0.012432 0.000000 -0.001782 0.000000
# 4 0.000000 0.000000 0.000000 0.039416 0.000000 -0.005427
# 5 -0.002662 -0.001455 -0.001782 0.000000 0.031784 0.000000
# 6 0.000000 0.000000 0.000000 -0.005427 0.000000 0.022251
#
#
# Mechanical properties :
#
#
# Convention : Reuss Voigt Hill
#
# Bulk Modulus (GPa) = 39.88289 47.72016 43.80152
# Shear Modulus (GPa) = 30.71154 34.17022 32.44088
#
# Velocity S-wave (km/s) = 3.67929 3.88094 3.78146
# Velocity P-wave (km/s) = 5.96904 6.41223 6.19460
#
# Compressibility (1/GPa) = 0.02507341
#
# Stress axis : x y z
#
# Youngs Moduli (GPa) = 102.92733 47.87441 80.44043
#
# Poissons Ratio (x) = 0.17747 0.18468
# Poissons Ratio (y) = 0.38156 0.23954
# Poissons Ratio (z) = 0.23631 0.14257
#
# Static dielectric constant tensor:
#      x y z
#    x 4.390500 0.000000 0.247510 
#    y 0.000000 4.368700 0.000000 
#    z 0.247510 0.000000 4.620530 
# 
# 
# High freq. dielectric constant tensor:
#      x y z
#    x 1.903910 0.000000 0.017400 
#    y 0.000000 1.906410 0.000000 
#    z 0.017400 0.000000 1.864420 
# 
# From -- ./inp_files/192272.got.cif
#   From: 2010.06.25/outbox.cif.g09.slc.cpg/sg15_97_cif.got.tgz:192272.got - 2010.06.28 07:06:18.
