data_PCOD8145275
_publ_section_title
;
Structure prediction by ZEFSAII (Michael W. Deem and Ramdas Pophale) SiO2 
 PCOD8145275
Probable space group: C 2/C
;
_chemical_formula_sum "Si O2"
_cell_formula_units_Z 60
_cell_length_a 17.780080
_cell_length_b 28.620737
_cell_length_c 8.114226
_cell_angle_alpha 90.000000
_cell_angle_beta 134.211030
_cell_angle_gamma 90.000000
_cell_volume 2959.683769
_symmetry_space_group_name_H-M "C 2/C"
_symmetry_group_IT_number 15
_symmetry_cell_setting 'monoclinic'
loop_
_space_group_symop_operation_xyz
x,y,z
-x,y,1/2-z
-x,-y,-z
x,-y,1/2+z
1/2+x,1/2+y,z
1/2-x,1/2+y,1/2-z
1/2-x,1/2-y,-z
1/2+x,1/2-y,1/2+z
loop_
_atom_site_type_symbol
_atom_site_label
_atom_site_fract_x
_atom_site_fract_y
_atom_site_fract_z
Si Si1 0.199448 0.370014 0.196140
Si Si2 0.685967 0.548008 0.774364
Si Si3 0.000000 0.672617 0.250000
Si Si4 0.414695 0.316712 0.474871
Si Si5 0.492238 0.399684 0.050310
Si Si6 0.432398 0.212365 0.480170
Si Si7 0.377764 0.125352 0.558510
Si Si8 0.787292 0.943155 0.798122
O O1 0.230017 0.423623 0.206448
O O2 0.302274 0.338382 0.338670
O O3 0.157686 0.361735 0.313863
O O4 0.107279 0.357308 0.925251
O O5 0.567852 0.566840 0.555288
O O6 0.698531 0.494496 0.750724
O O7 0.704347 0.557640 0.993859
O O8 0.996887 0.703472 0.411355
O O9 0.472740 0.345704 0.418114
O O10 0.384195 0.263699 0.380567
O O11 0.500000 0.319455 0.750000
O O12 0.500000 0.415160 0.250000
O O13 0.370262 0.410085 0.824341
O O14 0.500000 0.212895 0.750000
O O15 0.351547 0.169373 0.394135
O O16 0.500000 0.114123 0.750000
O O17 0.325514 0.077843 0.415872
#
# Coordination Sequence:
#
# PCOD8145275 Si02
#       8
#     8   8   4   8   8   8   8   8
#     4  11  23  41  66  91 126 171 213 264 328 381
#     4  10  22  38  61  95 121 164 212 254 326 385
#     4  12  22  42  66  88 130 176 210 270 318 378
#     4  10  22  40  62  97 127 163 214 266 321 389
#     4   9  20  38  61  90 130 162 204 260 318 386
#     4  10  22  42  62  93 127 167 222 260 322 384
#     4  11  22  42  60  89 123 165 215 260 316 377
#     4  11  21  39  62  90 127 164 206 268 315 381
#
# _framework density 20.272435999999999
#
# number of rings (size 3 to 8) (size 9 to 14) (size 15 to 20)
#    0.000    1.600    2.667    2.800    0.933    2.133 
#    3.600    2.000    0.000    0.000    0.000    0.000 
#    0.000    0.000    0.000    0.000    0.000    0.000 
#
# Total GULP energy -371724.435206 kJ/mol
# GULP energy per Si atom -12390.814507 kJ/mol
# Density = 2.022630 g / cm^3
# Si number density = 20.272436 Si / 1000 Ang^3
#
#
#
# Elastic Constant Matrix: (Units=GPa)
#
#
# Indices 1 2 3 4 5 6 
#
# 1 134.8470 59.3123 40.8812 0.0000 1.5206 0.0000
# 2 59.3123 122.0270 27.6879 0.0000 3.9133 0.0000
# 3 40.8812 27.6879 67.4638 0.0000 14.4742 0.0000
# 4 0.0000 0.0000 0.0000 24.9745 0.0000 2.1485
# 5 1.5206 3.9133 14.4742 0.0000 35.8985 0.0000
# 6 0.0000 0.0000 0.0000 2.1485 0.0000 39.7478
#
#
#
# Elastic Compliance Matrix: (Units=1/GPa)
#
#
# Indices 1 2 3 4 5 6 
#
# 1 0.010817 -0.004118 -0.005323 0.000000 0.002137 0.000000
# 2 -0.004118 0.010615 -0.001806 0.000000 -0.000254 0.000000
# 3 -0.005323 -0.001806 0.020470 0.000000 -0.007831 0.000000
# 4 0.000000 0.000000 0.000000 0.040228 0.000000 -0.002174
# 5 0.002137 -0.000254 -0.007831 0.000000 0.030951 0.000000
# 6 0.000000 0.000000 0.000000 -0.002174 0.000000 0.025276
#
#
# Mechanical properties :
#
#
# Convention : Reuss Voigt Hill
#
# Bulk Modulus (GPa) = 51.52989 64.45564 57.99277
# Shear Modulus (GPa) = 29.88278 33.22124 31.55201
#
# Velocity S-wave (km/s) = 3.84351 4.05253 3.94940
# Velocity P-wave (km/s) = 6.72091 7.33219 7.03320
#
# Compressibility (1/GPa) = 0.01940621
#
# Stress axis : x y z
#
# Youngs Moduli (GPa) = 92.44742 94.20920 48.85251
#
# Poissons Ratio (x) = 0.38799 0.26004
# Poissons Ratio (y) = 0.38074 0.08824
# Poissons Ratio (z) = 0.49210 0.17016
#
# Static dielectric constant tensor:
#      x y z
#    x 4.765620 0.000000 0.680720 
#    y 0.000000 3.517160 0.000000 
#    z 0.680720 0.000000 4.113290 
# 
# 
# High freq. dielectric constant tensor:
#      x y z
#    x 1.802810 0.000000 -0.005880 
#    y 0.000000 1.794010 0.000000 
#    z -0.005880 0.000000 1.784130 
# 
# From -- ./inp_files/52186.got.cif
#   From: 2010.06.25/outbox.cif.g09.slc.cpg/sg15_27_cif.got.tgz:52186.got - 2010.06.28 07:06:18.
