data_PCOD8145982
_publ_section_title
;
Structure prediction by ZEFSAII (Michael W. Deem and Ramdas Pophale) SiO2 
 PCOD8145982
Probable space group: C 2/C
;
_chemical_formula_sum "Si O2"
_cell_formula_units_Z 48
_cell_length_a 17.357014
_cell_length_b 9.919757
_cell_length_c 28.779694
_cell_angle_alpha 90.000000
_cell_angle_beta 30.261956
_cell_angle_gamma 90.000000
_cell_volume 2497.199901
_symmetry_space_group_name_H-M "C 2/C"
_symmetry_group_IT_number 15
_symmetry_cell_setting 'monoclinic'
loop_
_space_group_symop_operation_xyz
x,y,z
-x,y,1/2-z
-x,-y,-z
x,-y,1/2+z
1/2+x,1/2+y,z
1/2-x,1/2+y,1/2-z
1/2-x,1/2-y,-z
1/2+x,1/2-y,1/2+z
loop_
_atom_site_type_symbol
_atom_site_label
_atom_site_fract_x
_atom_site_fract_y
_atom_site_fract_z
Si Si1 0.152145 0.365449 0.573448
Si Si2 0.675801 0.978781 0.919322
Si Si3 0.818416 0.266390 0.744041
Si Si4 0.216593 0.884565 0.544709
Si Si5 0.172795 0.752418 0.156692
Si Si6 0.138534 0.952738 0.770209
O O1 0.250000 0.250000 0.500000
O O2 0.196953 0.509210 0.532038
O O3 0.180535 0.366147 0.614604
O O4 0.977574 0.338578 0.651053
O O5 0.703416 0.871877 0.946313
O O6 0.771450 0.931838 0.824790
O O7 0.730778 0.121177 0.911637
O O8 0.500000 0.000000 0.000000
O O9 0.767821 0.294174 0.823784
O O10 0.693203 0.338383 0.777505
O O11 0.830525 0.105356 0.727671
O O12 0.250000 0.750000 0.500000
O O13 0.040385 0.925476 0.643538
O O14 0.000000 0.807125 0.250000
#
# Coordination Sequence:
#
# PCOD8145982 Si02
#       6
#     8   8   8   8   8   8
#     4  11  19  40  67  87 116 167 213 255 312 389
#     4  11  22  39  67  90 121 170 213 258 324 401
#     4  10  22  40  64  93 124 166 211 261 322 391
#     4  12  26  41  62  96 134 164 216 272 328 377
#     4   9  19  38  65  87 116 159 217 252 308 385
#     4  11  24  42  64  92 131 167 213 267 328 388
#
# _framework density 19.221527999999999
#
# number of rings (size 3 to 8) (size 9 to 14) (size 15 to 20)
#    0.000    1.333    3.333    3.500    7.000    0.000 
#    3.000    2.500    0.000    0.000    0.000    0.000 
#    0.000    0.000    0.000    0.000    0.000    0.000 
#
# Total GULP energy -297556.921837 kJ/mol
# GULP energy per Si atom -12398.205077 kJ/mol
# Density = 1.917778 g / cm^3
# Si number density = 19.221528 Si / 1000 Ang^3
#
#
#
# Elastic Constant Matrix: (Units=GPa)
#
#
# Indices 1 2 3 4 5 6 
#
# 1 137.7873 56.2143 48.2796 0.0001 0.6856 0.0004
# 2 56.2143 118.0314 46.5333 0.0000 8.3262 0.0013
# 3 48.2796 46.5333 106.1900 0.0001 -0.0880 0.0000
# 4 0.0001 0.0000 0.0001 34.1717 -0.0001 0.9976
# 5 0.6856 8.3262 -0.0880 -0.0001 28.0258 0.0000
# 6 0.0004 0.0013 0.0000 0.9976 0.0000 32.0654
#
#
#
# Elastic Compliance Matrix: (Units=1/GPa)
#
#
# Indices 1 2 3 4 5 6 
#
# 1 0.009703 -0.003553 -0.002854 0.000000 0.000809 0.000000
# 2 -0.003553 0.011812 -0.003563 0.000000 -0.003433 0.000000
# 3 -0.002854 -0.003563 0.012277 0.000000 0.001167 0.000000
# 4 0.000000 0.000000 0.000000 0.029291 0.000000 -0.000911
# 5 0.000809 -0.003433 0.001167 0.000000 0.036685 0.000000
# 6 0.000000 0.000000 0.000000 -0.000911 0.000000 0.031215
#
#
# Mechanical properties :
#
#
# Convention : Reuss Voigt Hill
#
# Bulk Modulus (GPa) = 72.19682 73.78480 72.99081
# Shear Modulus (GPa) = 32.14607 32.91802 32.53204
#
# Velocity S-wave (km/s) = 4.09393 4.14280 4.11844
# Velocity P-wave (km/s) = 7.74526 7.83285 7.78918
#
# Compressibility (1/GPa) = 0.01385102
#
# Stress axis : x y z
#
# Youngs Moduli (GPa) = 103.05924 84.66232 81.45298
#
# Poissons Ratio (x) = 0.30083 0.23245
# Poissons Ratio (y) = 0.36620 0.29024
# Poissons Ratio (z) = 0.29411 0.30168
#
# Static dielectric constant tensor:
#      x y z
#    x 4.279470 0.000000 0.314700 
#    y 0.000000 3.488910 0.000000 
#    z 0.314700 0.000000 3.756640 
# 
# 
# High freq. dielectric constant tensor:
#      x y z
#    x 1.759260 0.000000 0.003940 
#    y 0.000000 1.728320 0.000000 
#    z 0.003940 0.000000 1.762980 
# 
# From -- ./inp_files/315622.got.cif
#   From: 2010.06.25/outbox.cif.g09.slc.cpg/sg15_158_cif.got.tgz:315622.got - 2010.06.28 07:06:18.
