data_PCOD8145608
_publ_section_title
;
Structure prediction by ZEFSAII (Michael W. Deem and Ramdas Pophale) SiO2 
 PCOD8145608
Probable space group: C 2/C
;
_chemical_formula_sum "Si O2"
_cell_formula_units_Z 52
_cell_length_a 18.802315
_cell_length_b 11.583044
_cell_length_c 27.121053
_cell_angle_alpha 90.000000
_cell_angle_beta 153.821148
_cell_angle_gamma 90.000000
_cell_volume 2605.860245
_symmetry_space_group_name_H-M "C 2/C"
_symmetry_group_IT_number 15
_symmetry_cell_setting 'monoclinic'
loop_
_space_group_symop_operation_xyz
x,y,z
-x,y,1/2-z
-x,-y,-z
x,-y,1/2+z
1/2+x,1/2+y,z
1/2-x,1/2+y,1/2-z
1/2-x,1/2-y,-z
1/2+x,1/2-y,1/2+z
loop_
_atom_site_type_symbol
_atom_site_label
_atom_site_fract_x
_atom_site_fract_y
_atom_site_fract_z
Si Si1 0.607094 0.394955 0.084566
Si Si2 0.773377 0.179428 0.937813
Si Si3 0.036737 0.743225 0.418158
Si Si4 0.775828 0.094085 0.043334
Si Si5 0.938824 0.485385 0.816342
Si Si6 0.000000 0.498736 0.250000
Si Si7 0.392534 0.653063 0.637461
O O1 0.614313 0.311866 0.040712
O O2 0.521022 0.318704 0.072216
O O3 0.773164 0.443302 0.211904
O O4 0.500000 0.500000 0.000000
O O5 0.694754 0.304055 0.898963
O O6 0.652213 0.083167 0.844048
O O7 0.852362 0.132964 0.038107
O O8 0.225939 0.720093 0.541197
O O9 0.012407 0.815087 0.353095
O O10 0.936132 0.622325 0.352572
O O11 0.865779 0.983788 0.119993
O O12 0.582424 0.074665 0.918459
O O13 0.985826 0.427933 0.791742
O O14 0.500000 0.689075 0.750000
#
# Coordination Sequence:
#
# PCOD8145608 Si02
#       7
#     8   8   8   8   8   4   8
#     4  11  23  38  59  87 115 160 196 236 298 362
#     4   9  18  34  60  83 119 151 185 239 284 349
#     4  10  23  41  59  89 118 154 204 245 297 356
#     4   9  18  37  57  89 116 148 196 237 291 350
#     4   9  20  37  57  81 119 148 190 243 290 346
#     4   8  16  32  60  84 102 154 194 226 286 336
#     4  10  22  39  63  86 114 156 202 254 292 343
#
# _framework density 19.955023000000001
#
# number of rings (size 3 to 8) (size 9 to 14) (size 15 to 20)
#    0.000    2.462    0.000    0.923    4.308    3.692 
#    2.769    1.538    0.000    0.000    0.000    0.000 
#    0.000    0.000    0.000    0.000    0.000    0.000 
#
# Total GULP energy -322185.986545 kJ/mol
# GULP energy per Si atom -12391.768713 kJ/mol
# Density = 1.990960 g / cm^3
# Si number density = 19.955023 Si / 1000 Ang^3
#
#
#
# Elastic Constant Matrix: (Units=GPa)
#
#
# Indices 1 2 3 4 5 6 
#
# 1 161.1089 60.4814 27.4207 0.0004 -15.6497 0.0000
# 2 60.4814 84.9016 15.5664 -0.0006 -10.8214 -0.0002
# 3 27.4207 15.5664 57.9710 0.0031 -12.1987 0.0009
# 4 0.0004 -0.0006 0.0031 45.5184 0.0004 -7.2040
# 5 -15.6497 -10.8214 -12.1987 0.0004 23.4304 0.0004
# 6 0.0000 -0.0002 0.0009 -7.2040 0.0004 40.2958
#
#
#
# Elastic Compliance Matrix: (Units=1/GPa)
#
#
# Indices 1 2 3 4 5 6 
#
# 1 0.008930 -0.005673 -0.002243 0.000000 0.002177 0.000000
# 2 -0.005673 0.016425 -0.001043 0.000000 0.003254 0.000000
# 3 -0.002243 -0.001043 0.020410 -0.000002 0.008647 -0.000001
# 4 0.000000 0.000000 -0.000002 0.022609 -0.000001 0.004042
# 5 0.002177 0.003254 0.008647 -0.000001 0.050139 -0.000001
# 6 0.000000 0.000000 -0.000001 0.004042 -0.000001 0.025539
#
#
# Mechanical properties :
#
#
# Convention : Reuss Voigt Hill
#
# Bulk Modulus (GPa) = 35.90678 56.76871 46.33775
# Shear Modulus (GPa) = 29.19706 35.21646 32.20676
#
# Velocity S-wave (km/s) = 3.82926 4.20550 4.02178
# Velocity P-wave (km/s) = 6.13057 7.21746 6.69610
#
# Compressibility (1/GPa) = 0.02784989
#
# Stress axis : x y z
#
# Youngs Moduli (GPa) = 111.98652 60.88175 48.99509
#
# Poissons Ratio (x) = 0.34536 0.10987
# Poissons Ratio (y) = 0.63526 0.05108
# Poissons Ratio (z) = 0.25113 0.06347
#
# Static dielectric constant tensor:
#      x y z
#    x 3.751540 0.000000 -0.149900 
#    y 0.000000 3.592120 0.000000 
#    z -0.149900 0.000000 3.512390 
# 
# 
# High freq. dielectric constant tensor:
#      x y z
#    x 1.775010 0.000000 -0.015280 
#    y 0.000000 1.784630 0.000000 
#    z -0.015280 0.000000 1.766210 
# 
# From -- ./inp_files/222417.got.cif
#   From: 2010.06.25/outbox.cif.g09.slc.cpg/sg15_112_cif.got.tgz:222417.got - 2010.06.28 07:06:18.
