data_PCOD8145452
_publ_section_title
;
Structure prediction by ZEFSAII (Michael W. Deem and Ramdas Pophale) SiO2 
 PCOD8145452
Probable space group: C 2/C
;
_chemical_formula_sum "Si O2"
_cell_formula_units_Z 64
_cell_length_a 17.660624
_cell_length_b 13.876583
_cell_length_c 15.662921
_cell_angle_alpha 90.000000
_cell_angle_beta 47.841728
_cell_angle_gamma 90.000000
_cell_volume 2845.454168
_symmetry_space_group_name_H-M "C 2/C"
_symmetry_group_IT_number 15
_symmetry_cell_setting 'monoclinic'
loop_
_space_group_symop_operation_xyz
x,y,z
-x,y,1/2-z
-x,-y,-z
x,-y,1/2+z
1/2+x,1/2+y,z
1/2-x,1/2+y,1/2-z
1/2-x,1/2-y,-z
1/2+x,1/2-y,1/2+z
loop_
_atom_site_type_symbol
_atom_site_label
_atom_site_fract_x
_atom_site_fract_y
_atom_site_fract_z
Si Si1 0.807260 0.176175 0.124879
Si Si2 0.488546 0.270597 0.394873
Si Si3 0.157281 0.350172 0.285185
Si Si4 0.768225 0.464130 0.688040
Si Si5 0.560378 0.829191 0.998435
Si Si6 0.378617 0.491749 0.846823
Si Si7 0.300686 0.675100 0.525236
Si Si8 0.847956 0.796535 0.356536
O O1 0.812681 0.245575 0.202640
O O2 0.750138 0.082355 0.203977
O O3 0.749866 0.229799 0.088895
O O4 0.921160 0.153477 0.002856
O O5 0.516818 0.181487 0.434820
O O6 0.418285 0.235671 0.368800
O O7 0.591997 0.316338 0.278926
O O8 0.197877 0.426722 0.323373
O O9 0.210818 0.364571 0.153830
O O10 0.034000 0.358608 0.368504
O O11 0.856227 0.413115 0.565701
O O12 0.664518 0.457010 0.711897
O O13 0.609312 0.727920 0.990762
O O14 0.500000 0.503549 0.750000
O O15 0.327169 0.595674 0.909100
O O16 0.349675 0.415994 0.941387
O O17 0.250000 0.750000 0.500000
#
# Coordination Sequence:
#
# PCOD8145452 Si02
#       8
#     8   8   8   8   8   8   8   8
#     4  11  22  42  69  97 133 183 225 284 344 402
#     4  10  22  38  68  96 129 179 222 271 344 407
#     4  11  25  44  73 102 139 183 231 288 341 415
#     4  12  24  46  70 101 140 180 236 285 346 412
#     4  11  24  46  72 100 136 185 230 283 351 405
#     4  12  27  42  68 102 140 179 227 288 346 406
#     4  12  26  46  69 100 141 184 237 278 347 416
#     4  11  21  45  63  99 141 173 222 285 342 406
#
# _framework density 22.492014999999999
#
# number of rings (size 3 to 8) (size 9 to 14) (size 15 to 20)
#    0.000    0.750    6.250    0.750    7.000    0.000 
#    0.000    1.875    2.750    0.000    0.000    0.000 
#    0.000    0.000    0.000    0.000    0.000    0.000 
#
# Total GULP energy -396736.789233 kJ/mol
# GULP energy per Si atom -12398.024664 kJ/mol
# Density = 2.244082 g / cm^3
# Si number density = 22.492015 Si / 1000 Ang^3
#
#
#
# Elastic Constant Matrix: (Units=GPa)
#
#
# Indices 1 2 3 4 5 6 
#
# 1 110.2158 31.8396 31.7779 0.0000 -5.0047 0.0000
# 2 31.8396 84.7830 35.4625 0.0000 -1.5831 0.0000
# 3 31.7779 35.4625 97.9076 0.0000 -18.7834 0.0000
# 4 0.0000 0.0000 0.0000 33.4293 0.0000 6.7417
# 5 -5.0047 -1.5831 -18.7834 0.0000 35.8575 0.0000
# 6 0.0000 0.0000 0.0000 6.7417 0.0000 34.7943
#
#
#
# Elastic Compliance Matrix: (Units=1/GPa)
#
#
# Indices 1 2 3 4 5 6 
#
# 1 0.010621 -0.003011 -0.002332 0.000000 0.000128 0.000000
# 2 -0.003011 0.014919 -0.004870 0.000000 -0.002313 0.000000
# 3 -0.002332 -0.004870 0.014042 0.000000 0.006815 0.000000
# 4 0.000000 0.000000 0.000000 0.031130 0.000000 -0.006032
# 5 0.000128 -0.002313 0.006815 0.000000 0.031374 0.000000
# 6 0.000000 0.000000 0.000000 -0.006032 0.000000 0.029909
#
#
# Mechanical properties :
#
#
# Convention : Reuss Voigt Hill
#
# Bulk Modulus (GPa) = 52.20299 54.56294 53.38297
# Shear Modulus (GPa) = 31.48448 33.73798 32.61123
#
# Velocity S-wave (km/s) = 3.74546 3.87718 3.81189
# Velocity P-wave (km/s) = 6.47801 6.65994 6.56961
#
# Compressibility (1/GPa) = 0.01915599
#
# Stress axis : x y z
#
# Youngs Moduli (GPa) = 94.15197 67.02663 71.21355
#
# Poissons Ratio (x) = 0.20180 0.16609
# Poissons Ratio (y) = 0.28347 0.34684
# Poissons Ratio (z) = 0.21959 0.32645
#
# Static dielectric constant tensor:
#      x y z
#    x 4.190070 0.000000 -0.108970 
#    y 0.000000 3.836450 0.000000 
#    z -0.108970 0.000000 4.274360 
# 
# 
# High freq. dielectric constant tensor:
#      x y z
#    x 1.891820 0.000000 -0.005600 
#    y 0.000000 1.862940 0.000000 
#    z -0.005600 0.000000 1.902730 
# 
# From -- ./inp_files/162530.got.cif
#   From: 2010.06.25/outbox.cif.g09.slc.cpg/sg15_82_cif.got.tgz:162530.got - 2010.06.28 07:06:18.
