data_PCOD8145349
_publ_section_title
;
Structure prediction by ZEFSAII (Michael W. Deem and Ramdas Pophale) SiO2 
 PCOD8145349
Probable space group: C 2/C
;
_chemical_formula_sum "Si O2"
_cell_formula_units_Z 56
_cell_length_a 13.316074
_cell_length_b 12.703667
_cell_length_c 28.799312
_cell_angle_alpha 90.000000
_cell_angle_beta 33.873328
_cell_angle_gamma 90.000000
_cell_volume 2715.327212
_symmetry_space_group_name_H-M "C 2/C"
_symmetry_group_IT_number 15
_symmetry_cell_setting 'monoclinic'
loop_
_space_group_symop_operation_xyz
x,y,z
-x,y,1/2-z
-x,-y,-z
x,-y,1/2+z
1/2+x,1/2+y,z
1/2-x,1/2+y,1/2-z
1/2-x,1/2-y,-z
1/2+x,1/2-y,1/2+z
loop_
_atom_site_type_symbol
_atom_site_label
_atom_site_fract_x
_atom_site_fract_y
_atom_site_fract_z
Si Si1 0.763821 0.774121 0.570182
Si Si2 0.609224 0.145181 0.603013
Si Si3 0.971804 0.754576 0.954324
Si Si4 0.972029 0.546031 0.311299
Si Si5 0.877410 0.217503 0.251811
Si Si6 0.007441 0.167510 0.892875
Si Si7 0.373519 0.429772 0.673278
O O1 0.661518 0.856282 0.642491
O O2 0.884584 0.833632 0.485766
O O3 0.618277 0.697616 0.602619
O O4 0.892411 0.714511 0.557892
O O5 0.786332 0.209941 0.549953
O O6 0.569636 0.154978 0.563107
O O7 0.437062 0.185834 0.696934
O O8 0.625997 0.025103 0.612281
O O9 0.035512 0.855055 0.899870
O O10 0.000000 0.490798 0.250000
O O11 0.161321 0.587737 0.255771
O O12 0.666427 0.246585 0.341115
O O13 0.920534 0.108925 0.207469
O O14 0.000000 0.211806 0.250000
O O15 0.076851 0.050229 0.855935
#
# Coordination Sequence:
#
# PCOD8145349 Si02
#       7
#     8   8   8   8   8   8   8
#     4  11  24  41  64  92 125 162 201 257 305 366
#     4  10  22  38  64  90 122 157 205 255 300 365
#     4  10  22  41  62  91 122 158 203 252 308 360
#     4  12  22  37  64  96 121 161 206 255 304 359
#     4  11  22  40  62  88 121 165 208 250 303 366
#     4  11  24  42  62  90 127 162 205 251 310 362
#     4  11  23  40  59  91 126 156 204 256 300 367
#
# _framework density 20.623664999999999
#
# number of rings (size 3 to 8) (size 9 to 14) (size 15 to 20)
#    0.000    1.143    4.286    2.143    2.000    1.143 
#    2.571    0.000    0.000    6.000    0.000    0.000 
#    0.000    0.000    0.000    0.000    0.000    0.000 
#
# Total GULP energy -347025.782631 kJ/mol
# GULP energy per Si atom -12393.777951 kJ/mol
# Density = 2.057672 g / cm^3
# Si number density = 20.623665 Si / 1000 Ang^3
#
#
#
# Elastic Constant Matrix: (Units=GPa)
#
#
# Indices 1 2 3 4 5 6 
#
# 1 151.3910 25.5739 27.5743 -0.0002 -11.6228 0.0000
# 2 25.5739 57.2918 14.4680 0.0000 9.5960 0.0000
# 3 27.5743 14.4680 86.7221 0.0005 -4.9831 0.0000
# 4 -0.0002 0.0000 0.0005 23.1773 0.0001 -1.4844
# 5 -11.6228 9.5960 -4.9831 0.0001 29.1982 0.0000
# 6 0.0000 0.0000 0.0000 -1.4844 0.0000 19.9986
#
#
#
# Elastic Compliance Matrix: (Units=1/GPa)
#
#
# Indices 1 2 3 4 5 6 
#
# 1 0.007855 -0.003779 -0.001632 0.000000 0.004090 0.000000
# 2 -0.003779 0.021381 -0.002884 0.000000 -0.009024 0.000000
# 3 -0.001632 -0.002884 0.012673 0.000000 0.002461 0.000000
# 4 0.000000 0.000000 0.000000 0.043352 0.000000 0.003218
# 5 0.004090 -0.009024 0.002461 0.000000 0.039263 0.000000
# 6 0.000000 0.000000 0.000000 0.003218 0.000000 0.050242
#
#
# Mechanical properties :
#
#
# Convention : Reuss Voigt Hill
#
# Bulk Modulus (GPa) = 39.49715 47.84857 43.67286
# Shear Modulus (GPa) = 25.02560 29.66074 27.34317
#
# Velocity S-wave (km/s) = 3.48723 3.79646 3.64512
# Velocity P-wave (km/s) = 5.95040 6.51680 6.24003
#
# Compressibility (1/GPa) = 0.02531829
#
# Stress axis : x y z
#
# Youngs Moduli (GPa) = 127.30516 46.77013 78.91075
#
# Poissons Ratio (x) = 0.17676 0.12879
# Poissons Ratio (y) = 0.48113 0.22757
# Poissons Ratio (z) = 0.20777 0.13488
#
# Static dielectric constant tensor:
#      x y z
#    x 3.895030 0.000000 -0.054390 
#    y 0.000000 3.463840 0.000000 
#    z -0.054390 0.000000 3.989720 
# 
# 
# High freq. dielectric constant tensor:
#      x y z
#    x 1.814280 0.000000 -0.007660 
#    y 0.000000 1.775720 0.000000 
#    z -0.007660 0.000000 1.829120 
# 
# From -- ./inp_files/197767.got.cif
#   From: 2010.06.25/outbox.cif.g09.slc.cpg/sg15_99_cif.got.tgz:197767.got - 2010.06.28 07:06:18.
