data_PCOD8145002
_publ_section_title
;
Structure prediction by ZEFSAII (Michael W. Deem and Ramdas Pophale) SiO2 
 PCOD8145002
Probable space group: C 2/C
;
_chemical_formula_sum "Si O2"
_cell_formula_units_Z 60
_cell_length_a 5.533806
_cell_length_b 18.837882
_cell_length_c 26.124409
_cell_angle_alpha 90.000000
_cell_angle_beta 90.552891
_cell_angle_gamma 90.000000
_cell_volume 2723.217039
_symmetry_space_group_name_H-M "C 2/C"
_symmetry_group_IT_number 15
_symmetry_cell_setting 'monoclinic'
loop_
_space_group_symop_operation_xyz
x,y,z
-x,y,1/2-z
-x,-y,-z
x,-y,1/2+z
1/2+x,1/2+y,z
1/2-x,1/2+y,1/2-z
1/2-x,1/2-y,-z
1/2+x,1/2-y,1/2+z
loop_
_atom_site_type_symbol
_atom_site_label
_atom_site_fract_x
_atom_site_fract_y
_atom_site_fract_z
Si Si1 0.882745 0.241201 0.301674
Si Si2 0.556055 0.519914 0.891470
Si Si3 0.803710 0.113534 0.160045
Si Si4 0.512684 0.189305 0.532292
Si Si5 0.572412 0.964863 0.447655
Si Si6 0.630609 0.326284 0.380776
Si Si7 0.356309 0.792749 0.923733
Si Si8 0.000000 0.351695 0.750000
O O1 0.832871 0.307898 0.338596
O O2 0.642161 0.199619 0.287781
O O3 0.000000 0.271461 0.250000
O O4 0.042236 0.184106 0.331500
O O5 0.544982 0.458418 0.848440
O O6 0.326961 0.502076 0.927835
O O7 0.511212 0.597905 0.866936
O O8 0.832989 0.522751 0.912676
O O9 0.666945 0.131819 0.106047
O O10 0.652345 0.098751 0.211633
O O11 0.358671 0.118280 0.544528
O O12 0.766864 0.175855 0.560880
O O13 0.548096 0.195010 0.470707
O O14 0.389769 0.262043 0.551948
O O15 0.500000 0.000000 0.500000
O O16 0.434518 0.263798 0.380457
#
# Coordination Sequence:
#
# PCOD8145002 Si02
#       8
#     8   8   8   8   8   8   8   4
#     4  10  22  40  69  94 124 167 230 273 343 398
#     4  11  26  41  68  96 138 175 220 273 346 390
#     4  11  23  41  68  98 127 177 223 283 334 411
#     4  10  22  36  59  96 129 172 223 268 320 392
#     4  11  23  43  62  94 138 184 222 271 325 404
#     4  11  21  42  64  95 135 175 215 286 326 408
#     4  11  20  37  63  91 129 173 222 265 328 387
#     4  10  22  42  68  92 126 166 224 290 330 406
#
# _framework density 22.032762999999999
#
# number of rings (size 3 to 8) (size 9 to 14) (size 15 to 20)
#    0.000    1.333    4.000    1.600    1.867    1.067 
#    3.600    0.000    4.400    0.000    0.000    0.000 
#    0.000    0.000    0.000    0.000    0.000    0.000 
#
# Total GULP energy -371681.315128 kJ/mol
# GULP energy per Si atom -12389.377171 kJ/mol
# Density = 2.198262 g / cm^3
# Si number density = 22.032763 Si / 1000 Ang^3
#
#
#
# Elastic Constant Matrix: (Units=GPa)
#
#
# Indices 1 2 3 4 5 6 
#
# 1 86.9724 25.9604 33.6617 0.0000 -23.2313 0.0000
# 2 25.9604 97.5910 46.8284 0.0000 -28.6814 0.0000
# 3 33.6617 46.8284 113.0140 0.0000 -26.1129 0.0000
# 4 0.0000 0.0000 0.0000 29.7536 0.0000 -2.5484
# 5 -23.2313 -28.6814 -26.1129 0.0000 33.8920 0.0000
# 6 0.0000 0.0000 0.0000 -2.5484 0.0000 28.2536
#
#
#
# Elastic Compliance Matrix: (Units=1/GPa)
#
#
# Indices 1 2 3 4 5 6 
#
# 1 0.014640 -0.000462 -0.002361 0.000000 0.007825 0.000000
# 2 -0.000462 0.014999 -0.003915 0.000000 0.009361 0.000000
# 3 -0.002361 -0.003915 0.012208 0.000000 0.004474 0.000000
# 4 0.000000 0.000000 0.000000 0.033871 0.000000 0.003055
# 5 0.007825 0.009361 0.004474 0.000000 0.046238 0.000000
# 6 0.000000 0.000000 0.000000 0.003055 0.000000 0.035669
#
#
# Mechanical properties :
#
#
# Convention : Reuss Voigt Hill
#
# Bulk Modulus (GPa) = 35.24675 56.71982 45.98328
# Shear Modulus (GPa) = 27.69212 31.12164 29.40688
#
# Velocity S-wave (km/s) = 3.54907 3.76242 3.65730
# Velocity P-wave (km/s) = 5.72946 6.68384 6.22497
#
# Compressibility (1/GPa) = 0.02837141
#
# Stress axis : x y z
#
# Youngs Moduli (GPa) = 68.30750 66.67074 81.91572
#
# Poissons Ratio (x) = 0.03078 0.19342
# Poissons Ratio (y) = 0.03153 0.32067
# Poissons Ratio (z) = 0.16129 0.26099
#
# Static dielectric constant tensor:
#      x y z
#    x 3.866650 0.000000 -0.123540 
#    y 0.000000 4.086420 0.000000 
#    z -0.123540 0.000000 3.824340 
# 
# 
# High freq. dielectric constant tensor:
#      x y z
#    x 1.860110 0.000000 -0.008010 
#    y 0.000000 1.860060 0.000000 
#    z -0.008010 0.000000 1.861650 
# 
# From -- ./inp_files/286439.got.cif
#   From: 2010.06.25/outbox.cif.g09.slc.cpg/sg15_144_cif.got.tgz:286439.got - 2010.06.28 07:06:18.
