data_PCOD8145737
_publ_section_title
;
Structure prediction by ZEFSAII (Michael W. Deem and Ramdas Pophale) SiO2 
 PCOD8145737
Probable space group: C 2/C
;
_chemical_formula_sum "Si O2"
_cell_formula_units_Z 56
_cell_length_a 10.213210
_cell_length_b 15.398750
_cell_length_c 16.682882
_cell_angle_alpha 90.000000
_cell_angle_beta 92.572753
_cell_angle_gamma 90.000000
_cell_volume 2621.083347
_symmetry_space_group_name_H-M "C 2/C"
_symmetry_group_IT_number 15
_symmetry_cell_setting 'monoclinic'
loop_
_space_group_symop_operation_xyz
x,y,z
-x,y,1/2-z
-x,-y,-z
x,-y,1/2+z
1/2+x,1/2+y,z
1/2-x,1/2+y,1/2-z
1/2-x,1/2-y,-z
1/2+x,1/2-y,1/2+z
loop_
_atom_site_type_symbol
_atom_site_label
_atom_site_fract_x
_atom_site_fract_y
_atom_site_fract_z
Si Si1 0.288960 0.995375 0.404892
Si Si2 0.874977 0.127880 0.188096
Si Si3 0.572741 0.291311 0.983901
Si Si4 0.855944 0.679962 0.210155
Si Si5 0.561104 0.997982 0.334544
Si Si6 0.183108 0.622461 0.954325
Si Si7 0.818706 0.190826 0.566000
O O1 0.440283 0.013940 0.390252
O O2 0.263467 0.894208 0.415250
O O3 0.189583 0.034274 0.335301
O O4 0.272011 0.044633 0.487535
O O5 0.918747 0.174399 0.107231
O O6 0.760679 0.184718 0.227439
O O7 0.000000 0.115362 0.250000
O O8 0.562771 0.185256 0.980175
O O9 0.693829 0.313048 0.046128
O O10 0.453995 0.335703 0.027682
O O11 0.851585 0.584952 0.168690
O O12 0.834186 0.756707 0.147900
O O13 0.000000 0.692547 0.250000
O O14 0.500000 0.966381 0.250000
O O15 0.651753 0.919471 0.367680
O O16 0.750000 0.250000 0.500000
#
# Coordination Sequence:
#
# PCOD8145737 Si02
#       7
#     8   8   8   8   8   8   8
#     4  11  23  42  63 100 131 175 225 272 344 410
#     4  11  24  44  68  98 141 173 221 289 345 402
#     4  10  24  42  65  99 130 184 223 273 357 407
#     4  11  24  44  69  97 138 178 228 283 343 407
#     4  11  21  40  67  95 127 172 229 273 333 402
#     4  10  22  39  67  89 132 168 227 275 330 408
#     4  12  25  42  68  99 137 177 230 281 341 414
#
# _framework density 21.365210999999999
#
# number of rings (size 3 to 8) (size 9 to 14) (size 15 to 20)
#    0.000    1.143    2.857    3.857    4.000    5.714 
#    0.000    0.000    0.000    0.000    0.000    0.000 
#    0.000    0.000    0.000    0.000    0.000    0.000 
#
# Total GULP energy -347092.588817 kJ/mol
# GULP energy per Si atom -12396.163886 kJ/mol
# Density = 2.131658 g / cm^3
# Si number density = 21.365211 Si / 1000 Ang^3
#
#
#
# Elastic Constant Matrix: (Units=GPa)
#
#
# Indices 1 2 3 4 5 6 
#
# 1 75.0522 14.8827 31.2481 0.0000 -4.4191 0.0000
# 2 14.8827 121.2813 52.2479 0.0000 11.5404 0.0000
# 3 31.2481 52.2479 95.4335 0.0000 -3.5539 0.0000
# 4 0.0000 0.0000 0.0000 33.3091 0.0000 2.5762
# 5 -4.4191 11.5404 -3.5539 0.0000 41.1794 0.0000
# 6 0.0000 0.0000 0.0000 2.5762 0.0000 26.3206
#
#
#
# Elastic Compliance Matrix: (Units=1/GPa)
#
#
# Indices 1 2 3 4 5 6 
#
# 1 0.015493 0.000203 -0.005141 0.000000 0.001162 0.000000
# 2 0.000203 0.011335 -0.006410 0.000000 -0.003708 0.000000
# 3 -0.005141 -0.006410 0.015768 0.000000 0.002606 0.000000
# 4 0.000000 0.000000 0.000000 0.030251 0.000000 -0.002961
# 5 0.001162 -0.003708 0.002606 0.000000 0.025673 0.000000
# 6 0.000000 0.000000 0.000000 -0.002961 0.000000 0.038283
#
#
# Mechanical properties :
#
#
# Convention : Reuss Voigt Hill
#
# Bulk Modulus (GPa) = 50.25164 54.28050 52.26607
# Shear Modulus (GPa) = 30.09686 33.05436 31.57561
#
# Velocity S-wave (km/s) = 3.75732 3.93760 3.84851
# Velocity P-wave (km/s) = 6.51111 6.79221 6.65315
#
# Compressibility (1/GPa) = 0.01989985
#
# Stress axis : x y z
#
# Youngs Moduli (GPa) = 64.54717 88.22508 63.41933
#
# Poissons Ratio (x) = -0.01790 0.32601
# Poissons Ratio (y) = -0.01309 0.40652
# Poissons Ratio (z) = 0.33181 0.56552
#
# Static dielectric constant tensor:
#      x y z
#    x 4.376160 0.000000 -0.128430 
#    y 0.000000 3.997370 0.000000 
#    z -0.128430 0.000000 4.027060 
# 
# 
# High freq. dielectric constant tensor:
#      x y z
#    x 1.843090 0.000000 0.006820 
#    y 0.000000 1.838470 0.000000 
#    z 0.006820 0.000000 1.842380 
# 
# From -- ./inp_files/144244.got.cif
#   From: 2010.06.25/outbox.cif.g09.slc.cpg/sg15_73_cif.got.tgz:144244.got - 2010.06.28 07:06:18.
