data_PCOD8145699
_publ_section_title
;
Structure prediction by ZEFSAII (Michael W. Deem and Ramdas Pophale) SiO2 
 PCOD8145699
Probable space group: C 2/C
;
_chemical_formula_sum "Si O2"
_cell_formula_units_Z 52
_cell_length_a 18.023593
_cell_length_b 16.797613
_cell_length_c 8.443226
_cell_angle_alpha 90.000000
_cell_angle_beta 60.978431
_cell_angle_gamma 90.000000
_cell_volume 2235.249219
_symmetry_space_group_name_H-M "C 2/C"
_symmetry_group_IT_number 15
_symmetry_cell_setting 'monoclinic'
loop_
_space_group_symop_operation_xyz
x,y,z
-x,y,1/2-z
-x,-y,-z
x,-y,1/2+z
1/2+x,1/2+y,z
1/2-x,1/2+y,1/2-z
1/2-x,1/2-y,-z
1/2+x,1/2-y,1/2+z
loop_
_atom_site_type_symbol
_atom_site_label
_atom_site_fract_x
_atom_site_fract_y
_atom_site_fract_z
Si Si1 0.325576 0.238901 0.793632
Si Si2 0.381795 0.063123 0.137576
Si Si3 0.249208 0.829029 0.897188
Si Si4 0.734370 0.086201 0.810875
Si Si5 0.000000 0.960537 0.250000
Si Si6 0.917893 0.090516 0.543735
Si Si7 0.000000 0.522005 0.750000
Si Si8 0.000000 0.218469 0.250000
O O1 0.318709 0.313324 0.674437
O O2 0.323497 0.156756 0.697521
O O3 0.418564 0.232591 0.774555
O O4 0.250000 0.250000 0.000000
O O5 0.311530 0.998417 0.156536
O O6 0.429630 0.034761 0.245191
O O7 0.337894 0.148519 0.216182
O O8 0.451792 0.076988 0.927748
O O9 0.250000 0.750000 0.000000
O O10 0.236874 0.901646 0.034106
O O11 0.817889 0.092253 0.616321
O O12 0.946366 0.010484 0.429827
O O13 0.064188 0.907602 0.286455
O O14 0.966484 0.165990 0.428279
#
# Coordination Sequence:
#
# PCOD8145699 Si02
#       8
#     8   8   8   8   4   8   4   4
#     4  11  25  47  68 101 142 186 251 306 374 447
#     4  11  23  45  72 110 146 196 248 308 377 450
#     4  10  25  47  71 102 145 190 244 307 369 436
#     4  11  24  43  69 105 139 192 240 302 375 445
#     4   9  22  38  60 104 136 177 226 302 351 434
#     4  10  22  39  65  99 139 180 238 292 368 432
#     4  10  24  41  68 112 153 190 256 306 371 446
#     4  11  24  45  68  98 137 195 236 304 372 448
#
# _framework density 23.263624
#
# number of rings (size 3 to 8) (size 9 to 14) (size 15 to 20)
#    0.000    1.538    3.077    0.000    6.462    3.077 
#    2.769    0.000    0.000    0.000    0.000    0.000 
#    0.000    0.000    0.000    0.000    0.000    0.000 
#
# Total GULP energy -322167.499378 kJ/mol
# GULP energy per Si atom -12391.057668 kJ/mol
# Density = 2.321067 g / cm^3
# Si number density = 23.263624 Si / 1000 Ang^3
#
#
#
# Elastic Constant Matrix: (Units=GPa)
#
#
# Indices 1 2 3 4 5 6 
#
# 1 161.9734 40.9458 56.5445 0.0000 -1.0867 0.0000
# 2 40.9458 75.8091 32.8764 0.0000 -0.4556 0.0000
# 3 56.5445 32.8764 103.9840 0.0000 2.5178 0.0000
# 4 0.0000 0.0000 0.0000 52.6424 0.0000 0.2999
# 5 -1.0867 -0.4556 2.5178 0.0000 47.2962 0.0000
# 6 0.0000 0.0000 0.0000 0.2999 0.0000 30.3764
#
#
#
# Elastic Compliance Matrix: (Units=1/GPa)
#
#
# Indices 1 2 3 4 5 6 
#
# 1 0.008130 -0.002860 -0.003525 0.000000 0.000347 0.000000
# 2 -0.002860 0.016301 -0.003605 0.000000 0.000283 0.000000
# 3 -0.003525 -0.003605 0.012693 0.000000 -0.000791 0.000000
# 4 0.000000 0.000000 0.000000 0.018997 0.000000 -0.000188
# 5 0.000347 0.000283 -0.000791 0.000000 0.021196 0.000000
# 6 0.000000 0.000000 0.000000 -0.000188 0.000000 0.032922
#
#
# Mechanical properties :
#
#
# Convention : Reuss Voigt Hill
#
# Bulk Modulus (GPa) = 58.33449 66.94442 62.63946
# Shear Modulus (GPa) = 36.78245 40.15634 38.46940
#
# Velocity S-wave (km/s) = 3.98064 4.15919 4.07089
# Velocity P-wave (km/s) = 6.80126 7.20445 7.00576
#
# Compressibility (1/GPa) = 0.01714252
#
# Stress axis : x y z
#
# Youngs Moduli (GPa) = 123.00470 61.34526 78.78551
#
# Poissons Ratio (x) = 0.17547 0.27771
# Poissons Ratio (y) = 0.35183 0.28405
# Poissons Ratio (z) = 0.43358 0.22117
#
# Static dielectric constant tensor:
#      x y z
#    x 4.407180 0.000000 0.296030 
#    y 0.000000 3.914480 0.000000 
#    z 0.296030 0.000000 4.657170 
# 
# 
# High freq. dielectric constant tensor:
#      x y z
#    x 1.925600 0.000000 0.008890 
#    y 0.000000 1.896130 0.000000 
#    z 0.008890 0.000000 1.939730 
# 
# From -- ./inp_files/48973.got.cif
#   From: 2010.06.25/outbox.cif.g09.slc.cpg/sg15_25_cif.got.tgz:48973.got - 2010.06.28 07:06:18.
