data_PCOD8145918
_publ_section_title
;
Structure prediction by ZEFSAII (Michael W. Deem and Ramdas Pophale) SiO2 
 PCOD8145918
Probable space group: C 2/C
;
_chemical_formula_sum "Si O2"
_cell_formula_units_Z 56
_cell_length_a 23.270808
_cell_length_b 12.937840
_cell_length_c 16.263735
_cell_angle_alpha 90.000000
_cell_angle_beta 147.247974
_cell_angle_gamma 90.000000
_cell_volume 2649.074508
_symmetry_space_group_name_H-M "C 2/C"
_symmetry_group_IT_number 15
_symmetry_cell_setting 'monoclinic'
loop_
_space_group_symop_operation_xyz
x,y,z
-x,y,1/2-z
-x,-y,-z
x,-y,1/2+z
1/2+x,1/2+y,z
1/2-x,1/2+y,1/2-z
1/2-x,1/2-y,-z
1/2+x,1/2-y,1/2+z
loop_
_atom_site_type_symbol
_atom_site_label
_atom_site_fract_x
_atom_site_fract_y
_atom_site_fract_z
Si Si1 0.760755 0.461516 0.578055
Si Si2 0.451903 0.477872 0.603376
Si Si3 0.151583 0.082371 0.778193
Si Si4 0.977993 0.770291 0.879512
Si Si5 0.659483 0.833408 0.402550
Si Si6 0.768466 0.125200 0.190402
Si Si7 0.352448 0.196133 0.302751
O O1 0.665746 0.476811 0.529788
O O2 0.715162 0.413249 0.439846
O O3 0.815934 0.569297 0.625866
O O4 0.849049 0.384356 0.722795
O O5 0.500000 0.451297 0.750000
O O6 0.526590 0.560794 0.646029
O O7 0.447819 0.369844 0.548494
O O8 0.170871 0.190007 0.757738
O O9 0.195131 0.994058 0.769427
O O10 0.954448 0.709662 0.765354
O O11 0.864351 0.802724 0.777396
O O12 0.034708 0.696056 0.014390
O O13 0.750000 0.750000 0.500000
O O14 0.664635 0.861918 0.505715
O O15 0.739496 0.160055 0.246270
#
# Coordination Sequence:
#
# PCOD8145918 Si02
#       7
#     8   8   8   8   8   8   8
#     4  10  22  40  63  89 123 167 204 249 313 374
#     4   9  19  37  66  90 112 160 216 261 294 360
#     4   9  21  43  60  86 125 159 214 257 300 370
#     4  10  23  35  60  94 123 157 204 252 311 366
#     4   9  19  40  61  85 124 156 199 251 302 367
#     4   9  22  39  58  91 121 160 202 259 302 364
#     4  12  25  34  64  93 124 168 195 257 321 356
#
# _framework density 21.139458000000001
#
# number of rings (size 3 to 8) (size 9 to 14) (size 15 to 20)
#    0.000    2.286    0.000    3.000   10.000    1.714 
#    0.000    0.000    0.000    1.714    0.000    0.000 
#    0.000    0.000    0.000    0.000    0.000    0.000 
#
# Total GULP energy -347103.213938 kJ/mol
# GULP energy per Si atom -12396.543355 kJ/mol
# Density = 2.109134 g / cm^3
# Si number density = 21.139458 Si / 1000 Ang^3
#
#
#
# Elastic Constant Matrix: (Units=GPa)
#
#
# Indices 1 2 3 4 5 6 
#
# 1 79.1132 43.8648 17.7005 0.0000 -13.6743 0.0000
# 2 43.8648 114.9067 48.9399 0.0000 -12.6262 0.0000
# 3 17.7005 48.9399 102.6197 0.0000 -3.4383 0.0000
# 4 0.0000 0.0000 0.0000 32.3394 0.0000 -16.4267
# 5 -13.6743 -12.6262 -3.4383 0.0000 15.4080 0.0000
# 6 0.0000 0.0000 0.0000 -16.4267 0.0000 21.2145
#
#
#
# Elastic Compliance Matrix: (Units=1/GPa)
#
#
# Indices 1 2 3 4 5 6 
#
# 1 0.017613 -0.005478 -0.000052 0.000000 0.011130 0.000000
# 2 -0.005478 0.013655 -0.005396 0.000000 0.005124 0.000000
# 3 -0.000052 -0.005396 0.012269 0.000000 -0.001730 0.000000
# 4 0.000000 0.000000 0.000000 0.050968 0.000000 0.039466
# 5 0.011130 0.005124 -0.001730 0.000000 0.078592 0.000000
# 6 0.000000 0.000000 0.000000 0.039466 0.000000 0.077696
#
#
# Mechanical properties :
#
#
# Convention : Reuss Voigt Hill
#
# Bulk Modulus (GPa) = 46.11586 57.51667 51.81626
# Shear Modulus (GPa) = 17.86511 26.20134 22.03323
#
# Velocity S-wave (km/s) = 2.91023 3.52440 3.23194
# Velocity P-wave (km/s) = 5.75804 6.62036 6.20420
#
# Compressibility (1/GPa) = 0.02168451
#
# Stress axis : x y z
#
# Youngs Moduli (GPa) = 56.77558 73.23288 81.50642
#
# Poissons Ratio (x) = 0.40119 0.00428
# Poissons Ratio (y) = 0.31104 0.43977
# Poissons Ratio (z) = 0.00298 0.39513
#
# Static dielectric constant tensor:
#      x y z
#    x 3.655170 0.000000 -0.191530 
#    y 0.000000 -16.571010 0.000000 
#    z -0.191530 0.000000 4.098510 
# 
# 
# High freq. dielectric constant tensor:
#      x y z
#    x 1.815550 0.000000 -0.019150 
#    y 0.000000 1.820750 0.000000 
#    z -0.019150 0.000000 1.835240 
# 
# From -- ./inp_files/168493.got.cif
#   From: 2010.06.25/outbox.cif.g09.slc.cpg/sg15_85_cif.got.tgz:168493.got - 2010.06.28 07:06:18.
