data_PCOD8145899
_publ_section_title
;
Structure prediction by ZEFSAII (Michael W. Deem and Ramdas Pophale) SiO2 
 PCOD8145899
Probable space group: C 2/C
;
_chemical_formula_sum "Si O2"
_cell_formula_units_Z 40
_cell_length_a 13.696599
_cell_length_b 12.699649
_cell_length_c 10.874432
_cell_angle_alpha 90.000000
_cell_angle_beta 73.506448
_cell_angle_gamma 90.000000
_cell_volume 1813.687582
_symmetry_space_group_name_H-M "C 2/C"
_symmetry_group_IT_number 15
_symmetry_cell_setting 'monoclinic'
loop_
_space_group_symop_operation_xyz
x,y,z
-x,y,1/2-z
-x,-y,-z
x,-y,1/2+z
1/2+x,1/2+y,z
1/2-x,1/2+y,1/2-z
1/2-x,1/2-y,-z
1/2+x,1/2-y,1/2+z
loop_
_atom_site_type_symbol
_atom_site_label
_atom_site_fract_x
_atom_site_fract_y
_atom_site_fract_z
Si Si1 0.557935 0.024009 0.107658
Si Si2 0.393831 0.758812 0.997904
Si Si3 0.235318 0.409863 0.945655
Si Si4 0.881280 0.790101 0.065146
Si Si5 0.788103 0.128904 0.837375
O O1 0.500000 0.987103 0.250000
O O2 0.582515 0.147892 0.107686
O O3 0.500000 0.000000 0.000000
O O4 0.663067 0.959081 0.076765
O O5 0.500409 0.718424 0.015117
O O6 0.340944 0.662052 0.946658
O O7 0.319335 0.805943 0.131524
O O8 0.168917 0.324337 0.895402
O O9 0.269137 0.503402 0.842642
O O10 0.332035 0.353613 0.970744
O O11 0.864427 0.850828 0.198413
#
# Coordination Sequence:
#
# PCOD8145899 Si02
#       5
#     8   8   8   8   8
#     4  11  22  38  68  96 128 168 222 277 324 378
#     4  10  22  40  62  95 122 170 216 259 325 390
#     4  10  25  38  60  96 121 168 212 266 326 381
#     4  11  22  42  64  88 130 161 213 269 322 385
#     4  10  23  40  64  90 125 165 213 267 323 393
#
# _framework density 22.054514000000001
#
# number of rings (size 3 to 8) (size 9 to 14) (size 15 to 20)
#    0.000    1.600    2.000    1.800    5.600    4.000 
#    0.000    5.000    0.000    0.000    0.000    0.000 
#    0.000    0.000    0.000    0.000    0.000    0.000 
#
# Total GULP energy -247981.906597 kJ/mol
# GULP energy per Si atom -12399.095330 kJ/mol
# Density = 2.200432 g / cm^3
# Si number density = 22.054514 Si / 1000 Ang^3
#
#
#
# Elastic Constant Matrix: (Units=GPa)
#
#
# Indices 1 2 3 4 5 6 
#
# 1 144.3320 30.4232 18.2741 0.0000 -19.8600 0.0000
# 2 30.4232 97.4159 10.2300 0.0000 -8.6143 0.0000
# 3 18.2741 10.2300 68.2412 0.0000 -6.6278 0.0000
# 4 0.0000 0.0000 0.0000 17.2276 0.0000 -5.5826
# 5 -19.8600 -8.6143 -6.6278 0.0000 23.0540 0.0000
# 6 0.0000 0.0000 0.0000 -5.5826 0.0000 30.5847
#
#
#
# Elastic Compliance Matrix: (Units=1/GPa)
#
#
# Indices 1 2 3 4 5 6 
#
# 1 0.008342 -0.001926 -0.001355 0.000000 0.006077 0.000000
# 2 -0.001926 0.011164 -0.000940 0.000000 0.002242 0.000000
# 3 -0.001355 -0.000940 0.015441 0.000000 0.002921 0.000000
# 4 0.000000 0.000000 0.000000 0.061696 0.000000 0.011261
# 5 0.006077 0.002242 0.002921 0.000000 0.050289 0.000000
# 6 0.000000 0.000000 0.000000 0.011261 0.000000 0.034752
#
#
# Mechanical properties :
#
#
# Convention : Reuss Voigt Hill
#
# Bulk Modulus (GPa) = 37.72763 47.53820 42.63292
# Shear Modulus (GPa) = 25.13062 30.91070 28.02066
#
# Velocity S-wave (km/s) = 3.37928 3.74780 3.56830
# Velocity P-wave (km/s) = 5.68944 6.35056 6.02907
#
# Compressibility (1/GPa) = 0.02650577
#
# Stress axis : x y z
#
# Youngs Moduli (GPa) = 119.87304 89.57658 64.76116
#
# Poissons Ratio (x) = 0.17249 0.08775
# Poissons Ratio (y) = 0.23082 0.06088
# Poissons Ratio (z) = 0.16243 0.08421
#
# Static dielectric constant tensor:
#      x y z
#    x 4.138940 0.000000 -0.276470 
#    y 0.000000 4.168130 0.000000 
#    z -0.276470 0.000000 3.471260 
# 
# 
# High freq. dielectric constant tensor:
#      x y z
#    x 1.874990 0.000000 -0.016460 
#    y 0.000000 1.875730 0.000000 
#    z -0.016460 0.000000 1.834050 
# 
# From -- ./inp_files/94862.got.cif
#   From: 2010.06.25/outbox.cif.g09.slc.cpg/sg15_48_cif.got.tgz:94862.got - 2010.06.28 07:06:18.
