data_PCOD8145216
_publ_section_title
;
Structure prediction by ZEFSAII (Michael W. Deem and Ramdas Pophale) SiO2 
 PCOD8145216
Probable space group: C 2/C
;
_chemical_formula_sum "Si O2"
_cell_formula_units_Z 44
_cell_length_a 18.497092
_cell_length_b 15.212359
_cell_length_c 10.862668
_cell_angle_alpha 90.000000
_cell_angle_beta 134.068867
_cell_angle_gamma 90.000000
_cell_volume 2196.169823
_symmetry_space_group_name_H-M "C 2/C"
_symmetry_group_IT_number 15
_symmetry_cell_setting 'monoclinic'
loop_
_space_group_symop_operation_xyz
x,y,z
-x,y,1/2-z
-x,-y,-z
x,-y,1/2+z
1/2+x,1/2+y,z
1/2-x,1/2+y,1/2-z
1/2-x,1/2-y,-z
1/2+x,1/2-y,1/2+z
loop_
_atom_site_type_symbol
_atom_site_label
_atom_site_fract_x
_atom_site_fract_y
_atom_site_fract_z
Si Si1 0.590996 0.046928 0.759811
Si Si2 0.655126 0.852264 0.827987
Si Si3 0.219792 0.159647 0.526455
Si Si4 0.000000 0.811657 0.750000
Si Si5 0.485457 0.204189 0.970071
Si Si6 0.791147 0.273690 0.355752
O O1 0.500000 0.041979 0.750000
O O2 0.697142 0.091468 0.928743
O O3 0.548629 0.102743 0.594564
O O4 0.625880 0.950975 0.758831
O O5 0.563596 0.790800 0.674488
O O6 0.748095 0.817515 0.857150
O O7 0.678156 0.841087 0.998965
O O8 0.250000 0.250000 0.500000
O O9 0.222147 0.171591 0.678230
O O10 0.103527 0.132199 0.353504
O O11 0.973368 0.747193 0.605491
O O12 0.389377 0.259344 0.899856
#
# Coordination Sequence:
#
# PCOD8145216 Si02
#       6
#     8   8   8   4   8   8
#     4  11  22  37  64  97 122 153 200 263 314 352
#     4  11  23  38  59  92 128 156 201 250 315 369
#     4  11  21  40  62  87 121 161 212 248 305 364
#     4  12  20  38  64  86 116 164 210 246 296 368
#     4  11  20  37  62  91 120 157 201 249 308 361
#     4  10  22  38  59  87 122 168 193 244 308 378
#
# _framework density 20.034880999999999
#
# number of rings (size 3 to 8) (size 9 to 14) (size 15 to 20)
#    0.000    1.091    6.364    2.182    0.000    1.455 
#    0.000    0.000    8.000    2.182    0.000    0.000 
#    0.000    0.000    0.000    0.000    0.000    0.000 
#
# Total GULP energy -272547.343810 kJ/mol
# GULP energy per Si atom -12388.515628 kJ/mol
# Density = 1.998928 g / cm^3
# Si number density = 20.034881 Si / 1000 Ang^3
#
#
#
# Elastic Constant Matrix: (Units=GPa)
#
#
# Indices 1 2 3 4 5 6 
#
# 1 112.1510 43.7763 43.1773 0.0000 17.6716 0.0000
# 2 43.7763 62.6185 22.5609 0.0000 8.0210 0.0000
# 3 43.1773 22.5609 128.4516 0.0000 13.6773 0.0000
# 4 0.0000 0.0000 0.0000 21.2735 0.0000 5.4754
# 5 17.6716 8.0210 13.6773 0.0000 40.7173 0.0000
# 6 0.0000 0.0000 0.0000 5.4754 0.0000 23.3056
#
#
#
# Elastic Compliance Matrix: (Units=1/GPa)
#
#
# Indices 1 2 3 4 5 6 
#
# 1 0.013713 -0.008136 -0.002818 0.000000 -0.003402 0.000000
# 2 -0.008136 0.022112 -0.001101 0.000000 -0.000455 0.000000
# 3 -0.002818 -0.001101 0.009098 0.000000 -0.001616 0.000000
# 4 0.000000 0.000000 0.000000 0.050032 0.000000 -0.011755
# 5 -0.003402 -0.000455 -0.001616 0.000000 0.026669 0.000000
# 6 0.000000 0.000000 0.000000 -0.011755 0.000000 0.045670
#
#
# Mechanical properties :
#
#
# Convention : Reuss Voigt Hill
#
# Bulk Modulus (GPa) = 48.04433 58.02779 53.03606
# Shear Modulus (GPa) = 25.20907 29.97303 27.59105
#
# Velocity S-wave (km/s) = 3.55104 3.87207 3.71502
# Velocity P-wave (km/s) = 6.39106 7.00120 6.70307
#
# Compressibility (1/GPa) = 0.02081411
#
# Stress axis : x y z
#
# Youngs Moduli (GPa) = 72.92181 45.22392 109.91726
#
# Poissons Ratio (x) = 0.36793 0.30979
# Poissons Ratio (y) = 0.59327 0.12097
# Poissons Ratio (z) = 0.20552 0.04977
#
# Static dielectric constant tensor:
#      x y z
#    x 3.881360 0.000000 0.196100 
#    y 0.000000 3.269170 0.000000 
#    z 0.196100 0.000000 4.152130 
# 
# 
# High freq. dielectric constant tensor:
#      x y z
#    x 1.795790 0.000000 0.007970 
#    y 0.000000 1.731120 0.000000 
#    z 0.007970 0.000000 1.798400 
# 
# From -- ./inp_files/105507.got.cif
#   From: 2010.06.25/outbox.cif.g09.slc.cpg/sg15_53_cif.got.tgz:105507.got - 2010.06.28 07:06:18.
