data_PCOD8145770
_publ_section_title
;
Structure prediction by ZEFSAII (Michael W. Deem and Ramdas Pophale) SiO2 
 PCOD8145770
Probable space group: C 2/C
;
_chemical_formula_sum "Si O2"
_cell_formula_units_Z 52
_cell_length_a 6.312850
_cell_length_b 20.818426
_cell_length_c 20.911397
_cell_angle_alpha 90.000000
_cell_angle_beta 122.133362
_cell_angle_gamma 90.000000
_cell_volume 2327.252980
_symmetry_space_group_name_H-M "C 2/C"
_symmetry_group_IT_number 15
_symmetry_cell_setting 'monoclinic'
loop_
_space_group_symop_operation_xyz
x,y,z
-x,y,1/2-z
-x,-y,-z
x,-y,1/2+z
1/2+x,1/2+y,z
1/2-x,1/2+y,1/2-z
1/2-x,1/2-y,-z
1/2+x,1/2-y,1/2+z
loop_
_atom_site_type_symbol
_atom_site_label
_atom_site_fract_x
_atom_site_fract_y
_atom_site_fract_z
Si Si1 0.564408 0.328018 0.687499
Si Si2 0.717592 0.010017 0.678512
Si Si3 0.610482 0.338725 0.471582
Si Si4 0.133700 0.406461 0.562667
Si Si5 0.000000 0.570457 0.250000
Si Si6 0.135829 0.258356 0.086683
Si Si7 0.621031 0.114393 0.922611
O O1 0.500000 0.306747 0.750000
O O2 0.302360 0.346953 0.613417
O O3 0.749314 0.388090 0.713579
O O4 0.695270 0.271606 0.666424
O O5 0.613440 0.082097 0.651364
O O6 0.000000 0.013368 0.750000
O O7 0.709297 0.970777 0.611652
O O8 0.515383 0.975254 0.691261
O O9 0.632796 0.293805 0.412030
O O10 0.544707 0.297078 0.523970
O O11 0.371807 0.384708 0.419707
O O12 0.848808 0.382899 0.525251
O O13 0.182923 0.424894 0.497073
O O14 0.930184 0.312450 0.065169
#
# Coordination Sequence:
#
# PCOD8145770 Si02
#       7
#     8   8   8   8   4   8   8
#     4  12  24  42  70 103 136 180 236 289 348 412
#     4  12  26  47  67  96 142 185 231 283 343 417
#     4  10  22  39  70 105 134 174 224 287 351 404
#     4  11  22  43  71 102 133 174 238 288 340 399
#     4  12  24  44  68  90 134 188 230 288 340 406
#     4  10  23  41  68 101 141 172 224 286 348 415
#     4  11  25  43  70 101 138 180 225 285 344 412
#
# _framework density 22.34394
#
# number of rings (size 3 to 8) (size 9 to 14) (size 15 to 20)
#    0.000    0.923    4.615    1.846    4.308    3.077 
#    2.769    0.000    0.000    0.000    0.000    0.000 
#    0.000    0.000    0.000    0.000    0.000    0.000 
#
# Total GULP energy -322231.266214 kJ/mol
# GULP energy per Si atom -12393.510239 kJ/mol
# Density = 2.229308 g / cm^3
# Si number density = 22.343940 Si / 1000 Ang^3
#
#
#
# Elastic Constant Matrix: (Units=GPa)
#
#
# Indices 1 2 3 4 5 6 
#
# 1 144.6071 52.9437 65.1184 0.0000 -5.2697 0.0000
# 2 52.9437 73.8446 47.3328 0.0000 14.0028 0.0000
# 3 65.1184 47.3328 98.3426 0.0000 0.7432 0.0000
# 4 0.0000 0.0000 0.0000 20.5326 0.0000 -0.3831
# 5 -5.2697 14.0028 0.7432 0.0000 38.6992 0.0000
# 6 0.0000 0.0000 0.0000 -0.3831 0.0000 6.4128
#
#
#
# Elastic Compliance Matrix: (Units=1/GPa)
#
#
# Indices 1 2 3 4 5 6 
#
# 1 0.011293 -0.005770 -0.004728 0.000000 0.003716 0.000000
# 2 -0.005770 0.024570 -0.007933 0.000000 -0.009524 0.000000
# 3 -0.004728 -0.007933 0.017103 0.000000 0.001898 0.000000
# 4 0.000000 0.000000 0.000000 0.048757 0.000000 0.002913
# 5 0.003716 -0.009524 0.001898 0.000000 0.029756 0.000000
# 6 0.000000 0.000000 0.000000 0.002913 0.000000 0.156113
#
#
# Mechanical properties :
#
#
# Convention : Reuss Voigt Hill
#
# Bulk Modulus (GPa) = 62.10108 71.95379 67.02743
# Shear Modulus (GPa) = 15.15973 23.22221 19.19097
#
# Velocity S-wave (km/s) = 2.60757 3.22733 2.93386
# Velocity P-wave (km/s) = 6.07614 6.79413 6.44514
#
# Compressibility (1/GPa) = 0.01610278
#
# Stress axis : x y z
#
# Youngs Moduli (GPa) = 88.55386 40.70072 58.46910
#
# Poissons Ratio (x) = 0.23486 0.27646
# Poissons Ratio (y) = 0.51099 0.46381
# Poissons Ratio (z) = 0.41871 0.32286
#
# Static dielectric constant tensor:
#      x y z
#    x 4.377520 0.000000 -0.193240 
#    y 0.000000 3.943530 0.000000 
#    z -0.193240 0.000000 3.885450 
# 
# 
# High freq. dielectric constant tensor:
#      x y z
#    x 1.899860 0.000000 -0.002930 
#    y 0.000000 1.870760 0.000000 
#    z -0.002930 0.000000 1.860710 
# 
# From -- ./inp_files/261847.got.cif
#   From: 2010.06.25/outbox.cif.g09.slc.cpg/sg15_131_cif.got.tgz:261847.got - 2010.06.28 07:06:18.
