data_PCOD8145535
_publ_section_title
;
Structure prediction by ZEFSAII (Michael W. Deem and Ramdas Pophale) SiO2 
 PCOD8145535
Probable space group: C 2/C
;
_chemical_formula_sum "Si O2"
_cell_formula_units_Z 40
_cell_length_a 16.452600
_cell_length_b 14.833374
_cell_length_c 19.036344
_cell_angle_alpha 90.000000
_cell_angle_beta 153.341400
_cell_angle_gamma 90.000000
_cell_volume 2084.434802
_symmetry_space_group_name_H-M "C 2/C"
_symmetry_group_IT_number 15
_symmetry_cell_setting 'monoclinic'
loop_
_space_group_symop_operation_xyz
x,y,z
-x,y,1/2-z
-x,-y,-z
x,-y,1/2+z
1/2+x,1/2+y,z
1/2-x,1/2+y,1/2-z
1/2-x,1/2-y,-z
1/2+x,1/2-y,1/2+z
loop_
_atom_site_type_symbol
_atom_site_label
_atom_site_fract_x
_atom_site_fract_y
_atom_site_fract_z
Si Si1 0.817100 0.550628 0.649911
Si Si2 0.146315 0.654031 0.305198
Si Si3 0.583061 0.314171 0.887419
Si Si4 0.516548 0.222621 0.456772
Si Si5 0.842186 0.319335 0.289868
O O1 0.774194 0.445034 0.619192
O O2 0.648400 0.599327 0.481913
O O3 0.847578 0.587405 0.751949
O O4 0.000000 0.572495 0.750000
O O5 0.306379 0.725739 0.433620
O O6 0.000000 0.682202 0.250000
O O7 0.051599 0.654349 0.155658
O O8 0.500000 0.348879 0.750000
O O9 0.431813 0.261945 0.815110
O O10 0.750000 0.250000 0.000000
O O11 0.366412 0.296582 0.358350
O O12 0.557584 0.165407 0.558635
#
# Coordination Sequence:
#
# PCOD8145535 Si02
#       5
#     8   8   8   8   8
#     4  11  22  37  60  93 123 155 201 242 286 356
#     4  10  23  43  63  82 114 156 208 257 288 350
#     4  12  19  34  60  88 128 167 185 228 294 365
#     4  10  22  39  61  85 113 165 197 241 311 337
#     4  11  19  35  59  89 123 154 194 233 301 363
#
# _framework density 19.189854
#
# number of rings (size 3 to 8) (size 9 to 14) (size 15 to 20)
#    0.000    1.200    6.000    0.600    0.000    1.600 
#    0.000    9.000    0.000    0.000    0.000    0.000 
#    0.000    0.000    0.000    0.000    0.000    0.000 
#
# Total GULP energy -248066.173233 kJ/mol
# GULP energy per Si atom -12403.308662 kJ/mol
# Density = 1.914618 g / cm^3
# Si number density = 19.189854 Si / 1000 Ang^3
#
#
#
# Elastic Constant Matrix: (Units=GPa)
#
#
# Indices 1 2 3 4 5 6 
#
# 1 101.9640 26.4659 31.7040 0.0061 -3.5719 0.0029
# 2 26.4659 62.9935 25.0681 0.0034 -2.8504 0.0050
# 3 31.7040 25.0681 93.7217 0.0131 -14.8029 0.0051
# 4 0.0061 0.0034 0.0131 22.3365 -0.0084 -13.4772
# 5 -3.5719 -2.8504 -14.8029 -0.0084 34.2134 -0.0042
# 6 0.0029 0.0050 0.0051 -13.4772 -0.0042 14.3275
#
#
#
# Elastic Compliance Matrix: (Units=1/GPa)
#
#
# Indices 1 2 3 4 5 6 
#
# 1 0.011702 -0.003731 -0.003023 -0.000003 -0.000397 -0.000002
# 2 -0.003731 0.018968 -0.003889 -0.000006 -0.000492 -0.000010
# 3 -0.003023 -0.003889 0.013558 -0.000012 0.005227 -0.000013
# 4 -0.000003 -0.000006 -0.000012 0.103529 0.000031 0.097385
# 5 -0.000397 -0.000492 0.005227 0.000031 0.031407 0.000037
# 6 -0.000002 -0.000010 -0.000013 0.097385 0.000037 0.161401
#
#
# Mechanical properties :
#
#
# Convention : Reuss Voigt Hill
#
# Bulk Modulus (GPa) = 43.58984 47.23947 45.41465
# Shear Modulus (GPa) = 13.53183 25.87156 19.70169
#
# Velocity S-wave (km/s) = 2.65836 3.67575 3.20765
# Velocity P-wave (km/s) = 5.67334 6.53339 6.11850
#
# Compressibility (1/GPa) = 0.02294112
#
# Stress axis : x y z
#
# Youngs Moduli (GPa) = 85.45544 52.72148 73.75585
#
# Poissons Ratio (x) = 0.19672 0.22298
# Poissons Ratio (y) = 0.31886 0.28682
# Poissons Ratio (z) = 0.25835 0.20502
#
# Static dielectric constant tensor:
#      x y z
#    x 3.876520 0.000000 -0.138260 
#    y 0.000000 3.208270 -0.000040 
#    z -0.138260 -0.000040 3.733750 
# 
# 
# High freq. dielectric constant tensor:
#      x y z
#    x 1.766160 0.000000 -0.002520 
#    y 0.000000 1.715880 0.000000 
#    z -0.002520 0.000000 1.758260 
# 
# From -- ./inp_files/37944.got.cif
#   From: 2010.06.25/outbox.cif.g09.slc.cpg/sg15_19_cif.got.tgz:37944.got - 2010.06.28 07:06:18.
