data_PCOD8145844
_publ_section_title
;
Structure prediction by ZEFSAII (Michael W. Deem and Ramdas Pophale) SiO2 
 PCOD8145844
Probable space group: C 2/C
;
_chemical_formula_sum "Si O2"
_cell_formula_units_Z 64
_cell_length_a 14.688037
_cell_length_b 8.834300
_cell_length_c 28.593682
_cell_angle_alpha 90.000000
_cell_angle_beta 58.939249
_cell_angle_gamma 90.000000
_cell_volume 3178.297598
_symmetry_space_group_name_H-M "C 2/C"
_symmetry_group_IT_number 15
_symmetry_cell_setting 'monoclinic'
loop_
_space_group_symop_operation_xyz
x,y,z
-x,y,1/2-z
-x,-y,-z
x,-y,1/2+z
1/2+x,1/2+y,z
1/2-x,1/2+y,1/2-z
1/2-x,1/2-y,-z
1/2+x,1/2-y,1/2+z
loop_
_atom_site_type_symbol
_atom_site_label
_atom_site_fract_x
_atom_site_fract_y
_atom_site_fract_z
Si Si1 0.094322 0.444603 0.505886
Si Si2 0.991983 0.127738 0.540509
Si Si3 0.327011 0.877035 0.182091
Si Si4 0.035479 0.972806 0.624838
Si Si5 0.199447 0.036210 0.293482
Si Si6 0.757851 0.003822 0.386008
Si Si7 0.255379 0.658605 0.627227
Si Si8 0.430014 0.873495 0.391888
O O1 0.076144 0.263739 0.511717
O O2 0.202343 0.494003 0.451580
O O3 0.091734 0.524853 0.556889
O O4 0.000000 0.500000 0.500000
O O5 0.868207 0.171360 0.571104
O O6 0.021664 0.068742 0.582799
O O7 0.000000 0.000000 0.500000
O O8 0.279805 0.712025 0.203553
O O9 0.451708 0.905159 0.159623
O O10 0.262157 0.994554 0.230320
O O11 0.306385 0.899031 0.132467
O O12 0.121974 0.050700 0.635784
O O13 0.073916 0.806348 0.597425
O O14 0.926071 0.978303 0.682487
O O15 0.239514 0.934318 0.326048
O O16 0.771563 0.166514 0.357413
O O17 0.162385 0.582106 0.620496
#
# Coordination Sequence:
#
# PCOD8145844 Si02
#       8
#     8   8   8   8   8   8   8   8
#     4  12  22  37  60  91 123 163 199 246 288 351
#     4  11  23  37  58  83 125 161 197 239 293 350
#     4  11  22  41  64  87 117 157 198 253 300 359
#     4   9  23  41  59  90 121 159 198 247 301 360
#     4  10  23  42  65  86 120 155 199 253 306 352
#     4  11  23  39  63  89 122 159 204 242 298 360
#     4  10  22  40  61  88 118 158 197 247 295 356
#     4  10  22  40  63  89 120 155 207 241 294 362
#
# _framework density 20.136565000000001
#
# number of rings (size 3 to 8) (size 9 to 14) (size 15 to 20)
#    0.000    1.500    2.500    1.500    5.250    4.500 
#    0.000    5.000    0.000    0.000    0.000    0.000 
#    0.000    0.000    0.000    0.000    0.000    0.000 
#
# Total GULP energy -396617.433003 kJ/mol
# GULP energy per Si atom -12394.294781 kJ/mol
# Density = 2.009073 g / cm^3
# Si number density = 20.136565 Si / 1000 Ang^3
#
#
#
# Elastic Constant Matrix: (Units=GPa)
#
#
# Indices 1 2 3 4 5 6 
#
# 1 137.0894 26.0274 35.6721 0.0000 -20.3821 0.0000
# 2 26.0274 73.2187 35.4597 0.0000 -6.8224 0.0000
# 3 35.6721 35.4597 96.8049 0.0000 -3.1804 0.0000
# 4 0.0000 0.0000 0.0000 29.4391 0.0000 -2.4303
# 5 -20.3821 -6.8224 -3.1804 0.0000 15.3155 0.0000
# 6 0.0000 0.0000 0.0000 -2.4303 0.0000 24.6016
#
#
#
# Elastic Compliance Matrix: (Units=1/GPa)
#
#
# Indices 1 2 3 4 5 6 
#
# 1 0.010091 -0.001010 -0.002942 0.000000 0.012368 0.000000
# 2 -0.001010 0.017305 -0.005797 0.000000 0.005161 0.000000
# 3 -0.002942 -0.005797 0.013416 0.000000 -0.003712 0.000000
# 4 0.000000 0.000000 0.000000 0.034248 0.000000 0.003383
# 5 0.012368 0.005161 -0.003712 0.000000 0.083281 0.000000
# 6 0.000000 0.000000 0.000000 0.003383 0.000000 0.040982
#
#
# Mechanical properties :
#
#
# Convention : Reuss Voigt Hill
#
# Bulk Modulus (GPa) = 46.91884 55.71460 51.31672
# Shear Modulus (GPa) = 22.13125 27.86816 24.99970
#
# Velocity S-wave (km/s) = 3.31880 3.72419 3.52733
# Velocity P-wave (km/s) = 6.16740 6.79862 6.49069
#
# Compressibility (1/GPa) = 0.02131340
#
# Stress axis : x y z
#
# Youngs Moduli (GPa) = 99.10190 57.78628 74.53889
#
# Poissons Ratio (x) = 0.05834 0.21931
# Poissons Ratio (y) = 0.10006 0.43212
# Poissons Ratio (z) = 0.29157 0.33500
#
# Static dielectric constant tensor:
#      x y z
#    x 3.767220 0.000000 -0.277060 
#    y 0.000000 3.547600 0.000000 
#    z -0.277060 0.000000 2.862460 
# 
# 
# High freq. dielectric constant tensor:
#      x y z
#    x 1.798820 0.000000 -0.007550 
#    y 0.000000 1.789030 0.000000 
#    z -0.007550 0.000000 1.780810 
# 
# From -- ./inp_files/313145.got.cif
#   From: 2010.06.25/outbox.cif.g09.slc.cpg/sg15_157_cif.got.tgz:313145.got - 2010.06.28 07:06:18.
