data_PCOD8145383
_publ_section_title
;
Structure prediction by ZEFSAII (Michael W. Deem and Ramdas Pophale) SiO2 
 PCOD8145383
Probable space group: C 2/C
;
_chemical_formula_sum "Si O2"
_cell_formula_units_Z 56
_cell_length_a 18.978022
_cell_length_b 10.112943
_cell_length_c 14.515440
_cell_angle_alpha 90.000000
_cell_angle_beta 83.036925
_cell_angle_gamma 90.000000
_cell_volume 2765.309172
_symmetry_space_group_name_H-M "C 2/C"
_symmetry_group_IT_number 15
_symmetry_cell_setting 'monoclinic'
loop_
_space_group_symop_operation_xyz
x,y,z
-x,y,1/2-z
-x,-y,-z
x,-y,1/2+z
1/2+x,1/2+y,z
1/2-x,1/2+y,1/2-z
1/2-x,1/2-y,-z
1/2+x,1/2-y,1/2+z
loop_
_atom_site_type_symbol
_atom_site_label
_atom_site_fract_x
_atom_site_fract_y
_atom_site_fract_z
Si Si1 0.140194 0.610362 0.284277
Si Si2 0.971971 0.974167 0.402784
Si Si3 0.500000 0.741671 0.750000
Si Si4 0.693916 0.561372 0.563140
Si Si5 0.644292 0.185466 0.763960
Si Si6 0.244076 0.829488 0.873726
Si Si7 0.500000 0.316157 0.750000
Si Si8 0.247875 0.291908 0.894695
O O1 0.069818 0.667855 0.247922
O O2 0.129741 0.457343 0.312415
O O3 0.205778 0.595984 0.204307
O O4 0.167227 0.702959 0.365603
O O5 0.888444 0.966608 0.423224
O O6 0.998248 0.842842 0.344811
O O7 0.000000 0.000000 0.500000
O O8 0.000364 0.097767 0.341608
O O9 0.710746 0.702504 0.603295
O O10 0.725415 0.564009 0.454989
O O11 0.727225 0.444102 0.617828
O O12 0.669745 0.282895 0.841184
O O13 0.569459 0.227353 0.734810
O O14 0.702777 0.193292 0.672517
O O15 0.250000 0.250000 0.000000
#
# Coordination Sequence:
#
# PCOD8145383 Si02
#       8
#     8   8   4   8   8   8   4   8
#     4  11  23  42  62  91 129 165 210 257 320 377
#     4  11  24  42  64  93 126 164 213 261 319 380
#     4  11  25  42  64  92 129 171 214 264 322 385
#     4  11  20  42  64  89 123 154 212 257 309 375
#     4  11  22  41  62  91 126 165 204 256 315 376
#     4  10  22  38  65  90 119 163 205 258 309 373
#     4  11  23  40  64  92 127 163 206 254 318 383
#     4  11  24  40  65  95 125 162 213 264 314 372
#
# _framework density 20.250900000000001
#
# number of rings (size 3 to 8) (size 9 to 14) (size 15 to 20)
#    0.000    1.143    4.286    2.143    2.000    0.000 
#    2.571    0.000    0.000    5.143    0.000    0.000 
#    0.000    0.000    0.000    0.000    0.000    0.000 
#
# Total GULP energy -347075.070720 kJ/mol
# GULP energy per Si atom -12395.538240 kJ/mol
# Density = 2.020481 g / cm^3
# Si number density = 20.250900 Si / 1000 Ang^3
#
#
#
# Elastic Constant Matrix: (Units=GPa)
#
#
# Indices 1 2 3 4 5 6 
#
# 1 110.0052 31.9204 24.6063 0.0000 16.0326 0.0000
# 2 31.9204 69.9127 17.6830 0.0000 1.7272 0.0000
# 3 24.6063 17.6830 108.1158 0.0000 13.5128 0.0000
# 4 0.0000 0.0000 0.0000 23.2015 0.0000 -2.2551
# 5 16.0326 1.7272 13.5128 0.0000 23.7468 0.0000
# 6 0.0000 0.0000 0.0000 -2.2551 0.0000 30.0330
#
#
#
# Elastic Compliance Matrix: (Units=1/GPa)
#
#
# Indices 1 2 3 4 5 6 
#
# 1 0.011773 -0.004951 -0.000992 0.000000 -0.007024 0.000000
# 2 -0.004951 0.017005 -0.002065 0.000000 0.003280 0.000000
# 3 -0.000992 -0.002065 0.010454 0.000000 -0.005129 0.000000
# 4 0.000000 0.000000 0.000000 0.043418 0.000000 0.003260
# 5 -0.007024 0.003280 -0.005129 0.000000 0.049533 0.000000
# 6 0.000000 0.000000 0.000000 0.003260 0.000000 0.033542
#
#
# Mechanical properties :
#
#
# Convention : Reuss Voigt Hill
#
# Bulk Modulus (GPa) = 43.07117 48.49478 45.78297
# Shear Modulus (GPa) = 26.38849 29.65118 28.01983
#
# Velocity S-wave (km/s) = 3.61373 3.83063 3.72376
# Velocity P-wave (km/s) = 6.22310 6.60029 6.41447
#
# Compressibility (1/GPa) = 0.02321739
#
# Stress axis : x y z
#
# Youngs Moduli (GPa) = 84.94343 58.80607 95.65939
#
# Poissons Ratio (x) = 0.29113 0.09487
# Poissons Ratio (y) = 0.42053 0.19749
# Poissons Ratio (z) = 0.08424 0.12141
#
# Static dielectric constant tensor:
#      x y z
#    x 3.675470 0.000000 0.086470 
#    y 0.000000 3.687250 0.000000 
#    z 0.086470 0.000000 3.923980 
# 
# 
# High freq. dielectric constant tensor:
#      x y z
#    x 1.796490 0.000000 0.009050 
#    y 0.000000 1.795400 0.000000 
#    z 0.009050 0.000000 1.792060 
# 
# From -- ./inp_files/166705.got.cif
#   From: 2010.06.25/outbox.cif.g09.slc.cpg/sg15_84_cif.got.tgz:166705.got - 2010.06.28 07:06:18.
