data_PCOD8145463
_publ_section_title
;
Structure prediction by ZEFSAII (Michael W. Deem and Ramdas Pophale) SiO2 
 PCOD8145463
Probable space group: C 2/C
;
_chemical_formula_sum "Si O2"
_cell_formula_units_Z 52
_cell_length_a 16.684202
_cell_length_b 15.186332
_cell_length_c 19.580044
_cell_angle_alpha 90.000000
_cell_angle_beta 152.844335
_cell_angle_gamma 90.000000
_cell_volume 2264.262283
_symmetry_space_group_name_H-M "C 2/C"
_symmetry_group_IT_number 15
_symmetry_cell_setting 'monoclinic'
loop_
_space_group_symop_operation_xyz
x,y,z
-x,y,1/2-z
-x,-y,-z
x,-y,1/2+z
1/2+x,1/2+y,z
1/2-x,1/2+y,1/2-z
1/2-x,1/2-y,-z
1/2+x,1/2-y,1/2+z
loop_
_atom_site_type_symbol
_atom_site_label
_atom_site_fract_x
_atom_site_fract_y
_atom_site_fract_z
Si Si1 0.687242 0.159758 0.756909
Si Si2 0.206202 0.725408 0.043785
Si Si3 0.247732 0.527716 0.495060
Si Si4 0.500000 0.603880 0.250000
Si Si5 0.388557 0.219240 0.304759
Si Si6 0.230370 0.200494 0.915653
Si Si7 0.344841 0.969282 0.726705
O O1 0.777293 0.189284 0.896006
O O2 0.480722 0.178274 0.593825
O O3 0.779721 0.211082 0.765485
O O4 0.724068 0.054240 0.782883
O O5 0.361980 0.661598 0.189701
O O6 0.250000 0.750000 0.000000
O O7 0.379425 0.447069 0.604710
O O8 0.320984 0.601893 0.602143
O O9 0.256189 0.549275 0.421090
O O10 0.047883 0.508871 0.365117
O O11 0.583156 0.208146 0.482852
O O12 0.410046 0.257639 0.243137
O O13 0.309637 0.119841 0.243490
O O14 0.250000 0.250000 0.000000
#
# Coordination Sequence:
#
# PCOD8145463 Si02
#       7
#     8   8   8   4   8   8   8
#     4  12  25  45  68  97 146 182 224 288 343 416
#     4  12  24  43  68  99 135 182 235 278 334 408
#     4  10  22  38  70 105 132 172 236 289 330 402
#     4  12  22  38  64 112 128 162 240 282 336 394
#     4  11  25  45  66 104 137 186 224 278 362 405
#     4  11  22  44  70  99 137 175 233 289 333 409
#     4  10  22  44  69  96 139 185 224 277 353 408
#
# _framework density 22.965537999999999
#
# number of rings (size 3 to 8) (size 9 to 14) (size 15 to 20)
#    0.000    0.923    4.615    2.308    4.308    0.000 
#    2.769    5.385    0.000    0.000    0.000    0.000 
#    0.000    0.000    0.000    0.000    0.000    0.000 
#
# Total GULP energy -322235.724841 kJ/mol
# GULP energy per Si atom -12393.681725 kJ/mol
# Density = 2.291327 g / cm^3
# Si number density = 22.965538 Si / 1000 Ang^3
#
#
#
# Elastic Constant Matrix: (Units=GPa)
#
#
# Indices 1 2 3 4 5 6 
#
# 1 82.6895 38.4155 20.2916 0.0041 -6.0167 0.0003
# 2 38.4155 155.2080 28.9233 0.0163 -6.9374 0.0086
# 3 20.2916 28.9233 92.1915 0.0467 -5.1815 0.0194
# 4 0.0041 0.0163 0.0467 40.1303 0.0302 -3.0562
# 5 -6.0167 -6.9374 -5.1815 0.0302 27.8857 0.0088
# 6 0.0003 0.0086 0.0194 -3.0562 0.0088 36.8253
#
#
#
# Elastic Compliance Matrix: (Units=1/GPa)
#
#
# Indices 1 2 3 4 5 6 
#
# 1 0.014146 -0.003033 -0.002054 0.000001 0.001916 0.000001
# 2 -0.003033 0.007541 -0.001647 -0.000002 0.000916 -0.000001
# 3 -0.002054 -0.001647 0.011892 -0.000015 0.001357 -0.000007
# 4 0.000001 -0.000002 -0.000015 0.025077 -0.000031 0.002081
# 5 0.001916 0.000916 0.001357 -0.000031 0.036754 -0.000012
# 6 0.000001 -0.000001 -0.000007 0.002081 -0.000012 0.027328
#
#
# Mechanical properties :
#
#
# Convention : Reuss Voigt Hill
#
# Bulk Modulus (GPa) = 49.72357 56.15000 52.93679
# Shear Modulus (GPa) = 34.98679 37.13215 36.05947
#
# Velocity S-wave (km/s) = 3.90737 4.02539 3.96682
# Velocity P-wave (km/s) = 6.48499 6.79027 6.63938
#
# Compressibility (1/GPa) = 0.02011119
#
# Stress axis : x y z
#
# Youngs Moduli (GPa) = 70.69162 132.60025 84.08917
#
# Poissons Ratio (x) = 0.40215 0.17275
# Poissons Ratio (y) = 0.21439 0.13849
# Poissons Ratio (z) = 0.14523 0.21839
#
# Static dielectric constant tensor:
#      x y z
#    x 3.795750 -0.000030 0.244730 
#    y -0.000030 3.762800 -0.000050 
#    z 0.244730 -0.000050 4.533300 
# 
# 
# High freq. dielectric constant tensor:
#      x y z
#    x 1.874900 0.000000 0.001650 
#    y 0.000000 1.918330 0.000000 
#    z 0.001650 0.000000 1.928600 
# 
# From -- ./inp_files/249126.got.cif
#   From: 2010.06.25/outbox.cif.g09.slc.cpg/sg15_125_cif.got.tgz:249126.got - 2010.06.28 07:06:18.
