data_PCOD8145132
_publ_section_title
;
Structure prediction by ZEFSAII (Michael W. Deem and Ramdas Pophale) SiO2 
 PCOD8145132
Probable space group: C 2/C
;
_chemical_formula_sum "Si O2"
_cell_formula_units_Z 56
_cell_length_a 26.526293
_cell_length_b 18.521748
_cell_length_c 18.839160
_cell_angle_alpha 90.000000
_cell_angle_beta 162.567774
_cell_angle_gamma 90.000000
_cell_volume 2772.868015
_symmetry_space_group_name_H-M "C 2/C"
_symmetry_group_IT_number 15
_symmetry_cell_setting 'monoclinic'
loop_
_space_group_symop_operation_xyz
x,y,z
-x,y,1/2-z
-x,-y,-z
x,-y,1/2+z
1/2+x,1/2+y,z
1/2-x,1/2+y,1/2-z
1/2-x,1/2-y,-z
1/2+x,1/2-y,1/2+z
loop_
_atom_site_type_symbol
_atom_site_label
_atom_site_fract_x
_atom_site_fract_y
_atom_site_fract_z
Si Si1 0.000000 0.147334 0.250000
Si Si2 0.213603 0.815723 0.643447
Si Si3 0.779450 0.031639 0.008821
Si Si4 0.500000 0.594405 0.750000
Si Si5 0.936574 0.259922 0.271859
Si Si6 0.073105 0.593628 0.969042
Si Si7 0.397658 0.561547 0.325218
Si Si8 0.002314 0.783972 0.010960
O O1 0.163592 0.096708 0.465580
O O2 0.959531 0.196109 0.126354
O O3 0.069726 0.853451 0.404463
O O4 0.310907 0.752814 0.728451
O O5 0.118535 0.777122 0.582671
O O6 0.342243 0.878699 0.843239
O O7 0.870241 0.048418 0.205362
O O8 0.576611 0.033927 0.728818
O O9 0.846114 0.953948 0.072538
O O10 0.004996 0.336183 0.335698
O O11 0.933425 0.261621 0.352449
O O12 0.750000 0.250000 0.000000
O O13 0.212619 0.557659 0.108454
O O14 0.500000 0.500000 0.500000
O O15 0.503631 0.633480 0.485736
#
# Coordination Sequence:
#
# PCOD8145132 Si02
#       8
#     4   8   8   4   8   8   8   8
#     4  11  22  30  56  96 131 170 196 250 325 400
#     4  10  24  44  68  95 127 171 218 283 326 389
#     4  11  22  38  61  93 129 173 211 262 331 401
#     4  11  26  48  64  88 135 172 228 274 327 372
#     4  11  21  31  57  97 136 163 198 257 323 400
#     4  10  22  37  63  94 129 165 211 260 332 391
#     4  11  22  40  61  90 132 170 211 267 325 389
#     4  10  22  41  66  94 127 169 216 265 329 385
#
# _framework density 20.195696999999999
#
# number of rings (size 3 to 8) (size 9 to 14) (size 15 to 20)
#    0.000    1.429    2.857    2.143    8.000    1.143 
#    2.571    0.000    0.000    0.000    0.000    0.000 
#    0.000    0.000    0.000    0.000    0.000    0.000 
#
# Total GULP energy -346885.765516 kJ/mol
# GULP energy per Si atom -12388.777340 kJ/mol
# Density = 2.014973 g / cm^3
# Si number density = 20.195697 Si / 1000 Ang^3
#
#
#
# Elastic Constant Matrix: (Units=GPa)
#
#
# Indices 1 2 3 4 5 6 
#
# 1 83.8067 39.5258 60.6872 -0.0005 10.0858 -0.0002
# 2 39.5258 80.1578 60.2248 -0.0001 13.0649 0.0000
# 3 60.6872 60.2248 110.0025 -0.0008 7.5146 -0.0006
# 4 -0.0005 -0.0001 -0.0008 34.1224 -0.0005 -1.2731
# 5 10.0858 13.0649 7.5146 -0.0005 33.0287 -0.0003
# 6 -0.0002 0.0000 -0.0006 -1.2731 -0.0003 25.0178
#
#
#
# Elastic Compliance Matrix: (Units=1/GPa)
#
#
# Indices 1 2 3 4 5 6 
#
# 1 0.020511 -0.002140 -0.009929 0.000000 -0.003158 0.000000
# 2 -0.002140 0.022584 -0.010786 0.000000 -0.005826 0.000000
# 3 -0.009929 -0.010786 0.020290 0.000000 0.002682 0.000000
# 4 0.000000 0.000000 0.000000 0.029362 0.000001 0.001494
# 5 -0.003158 -0.005826 0.002682 0.000001 0.032935 0.000000
# 6 0.000000 0.000000 0.000000 0.001494 0.000000 0.040048
#
#
# Mechanical properties :
#
#
# Convention : Reuss Voigt Hill
#
# Bulk Modulus (GPa) = 56.57169 66.09362 61.33265
# Shear Modulus (GPa) = 23.00649 26.00241 24.50445
#
# Velocity S-wave (km/s) = 3.37883 3.59210 3.48710
# Velocity P-wave (km/s) = 6.57986 7.07120 6.82995
#
# Compressibility (1/GPa) = 0.01767669
#
# Stress axis : x y z
#
# Youngs Moduli (GPa) = 48.75433 44.27962 49.28522
#
# Poissons Ratio (x) = 0.09474 0.48933
# Poissons Ratio (y) = 0.10432 0.53158
# Poissons Ratio (z) = 0.48406 0.47759
#
# Static dielectric constant tensor:
#      x y z
#    x 3.649330 0.000000 0.440210 
#    y 0.000000 0.627390 0.000000 
#    z 0.440210 0.000000 4.330660 
# 
# 
# High freq. dielectric constant tensor:
#      x y z
#    x 1.786350 0.000000 0.011400 
#    y 0.000000 1.779580 0.000000 
#    z 0.011400 0.000000 1.785040 
# 
# From -- ./inp_files/220221.got.cif
#   From: 2010.06.25/outbox.cif.g09.slc.cpg/sg15_111_cif.got.tgz:220221.got - 2010.06.28 07:06:18.
