data_PCOD8145547
_publ_section_title
;
Structure prediction by ZEFSAII (Michael W. Deem and Ramdas Pophale) SiO2 
 PCOD8145547
Probable space group: C 2/C
;
_chemical_formula_sum "Si O2"
_cell_formula_units_Z 48
_cell_length_a 17.115794
_cell_length_b 10.006584
_cell_length_c 26.109507
_cell_angle_alpha 90.000000
_cell_angle_beta 148.305347
_cell_angle_gamma 90.000000
_cell_volume 2349.444709
_symmetry_space_group_name_H-M "C 2/C"
_symmetry_group_IT_number 15
_symmetry_cell_setting 'monoclinic'
loop_
_space_group_symop_operation_xyz
x,y,z
-x,y,1/2-z
-x,-y,-z
x,-y,1/2+z
1/2+x,1/2+y,z
1/2-x,1/2+y,1/2-z
1/2-x,1/2-y,-z
1/2+x,1/2-y,1/2+z
loop_
_atom_site_type_symbol
_atom_site_label
_atom_site_fract_x
_atom_site_fract_y
_atom_site_fract_z
Si Si1 0.517385 0.893390 0.819888
Si Si2 0.865397 0.418440 0.309557
Si Si3 0.671452 0.810537 0.521926
Si Si4 0.192645 0.029892 0.487790
Si Si5 0.046887 0.815418 0.134591
Si Si6 0.907096 0.390871 0.917606
O O1 0.500000 0.878118 0.750000
O O2 0.474115 0.753670 0.822127
O O3 0.414449 0.013589 0.783508
O O4 0.687668 0.919427 0.929709
O O5 0.722112 0.328632 0.219936
O O6 0.815348 0.532399 0.322402
O O7 0.001827 0.332299 0.408391
O O8 0.781294 0.917592 0.555836
O O9 0.714813 0.658423 0.535757
O O10 0.695483 0.823524 0.596400
O O11 0.033895 0.958999 0.408191
O O12 0.991571 0.719997 0.056384
O O13 0.000000 0.500000 0.000000
#
# Coordination Sequence:
#
# PCOD8145547 Si02
#       6
#     8   8   8   8   8   8
#     4  10  23  40  57  85 125 156 200 252 301 356
#     4   9  21  39  60  88 121 154 200 253 298 360
#     4   9  20  40  62  85 125 159 199 248 305 361
#     4  10  22  39  61  90 119 162 201 248 304 364
#     4  11  23  37  65  89 121 159 206 252 302 362
#     4   9  20  39  59  87 120 159 198 251 301 359
#
# _framework density 20.430358999999999
#
# number of rings (size 3 to 8) (size 9 to 14) (size 15 to 20)
#    0.000    2.333    0.000    1.500    7.000    4.667 
#    0.000    0.000    0.000    0.000    0.000    0.000 
#    0.000    0.000    0.000    0.000    0.000    0.000 
#
# Total GULP energy -297451.499184 kJ/mol
# GULP energy per Si atom -12393.812466 kJ/mol
# Density = 2.038386 g / cm^3
# Si number density = 20.430359 Si / 1000 Ang^3
#
#
#
# Elastic Constant Matrix: (Units=GPa)
#
#
# Indices 1 2 3 4 5 6 
#
# 1 143.0355 37.6453 27.4684 0.0000 -28.0251 0.0000
# 2 37.6453 80.3366 16.1037 0.0001 -1.8770 0.0000
# 3 27.4684 16.1037 36.5724 0.0008 4.0256 0.0001
# 4 0.0000 0.0001 0.0008 18.9776 0.0001 7.3138
# 5 -28.0251 -1.8770 4.0256 0.0001 41.3673 0.0000
# 6 0.0000 0.0000 0.0001 7.3138 0.0000 39.8544
#
#
#
# Elastic Compliance Matrix: (Units=1/GPa)
#
#
# Indices 1 2 3 4 5 6 
#
# 1 0.010901 -0.003406 -0.007565 0.000000 0.007967 0.000000
# 2 -0.003406 0.014778 -0.003810 0.000000 -0.001266 0.000000
# 3 -0.007565 -0.003810 0.035668 -0.000001 -0.008769 0.000000
# 4 0.000000 0.000000 -0.000001 0.056704 0.000000 -0.010406
# 5 0.007967 -0.001266 -0.008769 0.000000 0.030367 0.000000
# 6 0.000000 0.000000 0.000000 -0.010406 0.000000 0.027001
#
#
# Mechanical properties :
#
#
# Convention : Reuss Voigt Hill
#
# Bulk Modulus (GPa) = 31.46063 46.93105 39.19584
# Shear Modulus (GPa) = 23.19385 31.95502 27.57443
#
# Velocity S-wave (km/s) = 3.37302 3.95915 3.67778
# Velocity P-wave (km/s) = 5.53192 6.62729 6.10422
#
# Compressibility (1/GPa) = 0.03178576
#
# Stress axis : x y z
#
# Youngs Moduli (GPa) = 91.73139 67.66988 28.03671
#
# Poissons Ratio (x) = 0.23047 0.21210
# Poissons Ratio (y) = 0.31242 0.10681
# Poissons Ratio (z) = 0.69395 0.25780
#
# Static dielectric constant tensor:
#      x y z
#    x 4.303340 0.000000 -0.152830 
#    y 0.000000 3.791100 0.000000 
#    z -0.152830 0.000000 3.248070 
# 
# 
# High freq. dielectric constant tensor:
#      x y z
#    x 1.814980 0.000000 -0.005360 
#    y 0.000000 1.808780 0.000000 
#    z -0.005360 0.000000 1.756470 
# 
# From -- ./inp_files/298795.got.cif
#   From: 2010.06.25/outbox.cif.g09.slc.cpg/sg15_150_cif.got.tgz:298795.got - 2010.06.28 07:06:18.
