data_PCOD8145416
_publ_section_title
;
Structure prediction by ZEFSAII (Michael W. Deem and Ramdas Pophale) SiO2 
 PCOD8145416
Probable space group: C 2/C
;
_chemical_formula_sum "Si O2"
_cell_formula_units_Z 40
_cell_length_a 7.886597
_cell_length_b 24.547200
_cell_length_c 16.066901
_cell_angle_alpha 90.000000
_cell_angle_beta 35.332180
_cell_angle_gamma 90.000000
_cell_volume 1798.824821
_symmetry_space_group_name_H-M "C 2/C"
_symmetry_group_IT_number 15
_symmetry_cell_setting 'monoclinic'
loop_
_space_group_symop_operation_xyz
x,y,z
-x,y,1/2-z
-x,-y,-z
x,-y,1/2+z
1/2+x,1/2+y,z
1/2-x,1/2+y,1/2-z
1/2-x,1/2-y,-z
1/2+x,1/2-y,1/2+z
loop_
_atom_site_type_symbol
_atom_site_label
_atom_site_fract_x
_atom_site_fract_y
_atom_site_fract_z
Si Si1 0.662766 0.291984 0.606158
Si Si2 0.845342 0.565208 0.897085
Si Si3 0.041749 0.538595 0.063135
Si Si4 0.789858 0.110712 0.186157
Si Si5 0.814421 0.631341 0.598851
O O1 0.500000 0.262715 0.750000
O O2 0.750000 0.250000 0.500000
O O3 0.422429 0.334352 0.670118
O O4 0.965132 0.320427 0.515173
O O5 0.000000 0.579104 0.750000
O O6 0.822134 0.499942 0.920618
O O7 0.035409 0.595777 0.890074
O O8 0.515294 0.586660 0.028767
O O9 0.753690 0.566979 0.220509
O O10 0.000000 0.500000 0.000000
O O11 0.244071 0.589840 0.955020
O O12 0.500000 0.123959 0.250000
O O13 0.500000 0.656297 0.750000
#
# Coordination Sequence:
#
# PCOD8145416 Si02
#       5
#     8   8   8   8   8
#     4  11  25  50  74  98 130 179 234 300 359 407
#     4  10  24  38  61  99 143 182 223 268 326 402
#     4  10  22  38  66  95 139 185 225 262 333 401
#     4  11  25  44  68 102 142 181 228 285 340 413
#     4  10  23  42  68  95 130 175 226 276 336 411
#
# _framework density 22.236740000000001
#
# number of rings (size 3 to 8) (size 9 to 14) (size 15 to 20)
#    0.000    1.600    2.000    0.600    8.400    5.600 
#    0.000    2.000    0.000    0.000    0.000    0.000 
#    0.000    0.000    0.000    0.000    0.000    0.000 
#
# Total GULP energy -247807.947266 kJ/mol
# GULP energy per Si atom -12390.397363 kJ/mol
# Density = 2.218613 g / cm^3
# Si number density = 22.236740 Si / 1000 Ang^3
#
#
#
# Elastic Constant Matrix: (Units=GPa)
#
#
# Indices 1 2 3 4 5 6 
#
# 1 53.2006 23.8601 55.6519 0.0000 -6.7955 0.0000
# 2 23.8601 91.9832 59.7149 0.0000 7.9468 0.0000
# 3 55.6519 59.7149 207.9970 -0.0001 11.5681 0.0000
# 4 0.0000 0.0000 -0.0001 48.3491 0.0000 6.8448
# 5 -6.7955 7.9468 11.5681 0.0000 50.8033 0.0000
# 6 0.0000 0.0000 0.0000 6.8448 0.0000 18.2873
#
#
#
# Elastic Compliance Matrix: (Units=1/GPa)
#
#
# Indices 1 2 3 4 5 6 
#
# 1 0.028312 -0.003346 -0.006942 0.000000 0.005891 0.000000
# 2 -0.003346 0.013834 -0.002969 0.000000 -0.001936 0.000000
# 3 -0.006942 -0.002969 0.007640 0.000000 -0.002204 0.000000
# 4 0.000000 0.000000 0.000000 0.021840 0.000000 -0.008175
# 5 0.005891 -0.001936 -0.002204 0.000000 0.021276 0.000000
# 6 0.000000 0.000000 0.000000 -0.008175 0.000000 0.057742
#
#
# Mechanical properties :
#
#
# Convention : Reuss Voigt Hill
#
# Bulk Modulus (GPa) = 42.97003 70.18162 56.57582
# Shear Modulus (GPa) = 27.03917 37.75153 32.39535
#
# Velocity S-wave (km/s) = 3.49086 4.12480 3.82100
# Velocity P-wave (km/s) = 5.96774 7.36986 6.70555
#
# Compressibility (1/GPa) = 0.02327204
#
# Stress axis : x y z
#
# Youngs Moduli (GPa) = 35.32052 72.28547 130.88827
#
# Poissons Ratio (x) = 0.24188 0.90865
# Poissons Ratio (y) = 0.11819 0.38857
# Poissons Ratio (z) = 0.24520 0.21460
#
# Static dielectric constant tensor:
#      x y z
#    x 3.967540 0.000000 0.321380 
#    y 0.000000 4.005880 0.000000 
#    z 0.321380 0.000000 4.466500 
# 
# 
# High freq. dielectric constant tensor:
#      x y z
#    x 1.860460 0.000000 0.015990 
#    y 0.000000 1.858940 0.000000 
#    z 0.015990 0.000000 1.899410 
# 
# From -- ./inp_files/24454.got.cif
#   From: 2010.06.25/outbox.cif.g09.slc.cpg/sg15_13_cif.got.tgz:24454.got - 2010.06.28 07:06:18.
