data_PCOD8145777
_publ_section_title
;
Structure prediction by ZEFSAII (Michael W. Deem and Ramdas Pophale) SiO2 
 PCOD8145777
Probable space group: C 2/C
;
_chemical_formula_sum "Si O2"
_cell_formula_units_Z 40
_cell_length_a 17.649342
_cell_length_b 10.220258
_cell_length_c 20.300391
_cell_angle_alpha 90.000000
_cell_angle_beta 29.265619
_cell_angle_gamma 90.000000
_cell_volume 1790.104798
_symmetry_space_group_name_H-M "C 2/C"
_symmetry_group_IT_number 15
_symmetry_cell_setting 'monoclinic'
loop_
_space_group_symop_operation_xyz
x,y,z
-x,y,1/2-z
-x,-y,-z
x,-y,1/2+z
1/2+x,1/2+y,z
1/2-x,1/2+y,1/2-z
1/2-x,1/2-y,-z
1/2+x,1/2-y,1/2+z
loop_
_atom_site_type_symbol
_atom_site_label
_atom_site_fract_x
_atom_site_fract_y
_atom_site_fract_z
Si Si1 0.824363 0.641711 0.361899
Si Si2 0.172861 0.930713 0.108357
Si Si3 0.175988 0.974381 0.846390
Si Si4 0.666577 0.809247 0.000089
Si Si5 0.315153 0.232606 0.756309
O O1 0.805743 0.797802 0.366213
O O2 0.701494 0.595180 0.509535
O O3 0.781444 0.571050 0.327348
O O4 0.000000 0.606118 0.250000
O O5 0.000000 0.986227 0.250000
O O6 0.291569 0.039204 0.043839
O O7 0.248580 0.110689 0.764134
O O8 0.192630 0.867657 0.776922
O O9 0.000000 0.000000 0.000000
O O10 0.709092 0.732408 0.901761
O O11 0.750000 0.750000 0.000000
O O12 0.486752 0.796118 0.150272
#
# Coordination Sequence:
#
# PCOD8145777 Si02
#       5
#     8   8   8   8   8
#     4  10  23  45  71 103 141 189 243 307 360 441
#     4  10  22  39  72 103 137 184 249 297 366 429
#     4  12  28  49  72 109 158 190 251 311 376 453
#     4  12  25  46  73 109 144 192 254 305 369 450
#     4  12  28  48  76 105 151 205 236 314 383 431
#
# _framework density 22.34506
#
# number of rings (size 3 to 8) (size 9 to 14) (size 15 to 20)
#    0.000    0.800    2.000    4.200    5.600    5.600 
#    0.000    0.000    0.000    0.000    0.000    0.000 
#    0.000    0.000    0.000    0.000    0.000    0.000 
#
# Total GULP energy -248083.042669 kJ/mol
# GULP energy per Si atom -12404.152133 kJ/mol
# Density = 2.229420 g / cm^3
# Si number density = 22.345060 Si / 1000 Ang^3
#
#
#
# Elastic Constant Matrix: (Units=GPa)
#
#
# Indices 1 2 3 4 5 6 
#
# 1 96.8267 42.1471 25.8246 0.0000 -8.8661 0.0003
# 2 42.1471 137.5002 24.4205 0.0006 -2.5971 0.0006
# 3 25.8246 24.4205 84.2106 0.0013 -1.9803 0.0003
# 4 0.0000 0.0006 0.0013 37.8795 0.0007 -2.5887
# 5 -8.8661 -2.5971 -1.9803 0.0007 34.9234 -0.0009
# 6 0.0003 0.0006 0.0003 -2.5887 -0.0009 38.9825
#
#
#
# Elastic Compliance Matrix: (Units=1/GPa)
#
#
# Indices 1 2 3 4 5 6 
#
# 1 0.012823 -0.003364 -0.002890 0.000000 0.002841 0.000000
# 2 -0.003364 0.008557 -0.001457 0.000000 -0.000300 0.000000
# 3 -0.002890 -0.001457 0.013182 0.000000 -0.000095 0.000000
# 4 0.000000 0.000000 0.000000 0.026520 0.000000 0.001761
# 5 0.002841 -0.000300 -0.000095 0.000000 0.029328 0.000001
# 6 0.000000 0.000000 0.000000 0.001761 0.000001 0.025769
#
#
# Mechanical properties :
#
#
# Convention : Reuss Voigt Hill
#
# Bulk Modulus (GPa) = 52.24678 55.92466 54.08572
# Shear Modulus (GPa) = 36.23724 37.43342 36.83533
#
# Velocity S-wave (km/s) = 4.03142 4.09741 4.06455
# Velocity P-wave (km/s) = 6.71583 6.88964 6.80329
#
# Compressibility (1/GPa) = 0.01913993
#
# Stress axis : x y z
#
# Youngs Moduli (GPa) = 77.98602 116.86581 75.86346
#
# Poissons Ratio (x) = 0.39308 0.21925
# Poissons Ratio (y) = 0.26231 0.11053
# Poissons Ratio (z) = 0.22539 0.17027
#
# Static dielectric constant tensor:
#      x y z
#    x 3.767390 0.000000 -0.092860 
#    y 0.000000 4.484910 0.000000 
#    z -0.092860 0.000000 4.186710 
# 
# 
# High freq. dielectric constant tensor:
#      x y z
#    x 1.863870 0.000000 -0.008280 
#    y 0.000000 1.905500 0.000000 
#    z -0.008280 0.000000 1.893210 
# 
# From -- ./inp_files/210766.got.cif
#   From: 2010.06.25/outbox.cif.g09.slc.cpg/sg15_106_cif.got.tgz:210766.got - 2010.06.28 07:06:18.
