data_PCOD8145718
_publ_section_title
;
Structure prediction by ZEFSAII (Michael W. Deem and Ramdas Pophale) SiO2 
 PCOD8145718
Probable space group: C 2/C
;
_chemical_formula_sum "Si O2"
_cell_formula_units_Z 56
_cell_length_a 24.306230
_cell_length_b 8.261461
_cell_length_c 16.455043
_cell_angle_alpha 90.000000
_cell_angle_beta 130.532559
_cell_angle_gamma 90.000000
_cell_volume 2511.354923
_symmetry_space_group_name_H-M "C 2/C"
_symmetry_group_IT_number 15
_symmetry_cell_setting 'monoclinic'
loop_
_space_group_symop_operation_xyz
x,y,z
-x,y,1/2-z
-x,-y,-z
x,-y,1/2+z
1/2+x,1/2+y,z
1/2-x,1/2+y,1/2-z
1/2-x,1/2-y,-z
1/2+x,1/2-y,1/2+z
loop_
_atom_site_type_symbol
_atom_site_label
_atom_site_fract_x
_atom_site_fract_y
_atom_site_fract_z
Si Si1 0.927083 0.937239 0.893669
Si Si2 0.160351 0.633981 0.297586
Si Si3 0.078832 0.560140 0.590116
Si Si4 0.299735 0.052406 0.389716
Si Si5 0.417231 0.573015 0.705096
Si Si6 0.701556 0.637809 0.692799
Si Si7 0.230590 0.060746 0.486903
O O1 0.915776 0.750632 0.898766
O O2 0.919427 0.978126 0.792004
O O3 0.867628 0.028400 0.890165
O O4 0.000000 0.000000 0.000000
O O5 0.105932 0.511625 0.201301
O O6 0.111983 0.742260 0.313975
O O7 0.194334 0.753820 0.265470
O O8 0.226036 0.532292 0.400980
O O9 0.116940 0.494566 0.543185
O O10 0.000000 0.500000 0.500000
O O11 0.287114 0.248395 0.375524
O O12 0.261904 0.981661 0.433026
O O13 0.268788 0.978899 0.274718
O O14 0.500000 0.570802 0.750000
O O15 0.356317 0.476133 0.592050
O O16 0.250000 0.250000 0.500000
#
# Coordination Sequence:
#
# PCOD8145718 Si02
#       7
#     8   8   8   8   8   8   8
#     4  11  22  43  66  96 133 172 223 285 340 403
#     4  10  23  44  67  97 135 177 230 284 337 418
#     4  11  24  44  68  99 134 173 231 285 344 408
#     4  11  23  40  67  96 131 175 223 277 338 403
#     4  11  25  46  66  99 138 183 227 283 351 412
#     4  10  22  39  66  96 129 173 229 271 333 405
#     4  12  26  44  69 103 142 183 233 284 351 420
#
# _framework density 22.298718999999998
#
# number of rings (size 3 to 8) (size 9 to 14) (size 15 to 20)
#    0.000    1.143    2.857    4.714    4.000    4.571 
#    0.000    1.429    0.000    0.000    0.000    0.000 
#    0.000    0.000    0.000    0.000    0.000    0.000 
#
# Total GULP energy -346985.857620 kJ/mol
# GULP energy per Si atom -12392.352058 kJ/mol
# Density = 2.224797 g / cm^3
# Si number density = 22.298719 Si / 1000 Ang^3
#
#
#
# Elastic Constant Matrix: (Units=GPa)
#
#
# Indices 1 2 3 4 5 6 
#
# 1 78.5911 8.6621 25.3912 0.0000 27.2850 0.0000
# 2 8.6621 137.4994 40.6033 0.0000 15.3620 0.0000
# 3 25.3912 40.6033 144.3770 0.0000 27.6732 0.0000
# 4 0.0000 0.0000 0.0000 43.9452 0.0000 8.5950
# 5 27.2850 15.3620 27.6732 0.0000 39.3467 0.0000
# 6 0.0000 0.0000 0.0000 8.5950 0.0000 26.9109
#
#
#
# Elastic Compliance Matrix: (Units=1/GPa)
#
#
# Indices 1 2 3 4 5 6 
#
# 1 0.016873 0.000471 -0.000950 0.000000 -0.011216 0.000000
# 2 0.000471 0.008052 -0.001944 0.000000 -0.002103 0.000000
# 3 -0.000950 -0.001944 0.008516 0.000000 -0.004572 0.000000
# 4 0.000000 0.000000 0.000000 0.024272 0.000000 -0.007752
# 5 -0.011216 -0.002103 -0.004572 0.000000 0.037230 0.000000
# 6 0.000000 0.000000 0.000000 -0.007752 0.000000 0.039636
#
#
# Mechanical properties :
#
#
# Convention : Reuss Voigt Hill
#
# Bulk Modulus (GPa) = 34.97135 56.64231 45.80683
# Shear Modulus (GPa) = 33.56663 41.09462 37.33062
#
# Velocity S-wave (km/s) = 3.88405 4.29757 4.09603
# Velocity P-wave (km/s) = 5.98595 7.07688 6.55415
#
# Compressibility (1/GPa) = 0.02859484
#
# Stress axis : x y z
#
# Youngs Moduli (GPa) = 59.26564 124.19015 117.41950
#
# Poissons Ratio (x) = -0.05846 0.11154
# Poissons Ratio (y) = -0.02790 0.22829
# Poissons Ratio (z) = 0.05630 0.24146
#
# Static dielectric constant tensor:
#      x y z
#    x 4.202350 0.000000 0.109440 
#    y 0.000000 4.497470 0.000000 
#    z 0.109440 0.000000 4.176570 
# 
# 
# High freq. dielectric constant tensor:
#      x y z
#    x 1.877650 0.000000 0.010160 
#    y 0.000000 1.899980 0.000000 
#    z 0.010160 0.000000 1.881770 
# 
# From -- ./inp_files/222095.got.cif
#   From: 2010.06.25/outbox.cif.g09.slc.cpg/sg15_112_cif.got.tgz:222095.got - 2010.06.28 07:06:18.
