data_PCOD8145601
_publ_section_title
;
Structure prediction by ZEFSAII (Michael W. Deem and Ramdas Pophale) SiO2 
 PCOD8145601
Probable space group: C 2/C
;
_chemical_formula_sum "Si O2"
_cell_formula_units_Z 40
_cell_length_a 30.935931
_cell_length_b 7.383532
_cell_length_c 8.807681
_cell_angle_alpha 90.000000
_cell_angle_beta 65.662441
_cell_angle_gamma 90.000000
_cell_volume 1833.035426
_symmetry_space_group_name_H-M "C 2/C"
_symmetry_group_IT_number 15
_symmetry_cell_setting 'monoclinic'
loop_
_space_group_symop_operation_xyz
x,y,z
-x,y,1/2-z
-x,-y,-z
x,-y,1/2+z
1/2+x,1/2+y,z
1/2-x,1/2+y,1/2-z
1/2-x,1/2-y,-z
1/2+x,1/2-y,1/2+z
loop_
_atom_site_type_symbol
_atom_site_label
_atom_site_fract_x
_atom_site_fract_y
_atom_site_fract_z
Si Si1 0.464384 0.949624 0.423298
Si Si2 0.110997 0.155111 0.870488
Si Si3 0.197763 0.244332 0.267156
Si Si4 0.394646 0.270096 0.471674
Si Si5 0.299039 0.617155 0.582110
O O1 0.500000 0.865855 0.250000
O O2 0.438824 0.134276 0.404798
O O3 0.500000 0.000000 0.500000
O O4 0.428361 0.793631 0.518297
O O5 0.117017 0.163910 0.681280
O O6 0.160881 0.217998 0.876144
O O7 0.096066 0.950624 0.940340
O O8 0.148700 0.346269 0.383263
O O9 0.245925 0.351824 0.222658
O O10 0.194371 0.094087 0.403532
O O11 0.195517 0.164959 0.101425
#
# Coordination Sequence:
#
# PCOD8145601 Si02
#       5
#     8   8   8   8   8
#     4  12  28  48  68 103 133 176 230 278 339 398
#     4  11  25  44  70  98 136 176 221 280 333 400
#     4  10  22  39  62  95 130 172 218 263 330 395
#     4  11  25  44  70  99 134 178 221 277 338 395
#     4  10  22  39  62  95 130 173 215 267 327 395
#
# _framework density 21.821728
#
# number of rings (size 3 to 8) (size 9 to 14) (size 15 to 20)
#    0.000    1.200    2.000    4.800    8.400    4.800 
#    0.000    0.000    0.000    0.000    0.000    0.000 
#    0.000    0.000    0.000    0.000    0.000    0.000 
#
# Total GULP energy -247782.196351 kJ/mol
# GULP energy per Si atom -12389.109818 kJ/mol
# Density = 2.177206 g / cm^3
# Si number density = 21.821728 Si / 1000 Ang^3
#
#
#
# Elastic Constant Matrix: (Units=GPa)
#
#
# Indices 1 2 3 4 5 6 
#
# 1 109.5180 29.3356 31.1199 0.0000 -14.6144 0.0000
# 2 29.3356 59.1154 24.4652 0.0000 -14.4714 0.0000
# 3 31.1199 24.4652 132.0288 0.0000 -11.3760 0.0000
# 4 0.0000 0.0000 0.0000 33.1838 0.0000 -3.9053
# 5 -14.6144 -14.4714 -11.3760 0.0000 35.9294 0.0000
# 6 0.0000 0.0000 0.0000 -3.9053 0.0000 13.8195
#
#
#
# Elastic Compliance Matrix: (Units=1/GPa)
#
#
# Indices 1 2 3 4 5 6 
#
# 1 0.011031 -0.004251 -0.001617 0.000000 0.002263 0.000000
# 2 -0.004251 0.021555 -0.002460 0.000000 0.006174 0.000000
# 3 -0.001617 -0.002460 0.008501 0.000000 0.001043 0.000000
# 4 0.000000 0.000000 0.000000 0.031172 0.000000 0.008809
# 5 0.002263 0.006174 0.001043 0.000000 0.031570 0.000000
# 6 0.000000 0.000000 0.000000 0.008809 0.000000 0.074851
#
#
# Mechanical properties :
#
#
# Convention : Reuss Voigt Hill
#
# Bulk Modulus (GPa) = 40.93303 52.27815 46.60559
# Shear Modulus (GPa) = 24.57242 30.96931 27.77086
#
# Velocity S-wave (km/s) = 3.35931 3.77131 3.57126
# Velocity P-wave (km/s) = 5.81767 6.55535 6.19750
#
# Compressibility (1/GPa) = 0.02443015
#
# Stress axis : x y z
#
# Youngs Moduli (GPa) = 90.65295 46.39285 117.63200
#
# Poissons Ratio (x) = 0.19721 0.19026
# Poissons Ratio (y) = 0.38535 0.28941
# Poissons Ratio (z) = 0.14663 0.11414
#
# Static dielectric constant tensor:
#      x y z
#    x 4.406210 0.000000 -0.267900 
#    y 0.000000 3.737310 0.000000 
#    z -0.267900 0.000000 4.160110 
# 
# 
# High freq. dielectric constant tensor:
#      x y z
#    x 1.875470 0.000000 -0.009260 
#    y 0.000000 1.838180 0.000000 
#    z -0.009260 0.000000 1.884650 
# 
# From -- ./inp_files/68259.got.cif
#   From: 2010.06.25/outbox.cif.g09.slc.cpg/sg15_35_cif.got.tgz:68259.got - 2010.06.28 07:06:18.
