data_PCOD8145230
_publ_section_title
;
Structure prediction by ZEFSAII (Michael W. Deem and Ramdas Pophale) SiO2 
 PCOD8145230
Probable space group: C 2/C
;
_chemical_formula_sum "Si O2"
_cell_formula_units_Z 52
_cell_length_a 14.482356
_cell_length_b 24.437675
_cell_length_c 11.385669
_cell_angle_alpha 90.000000
_cell_angle_beta 40.488096
_cell_angle_gamma 90.000000
_cell_volume 2616.353398
_symmetry_space_group_name_H-M "C 2/C"
_symmetry_group_IT_number 15
_symmetry_cell_setting 'monoclinic'
loop_
_space_group_symop_operation_xyz
x,y,z
-x,y,1/2-z
-x,-y,-z
x,-y,1/2+z
1/2+x,1/2+y,z
1/2-x,1/2+y,1/2-z
1/2-x,1/2-y,-z
1/2+x,1/2-y,1/2+z
loop_
_atom_site_type_symbol
_atom_site_label
_atom_site_fract_x
_atom_site_fract_y
_atom_site_fract_z
Si Si1 0.993324 0.398594 0.556647
Si Si2 0.948746 0.861389 0.675206
Si Si3 0.579492 0.785784 0.788629
Si Si4 0.337776 0.256325 0.668201
Si Si5 0.190447 0.579883 0.493304
Si Si6 0.241635 0.643594 0.673960
Si Si7 0.500000 0.986033 0.750000
O O1 0.919226 0.351523 0.705682
O O2 0.917374 0.406813 0.506266
O O3 0.983712 0.452147 0.646090
O O4 0.155762 0.382175 0.367475
O O5 0.845266 0.815329 0.722032
O O6 0.852528 0.916724 0.785123
O O7 0.000000 0.837936 0.750000
O O8 0.092934 0.873994 0.462887
O O9 0.500000 0.764596 0.750000
O O10 0.739163 0.762760 0.646539
O O11 0.495066 0.762209 0.981844
O O12 0.271269 0.209544 0.815702
O O13 0.180741 0.623858 0.607781
O O14 0.144210 0.521903 0.594464
#
# Coordination Sequence:
#
# PCOD8145230 Si02
#       7
#     8   8   8   8   8   8   4
#     4  11  22  40  66  89 124 160 220 262 310 371
#     4  10  22  38  59  92 130 162 200 255 317 379
#     4  11  22  38  59  92 125 172 209 253 304 383
#     4  11  21  37  62  89 131 170 203 250 314 375
#     4  11  22  39  66  89 123 157 210 271 316 364
#     4  10  22  39  61  94 128 164 205 256 313 381
#     4  12  24  42  68  94 116 168 214 276 318 358
#
# _framework density 19.874991999999999
#
# number of rings (size 3 to 8) (size 9 to 14) (size 15 to 20)
#    0.000    1.231    5.385    0.923    0.000    4.923 
#    0.000    0.769    3.385    0.000    0.000    0.000 
#    0.000    0.000    0.000    0.000    0.000    0.000 
#
# Total GULP energy -322236.380821 kJ/mol
# GULP energy per Si atom -12393.706955 kJ/mol
# Density = 1.982976 g / cm^3
# Si number density = 19.874992 Si / 1000 Ang^3
#
#
#
# Elastic Constant Matrix: (Units=GPa)
#
#
# Indices 1 2 3 4 5 6 
#
# 1 109.2917 46.5674 24.4412 0.0000 -4.5633 0.0000
# 2 46.5674 103.9558 44.8485 0.0000 -6.0996 0.0000
# 3 24.4412 44.8485 91.1471 0.0000 -17.8420 0.0000
# 4 0.0000 0.0000 0.0000 25.0902 0.0000 7.9225
# 5 -4.5633 -6.0996 -17.8420 0.0000 28.3624 0.0000
# 6 0.0000 0.0000 0.0000 7.9225 0.0000 30.4003
#
#
#
# Elastic Compliance Matrix: (Units=1/GPa)
#
#
# Indices 1 2 3 4 5 6 
#
# 1 0.011346 -0.004800 -0.000599 0.000000 0.000416 0.000000
# 2 -0.004800 0.014285 -0.006035 0.000000 -0.001496 0.000000
# 3 -0.000599 -0.006035 0.015771 0.000000 0.008526 0.000000
# 4 0.000000 0.000000 0.000000 0.043430 0.000000 -0.011318
# 5 0.000416 -0.001496 0.008526 0.000000 0.040367 0.000000
# 6 0.000000 0.000000 0.000000 -0.011318 0.000000 0.035844
#
#
# Mechanical properties :
#
#
# Convention : Reuss Voigt Hill
#
# Bulk Modulus (GPa) = 53.95422 59.56762 56.76092
# Shear Modulus (GPa) = 26.30352 29.33975 27.82164
#
# Velocity S-wave (km/s) = 3.64187 3.84632 3.74549
# Velocity P-wave (km/s) = 6.70000 7.05420 6.87938
#
# Compressibility (1/GPa) = 0.01853423
#
# Stress axis : x y z
#
# Youngs Moduli (GPa) = 88.13461 70.00238 63.40949
#
# Poissons Ratio (x) = 0.33598 0.03801
# Poissons Ratio (y) = 0.42301 0.38267
# Poissons Ratio (z) = 0.05283 0.42246
#
# Static dielectric constant tensor:
#      x y z
#    x 3.539860 0.000000 -0.206950 
#    y 0.000000 3.530070 0.000000 
#    z -0.206950 0.000000 3.935130 
# 
# 
# High freq. dielectric constant tensor:
#      x y z
#    x 1.772570 0.000000 -0.005790 
#    y 0.000000 1.755310 0.000000 
#    z -0.005790 0.000000 1.781220 
# 
# From -- ./inp_files/42078.got.cif
#   From: 2010.06.25/outbox.cif.g09.slc.cpg/sg15_22_cif.got.tgz:42078.got - 2010.06.28 07:06:18.
