data_PCOD8145600
_publ_section_title
;
Structure prediction by ZEFSAII (Michael W. Deem and Ramdas Pophale) SiO2 
 PCOD8145600
Probable space group: C 2/C
;
_chemical_formula_sum "Si O2"
_cell_formula_units_Z 64
_cell_length_a 8.003845
_cell_length_b 29.320047
_cell_length_c 17.531720
_cell_angle_alpha 90.000000
_cell_angle_beta 134.729567
_cell_angle_gamma 90.000000
_cell_volume 2922.893972
_symmetry_space_group_name_H-M "C 2/C"
_symmetry_group_IT_number 15
_symmetry_cell_setting 'monoclinic'
loop_
_space_group_symop_operation_xyz
x,y,z
-x,y,1/2-z
-x,-y,-z
x,-y,1/2+z
1/2+x,1/2+y,z
1/2-x,1/2+y,1/2-z
1/2-x,1/2-y,-z
1/2+x,1/2-y,1/2+z
loop_
_atom_site_type_symbol
_atom_site_label
_atom_site_fract_x
_atom_site_fract_y
_atom_site_fract_z
Si Si1 0.609756 0.790263 0.864527
Si Si2 0.211128 0.877369 0.266027
Si Si3 0.403991 0.103399 0.137483
Si Si4 0.106895 0.095801 0.561770
Si Si5 0.224434 0.546095 0.143082
Si Si6 0.912261 0.262446 0.953106
Si Si7 0.036300 0.455607 0.415278
Si Si8 0.140230 0.318980 0.420129
O O1 0.500000 0.775538 0.750000
O O2 0.659238 0.843612 0.885923
O O3 0.421538 0.778255 0.869195
O O4 0.847906 0.762462 0.947498
O O5 0.123082 0.895098 0.156664
O O6 0.335714 0.917103 0.354613
O O7 0.387064 0.835403 0.308479
O O8 0.000000 0.858820 0.250000
O O9 0.500000 0.087905 0.250000
O O10 0.600927 0.090994 0.138023
O O11 0.156002 0.078466 0.041034
O O12 0.287168 0.055181 0.598023
O O13 0.170311 0.140808 0.532501
O O14 0.500000 0.545688 0.250000
O O15 0.093186 0.503364 0.140276
O O16 0.189994 0.544745 0.041512
O O17 0.700489 0.226639 0.892941
O O18 0.868004 0.306522 0.992537
#
# Coordination Sequence:
#
# PCOD8145600 Si02
#       8
#     8   8   8   8   8   8   8   8
#     4  10  23  41  64  94 129 173 223 271 327 385
#     4  11  24  40  68 101 130 173 211 276 337 388
#     4  11  24  42  64  94 132 177 221 264 317 393
#     4  11  23  42  69  97 135 165 217 279 327 391
#     4  11  24  43  69  97 134 178 220 260 317 397
#     4  10  22  42  65  90 133 173 212 289 319 390
#     4  10  23  43  66 101 135 165 216 275 322 385
#     4  10  22  39  62  95 128 169 219 264 338 387
#
# _framework density 21.896108000000002
#
# number of rings (size 3 to 8) (size 9 to 14) (size 15 to 20)
#    0.000    1.500    1.250    3.375    5.250    5.000 
#    0.000    1.875    0.000    0.000    0.000    0.000 
#    0.000    0.000    0.000    0.000    0.000    0.000 
#
# Total GULP energy -396904.548523 kJ/mol
# GULP energy per Si atom -12403.267141 kJ/mol
# Density = 2.184627 g / cm^3
# Si number density = 21.896108 Si / 1000 Ang^3
#
#
#
# Elastic Constant Matrix: (Units=GPa)
#
#
# Indices 1 2 3 4 5 6 
#
# 1 149.5016 25.8223 69.7555 0.0000 -2.2170 0.0000
# 2 25.8223 50.3510 34.1133 0.0000 -0.9049 0.0000
# 3 69.7555 34.1133 128.1707 0.0000 10.3791 0.0000
# 4 0.0000 0.0000 0.0000 20.4881 0.0000 -2.3877
# 5 -2.2170 -0.9049 10.3791 0.0000 38.4255 0.0000
# 6 0.0000 0.0000 0.0000 -2.3877 0.0000 29.5174
#
#
#
# Elastic Compliance Matrix: (Units=1/GPa)
#
#
# Indices 1 2 3 4 5 6 
#
# 1 0.009186 -0.001457 -0.004756 0.000000 0.001780 0.000000
# 2 -0.001457 0.024673 -0.005944 0.000000 0.002103 0.000000
# 3 -0.004756 -0.005944 0.012274 0.000000 -0.003730 0.000000
# 4 0.000000 0.000000 0.000000 0.049273 0.000000 0.003986
# 5 0.001780 0.002103 -0.003730 0.000000 0.027184 0.000000
# 6 0.000000 0.000000 0.000000 0.003986 0.000000 0.034201
#
#
# Mechanical properties :
#
#
# Convention : Reuss Voigt Hill
#
# Bulk Modulus (GPa) = 45.83042 65.26726 55.54884
# Shear Modulus (GPa) = 26.54238 30.90835 28.72537
#
# Velocity S-wave (km/s) = 3.48544 3.76119 3.62594
# Velocity P-wave (km/s) = 6.09705 6.98101 6.55395
#
# Compressibility (1/GPa) = 0.02181957
#
# Stress axis : x y z
#
# Youngs Moduli (GPa) = 108.86265 40.53053 81.47005
#
# Poissons Ratio (x) = 0.05905 0.38745
# Poissons Ratio (y) = 0.15860 0.48427
# Poissons Ratio (z) = 0.51772 0.24092
#
# Static dielectric constant tensor:
#      x y z
#    x 4.095850 0.000000 0.016390 
#    y 0.000000 3.956170 0.000000 
#    z 0.016390 0.000000 3.859990 
# 
# 
# High freq. dielectric constant tensor:
#      x y z
#    x 1.874730 0.000000 0.002280 
#    y 0.000000 1.855470 0.000000 
#    z 0.002280 0.000000 1.859510 
# 
# From -- ./inp_files/194258.got.cif
#   From: 2010.06.25/outbox.cif.g09.slc.cpg/sg15_98_cif.got.tgz:194258.got - 2010.06.28 07:06:18.
