data_PCOD8145477
_publ_section_title
;
Structure prediction by ZEFSAII (Michael W. Deem and Ramdas Pophale) SiO2 
 PCOD8145477
Probable space group: C 2/C
;
_chemical_formula_sum "Si O2"
_cell_formula_units_Z 52
_cell_length_a 12.597620
_cell_length_b 14.613273
_cell_length_c 16.218202
_cell_angle_alpha 90.000000
_cell_angle_beta 110.087402
_cell_angle_gamma 90.000000
_cell_volume 2804.031075
_symmetry_space_group_name_H-M "C 2/C"
_symmetry_group_IT_number 15
_symmetry_cell_setting 'monoclinic'
loop_
_space_group_symop_operation_xyz
x,y,z
-x,y,1/2-z
-x,-y,-z
x,-y,1/2+z
1/2+x,1/2+y,z
1/2-x,1/2+y,1/2-z
1/2-x,1/2-y,-z
1/2+x,1/2-y,1/2+z
loop_
_atom_site_type_symbol
_atom_site_label
_atom_site_fract_x
_atom_site_fract_y
_atom_site_fract_z
Si Si1 0.500000 0.616718 0.750000
Si Si2 0.132908 0.681424 0.795744
Si Si3 0.220155 0.646402 0.151575
Si Si4 0.255704 0.556866 0.694164
Si Si5 0.886401 0.401492 0.035594
Si Si6 0.889061 0.394860 0.492839
Si Si7 0.512226 0.210839 0.344206
O O1 0.390822 0.556271 0.740361
O O2 0.468327 0.680793 0.663126
O O3 0.176332 0.786102 0.800407
O O4 0.194052 0.618285 0.745316
O O5 0.158122 0.638095 0.890899
O O6 0.000000 0.682884 0.750000
O O7 0.224014 0.549213 0.200048
O O8 0.105957 0.697902 0.142661
O O9 0.215850 0.623693 0.053358
O O10 0.221227 0.597471 0.594681
O O11 0.007306 0.361859 0.037997
O O12 0.909976 0.509668 0.045106
O O13 0.884647 0.325303 0.570156
O O14 0.500000 0.162908 0.250000
#
# Coordination Sequence:
#
# PCOD8145477 Si02
#       7
#     4   8   8   8   8   8   8
#     4  10  22  40  54  80 120 164 186 226 294 350
#     4  12  22  35  62  93 110 150 200 239 286 349
#     4  10  22  39  56  84 122 151 190 240 297 338
#     4  11  23  39  59  84 120 156 190 238 291 349
#     4   9  19  34  58  84 121 146 185 248 295 336
#     4   9  18  35  56  90 113 148 191 246 293 323
#     4   9  19  35  60  82 112 152 197 240 282 339
#
# _framework density 18.544730000000001
#
# number of rings (size 3 to 8) (size 9 to 14) (size 15 to 20)
#    0.462    1.538    3.077    1.385    3.231    0.615 
#    0.000    0.000    0.000    3.692    0.000    0.000 
#    0.000    0.000    0.000    0.000    0.000    0.000 
#
# Total GULP energy -322102.455143 kJ/mol
# GULP energy per Si atom -12388.555967 kJ/mol
# Density = 1.850252 g / cm^3
# Si number density = 18.544730 Si / 1000 Ang^3
#
#
#
# Elastic Constant Matrix: (Units=GPa)
#
#
# Indices 1 2 3 4 5 6 
#
# 1 82.3744 25.8912 19.8085 0.0000 10.5069 0.0000
# 2 25.8912 81.5288 28.6719 0.0000 0.9873 0.0000
# 3 19.8085 28.6719 89.0294 0.0000 -6.8915 0.0000
# 4 0.0000 0.0000 0.0000 25.0041 0.0000 -2.0929
# 5 10.5069 0.9873 -6.8915 0.0000 17.9654 0.0000
# 6 0.0000 0.0000 0.0000 -2.0929 0.0000 6.1168
#
#
#
# Elastic Compliance Matrix: (Units=1/GPa)
#
#
# Indices 1 2 3 4 5 6 
#
# 1 0.015272 -0.003684 -0.002976 0.000000 -0.009871 0.000000
# 2 -0.003684 0.014835 -0.003972 0.000000 -0.000184 0.000000
# 3 -0.002976 -0.003972 0.013733 0.000000 0.007226 0.000000
# 4 0.000000 0.000000 0.000000 0.041173 0.000000 0.014087
# 5 -0.009871 -0.000184 0.007226 0.000000 0.064218 0.000000
# 6 0.000000 0.000000 0.000000 0.014087 0.000000 0.168304
#
#
# Mechanical properties :
#
#
# Convention : Reuss Voigt Hill
#
# Bulk Modulus (GPa) = 44.29424 44.63066 44.46245
# Shear Modulus (GPa) = 14.43737 21.72132 18.07934
#
# Velocity S-wave (km/s) = 2.79322 3.42613 3.12573
# Velocity P-wave (km/s) = 5.86001 6.30634 6.08726
#
# Compressibility (1/GPa) = 0.02257630
#
# Stress axis : x y z
#
# Youngs Moduli (GPa) = 65.47845 67.40954 72.81786
#
# Poissons Ratio (x) = 0.24834 0.21668
# Poissons Ratio (y) = 0.24122 0.28924
# Poissons Ratio (z) = 0.19484 0.26776
#
# Static dielectric constant tensor:
#      x y z
#    x 3.189960 0.000000 0.026990 
#    y 0.000000 3.338230 0.000000 
#    z 0.026990 0.000000 3.606530 
# 
# 
# High freq. dielectric constant tensor:
#      x y z
#    x 1.701410 0.000000 0.001510 
#    y 0.000000 1.709390 0.000000 
#    z 0.001510 0.000000 1.721840 
# 
# From -- ./inp_files/197339.got.cif
#   From: 2010.06.25/outbox.cif.g09.slc.cpg/sg15_99_cif.got.tgz:197339.got - 2010.06.28 07:06:18.
