data_PCOD8145301
_publ_section_title
;
Structure prediction by ZEFSAII (Michael W. Deem and Ramdas Pophale) SiO2 
 PCOD8145301
Probable space group: C 2/C
;
_chemical_formula_sum "Si O2"
_cell_formula_units_Z 64
_cell_length_a 9.368982
_cell_length_b 29.736285
_cell_length_c 12.347436
_cell_angle_alpha 90.000000
_cell_angle_beta 83.118346
_cell_angle_gamma 90.000000
_cell_volume 3415.197406
_symmetry_space_group_name_H-M "C 2/C"
_symmetry_group_IT_number 15
_symmetry_cell_setting 'monoclinic'
loop_
_space_group_symop_operation_xyz
x,y,z
-x,y,1/2-z
-x,-y,-z
x,-y,1/2+z
1/2+x,1/2+y,z
1/2-x,1/2+y,1/2-z
1/2-x,1/2-y,-z
1/2+x,1/2-y,1/2+z
loop_
_atom_site_type_symbol
_atom_site_label
_atom_site_fract_x
_atom_site_fract_y
_atom_site_fract_z
Si Si1 0.819044 0.893431 0.640869
Si Si2 0.173634 0.681895 0.007021
Si Si3 0.564926 0.847164 0.131651
Si Si4 0.582556 0.729847 0.628167
Si Si5 0.183077 0.797400 0.477813
Si Si6 0.117521 0.437229 0.028432
Si Si7 0.147959 0.882198 0.615124
Si Si8 0.595897 0.968550 0.633237
O O1 0.743395 0.858946 0.566255
O O2 0.806095 0.878223 0.765305
O O3 0.742456 0.941531 0.638848
O O4 0.987516 0.898212 0.600644
O O5 0.135811 0.719820 0.099021
O O6 0.277883 0.698043 0.899272
O O7 0.024813 0.668441 0.964733
O O8 0.500000 0.832055 0.250000
O O9 0.719349 0.822802 0.119406
O O10 0.574293 0.900977 0.123359
O O11 0.500000 0.726946 0.750000
O O12 0.476466 0.711306 0.547323
O O13 0.250000 0.750000 0.500000
O O14 0.173699 0.830588 0.580193
O O15 0.257471 0.419200 0.954379
O O16 0.991701 0.443978 0.953182
O O17 0.149075 0.482666 0.090402
O O18 0.500000 0.971789 0.750000
#
# Coordination Sequence:
#
# PCOD8145301 Si02
#       8
#     8   8   8   8   8   8   8   8
#     4  11  22  40  64  88 124 158 202 250 300 366
#     4  11  23  40  59  90 120 161 210 255 297 363
#     4  11  22  39  61  85 120 158 199 247 309 358
#     4  11  24  40  59  84 122 164 211 252 304 361
#     4  11  22  40  57  87 123 159 205 253 297 356
#     4  10  22  38  62  91 120 151 198 250 300 367
#     4  10  23  41  62  88 122 166 199 247 306 355
#     4  11  21  38  65  92 119 152 195 252 307 363
#
# _framework density 18.739764999999998
#
# number of rings (size 3 to 8) (size 9 to 14) (size 15 to 20)
#    0.000    1.250    5.000    1.125    1.750    1.000 
#    2.250    0.000    0.000    0.000    0.000    0.000 
#    0.000    0.000    0.000    0.000    0.000    0.000 
#
# Total GULP energy -396710.218368 kJ/mol
# GULP energy per Si atom -12397.194324 kJ/mol
# Density = 1.869711 g / cm^3
# Si number density = 18.739765 Si / 1000 Ang^3
#
#
#
# Elastic Constant Matrix: (Units=GPa)
#
#
# Indices 1 2 3 4 5 6 
#
# 1 76.9133 40.4557 20.1351 0.0000 -4.4170 0.0000
# 2 40.4557 121.6820 27.6229 0.0000 -7.4994 0.0000
# 3 20.1351 27.6229 63.5350 0.0000 -15.2566 0.0000
# 4 0.0000 0.0000 0.0000 14.7074 0.0000 5.6391
# 5 -4.4170 -7.4994 -15.2566 0.0000 30.6204 0.0000
# 6 0.0000 0.0000 0.0000 5.6391 0.0000 27.6243
#
#
#
# Elastic Compliance Matrix: (Units=1/GPa)
#
#
# Indices 1 2 3 4 5 6 
#
# 1 0.016299 -0.004715 -0.003213 0.000000 -0.000404 0.000000
# 2 -0.004715 0.010484 -0.002966 0.000000 0.000410 0.000000
# 3 -0.003213 -0.002966 0.020175 0.000000 0.008862 0.000000
# 4 0.000000 0.000000 0.000000 0.073767 0.000000 -0.015058
# 5 -0.000404 0.000410 0.008862 0.000000 0.037116 0.000000
# 6 0.000000 0.000000 0.000000 -0.015058 0.000000 0.039274
#
#
# Mechanical properties :
#
#
# Convention : Reuss Voigt Hill
#
# Bulk Modulus (GPa) = 39.72591 48.72864 44.22727
# Shear Modulus (GPa) = 21.99818 26.18487 24.09153
#
# Velocity S-wave (km/s) = 3.42991 3.74209 3.58939
# Velocity P-wave (km/s) = 6.07704 6.68807 6.38986
#
# Compressibility (1/GPa) = 0.02517249
#
# Stress axis : x y z
#
# Youngs Moduli (GPa) = 61.35206 95.38255 49.56631
#
# Poissons Ratio (x) = 0.44969 0.15925
# Poissons Ratio (y) = 0.28925 0.14699
# Poissons Ratio (z) = 0.19711 0.28286
#
# Static dielectric constant tensor:
#      x y z
#    x 3.493050 0.000000 -0.199250 
#    y 0.000000 3.564350 0.000000 
#    z -0.199250 0.000000 3.239070 
# 
# 
# High freq. dielectric constant tensor:
#      x y z
#    x 1.740380 0.000000 -0.004940 
#    y 0.000000 1.734510 0.000000 
#    z -0.004940 0.000000 1.726650 
# 
# From -- ./inp_files/82609.got.cif
#   From: 2010.06.25/outbox.cif.g09.slc.cpg/sg15_42_cif.got.tgz:82609.got - 2010.06.28 07:06:18.
