data_PCOD8145291
_publ_section_title
;
Structure prediction by ZEFSAII (Michael W. Deem and Ramdas Pophale) SiO2 
 PCOD8145291
Probable space group: C 2/C
;
_chemical_formula_sum "Si O2"
_cell_formula_units_Z 48
_cell_length_a 18.719790
_cell_length_b 15.281841
_cell_length_c 16.390946
_cell_angle_alpha 90.000000
_cell_angle_beta 149.313846
_cell_angle_gamma 90.000000
_cell_volume 2392.963745
_symmetry_space_group_name_H-M "C 2/C"
_symmetry_group_IT_number 15
_symmetry_cell_setting 'monoclinic'
loop_
_space_group_symop_operation_xyz
x,y,z
-x,y,1/2-z
-x,-y,-z
x,-y,1/2+z
1/2+x,1/2+y,z
1/2-x,1/2+y,1/2-z
1/2-x,1/2-y,-z
1/2+x,1/2-y,1/2+z
loop_
_atom_site_type_symbol
_atom_site_label
_atom_site_fract_x
_atom_site_fract_y
_atom_site_fract_z
Si Si1 0.598581 0.503498 0.198427
Si Si2 0.904074 0.471892 0.482287
Si Si3 0.318783 0.216920 0.853427
Si Si4 0.751696 0.174969 0.437901
Si Si5 0.500000 0.944004 0.750000
Si Si6 0.956095 0.851775 0.474297
Si Si7 0.000000 0.077618 0.750000
O O1 0.755760 0.519812 0.320065
O O2 0.528347 0.419351 0.085603
O O3 0.605608 0.481382 0.300880
O O4 0.502991 0.590284 0.097709
O O5 0.883963 0.366635 0.464431
O O6 0.000000 0.500000 0.500000
O O7 0.955170 0.499624 0.624501
O O8 0.235996 0.281591 0.833453
O O9 0.203417 0.182947 0.674625
O O10 0.442348 0.268442 0.930733
O O11 0.750000 0.250000 0.500000
O O12 0.625699 0.111177 0.334837
O O13 0.904522 0.131846 0.593908
#
# Coordination Sequence:
#
# PCOD8145291 Si02
#       7
#     8   8   8   8   4   8   4
#     4  10  22  42  59  91 127 174 213 253 328 396
#     4  11  25  40  60  96 135 172 218 270 330 394
#     4  11  22  38  60  95 124 169 209 265 329 387
#     4  12  22  33  58  94 132 160 198 257 331 405
#     4  12  23  38  60  95 130 174 214 262 335 388
#     4  10  22  38  62  87 123 164 208 254 315 386
#     4  12  21  40  62  87 132 170 200 266 325 406
#
# _framework density 20.058807999999999
#
# number of rings (size 3 to 8) (size 9 to 14) (size 15 to 20)
#    0.000    1.000    5.000    2.500    4.667    1.333 
#    0.000    0.000    0.000    2.000    0.000    0.000 
#    0.000    0.000    0.000    0.000    0.000    0.000 
#
# Total GULP energy -297375.907876 kJ/mol
# GULP energy per Si atom -12390.662828 kJ/mol
# Density = 2.001315 g / cm^3
# Si number density = 20.058808 Si / 1000 Ang^3
#
#
#
# Elastic Constant Matrix: (Units=GPa)
#
#
# Indices 1 2 3 4 5 6 
#
# 1 83.7395 22.4322 28.2981 0.0000 1.8090 0.0000
# 2 22.4322 57.2400 47.2705 0.0000 -3.9917 0.0000
# 3 28.2981 47.2705 118.6252 0.0000 5.7058 0.0001
# 4 0.0000 0.0000 0.0000 37.3543 0.0000 2.6188
# 5 1.8090 -3.9917 5.7058 0.0000 31.3471 0.0001
# 6 0.0000 0.0000 0.0001 2.6188 0.0001 31.5950
#
#
#
# Elastic Compliance Matrix: (Units=1/GPa)
#
#
# Indices 1 2 3 4 5 6 
#
# 1 0.013591 -0.004115 -0.001553 0.000000 -0.001026 0.000000
# 2 -0.004115 0.028171 -0.010520 0.000000 0.005740 0.000000
# 3 -0.001553 -0.010520 0.013168 0.000000 -0.003647 0.000000
# 4 0.000000 0.000000 0.000000 0.026927 0.000000 -0.002232
# 5 -0.001026 0.005740 -0.003647 0.000000 0.033355 0.000000
# 6 0.000000 0.000000 0.000000 -0.002232 0.000000 0.031836
#
#
# Mechanical properties :
#
#
# Convention : Reuss Voigt Hill
#
# Bulk Modulus (GPa) = 44.33940 50.62293 47.48116
# Shear Modulus (GPa) = 26.74615 30.83287 28.78951
#
# Velocity S-wave (km/s) = 3.65552 3.92487 3.79259
# Velocity P-wave (km/s) = 6.32217 6.76990 6.54986
#
# Compressibility (1/GPa) = 0.02255331
#
# Stress axis : x y z
#
# Youngs Moduli (GPa) = 73.57714 35.49710 75.94207
#
# Poissons Ratio (x) = 0.14609 0.11793
# Poissons Ratio (y) = 0.30280 0.79893
# Poissons Ratio (z) = 0.11426 0.37344
#
# Static dielectric constant tensor:
#      x y z
#    x 3.422710 0.000000 -0.021770 
#    y 0.000000 3.439860 0.000000 
#    z -0.021770 0.000000 3.847340 
# 
# 
# High freq. dielectric constant tensor:
#      x y z
#    x 1.758490 0.000000 0.013050 
#    y 0.000000 1.754530 0.000000 
#    z 0.013050 0.000000 1.800300 
# 
# From -- ./inp_files/48756.got.cif
#   From: 2010.06.25/outbox.cif.g09.slc.cpg/sg15_25_cif.got.tgz:48756.got - 2010.06.28 07:06:18.
