data_PCOD8145832
_publ_section_title
;
Structure prediction by ZEFSAII (Michael W. Deem and Ramdas Pophale) SiO2 
 PCOD8145832
Probable space group: C 2/C
;
_chemical_formula_sum "Si O2"
_cell_formula_units_Z 60
_cell_length_a 8.979894
_cell_length_b 21.402421
_cell_length_c 16.244112
_cell_angle_alpha 90.000000
_cell_angle_beta 68.084924
_cell_angle_gamma 90.000000
_cell_volume 2896.379538
_symmetry_space_group_name_H-M "C 2/C"
_symmetry_group_IT_number 15
_symmetry_cell_setting 'monoclinic'
loop_
_space_group_symop_operation_xyz
x,y,z
-x,y,1/2-z
-x,-y,-z
x,-y,1/2+z
1/2+x,1/2+y,z
1/2-x,1/2+y,1/2-z
1/2-x,1/2-y,-z
1/2+x,1/2-y,1/2+z
loop_
_atom_site_type_symbol
_atom_site_label
_atom_site_fract_x
_atom_site_fract_y
_atom_site_fract_z
Si Si1 0.266784 0.557361 0.695019
Si Si2 0.998097 0.521604 0.866743
Si Si3 0.808864 0.812146 0.117616
Si Si4 0.167374 0.209393 0.264145
Si Si5 0.924607 0.638192 0.969500
Si Si6 0.609929 0.252152 0.962927
Si Si7 0.500000 0.480390 0.750000
Si Si8 0.291299 0.902775 0.654984
O O1 0.176197 0.519381 0.640952
O O2 0.347764 0.622325 0.652861
O O3 0.417951 0.519099 0.694834
O O4 0.129279 0.564378 0.792417
O O5 0.970911 0.564451 0.952805
O O6 0.059027 0.450619 0.864544
O O7 0.764060 0.765086 0.200144
O O8 0.657103 0.827348 0.090929
O O9 0.956668 0.788073 0.032480
O O10 0.152893 0.218566 0.365276
O O11 0.270334 0.144973 0.235568
O O12 0.000000 0.201136 0.250000
O O13 0.080428 0.678769 0.955888
O O14 0.808335 0.641196 0.071941
O O15 0.750000 0.250000 0.000000
O O16 0.629400 0.440645 0.673931
#
# Coordination Sequence:
#
# PCOD8145832 Si02
#       8
#     8   8   8   8   8   8   4   8
#     4   9  20  39  64  90 123 171 221 268 319 388
#     4   9  20  39  63  93 126 173 223 261 326 398
#     4  11  23  43  71  96 129 178 227 271 327 409
#     4  12  23  43  73  97 133 181 217 275 339 404
#     4  11  21  43  67  94 130 173 226 273 323 403
#     4  12  27  43  63 107 140 169 227 283 342 390
#     4  10  22  40  60  92 132 172 220 266 330 402
#     4  11  22  39  65  94 131 172 217 270 331 392
#
# _framework density 20.715517999999999
#
# number of rings (size 3 to 8) (size 9 to 14) (size 15 to 20)
#    0.000    1.333    3.333    2.400    1.867    3.733 
#    9.600    2.667    0.000    0.000    0.000    0.000 
#    0.000    0.000    0.000    0.000    0.000    0.000 
#
# Total GULP energy -371723.880729 kJ/mol
# GULP energy per Si atom -12390.796024 kJ/mol
# Density = 2.066837 g / cm^3
# Si number density = 20.715518 Si / 1000 Ang^3
#
#
#
# Elastic Constant Matrix: (Units=GPa)
#
#
# Indices 1 2 3 4 5 6 
#
# 1 115.1752 67.0697 38.6354 0.0000 10.3520 0.0000
# 2 67.0697 136.0765 57.2375 0.0000 3.4794 0.0000
# 3 38.6354 57.2375 131.2240 0.0000 11.8748 0.0000
# 4 0.0000 0.0000 0.0000 34.2897 0.0000 -5.4245
# 5 10.3520 3.4794 11.8748 0.0000 23.9302 0.0000
# 6 0.0000 0.0000 0.0000 -5.4245 0.0000 16.2910
#
#
#
# Elastic Compliance Matrix: (Units=1/GPa)
#
#
# Indices 1 2 3 4 5 6 
#
# 1 0.012730 -0.005818 -0.000825 0.000000 -0.004251 0.000000
# 2 -0.005818 0.011670 -0.003614 0.000000 0.002613 0.000000
# 3 -0.000825 -0.003614 0.009800 0.000000 -0.003981 0.000000
# 4 0.000000 0.000000 0.000000 0.030785 0.000000 0.010251
# 5 -0.004251 0.002613 -0.003981 0.000000 0.045223 0.000000
# 6 0.000000 0.000000 0.000000 0.010251 0.000000 0.064797
#
#
# Mechanical properties :
#
#
# Convention : Reuss Voigt Hill
#
# Bulk Modulus (GPa) = 73.07390 78.70675 75.89032
# Shear Modulus (GPa) = 24.99010 29.53772 27.26391
#
# Velocity S-wave (km/s) = 3.47702 3.78017 3.63176
# Velocity P-wave (km/s) = 7.17433 7.55841 7.36887
#
# Compressibility (1/GPa) = 0.01368478
#
# Stress axis : x y z
#
# Youngs Moduli (GPa) = 78.55746 85.69212 102.04157
#
# Poissons Ratio (x) = 0.49858 0.08422
# Poissons Ratio (y) = 0.45707 0.36873
# Poissons Ratio (z) = 0.06484 0.30965
#
# Static dielectric constant tensor:
#      x y z
#    x 3.631010 0.000000 0.016430 
#    y 0.000000 3.940010 0.000000 
#    z 0.016430 0.000000 3.938100 
# 
# 
# High freq. dielectric constant tensor:
#      x y z
#    x 1.794530 0.000000 -0.000030 
#    y 0.000000 1.823720 0.000000 
#    z -0.000030 0.000000 1.818690 
# 
# From -- ./inp_files/192531.got.cif
#   From: 2010.06.25/outbox.cif.g09.slc.cpg/sg15_97_cif.got.tgz:192531.got - 2010.06.28 07:06:18.
