data_PCOD8145205
_publ_section_title
;
Structure prediction by ZEFSAII (Michael W. Deem and Ramdas Pophale) SiO2 
 PCOD8145205
Probable space group: C 2/C
;
_chemical_formula_sum "Si O2"
_cell_formula_units_Z 52
_cell_length_a 16.216727
_cell_length_b 20.282297
_cell_length_c 14.583098
_cell_angle_alpha 90.000000
_cell_angle_beta 31.321397
_cell_angle_gamma 90.000000
_cell_volume 2493.436453
_symmetry_space_group_name_H-M "C 2/C"
_symmetry_group_IT_number 15
_symmetry_cell_setting 'monoclinic'
loop_
_space_group_symop_operation_xyz
x,y,z
-x,y,1/2-z
-x,-y,-z
x,-y,1/2+z
1/2+x,1/2+y,z
1/2-x,1/2+y,1/2-z
1/2-x,1/2-y,-z
1/2+x,1/2-y,1/2+z
loop_
_atom_site_type_symbol
_atom_site_label
_atom_site_fract_x
_atom_site_fract_y
_atom_site_fract_z
Si Si1 0.758825 0.507933 0.263145
Si Si2 0.500000 0.276151 0.250000
Si Si3 0.784756 0.698285 0.588022
Si Si4 0.682393 0.774463 0.862482
Si Si5 0.002228 0.826795 0.851702
Si Si6 0.991049 0.019446 0.152308
Si Si7 0.026156 0.607055 0.979830
O O1 0.676984 0.504614 0.239186
O O2 0.628247 0.517824 0.465651
O O3 0.868610 0.572344 0.167482
O O4 0.871574 0.444517 0.177978
O O5 0.363942 0.321323 0.334737
O O6 0.426422 0.230784 0.397975
O O7 0.726075 0.751106 0.719263
O O8 0.849262 0.628446 0.560954
O O9 0.827912 0.812944 0.767024
O O10 0.530385 0.824225 0.013371
O O11 0.638821 0.709627 0.961133
O O12 0.967441 0.903734 0.892357
O O13 0.000000 0.801774 0.750000
O O14 0.000000 0.995630 0.250000
#
# Coordination Sequence:
#
# PCOD8145205 Si02
#       7
#     8   4   8   8   8   8   8
#     4  10  23  44  65  87 127 169 214 262 305 367
#     4  10  22  38  58  94 124 158 202 262 310 362
#     4  11  21  40  61  88 129 162 204 258 315 373
#     4  12  21  39  63  95 124 166 199 249 328 381
#     4  11  23  38  65  95 128 155 204 261 315 383
#     4  10  22  44  66  92 124 166 215 263 314 372
#     4  11  22  41  64  91 122 171 210 251 312 377
#
# _framework density 20.854752000000001
#
# number of rings (size 3 to 8) (size 9 to 14) (size 15 to 20)
#    0.000    1.231    4.615    1.385    0.000    0.000 
#    4.154    2.308    0.000    0.000    0.000    0.000 
#    0.000    0.000    0.000    0.000    0.000    0.000 
#
# Total GULP energy -322314.663400 kJ/mol
# GULP energy per Si atom -12396.717823 kJ/mol
# Density = 2.080729 g / cm^3
# Si number density = 20.854752 Si / 1000 Ang^3
#
#
#
# Elastic Constant Matrix: (Units=GPa)
#
#
# Indices 1 2 3 4 5 6 
#
# 1 81.6225 31.4945 28.4427 -0.0074 2.2737 0.0025
# 2 31.4945 57.1867 19.6627 -0.0166 -2.5989 0.0284
# 3 28.4427 19.6627 87.1522 -0.0220 4.2584 0.0415
# 4 -0.0074 -0.0166 -0.0220 30.9308 0.0014 -11.9163
# 5 2.2737 -2.5989 4.2584 0.0014 37.8890 -0.0101
# 6 0.0025 0.0284 0.0415 -11.9163 -0.0101 37.3933
#
#
#
# Elastic Compliance Matrix: (Units=1/GPa)
#
#
# Indices 1 2 3 4 5 6 
#
# 1 0.016600 -0.007969 -0.003564 0.000001 -0.001142 0.000009
# 2 -0.007969 0.022904 -0.002682 0.000004 0.002351 -0.000012
# 3 -0.003564 -0.002682 0.013314 0.000003 -0.001466 -0.000012
# 4 0.000001 0.000004 0.000003 0.036855 0.000002 0.011745
# 5 -0.001142 0.002351 -0.001466 0.000002 0.026788 0.000008
# 6 0.000009 -0.000012 -0.000012 0.011745 0.000008 0.030486
#
#
# Mechanical properties :
#
#
# Convention : Reuss Voigt Hill
#
# Bulk Modulus (GPa) = 41.00116 42.79570 41.89843
# Shear Modulus (GPa) = 27.24729 31.00004 29.12367
#
# Velocity S-wave (km/s) = 3.61851 3.85966 3.74103
# Velocity P-wave (km/s) = 6.09600 6.35831 6.22853
#
# Compressibility (1/GPa) = 0.02438955
#
# Stress axis : x y z
#
# Youngs Moduli (GPa) = 60.24104 43.66035 75.10919
#
# Poissons Ratio (x) = 0.34791 0.26768
# Poissons Ratio (y) = 0.48004 0.20142
# Poissons Ratio (z) = 0.21469 0.11708
#
# Static dielectric constant tensor:
#      x y z
#    x 3.997710 -0.000010 -0.133590 
#    y -0.000010 3.714450 0.000030 
#    z -0.133590 0.000030 3.741560 
# 
# 
# High freq. dielectric constant tensor:
#      x y z
#    x 1.820350 0.000000 -0.021690 
#    y 0.000000 1.813220 0.000010 
#    z -0.021690 0.000010 1.819980 
# 
# From -- ./inp_files/163601.got.cif
#   From: 2010.06.25/outbox.cif.g09.slc.cpg/sg15_82_cif.got.tgz:163601.got - 2010.06.28 07:06:18.
