data_PCOD8145895
_publ_section_title
;
Structure prediction by ZEFSAII (Michael W. Deem and Ramdas Pophale) SiO2 
 PCOD8145895
Probable space group: C 2/C
;
_chemical_formula_sum "Si O2"
_cell_formula_units_Z 52
_cell_length_a 11.383916
_cell_length_b 20.174690
_cell_length_c 11.539769
_cell_angle_alpha 90.000000
_cell_angle_beta 67.472805
_cell_angle_gamma 90.000000
_cell_volume 2448.079814
_symmetry_space_group_name_H-M "C 2/C"
_symmetry_group_IT_number 15
_symmetry_cell_setting 'monoclinic'
loop_
_space_group_symop_operation_xyz
x,y,z
-x,y,1/2-z
-x,-y,-z
x,-y,1/2+z
1/2+x,1/2+y,z
1/2-x,1/2+y,1/2-z
1/2-x,1/2-y,-z
1/2+x,1/2-y,1/2+z
loop_
_atom_site_type_symbol
_atom_site_label
_atom_site_fract_x
_atom_site_fract_y
_atom_site_fract_z
Si Si1 0.616413 0.715820 0.069008
Si Si2 0.500000 0.177867 0.750000
Si Si3 0.139911 0.561348 0.190430
Si Si4 0.527962 0.595307 0.996759
Si Si5 0.191751 0.956864 0.084272
Si Si6 0.719580 0.923323 0.213340
Si Si7 0.649929 0.405911 0.724862
O O1 0.515529 0.773859 0.133802
O O2 0.558564 0.674737 0.980721
O O3 0.634789 0.663565 0.166296
O O4 0.750000 0.750000 0.000000
O O5 0.370241 0.137116 0.787273
O O6 0.133712 0.488820 0.252255
O O7 0.235836 0.606758 0.227589
O O8 0.000000 0.593318 0.250000
O O9 0.184093 0.553778 0.041384
O O10 0.476373 0.578097 0.147348
O O11 0.434144 0.568831 0.934162
O O12 0.666696 0.561476 0.922949
O O13 0.213850 0.910189 0.187942
O O14 0.179048 0.033064 0.128496
#
# Coordination Sequence:
#
# PCOD8145895 Si02
#       7
#     8   4   8   8   8   8   8
#     4  12  24  40  65  88 123 169 211 252 301 374
#     4  12  24  42  62  90 124 166 214 248 304 372
#     4  10  22  40  62  93 128 163 202 256 323 372
#     4  11  22  41  63  94 127 163 206 259 315 364
#     4  10  24  40  66  98 125 158 205 266 319 362
#     4  11  23  39  65  93 128 162 207 258 309 373
#     4  10  23  40  65  93 126 161 207 263 311 368
#
# _framework density 21.241137999999999
#
# number of rings (size 3 to 8) (size 9 to 14) (size 15 to 20)
#    0.000    1.231    3.846    1.385    0.000   17.231 
#    0.000    0.769    3.385    0.000    0.000    0.000 
#    0.000    0.000    0.000    0.000    0.000    0.000 
#
# Total GULP energy -322205.505883 kJ/mol
# GULP energy per Si atom -12392.519457 kJ/mol
# Density = 2.119279 g / cm^3
# Si number density = 21.241138 Si / 1000 Ang^3
#
#
#
# Elastic Constant Matrix: (Units=GPa)
#
#
# Indices 1 2 3 4 5 6 
#
# 1 110.4648 35.4073 68.5943 0.0000 -22.7493 0.0000
# 2 35.4073 74.6895 21.9659 0.0000 6.2222 0.0000
# 3 68.5943 21.9659 119.1335 0.0000 -1.5951 0.0000
# 4 0.0000 0.0000 0.0000 29.7187 0.0000 -3.8248
# 5 -22.7493 6.2222 -1.5951 0.0000 39.4282 0.0000
# 6 0.0000 0.0000 0.0000 -3.8248 0.0000 29.6114
#
#
#
# Elastic Compliance Matrix: (Units=1/GPa)
#
#
# Indices 1 2 3 4 5 6 
#
# 1 0.020458 -0.007755 -0.010181 0.000000 0.012616 0.000000
# 2 -0.007755 0.017316 0.001177 0.000000 -0.007160 0.000000
# 3 -0.010181 0.001177 0.013965 0.000000 -0.005495 0.000000
# 4 0.000000 0.000000 0.000000 0.034218 0.000000 0.004420
# 5 0.012616 -0.007160 -0.005495 0.000000 0.033549 0.000000
# 6 0.000000 0.000000 0.000000 0.004420 0.000000 0.034342
#
#
# Mechanical properties :
#
#
# Convention : Reuss Voigt Hill
#
# Bulk Modulus (GPa) = 54.88222 61.80254 58.34238
# Shear Modulus (GPa) = 25.84779 31.63967 28.74373
#
# Velocity S-wave (km/s) = 3.49216 3.86365 3.68259
# Velocity P-wave (km/s) = 6.49261 7.00447 6.75339
#
# Compressibility (1/GPa) = 0.01822084
#
# Stress axis : x y z
#
# Youngs Moduli (GPa) = 48.87949 57.75117 71.60687
#
# Poissons Ratio (x) = 0.44789 0.72900
# Poissons Ratio (y) = 0.37908 -0.08427
# Poissons Ratio (z) = 0.49762 -0.06797
#
# Static dielectric constant tensor:
#      x y z
#    x 4.065720 0.000000 0.020060 
#    y 0.000000 3.813800 0.000000 
#    z 0.020060 0.000000 4.165900 
# 
# 
# High freq. dielectric constant tensor:
#      x y z
#    x 1.841350 0.000000 -0.010950 
#    y 0.000000 1.811730 0.000000 
#    z -0.010950 0.000000 1.845590 
# 
# From -- ./inp_files/88826.got.cif
#   From: 2010.06.25/outbox.cif.g09.slc.cpg/sg15_45_cif.got.tgz:88826.got - 2010.06.28 07:06:18.
