data_PCOD8145809
_publ_section_title
;
Structure prediction by ZEFSAII (Michael W. Deem and Ramdas Pophale) SiO2 
 PCOD8145809
Probable space group: C 2/C
;
_chemical_formula_sum "Si O2"
_cell_formula_units_Z 52
_cell_length_a 19.876569
_cell_length_b 22.617193
_cell_length_c 8.949086
_cell_angle_alpha 90.000000
_cell_angle_beta 36.594899
_cell_angle_gamma 90.000000
_cell_volume 2398.373574
_symmetry_space_group_name_H-M "C 2/C"
_symmetry_group_IT_number 15
_symmetry_cell_setting 'monoclinic'
loop_
_space_group_symop_operation_xyz
x,y,z
-x,y,1/2-z
-x,-y,-z
x,-y,1/2+z
1/2+x,1/2+y,z
1/2-x,1/2+y,1/2-z
1/2-x,1/2-y,-z
1/2+x,1/2-y,1/2+z
loop_
_atom_site_type_symbol
_atom_site_label
_atom_site_fract_x
_atom_site_fract_y
_atom_site_fract_z
Si Si1 0.320841 0.801882 0.798490
Si Si2 0.000000 0.835783 0.250000
Si Si3 0.542375 0.841191 0.522724
Si Si4 0.327930 0.414073 0.409880
Si Si5 0.398392 0.044360 0.706179
Si Si6 0.799689 0.241123 0.248225
Si Si7 0.754604 0.005773 0.776241
O O1 0.449400 0.795307 0.623631
O O2 0.278314 0.868954 0.906613
O O3 0.308245 0.784665 0.646890
O O4 0.250000 0.750000 0.000000
O O5 0.940524 0.875592 0.227993
O O6 0.907528 0.800366 0.513526
O O7 0.500000 0.873087 0.750000
O O8 0.557595 0.888791 0.364506
O O9 0.655836 0.806821 0.369889
O O10 0.326423 0.457554 0.556559
O O11 0.329148 0.452935 0.254470
O O12 0.309808 0.045861 0.728269
O O13 0.500000 0.000000 0.500000
O O14 0.338937 0.030214 0.966293
O O15 0.750000 0.250000 0.500000
#
# Coordination Sequence:
#
# PCOD8145809 Si02
#       7
#     8   4   8   8   8   8   8
#     4  11  22  41  67  94 134 177 222 279 342 405
#     4  10  22  46  70  94 136 176 224 280 342 394
#     4  12  21  38  66  91 125 174 211 264 344 395
#     4  10  22  41  67  92 133 175 224 277 333 396
#     4  11  22  36  60  92 132 165 217 269 331 399
#     4  11  25  44  65  99 131 169 223 280 330 406
#     4  10  22  40  59  96 131 172 220 277 326 396
#
# _framework density 21.681360000000002
#
# number of rings (size 3 to 8) (size 9 to 14) (size 15 to 20)
#    0.000    1.231    2.308    5.077    4.308    1.231 
#    0.000    0.000    0.000    3.692    0.000    0.000 
#    0.000    0.000    0.000    0.000    0.000    0.000 
#
# Total GULP energy -322093.997754 kJ/mol
# GULP energy per Si atom -12388.230683 kJ/mol
# Density = 2.163201 g / cm^3
# Si number density = 21.681360 Si / 1000 Ang^3
#
#
#
# Elastic Constant Matrix: (Units=GPa)
#
#
# Indices 1 2 3 4 5 6 
#
# 1 72.7728 14.4358 22.0468 0.0000 5.1140 0.0000
# 2 14.4358 107.8466 21.0118 0.0000 4.6501 0.0000
# 3 22.0468 21.0118 84.4553 0.0000 14.8246 0.0000
# 4 0.0000 0.0000 0.0000 28.3345 0.0000 4.4319
# 5 5.1140 4.6501 14.8246 0.0000 32.9824 0.0000
# 6 0.0000 0.0000 0.0000 4.4319 0.0000 43.2942
#
#
#
# Elastic Compliance Matrix: (Units=1/GPa)
#
#
# Indices 1 2 3 4 5 6 
#
# 1 0.015107 -0.001312 -0.003516 0.000000 -0.000577 0.000000
# 2 -0.001312 0.009862 -0.002066 0.000000 -0.000258 0.000000
# 3 -0.003516 -0.002066 0.014250 0.000000 -0.005568 0.000000
# 4 0.000000 0.000000 0.000000 0.035867 0.000000 -0.003672
# 5 -0.000577 -0.000258 -0.005568 0.000000 0.032948 0.000000
# 6 0.000000 0.000000 0.000000 -0.003672 0.000000 0.023474
#
#
# Mechanical properties :
#
#
# Convention : Reuss Voigt Hill
#
# Bulk Modulus (GPa) = 39.32175 42.22927 40.77551
# Shear Modulus (GPa) = 32.51565 34.76091 33.63828
#
# Velocity S-wave (km/s) = 3.87680 4.00842 3.94316
# Velocity P-wave (km/s) = 6.18183 6.39865 6.29118
#
# Compressibility (1/GPa) = 0.02543122
#
# Stress axis : x y z
#
# Youngs Moduli (GPa) = 66.19251 101.40277 70.17670
#
# Poissons Ratio (x) = 0.13307 0.24674
# Poissons Ratio (y) = 0.08687 0.14495
# Poissons Ratio (z) = 0.23273 0.20945
#
# Static dielectric constant tensor:
#      x y z
#    x 0.000000 0.000000 0.000000 
#    y 0.000000 0.000000 0.000000 
#    z 0.000000 0.000000 0.000000 
# 
# 
# High freq. dielectric constant tensor:
#      x y z
#    x 1.862930 0.000000 0.006760 
#    y 0.000000 1.864060 0.000000 
#    z 0.006760 0.000000 1.827450 
# 
# From -- ./inp_files/58596.got.cif
#   From: 2010.06.25/outbox.cif.g09.slc.cpg/sg15_30_cif.got.tgz:58596.got - 2010.06.28 07:06:18.
