data_PCOD8145069
_publ_section_title
;
Structure prediction by ZEFSAII (Michael W. Deem and Ramdas Pophale) SiO2 
 PCOD8145069
Probable space group: C 2/C
;
_chemical_formula_sum "Si O2"
_cell_formula_units_Z 48
_cell_length_a 21.643632
_cell_length_b 18.782024
_cell_length_c 8.701418
_cell_angle_alpha 90.000000
_cell_angle_beta 38.672841
_cell_angle_gamma 90.000000
_cell_volume 2210.314545
_symmetry_space_group_name_H-M "C 2/C"
_symmetry_group_IT_number 15
_symmetry_cell_setting 'monoclinic'
loop_
_space_group_symop_operation_xyz
x,y,z
-x,y,1/2-z
-x,-y,-z
x,-y,1/2+z
1/2+x,1/2+y,z
1/2-x,1/2+y,1/2-z
1/2-x,1/2-y,-z
1/2+x,1/2-y,1/2+z
loop_
_atom_site_type_symbol
_atom_site_label
_atom_site_fract_x
_atom_site_fract_y
_atom_site_fract_z
Si Si1 0.408226 0.281744 0.828251
Si Si2 0.914056 0.687765 0.532979
Si Si3 0.336808 0.478421 0.227025
Si Si4 0.243313 0.906368 0.398567
Si Si5 0.598399 0.403280 0.119660
Si Si6 0.258133 0.277563 0.655731
O O1 0.500000 0.311471 0.750000
O O2 0.451680 0.238600 0.597607
O O3 0.340249 0.346679 0.898968
O O4 0.346678 0.226349 0.053712
O O5 0.855545 0.619302 0.713528
O O6 0.830648 0.724942 0.597564
O O7 0.000000 0.664460 0.250000
O O8 0.267789 0.426918 0.259447
O O9 0.268856 0.524471 0.472456
O O10 0.410836 0.429324 0.185497
O O11 0.400275 0.528274 0.993135
O O12 0.500000 0.360511 0.250000
O O13 0.698240 0.357123 0.914505
O O14 0.250000 0.250000 0.500000
#
# Coordination Sequence:
#
# PCOD8145069 Si02
#       6
#     8   8   8   8   8   8
#     4  11  23  39  61  90 122 155 194 245 301 355
#     4  11  22  39  62  88 118 156 199 248 300 350
#     4  10  22  37  57  82 117 159 195 234 287 349
#     4  10  22  41  60  85 120 154 194 244 293 348
#     4  11  21  35  56  85 118 153 192 236 288 351
#     4  11  22  37  59  88 119 155 196 245 299 353
#
# _framework density 21.716366000000001
#
# number of rings (size 3 to 8) (size 9 to 14) (size 15 to 20)
#    0.000    1.333    0.000    8.000    0.000    6.667 
#    0.000    0.833    0.000    4.000    0.000    0.000 
#    0.000    0.000    0.000    0.000    0.000    0.000 
#
# Total GULP energy -297559.395419 kJ/mol
# GULP energy per Si atom -12398.308142 kJ/mol
# Density = 2.166694 g / cm^3
# Si number density = 21.716366 Si / 1000 Ang^3
#
#
#
# Elastic Constant Matrix: (Units=GPa)
#
#
# Indices 1 2 3 4 5 6 
#
# 1 71.3085 17.0526 20.8793 0.0000 10.4276 0.0000
# 2 17.0526 64.4020 13.4798 0.0000 -0.0873 0.0000
# 3 20.8793 13.4798 92.3273 0.0000 -0.8687 0.0000
# 4 0.0000 0.0000 0.0000 23.7427 0.0000 10.3006
# 5 10.4276 -0.0873 -0.8687 0.0000 37.2299 0.0000
# 6 0.0000 0.0000 0.0000 10.3006 0.0000 34.3432
#
#
#
# Elastic Compliance Matrix: (Units=1/GPa)
#
#
# Indices 1 2 3 4 5 6 
#
# 1 0.016551 -0.003710 -0.003246 0.000000 -0.004720 0.000000
# 2 -0.003710 0.016848 -0.001611 0.000000 0.001041 0.000000
# 3 -0.003246 -0.001611 0.011811 0.000000 0.001181 0.000000
# 4 0.000000 0.000000 0.000000 0.048419 0.000000 -0.014522
# 5 -0.004720 0.001041 0.001181 0.000000 0.028212 0.000000
# 6 0.000000 0.000000 0.000000 -0.014522 0.000000 0.033474
#
#
# Mechanical properties :
#
#
# Convention : Reuss Voigt Hill
#
# Bulk Modulus (GPa) = 35.61510 36.76236 36.18873
# Shear Modulus (GPa) = 27.50158 30.83822 29.16990
#
# Velocity S-wave (km/s) = 3.56251 3.77244 3.66898
# Velocity P-wave (km/s) = 5.77561 5.99501 5.88634
#
# Compressibility (1/GPa) = 0.02807798
#
# Stress axis : x y z
#
# Youngs Moduli (GPa) = 60.41818 59.35304 84.66396
#
# Poissons Ratio (x) = 0.22017 0.27480
# Poissons Ratio (y) = 0.22412 0.13641
# Poissons Ratio (z) = 0.19611 0.09563
#
# Static dielectric constant tensor:
#      x y z
#    x 4.279400 0.000000 -0.145390 
#    y 0.000000 4.419500 0.000000 
#    z -0.145390 0.000000 3.945130 
# 
# 
# High freq. dielectric constant tensor:
#      x y z
#    x 1.861930 0.000000 0.022970 
#    y 0.000000 1.843250 0.000000 
#    z 0.022970 0.000000 1.845560 
# 
# From -- ./inp_files/57698.got.cif
#   From: 2010.06.25/outbox.cif.g09.slc.cpg/sg15_29_cif.got.tgz:57698.got - 2010.06.28 07:06:18.
