data_PCOD8145235
_publ_section_title
;
Structure prediction by ZEFSAII (Michael W. Deem and Ramdas Pophale) SiO2 
 PCOD8145235
Probable space group: C 2/C
;
_chemical_formula_sum "Si O2"
_cell_formula_units_Z 24
_cell_length_a 17.362567
_cell_length_b 8.797495
_cell_length_c 5.617859
_cell_angle_alpha 90.000000
_cell_angle_beta 110.318984
_cell_angle_gamma 90.000000
_cell_volume 804.714736
_symmetry_space_group_name_H-M "C 2/C"
_symmetry_group_IT_number 15
_symmetry_cell_setting 'monoclinic'
loop_
_space_group_symop_operation_xyz
x,y,z
-x,y,1/2-z
-x,-y,-z
x,-y,1/2+z
1/2+x,1/2+y,z
1/2-x,1/2+y,1/2-z
1/2-x,1/2-y,-z
1/2+x,1/2-y,1/2+z
loop_
_atom_site_type_symbol
_atom_site_label
_atom_site_fract_x
_atom_site_fract_y
_atom_site_fract_z
Si Si1 0.908526 0.942704 0.945204
Si Si2 0.235427 0.572403 0.986348
Si Si3 0.937739 0.371017 0.349775
O O1 0.904926 0.759916 0.996431
O O2 0.866746 0.973724 0.634131
O O3 0.000000 0.000000 0.000000
O O4 0.269760 0.491533 0.778863
O O5 0.136258 0.546028 0.874803
O O6 0.250000 0.750000 0.000000
O O7 0.000000 0.272201 0.250000
O O8 0.000000 0.500000 0.500000
#
# Coordination Sequence:
#
# PCOD8145235 Si02
#       3
#     8   8   8
#     4  10  22  38  59  97 145 184 227 296 374 437
#     4  12  29  53  80 113 158 214 262 321 396 480
#     4  12  25  44  80 114 154 195 262 324 387 451
#
# _framework density 29.824234000000001
#
# number of rings (size 3 to 8) (size 9 to 14) (size 15 to 20)
#    0.000    0.667    6.667    1.000    4.667    5.333 
#    0.000    0.000    0.000    0.000    0.000    0.000 
#    0.000    0.000    0.000    0.000    0.000    0.000 
#
# Total GULP energy -148740.189364 kJ/mol
# GULP energy per Si atom -12395.015780 kJ/mol
# Density = 2.975635 g / cm^3
# Si number density = 29.824234 Si / 1000 Ang^3
#
#
#
# Elastic Constant Matrix: (Units=GPa)
#
#
# Indices 1 2 3 4 5 6 
#
# 1 187.5130 43.2923 125.0386 0.0000 -3.9946 0.0000
# 2 43.2923 252.0793 107.2014 0.0000 -1.4414 0.0000
# 3 125.0386 107.2014 262.5004 0.0000 23.9255 0.0000
# 4 0.0000 0.0000 0.0000 52.0652 0.0000 0.1154
# 5 -3.9946 -1.4414 23.9255 0.0000 66.7258 0.0000
# 6 0.0000 0.0000 0.0000 0.1154 0.0000 37.5572
#
#
#
# Elastic Compliance Matrix: (Units=1/GPa)
#
#
# Indices 1 2 3 4 5 6 
#
# 1 0.008081 0.000409 -0.004198 0.000000 0.001998 0.000000
# 2 0.000409 0.004867 -0.002268 0.000000 0.000943 0.000000
# 3 -0.004198 -0.002268 0.006991 0.000000 -0.002807 0.000000
# 4 0.000000 0.000000 0.000000 0.019207 0.000000 -0.000059
# 5 0.001998 0.000943 -0.002807 0.000000 0.016133 0.000000
# 6 0.000000 0.000000 0.000000 -0.000059 0.000000 0.026626
#
#
# Mechanical properties :
#
#
# Convention : Reuss Voigt Hill
#
# Bulk Modulus (GPa) = 127.81407 139.23971 133.52689
# Shear Modulus (GPa) = 51.74480 59.70701 55.72591
#
# Velocity S-wave (km/s) = 4.16984 4.47918 4.32728
# Velocity P-wave (km/s) = 8.13217 8.57548 8.35677
#
# Compressibility (1/GPa) = 0.00782386
#
# Stress axis : x y z
#
# Youngs Moduli (GPa) = 123.75366 205.47419 143.03106
#
# Poissons Ratio (x) = -0.08404 0.60047
# Poissons Ratio (y) = -0.05062 0.32444
# Poissons Ratio (z) = 0.51954 0.46608
#
# Static dielectric constant tensor:
#      x y z
#    x 4.928590 0.000000 -8.288850 
#    y 0.000000 5.126640 0.000000 
#    z -8.288850 0.000000 9.057040 
# 
# 
# High freq. dielectric constant tensor:
#      x y z
#    x 2.320200 0.000000 0.026740 
#    y 0.000000 2.208750 0.000000 
#    z 0.026740 0.000000 2.255140 
# 
# From -- ./inp_files/14748.got.cif
#   From: 2010.06.25/outbox.cif.g09.slc.cpg/sg15_8_cif.got.tgz:14748.got - 2010.06.28 07:06:18.
