data_PCOD8145376
_publ_section_title
;
Structure prediction by ZEFSAII (Michael W. Deem and Ramdas Pophale) SiO2 
 PCOD8145376
Probable space group: C 2/C
;
_chemical_formula_sum "Si O2"
_cell_formula_units_Z 36
_cell_length_a 16.730898
_cell_length_b 21.312598
_cell_length_c 5.057329
_cell_angle_alpha 90.000000
_cell_angle_beta 112.146906
_cell_angle_gamma 90.000000
_cell_volume 1670.287212
_symmetry_space_group_name_H-M "C 2/C"
_symmetry_group_IT_number 15
_symmetry_cell_setting 'monoclinic'
loop_
_space_group_symop_operation_xyz
x,y,z
-x,y,1/2-z
-x,-y,-z
x,-y,1/2+z
1/2+x,1/2+y,z
1/2-x,1/2+y,1/2-z
1/2-x,1/2-y,-z
1/2+x,1/2-y,1/2+z
loop_
_atom_site_type_symbol
_atom_site_label
_atom_site_fract_x
_atom_site_fract_y
_atom_site_fract_z
Si Si1 0.923369 0.642082 0.846108
Si Si2 0.500000 0.956015 0.750000
Si Si3 0.258482 0.323649 0.559226
Si Si4 0.500000 0.251972 0.250000
Si Si5 0.500000 0.544245 0.750000
Si Si6 0.634534 0.351155 0.300878
O O1 0.834398 0.643252 0.576857
O O2 0.000000 0.618292 0.750000
O O3 0.920034 0.592509 0.089363
O O4 0.945031 0.711619 0.974964
O O5 0.500000 0.000000 0.500000
O O6 0.250000 0.250000 0.500000
O O7 0.320935 0.358394 0.428318
O O8 0.292363 0.334382 0.895818
O O9 0.566879 0.294918 0.174221
O O10 0.500000 0.500000 0.500000
O O11 0.414034 0.586332 0.664136
#
# Coordination Sequence:
#
# PCOD8145376 Si02
#       6
#     8   4   8   4   4   8
#     4  11  24  40  69  95 132 175 224 266 337 400
#     4  11  24  45  64  85 120 171 224 264 306 377
#     4  12  24  41  66 104 145 166 215 279 351 408
#     4  10  22  38  64  98 132 176 220 264 342 416
#     4  11  24  49  76  95 136 185 238 284 330 405
#     4  11  25  42  67 102 136 178 221 279 346 404
#
# _framework density 21.553179
#
# number of rings (size 3 to 8) (size 9 to 14) (size 15 to 20)
#    0.000    0.889    3.333    3.333    6.222    1.778 
#    0.000    6.667    0.000    0.000    0.000    0.000 
#    0.000    0.000    0.000    0.000    0.000    0.000 
#
# Total GULP energy -223128.532394 kJ/mol
# GULP energy per Si atom -12396.029577 kJ/mol
# Density = 2.150412 g / cm^3
# Si number density = 21.553179 Si / 1000 Ang^3
#
#
#
# Elastic Constant Matrix: (Units=GPa)
#
#
# Indices 1 2 3 4 5 6 
#
# 1 108.6573 28.7126 21.7263 0.0000 4.6832 0.0000
# 2 28.7126 126.3169 39.1434 0.0000 5.7057 0.0000
# 3 21.7263 39.1434 97.9052 0.0000 6.1305 0.0000
# 4 0.0000 0.0000 0.0000 41.7880 0.0000 -6.0471
# 5 4.6832 5.7057 6.1305 0.0000 43.7086 0.0000
# 6 0.0000 0.0000 0.0000 -6.0471 0.0000 22.5890
#
#
#
# Elastic Compliance Matrix: (Units=1/GPa)
#
#
# Indices 1 2 3 4 5 6 
#
# 1 0.009996 -0.001790 -0.001463 0.000000 -0.000632 0.000000
# 2 -0.001790 0.009377 -0.003316 0.000000 -0.000567 0.000000
# 3 -0.001463 -0.003316 0.011932 0.000000 -0.001084 0.000000
# 4 0.000000 0.000000 0.000000 0.024895 0.000000 0.006664
# 5 -0.000632 -0.000567 -0.001084 0.000000 0.023173 0.000000
# 6 0.000000 0.000000 0.000000 0.006664 0.000000 0.046053
#
#
# Mechanical properties :
#
#
# Convention : Reuss Voigt Hill
#
# Bulk Modulus (GPa) = 55.04629 56.89379 55.97004
# Shear Modulus (GPa) = 34.57338 37.83692 36.20515
#
# Velocity S-wave (km/s) = 4.00946 4.19443 4.10299
# Velocity P-wave (km/s) = 6.85781 7.06484 6.96209
#
# Compressibility (1/GPa) = 0.01816653
#
# Stress axis : x y z
#
# Youngs Moduli (GPa) = 100.03914 106.64659 83.80626
#
# Poissons Ratio (x) = 0.19093 0.12260
# Poissons Ratio (y) = 0.17910 0.27791
# Poissons Ratio (z) = 0.14635 0.35365
#
# Static dielectric constant tensor:
#      x y z
#    x 3.859420 0.000000 0.127430 
#    y 0.000000 4.653140 0.000000 
#    z 0.127430 0.000000 4.159900 
# 
# 
# High freq. dielectric constant tensor:
#      x y z
#    x 1.831540 0.000000 -0.000360 
#    y 0.000000 1.850690 0.000000 
#    z -0.000360 0.000000 1.865480 
# 
# From -- ./inp_files/6924.got.cif
#   From: 2010.06.25/outbox.cif.g09.slc.cpg/sg15_4_cif.got.tgz:6924.got - 2010.06.28 07:06:18.
