data_PCOD8145193
_publ_section_title
;
Structure prediction by ZEFSAII (Michael W. Deem and Ramdas Pophale) SiO2 
 PCOD8145193
Probable space group: C 2/C
;
_chemical_formula_sum "Si O2"
_cell_formula_units_Z 48
_cell_length_a 13.518881
_cell_length_b 23.348772
_cell_length_c 8.817454
_cell_angle_alpha 90.000000
_cell_angle_beta 67.875833
_cell_angle_gamma 90.000000
_cell_volume 2578.293825
_symmetry_space_group_name_H-M "C 2/C"
_symmetry_group_IT_number 15
_symmetry_cell_setting 'monoclinic'
loop_
_space_group_symop_operation_xyz
x,y,z
-x,y,1/2-z
-x,-y,-z
x,-y,1/2+z
1/2+x,1/2+y,z
1/2-x,1/2+y,1/2-z
1/2-x,1/2-y,-z
1/2+x,1/2-y,1/2+z
loop_
_atom_site_type_symbol
_atom_site_label
_atom_site_fract_x
_atom_site_fract_y
_atom_site_fract_z
Si Si1 0.924210 0.734663 0.161146
Si Si2 0.220375 0.830022 0.775583
Si Si3 0.780010 0.169795 0.586982
Si Si4 0.421168 0.770424 0.168827
Si Si5 0.624883 0.558735 0.843178
Si Si6 0.877853 0.061653 0.010032
O O1 0.837319 0.688390 0.268807
O O2 0.866855 0.788326 0.112479
O O3 0.000000 0.758804 0.250000
O O4 0.002884 0.700663 0.001048
O O5 0.218167 0.825459 0.594698
O O6 0.135942 0.783064 0.881586
O O7 0.190393 0.890723 0.862813
O O8 0.662192 0.184512 0.714971
O O9 0.800885 0.104708 0.619018
O O10 0.500000 0.745436 0.250000
O O11 0.503189 0.573727 0.956154
O O12 0.650114 0.559482 0.650544
O O13 0.655657 0.497285 0.891843
#
# Coordination Sequence:
#
# PCOD8145193 Si02
#       6
#     8   8   8   8   8   8
#     4  11  24  36  56  87 120 152 191 234 282 334
#     4  11  22  37  59  86 114 156 191 232 282 342
#     4  11  22  36  60  85 116 154 193 229 286 338
#     4  11  20  38  57  83 119 156 189 227 281 343
#     4  10  22  38  58  86 112 151 185 238 288 338
#     4  10  22  38  59  84 117 145 191 235 289 336
#
# _framework density 18.616962000000001
#
# number of rings (size 3 to 8) (size 9 to 14) (size 15 to 20)
#    0.000    1.333    3.333    3.000    7.000    2.667 
#    0.000    0.000    0.000    2.000    0.000    0.000 
#    0.000    0.000    0.000    0.000    0.000    0.000 
#
# Total GULP energy -297547.877234 kJ/mol
# GULP energy per Si atom -12397.828218 kJ/mol
# Density = 1.857459 g / cm^3
# Si number density = 18.616962 Si / 1000 Ang^3
#
#
#
# Elastic Constant Matrix: (Units=GPa)
#
#
# Indices 1 2 3 4 5 6 
#
# 1 105.7974 44.0940 39.8747 0.0000 -6.8760 0.0000
# 2 44.0940 113.6325 28.7087 0.0000 -16.4396 0.0000
# 3 39.8747 28.7087 71.1624 0.0000 -15.6615 0.0000
# 4 0.0000 0.0000 0.0000 14.1321 0.0000 -34.1184
# 5 -6.8760 -16.4396 -15.6615 0.0000 31.2338 0.0000
# 6 0.0000 0.0000 0.0000 -34.1184 0.0000 -40.7353
#
#
#
# Elastic Compliance Matrix: (Units=1/GPa)
#
#
# Indices 1 2 3 4 5 6 
#
# 1 0.013342 -0.003893 -0.006418 0.000000 -0.002330 0.000000
# 2 -0.003893 0.011302 -0.001414 0.000000 0.004383 0.000000
# 3 -0.006418 -0.001414 0.019945 0.000000 0.007844 0.000000
# 4 0.000000 0.000000 0.000000 0.023415 0.000000 -0.019611
# 5 -0.002330 0.004383 0.007844 0.000000 0.037744 0.000000
# 6 0.000000 0.000000 0.000000 -0.019611 0.000000 -0.008123
#
#
# Mechanical properties :
#
#
# Convention : Reuss Voigt Hill
#
# Bulk Modulus (GPa) = 47.30382 57.32742 52.31562
# Shear Modulus (GPa) = 39.02550 12.78711 25.90630
#
# Velocity S-wave (km/s) = 4.58343 2.62363 3.73439
# Velocity P-wave (km/s) = 7.31263 6.32755 6.83785
#
# Compressibility (1/GPa) = 0.02113994
#
# Stress axis : x y z
#
# Youngs Moduli (GPa) = 74.95079 88.47899 50.13673
#
# Poissons Ratio (x) = 0.34443 0.32180
# Poissons Ratio (y) = 0.29177 0.07088
# Poissons Ratio (z) = 0.48106 0.12508
#
# Static dielectric constant tensor:
#      x y z
#    x 3.517140 0.000000 -0.044700 
#    y 0.000000 3.309850 0.000000 
#    z -0.044700 0.000000 3.650420 
# 
# 
# High freq. dielectric constant tensor:
#      x y z
#    x 1.719760 0.000000 0.000670 
#    y 0.000000 1.700850 0.000000 
#    z 0.000670 0.000000 1.741660 
# 
# From -- ./inp_files/32549.got.cif
#   From: 2010.06.25/outbox.cif.g09.slc.cpg/sg15_17_cif.got.tgz:32549.got - 2010.06.28 07:06:18.
