data_PCOD8145680
_publ_section_title
;
Structure prediction by ZEFSAII (Michael W. Deem and Ramdas Pophale) SiO2 
 PCOD8145680
Probable space group: C 2/C
;
_chemical_formula_sum "Si O2"
_cell_formula_units_Z 56
_cell_length_a 16.069392
_cell_length_b 17.651467
_cell_length_c 19.174224
_cell_angle_alpha 90.000000
_cell_angle_beta 29.732346
_cell_angle_gamma 90.000000
_cell_volume 2697.335945
_symmetry_space_group_name_H-M "C 2/C"
_symmetry_group_IT_number 15
_symmetry_cell_setting 'monoclinic'
loop_
_space_group_symop_operation_xyz
x,y,z
-x,y,1/2-z
-x,-y,-z
x,-y,1/2+z
1/2+x,1/2+y,z
1/2-x,1/2+y,1/2-z
1/2-x,1/2-y,-z
1/2+x,1/2-y,1/2+z
loop_
_atom_site_type_symbol
_atom_site_label
_atom_site_fract_x
_atom_site_fract_y
_atom_site_fract_z
Si Si1 0.647149 0.982523 0.089196
Si Si2 0.825781 0.168573 0.201214
Si Si3 0.279748 0.931325 0.189450
Si Si4 0.017585 0.035659 0.318823
Si Si5 0.534058 0.069277 0.390150
Si Si6 0.829895 0.681573 0.901614
Si Si7 0.157297 0.811639 0.388173
O O1 0.500000 0.998883 0.250000
O O2 0.613883 0.045797 0.054751
O O3 0.638157 0.892829 0.072760
O O4 0.836723 0.993023 0.979588
O O5 0.911326 0.107194 0.190142
O O6 0.665135 0.135621 0.274929
O O7 0.755588 0.234367 0.301869
O O8 0.957024 0.198793 0.047196
O O9 0.191817 0.866695 0.298525
O O10 0.142747 0.965447 0.236231
O O11 0.349452 0.995389 0.189570
O O12 0.440790 0.902559 0.028374
O O13 0.000000 0.057736 0.250000
O O14 0.721845 0.653653 0.914169
O O15 0.000000 0.716775 0.750000
O O16 0.750000 0.750000 0.000000
#
# Coordination Sequence:
#
# PCOD8145680 Si02
#       7
#     8   8   8   8   8   8   8
#     4  11  23  39  62  94 129 166 218 264 322 378
#     4  11  26  40  65  90 131 169 216 264 321 388
#     4  10  22  39  65  87 128 169 220 263 321 382
#     4  11  23  42  63  97 126 172 212 269 322 386
#     4  10  22  41  61  91 126 173 215 269 318 384
#     4  11  24  37  58  91 132 172 205 260 317 390
#     4  12  24  42  62  95 128 174 214 264 324 393
#
# _framework density 20.761226000000001
#
# number of rings (size 3 to 8) (size 9 to 14) (size 15 to 20)
#    0.000    1.143    2.857    3.429    4.000    1.143 
#    0.000    0.000    0.000    1.714    0.000    0.000 
#    0.000    0.000    0.000    0.000    0.000    0.000 
#
# Total GULP energy -346903.783896 kJ/mol
# GULP energy per Si atom -12389.420853 kJ/mol
# Density = 2.071397 g / cm^3
# Si number density = 20.761226 Si / 1000 Ang^3
#
#
#
# Elastic Constant Matrix: (Units=GPa)
#
#
# Indices 1 2 3 4 5 6 
#
# 1 68.9577 45.5655 28.3361 -0.0031 -7.4132 0.0019
# 2 45.5655 68.0338 50.3140 0.0030 -2.2472 0.0015
# 3 28.3361 50.3140 153.0672 0.0115 -17.1050 -0.0040
# 4 -0.0031 0.0030 0.0115 42.7340 0.0050 -3.1322
# 5 -7.4132 -2.2472 -17.1050 0.0050 32.2708 -0.0043
# 6 0.0019 0.0015 -0.0040 -3.1322 -0.0043 18.6099
#
#
#
# Elastic Compliance Matrix: (Units=1/GPa)
#
#
# Indices 1 2 3 4 5 6 
#
# 1 0.027221 -0.019555 0.002057 0.000002 0.005982 0.000001
# 2 -0.019555 0.033609 -0.008151 -0.000001 -0.006472 -0.000004
# 3 0.002057 -0.008151 0.009376 -0.000002 0.004875 0.000003
# 4 0.000002 -0.000001 -0.000002 0.023693 -0.000004 0.003988
# 5 0.005982 -0.006472 0.004875 -0.000004 0.034495 0.000008
# 6 0.000001 -0.000004 0.000003 0.003988 0.000008 0.054406
#
#
# Mechanical properties :
#
#
# Convention : Reuss Voigt Hill
#
# Bulk Modulus (GPa) = 52.88381 59.83220 56.35801
# Shear Modulus (GPa) = 20.79866 29.77915 25.28891
#
# Velocity S-wave (km/s) = 3.16856 3.79141 3.49389
# Velocity P-wave (km/s) = 6.23811 6.93168 6.59402
#
# Compressibility (1/GPa) = 0.01890938
#
# Stress axis : x y z
#
# Youngs Moduli (GPa) = 36.73690 29.75359 106.65240
#
# Poissons Ratio (x) = 0.58182 -0.21939
# Poissons Ratio (y) = 0.71838 0.86931
# Poissons Ratio (z) = -0.07557 0.24252
#
# Static dielectric constant tensor:
#      x y z
#    x 3.639930 -0.000030 -0.320890 
#    y -0.000030 3.594500 0.000050 
#    z -0.320890 0.000050 4.247190 
# 
# 
# High freq. dielectric constant tensor:
#      x y z
#    x 1.782170 0.000000 -0.016210 
#    y 0.000000 1.788460 0.000010 
#    z -0.016210 0.000010 1.848130 
# 
# From -- ./inp_files/249229.got.cif
#   From: 2010.06.25/outbox.cif.g09.slc.cpg/sg15_125_cif.got.tgz:249229.got - 2010.06.28 07:06:18.
