data_PCOD8145221
_publ_section_title
;
Structure prediction by ZEFSAII (Michael W. Deem and Ramdas Pophale) SiO2 
 PCOD8145221
Probable space group: C 2/C
;
_chemical_formula_sum "Si O2"
_cell_formula_units_Z 56
_cell_length_a 22.335475
_cell_length_b 9.343622
_cell_length_c 13.933347
_cell_angle_alpha 90.000000
_cell_angle_beta 85.646249
_cell_angle_gamma 90.000000
_cell_volume 2899.418296
_symmetry_space_group_name_H-M "C 2/C"
_symmetry_group_IT_number 15
_symmetry_cell_setting 'monoclinic'
loop_
_space_group_symop_operation_xyz
x,y,z
-x,y,1/2-z
-x,-y,-z
x,-y,1/2+z
1/2+x,1/2+y,z
1/2-x,1/2+y,1/2-z
1/2-x,1/2-y,-z
1/2+x,1/2-y,1/2+z
loop_
_atom_site_type_symbol
_atom_site_label
_atom_site_fract_x
_atom_site_fract_y
_atom_site_fract_z
Si Si1 0.433942 0.382066 0.728086
Si Si2 0.942799 0.588883 0.036656
Si Si3 0.445938 0.416482 0.055607
Si Si4 0.367807 0.099524 0.682249
Si Si5 0.736882 0.901103 0.456490
Si Si6 0.162221 0.597994 0.598422
Si Si7 0.151312 0.916538 0.586936
O O1 0.500000 0.329026 0.750000
O O2 0.436895 0.521951 0.662297
O O3 0.401985 0.250876 0.678064
O O4 0.398138 0.432822 0.825094
O O5 0.962759 0.749490 0.059898
O O6 0.910923 0.521668 0.133554
O O7 0.900420 0.584699 0.949197
O O8 0.000000 0.500000 0.000000
O O9 0.500000 0.500000 0.000000
O O10 0.382785 0.437469 0.009289
O O11 0.309012 0.115469 0.624824
O O12 0.348306 0.049810 0.790676
O O13 0.750000 0.750000 0.500000
O O14 0.713236 0.001629 0.544864
O O15 0.798287 0.963714 0.406309
O O16 0.183802 0.762453 0.590519
#
# Coordination Sequence:
#
# PCOD8145221 Si02
#       7
#     8   8   8   8   8   8   8
#     4  11  22  40  63  92 124 161 208 249 314 377
#     4  10  22  38  59  89 123 163 204 248 307 368
#     4  11  21  38  60  88 122 157 200 252 303 358
#     4  10  23  40  62  88 124 166 202 254 309 368
#     4  11  23  40  61  93 123 155 211 263 299 358
#     4   9  22  41  59  86 118 166 204 243 312 371
#     4  10  22  40  64  84 121 165 200 245 308 374
#
# _framework density 19.314218
#
# number of rings (size 3 to 8) (size 9 to 14) (size 15 to 20)
#    0.000    1.714    1.429    2.143    4.000    5.714 
#    2.571    1.429    0.000    0.000    0.000    0.000 
#    0.000    0.000    0.000    0.000    0.000    0.000 
#
# Total GULP energy -347328.652807 kJ/mol
# GULP energy per Si atom -12404.594743 kJ/mol
# Density = 1.927026 g / cm^3
# Si number density = 19.314218 Si / 1000 Ang^3
#
#
#
# Elastic Constant Matrix: (Units=GPa)
#
#
# Indices 1 2 3 4 5 6 
#
# 1 115.5579 60.9343 39.0516 0.0000 -8.9981 0.0000
# 2 60.9343 126.8993 46.7668 0.0000 -7.8700 0.0000
# 3 39.0516 46.7668 115.1334 0.0000 -5.4522 0.0000
# 4 0.0000 0.0000 0.0000 33.6586 0.0000 -0.6097
# 5 -8.9981 -7.8700 -5.4522 0.0000 26.3588 0.0000
# 6 0.0000 0.0000 0.0000 -0.6097 0.0000 38.1456
#
#
#
# Elastic Compliance Matrix: (Units=1/GPa)
#
#
# Indices 1 2 3 4 5 6 
#
# 1 0.012107 -0.004939 -0.001994 0.000000 0.002246 0.000000
# 2 -0.004939 0.011389 -0.002898 0.000000 0.001115 0.000000
# 3 -0.001994 -0.002898 0.010569 0.000000 0.000640 0.000000
# 4 0.000000 0.000000 0.000000 0.029719 0.000000 0.000475
# 5 0.002246 0.001115 0.000640 0.000000 0.039170 0.000000
# 6 0.000000 0.000000 0.000000 0.000475 0.000000 0.026223
#
#
# Mechanical properties :
#
#
# Convention : Reuss Voigt Hill
#
# Bulk Modulus (GPa) = 69.43028 72.34401 70.88714
# Shear Modulus (GPa) = 32.54349 33.68847 33.11598
#
# Velocity S-wave (km/s) = 4.10927 4.18093 4.14525
# Velocity P-wave (km/s) = 7.65118 7.80029 7.72610
#
# Compressibility (1/GPa) = 0.01440294
#
# Stress axis : x y z
#
# Youngs Moduli (GPa) = 82.59756 87.80196 94.61310
#
# Poissons Ratio (x) = 0.43369 0.18864
# Poissons Ratio (y) = 0.40798 0.27420
# Poissons Ratio (z) = 0.16468 0.25446
#
# Static dielectric constant tensor:
#      x y z
#    x 3.498570 0.000000 -0.017080 
#    y 0.000000 3.819620 0.000000 
#    z -0.017080 0.000000 3.621140 
# 
# 
# High freq. dielectric constant tensor:
#      x y z
#    x 1.758750 0.000000 -0.001260 
#    y 0.000000 1.757250 0.000000 
#    z -0.001260 0.000000 1.759300 
# 
# From -- ./inp_files/166693.got.cif
#   From: 2010.06.25/outbox.cif.g09.slc.cpg/sg15_84_cif.got.tgz:166693.got - 2010.06.28 07:06:18.
