data_PCOD8145390
_publ_section_title
;
Structure prediction by ZEFSAII (Michael W. Deem and Ramdas Pophale) SiO2 
 PCOD8145390
Probable space group: C 2/C
;
_chemical_formula_sum "Si O2"
_cell_formula_units_Z 48
_cell_length_a 12.102086
_cell_length_b 19.707555
_cell_length_c 11.566623
_cell_angle_alpha 90.000000
_cell_angle_beta 127.757108
_cell_angle_gamma 90.000000
_cell_volume 2181.041116
_symmetry_space_group_name_H-M "C 2/C"
_symmetry_group_IT_number 15
_symmetry_cell_setting 'monoclinic'
loop_
_space_group_symop_operation_xyz
x,y,z
-x,y,1/2-z
-x,-y,-z
x,-y,1/2+z
1/2+x,1/2+y,z
1/2-x,1/2+y,1/2-z
1/2-x,1/2-y,-z
1/2+x,1/2-y,1/2+z
loop_
_atom_site_type_symbol
_atom_site_label
_atom_site_fract_x
_atom_site_fract_y
_atom_site_fract_z
Si Si1 0.035404 0.593251 0.475967
Si Si2 0.311285 0.968166 0.979845
Si Si3 0.815769 0.621038 0.703187
Si Si4 0.412195 0.756081 0.580329
Si Si5 0.500000 0.563271 0.250000
Si Si6 0.000000 0.737583 0.750000
Si Si7 0.972474 0.164989 0.040038
O O1 0.113155 0.539743 0.441331
O O2 0.129813 0.582502 0.650491
O O3 0.037993 0.668588 0.425480
O O4 0.878035 0.568533 0.408048
O O5 0.142565 0.979384 0.863628
O O6 0.351942 0.918725 0.110176
O O7 0.651584 0.632014 0.612483
O O8 0.885399 0.694726 0.744307
O O9 0.500000 0.735419 0.750000
O O10 0.250000 0.750000 0.500000
O O11 0.428861 0.701312 0.489037
O O12 0.544063 0.606529 0.164071
O O13 0.082059 0.781276 0.899163
#
# Coordination Sequence:
#
# PCOD8145390 Si02
#       7
#     8   8   8   8   4   4   8
#     4  11  23  41  67  90 130 171 215 262 320 396
#     4  10  22  41  66  96 122 167 218 275 323 378
#     4  11  19  39  62  95 123 161 211 272 320 375
#     4  12  27  44  64  96 139 179 214 257 326 414
#     4   9  22  42  70  96 126 155 224 286 324 367
#     4  11  18  34  68  94 124 151 214 274 318 361
#     4  10  22  38  65  94 124 163 212 268 328 371
#
# _framework density 22.007838
#
# number of rings (size 3 to 8) (size 9 to 14) (size 15 to 20)
#    0.000    1.333    3.333    1.500    2.333    4.000 
#    4.500    1.667    0.000    0.000    0.000    0.000 
#    0.000    0.000    0.000    0.000    0.000    0.000 
#
# Total GULP energy -297414.624836 kJ/mol
# GULP energy per Si atom -12392.276035 kJ/mol
# Density = 2.195775 g / cm^3
# Si number density = 22.007838 Si / 1000 Ang^3
#
#
#
# Elastic Constant Matrix: (Units=GPa)
#
#
# Indices 1 2 3 4 5 6 
#
# 1 109.5217 29.0138 28.2170 0.0000 7.1408 0.0000
# 2 29.0138 51.3130 -0.8574 0.0000 -2.2665 0.0000
# 3 28.2170 -0.8574 86.9048 0.0000 9.1476 0.0000
# 4 0.0000 0.0000 0.0000 -14.0257 0.0000 -21.1112
# 5 7.1408 -2.2665 9.1476 0.0000 28.4958 0.0000
# 6 0.0000 0.0000 0.0000 -21.1112 0.0000 9.0964
#
#
#
# Elastic Compliance Matrix: (Units=1/GPa)
#
#
# Indices 1 2 3 4 5 6 
#
# 1 0.012111 -0.007016 -0.003750 0.000000 -0.002389 0.000000
# 2 -0.007016 0.023622 0.002203 0.000000 0.002930 0.000000
# 3 -0.003750 0.002203 0.013070 0.000000 -0.003081 0.000000
# 4 0.000000 0.000000 0.000000 -0.015868 0.000000 -0.036826
# 5 -0.002389 0.002930 -0.003081 0.000000 0.036914 0.000000
# 6 0.000000 0.000000 0.000000 -0.036826 0.000000 0.024466
#
#
# Mechanical properties :
#
#
# Convention : Reuss Voigt Hill
#
# Bulk Modulus (GPa) = 31.56952 40.05404 35.81178
# Shear Modulus (GPa) = 40.98305 17.47103 29.22704
#
# Velocity S-wave (km/s) = 4.32001 2.82060 3.64817
# Velocity P-wave (km/s) = 6.26571 5.37095 5.83550
#
# Compressibility (1/GPa) = 0.03167613
#
# Stress axis : x y z
#
# Youngs Moduli (GPa) = 82.56790 42.33413 76.50825
#
# Poissons Ratio (x) = 0.29703 0.28692
# Poissons Ratio (y) = 0.57931 -0.16853
# Poissons Ratio (z) = 0.30964 -0.09325
#
# Static dielectric constant tensor:
#      x y z
#    x 3.817210 0.000000 -0.061150 
#    y 0.000000 3.922580 0.000000 
#    z -0.061150 0.000000 3.953070 
# 
# 
# High freq. dielectric constant tensor:
#      x y z
#    x 1.856950 0.000000 -0.000480 
#    y 0.000000 1.859950 0.000000 
#    z -0.000480 0.000000 1.868060 
# 
# From -- ./inp_files/89831.got.cif
#   From: 2010.06.25/outbox.cif.g09.slc.cpg/sg15_45_cif.got.tgz:89831.got - 2010.06.28 07:06:18.
