data_PCOD8145343
_publ_section_title
;
Structure prediction by ZEFSAII (Michael W. Deem and Ramdas Pophale) SiO2 
 PCOD8145343
Probable space group: C 2/C
;
_chemical_formula_sum "Si O2"
_cell_formula_units_Z 64
_cell_length_a 18.150484
_cell_length_b 17.815863
_cell_length_c 15.272514
_cell_angle_alpha 90.000000
_cell_angle_beta 37.810353
_cell_angle_gamma 90.000000
_cell_volume 3027.620073
_symmetry_space_group_name_H-M "C 2/C"
_symmetry_group_IT_number 15
_symmetry_cell_setting 'monoclinic'
loop_
_space_group_symop_operation_xyz
x,y,z
-x,y,1/2-z
-x,-y,-z
x,-y,1/2+z
1/2+x,1/2+y,z
1/2-x,1/2+y,1/2-z
1/2-x,1/2-y,-z
1/2+x,1/2-y,1/2+z
loop_
_atom_site_type_symbol
_atom_site_label
_atom_site_fract_x
_atom_site_fract_y
_atom_site_fract_z
Si Si1 0.995561 0.001978 0.608383
Si Si2 0.505565 0.657521 0.085364
Si Si3 0.724893 0.334974 0.818110
Si Si4 0.400085 0.942563 0.557467
Si Si5 0.753175 0.569450 0.622108
Si Si6 0.872971 0.880390 0.415899
Si Si7 0.251620 0.677958 0.724432
Si Si8 0.023899 0.681964 0.825805
O O1 0.983229 0.918391 0.661956
O O2 0.886375 0.053911 0.735741
O O3 0.000000 0.000000 0.500000
O O4 0.109175 0.041410 0.547620
O O5 0.397501 0.663903 0.120229
O O6 0.524460 0.732422 0.124611
O O7 0.626910 0.638781 0.919363
O O8 0.811646 0.407166 0.715590
O O9 0.790142 0.258377 0.727921
O O10 0.682311 0.324989 0.958689
O O11 0.453258 0.871709 0.457489
O O12 0.500000 0.000000 0.500000
O O13 0.325181 0.991376 0.557511
O O14 0.745042 0.609847 0.535606
O O15 0.806884 0.625454 0.645337
O O16 0.000000 0.852952 0.250000
O O17 0.163086 0.682489 0.723823
O O18 0.000000 0.653082 0.750000
#
# Coordination Sequence:
#
# PCOD8145343 Si02
#       8
#     8   8   8   8   8   8   8   8
#     4  11  18  35  65  94 127 164 206 267 333 390
#     4  11  21  40  67  95 126 172 217 267 343 398
#     4  11  23  43  67  93 134 178 218 268 339 401
#     4  12  24  45  68  91 135 185 221 266 337 408
#     4  11  22  38  63  96 124 167 220 271 325 387
#     4  10  22  38  64 104 132 162 220 284 328 390
#     4  11  23  42  69  92 129 179 222 271 337 405
#     4  11  27  44  62  95 131 175 225 278 331 402
#
# _framework density 21.138717
#
# number of rings (size 3 to 8) (size 9 to 14) (size 15 to 20)
#    0.000    1.000    6.250    0.750    0.000    4.500 
#    0.000    0.000    0.000    0.000    0.000    0.000 
#    0.000    0.000    0.000    0.000    0.000    0.000 
#
# Total GULP energy -396445.841476 kJ/mol
# GULP energy per Si atom -12388.932546 kJ/mol
# Density = 2.109060 g / cm^3
# Si number density = 21.138717 Si / 1000 Ang^3
#
#
#
# Elastic Constant Matrix: (Units=GPa)
#
#
# Indices 1 2 3 4 5 6 
#
# 1 95.4772 30.2516 30.0878 -0.0001 8.3158 0.0002
# 2 30.2516 86.7223 11.8418 -0.0001 0.0399 0.0001
# 3 30.0878 11.8418 80.1763 -0.0001 7.1715 0.0002
# 4 -0.0001 -0.0001 -0.0001 19.5075 0.0001 -7.3479
# 5 8.3158 0.0399 7.1715 0.0001 26.6508 -0.0001
# 6 0.0002 0.0001 0.0002 -7.3479 -0.0001 30.8167
#
#
#
# Elastic Compliance Matrix: (Units=1/GPa)
#
#
# Indices 1 2 3 4 5 6 
#
# 1 0.013335 -0.004086 -0.004128 0.000000 -0.003044 0.000000
# 2 -0.004086 0.013026 -0.000515 0.000000 0.001394 0.000000
# 3 -0.004128 -0.000515 0.014327 0.000000 -0.002566 0.000000
# 4 0.000000 0.000000 0.000000 0.056321 0.000000 0.013429
# 5 -0.003044 0.001394 -0.002566 0.000000 0.039161 0.000000
# 6 0.000000 0.000000 0.000000 0.013429 0.000000 0.035652
#
#
# Mechanical properties :
#
#
# Convention : Reuss Voigt Hill
#
# Bulk Modulus (GPa) = 43.05050 45.19313 44.12182
# Shear Modulus (GPa) = 25.37766 28.07463 26.72615
#
# Velocity S-wave (km/s) = 3.46863 3.64828 3.55959
# Velocity P-wave (km/s) = 6.03753 6.25878 6.14915
#
# Compressibility (1/GPa) = 0.02322854
#
# Stress axis : x y z
#
# Youngs Moduli (GPa) = 74.99337 76.76816 69.79644
#
# Poissons Ratio (x) = 0.31371 0.28814
# Poissons Ratio (y) = 0.30645 0.03595
# Poissons Ratio (z) = 0.30959 0.03955
#
# Static dielectric constant tensor:
#      x y z
#    x 8.953630 0.000000 2.496550 
#    y 0.000000 4.415370 0.000000 
#    z 2.496550 0.000000 4.937090 
# 
# 
# High freq. dielectric constant tensor:
#      x y z
#    x 1.826390 0.000000 -0.004690 
#    y 0.000000 1.838360 0.000000 
#    z -0.004690 0.000000 1.809890 
# 
# From -- ./inp_files/163265.got.cif
#   From: 2010.06.25/outbox.cif.g09.slc.cpg/sg15_82_cif.got.tgz:163265.got - 2010.06.28 07:06:18.
