data_PCOD8145030
_publ_section_title
;
Structure prediction by ZEFSAII (Michael W. Deem and Ramdas Pophale) SiO2 
 PCOD8145030
Probable space group: C 2/C
;
_chemical_formula_sum "Si O2"
_cell_formula_units_Z 36
_cell_length_a 5.388479
_cell_length_b 17.200755
_cell_length_c 21.460430
_cell_angle_alpha 90.000000
_cell_angle_beta 117.762351
_cell_angle_gamma 90.000000
_cell_volume 1760.111012
_symmetry_space_group_name_H-M "C 2/C"
_symmetry_group_IT_number 15
_symmetry_cell_setting 'monoclinic'
loop_
_space_group_symop_operation_xyz
x,y,z
-x,y,1/2-z
-x,-y,-z
x,-y,1/2+z
1/2+x,1/2+y,z
1/2-x,1/2+y,1/2-z
1/2-x,1/2-y,-z
1/2+x,1/2-y,1/2+z
loop_
_atom_site_type_symbol
_atom_site_label
_atom_site_fract_x
_atom_site_fract_y
_atom_site_fract_z
Si Si1 0.000000 0.986166 0.750000
Si Si2 0.760097 0.049108 0.505755
Si Si3 0.000000 0.702329 0.750000
Si Si4 0.809487 0.928130 0.346577
Si Si5 0.500000 0.801582 0.750000
Si Si6 0.033981 0.582770 0.358053
O O1 0.850443 0.043283 0.780737
O O2 0.799658 0.926916 0.688792
O O3 0.629665 0.109162 0.438902
O O4 0.902339 0.091577 0.582055
O O5 0.500000 0.000000 0.500000
O O6 0.000000 0.000000 0.500000
O O7 0.127552 0.650336 0.821044
O O8 0.250775 0.751857 0.749990
O O9 0.648916 0.995747 0.363584
O O10 0.356742 0.855901 0.680188
#
# Coordination Sequence:
#
# PCOD8145030 Si02
#       6
#     4   8   4   8   4   8
#     4  12  16  34  72  88 124 148 218 254 314 344
#     4  10  22  36  62  96 124 152 205 266 315 360
#     4  12  26  40  61  93 130 168 212 256 310 374
#     4  11  22  39  64  94 121 163 211 263 309 369
#     4  12  26  40  61  93 130 168 212 256 310 374
#     4  11  22  39  64  94 121 163 211 263 309 369
#
# _framework density 20.453254000000001
#
# number of rings (size 3 to 8) (size 9 to 14) (size 15 to 20)
#    0.000    0.889    6.667    1.333    0.000    0.000 
#    0.000    2.222    0.000    0.000    0.000    0.000 
#    0.000    0.000    0.000    0.000    0.000    0.000 
#
# Total GULP energy -223048.871258 kJ/mol
# GULP energy per Si atom -12391.603959 kJ/mol
# Density = 2.040670 g / cm^3
# Si number density = 20.453254 Si / 1000 Ang^3
#
#
#
# Elastic Constant Matrix: (Units=GPa)
#
#
# Indices 1 2 3 4 5 6 
#
# 1 107.0748 33.0447 24.8891 0.0000 12.3220 0.0000
# 2 33.0447 91.7403 48.2171 0.0000 7.3558 0.0000
# 3 24.8891 48.2171 189.9562 0.0000 16.7724 0.0000
# 4 0.0000 0.0000 0.0000 4.9933 0.0000 -0.6173
# 5 12.3220 7.3558 16.7724 0.0000 29.6504 0.0000
# 6 0.0000 0.0000 0.0000 -0.6173 0.0000 33.6401
#
#
#
# Elastic Compliance Matrix: (Units=1/GPa)
#
#
# Indices 1 2 3 4 5 6 
#
# 1 0.010883 -0.003521 -0.000221 0.000000 -0.003524 0.000000
# 2 -0.003521 0.013772 -0.003012 0.000000 -0.000249 0.000000
# 3 -0.000221 -0.003012 0.006298 0.000000 -0.002724 0.000000
# 4 0.000000 0.000000 0.000000 0.200725 0.000000 0.003683
# 5 -0.003524 -0.000249 -0.002724 0.000000 0.036793 0.000000
# 6 0.000000 0.000000 0.000000 0.003683 0.000000 0.029794
#
#
# Mechanical properties :
#
#
# Convention : Reuss Voigt Hill
#
# Bulk Modulus (GPa) = 57.32625 66.78589 62.05607
# Shear Modulus (GPa) = 15.74359 32.49812 24.12086
#
# Velocity S-wave (km/s) = 2.77742 3.99042 3.43784
# Velocity P-wave (km/s) = 6.19469 7.34541 6.79446
#
# Compressibility (1/GPa) = 0.01744401
#
# Stress axis : x y z
#
# Youngs Moduli (GPa) = 91.88739 72.61144 158.76906
#
# Poissons Ratio (x) = 0.25569 0.03508
# Poissons Ratio (y) = 0.32356 0.47827
# Poissons Ratio (z) = 0.02030 0.21873
#
# Static dielectric constant tensor:
#      x y z
#    x 3.770000 0.000000 0.072080 
#    y 0.000000 3.517350 0.000000 
#    z 0.072080 0.000000 4.909230 
# 
# 
# High freq. dielectric constant tensor:
#      x y z
#    x 1.806700 0.000000 0.008360 
#    y 0.000000 1.752090 0.000000 
#    z 0.008360 0.000000 1.826870 
# 
# From -- ./inp_files/184126.got.cif
#   From: 2010.06.25/outbox.cif.g09.slc.cpg/sg15_93_cif.got.tgz:184126.got - 2010.06.28 07:06:18.
