data_PCOD8145165
_publ_section_title
;
Structure prediction by ZEFSAII (Michael W. Deem and Ramdas Pophale) SiO2 
 PCOD8145165
Probable space group: C 2/C
;
_chemical_formula_sum "Si O2"
_cell_formula_units_Z 56
_cell_length_a 16.572052
_cell_length_b 8.862903
_cell_length_c 27.829954
_cell_angle_alpha 90.000000
_cell_angle_beta 37.601076
_cell_angle_gamma 90.000000
_cell_volume 2494.069411
_symmetry_space_group_name_H-M "C 2/C"
_symmetry_group_IT_number 15
_symmetry_cell_setting 'monoclinic'
loop_
_space_group_symop_operation_xyz
x,y,z
-x,y,1/2-z
-x,-y,-z
x,-y,1/2+z
1/2+x,1/2+y,z
1/2-x,1/2+y,1/2-z
1/2-x,1/2-y,-z
1/2+x,1/2-y,1/2+z
loop_
_atom_site_type_symbol
_atom_site_label
_atom_site_fract_x
_atom_site_fract_y
_atom_site_fract_z
Si Si1 0.083238 0.728727 0.354657
Si Si2 0.080654 0.151886 0.958844
Si Si3 0.218627 0.001237 0.026320
Si Si4 0.452121 0.771129 0.424318
Si Si5 0.162574 0.286114 0.598510
Si Si6 0.144637 0.484429 0.187407
Si Si7 0.306503 0.059647 0.727640
O O1 0.039127 0.764910 0.429606
O O2 0.160571 0.870452 0.295005
O O3 0.178447 0.581972 0.315104
O O4 0.963110 0.688226 0.376731
O O5 0.239656 0.123543 0.888036
O O6 0.034648 0.254821 0.024732
O O7 0.000000 0.000000 0.000000
O O8 0.098031 0.116982 0.076905
O O9 0.198252 0.893549 0.083131
O O10 0.355835 0.088855 0.961017
O O11 0.218321 0.884215 0.981505
O O12 0.591300 0.807516 0.334160
O O13 0.139631 0.352739 0.662538
O O14 0.170004 0.512516 0.231047
O O15 0.000000 0.405548 0.250000
#
# Coordination Sequence:
#
# PCOD8145165 Si02
#       7
#     8   8   8   8   8   8   8
#     4  11  25  45  63 103 136 188 222 281 360 416
#     4  11  26  42  70 101 138 183 235 284 356 419
#     4  10  22  37  70  99 127 167 226 298 327 393
#     4  11  22  44  68 101 133 179 231 286 350 401
#     4  11  21  43  69  97 132 174 236 278 343 418
#     4  11  22  43  68  96 133 188 230 279 348 421
#     4  11  26  43  68  97 146 183 225 291 355 426
#
# _framework density 22.453265999999999
#
# number of rings (size 3 to 8) (size 9 to 14) (size 15 to 20)
#    0.000    1.143    4.286    0.857   10.000    0.571 
#    2.571    0.000    0.000    0.000    0.000    0.000 
#    0.000    0.000    0.000    0.000    0.000    0.000 
#
# Total GULP energy -347121.125556 kJ/mol
# GULP energy per Si atom -12397.183056 kJ/mol
# Density = 2.240216 g / cm^3
# Si number density = 22.453266 Si / 1000 Ang^3
#
#
#
# Elastic Constant Matrix: (Units=GPa)
#
#
# Indices 1 2 3 4 5 6 
#
# 1 65.5787 25.7270 32.1421 0.0003 9.0684 0.0037
# 2 25.7270 119.7738 36.4573 0.0001 18.0542 0.0029
# 3 32.1421 36.4573 99.5220 -0.0012 23.1444 -0.0007
# 4 0.0003 0.0001 -0.0012 42.1453 0.0004 9.5586
# 5 9.0684 18.0542 23.1444 0.0004 30.3545 0.0006
# 6 0.0037 0.0029 -0.0007 9.5586 0.0006 31.2083
#
#
#
# Elastic Compliance Matrix: (Units=1/GPa)
#
#
# Indices 1 2 3 4 5 6 
#
# 1 0.018739 -0.002433 -0.005100 0.000000 -0.000263 -0.000002
# 2 -0.002433 0.010049 -0.002035 0.000000 -0.003698 -0.000001
# 3 -0.005100 -0.002035 0.014349 0.000000 -0.008207 0.000001
# 4 0.000000 0.000000 0.000000 0.025499 0.000000 -0.007810
# 5 -0.000263 -0.003698 -0.008207 0.000000 0.041480 0.000000
# 6 -0.000002 -0.000001 0.000001 -0.007810 0.000000 0.034435
#
#
# Mechanical properties :
#
#
# Convention : Reuss Voigt Hill
#
# Bulk Modulus (GPa) = 41.66531 52.61414 47.13972
# Shear Modulus (GPa) = 29.12284 33.44482 31.28383
#
# Velocity S-wave (km/s) = 3.60535 3.86363 3.73672
# Velocity P-wave (km/s) = 5.99401 6.58689 6.29743
#
# Compressibility (1/GPa) = 0.02400078
#
# Stress axis : x y z
#
# Youngs Moduli (GPa) = 53.36382 99.51604 69.69072
#
# Poissons Ratio (x) = 0.24215 0.35540
# Poissons Ratio (y) = 0.12985 0.14183
# Poissons Ratio (z) = 0.27214 0.20254
#
# Static dielectric constant tensor:
#      x y z
#    x 4.054820 0.000000 0.018400 
#    y 0.000000 4.514200 0.000000 
#    z 0.018400 0.000000 4.495310 
# 
# 
# High freq. dielectric constant tensor:
#      x y z
#    x 1.866710 0.000000 -0.012390 
#    y 0.000000 1.884660 0.000000 
#    z -0.012390 0.000000 1.896800 
# 
# From -- ./inp_files/298508.got.cif
#   From: 2010.06.25/outbox.cif.g09.slc.cpg/sg15_150_cif.got.tgz:298508.got - 2010.06.28 07:06:18.
