data_PCOD8145543
_publ_section_title
;
Structure prediction by ZEFSAII (Michael W. Deem and Ramdas Pophale) SiO2 
 PCOD8145543
Probable space group: C 2/C
;
_chemical_formula_sum "Si O2"
_cell_formula_units_Z 56
_cell_length_a 11.833895
_cell_length_b 8.506573
_cell_length_c 29.395786
_cell_angle_alpha 90.000000
_cell_angle_beta 65.849131
_cell_angle_gamma 90.000000
_cell_volume 2700.142161
_symmetry_space_group_name_H-M "C 2/C"
_symmetry_group_IT_number 15
_symmetry_cell_setting 'monoclinic'
loop_
_space_group_symop_operation_xyz
x,y,z
-x,y,1/2-z
-x,-y,-z
x,-y,1/2+z
1/2+x,1/2+y,z
1/2-x,1/2+y,1/2-z
1/2-x,1/2-y,-z
1/2+x,1/2-y,1/2+z
loop_
_atom_site_type_symbol
_atom_site_label
_atom_site_fract_x
_atom_site_fract_y
_atom_site_fract_z
Si Si1 0.570884 0.179942 0.649954
Si Si2 0.205767 0.170360 0.553039
Si Si3 0.086365 0.828829 0.402279
Si Si4 0.219737 0.679624 0.795058
Si Si5 0.240482 0.176658 0.194517
Si Si6 0.746029 0.813919 0.950122
Si Si7 0.233328 0.391498 0.631644
O O1 0.425178 0.188690 0.671092
O O2 0.618595 0.266520 0.687632
O O3 0.628366 0.264512 0.596357
O O4 0.611954 0.997729 0.643756
O O5 0.250000 0.250000 0.500000
O O6 0.253218 0.271961 0.587243
O O7 0.058816 0.154832 0.577149
O O8 0.268541 0.000937 0.547206
O O9 0.136805 0.710541 0.355295
O O10 0.126687 0.760935 0.444785
O O11 0.145131 0.000248 0.384824
O O12 0.252723 0.727202 0.738782
O O13 0.273427 0.506970 0.793954
O O14 0.288054 0.797253 0.818211
O O15 0.750000 0.750000 0.000000
#
# Coordination Sequence:
#
# PCOD8145543 Si02
#       7
#     8   8   8   8   8   8   8
#     4  10  22  41  61  85 121 155 194 244 291 346
#     4  12  24  39  63  90 117 156 199 238 294 353
#     4  10  23  43  60  85 125 153 191 250 290 342
#     4  12  22  39  63  86 120 156 194 245 291 343
#     4  10  22  39  61  89 118 157 197 236 297 352
#     4  10  22  40  62  89 119 157 198 238 294 351
#     4  10  22  39  62  90 114 153 201 239 291 349
#
# _framework density 20.739647999999999
#
# number of rings (size 3 to 8) (size 9 to 14) (size 15 to 20)
#    0.000    1.714    0.000    7.286    0.000    4.000 
#    0.000    6.429    0.000    0.000    0.000    0.000 
#    0.000    0.000    0.000    0.000    0.000    0.000 
#
# Total GULP energy -347328.505544 kJ/mol
# GULP energy per Si atom -12404.589484 kJ/mol
# Density = 2.069244 g / cm^3
# Si number density = 20.739648 Si / 1000 Ang^3
#
#
#
# Elastic Constant Matrix: (Units=GPa)
#
#
# Indices 1 2 3 4 5 6 
#
# 1 26.7993 10.3366 13.7423 0.0000 4.9754 0.0000
# 2 10.3366 157.0358 39.3511 0.0000 26.4848 0.0000
# 3 13.7423 39.3511 111.7698 0.0000 41.2159 0.0000
# 4 0.0000 0.0000 0.0000 42.8655 0.0000 14.2718
# 5 4.9754 26.4848 41.2159 0.0000 37.4691 0.0000
# 6 0.0000 0.0000 0.0000 14.2718 0.0000 24.8124
#
#
#
# Elastic Compliance Matrix: (Units=1/GPa)
#
#
# Indices 1 2 3 4 5 6 
#
# 1 0.040186 -0.001630 -0.004751 0.000000 0.001043 0.000000
# 2 -0.001630 0.007379 -0.000932 0.000000 -0.003974 0.000000
# 3 -0.004751 -0.000932 0.015788 0.000000 -0.016077 0.000000
# 4 0.000000 0.000000 0.000000 0.028855 0.000000 -0.016597
# 5 0.001043 -0.003974 -0.016077 0.000000 0.047044 0.000000
# 6 0.000000 0.000000 0.000000 -0.016597 0.000000 0.049849
#
#
# Mechanical properties :
#
#
# Convention : Reuss Voigt Hill
#
# Bulk Modulus (GPa) = 20.52333 46.94053 33.73193
# Shear Modulus (GPa) = 22.73044 36.50773 29.61908
#
# Velocity S-wave (km/s) = 3.31416 4.20013 3.78317
# Velocity P-wave (km/s) = 4.95602 6.79734 5.94836
#
# Compressibility (1/GPa) = 0.04872503
#
# Stress axis : x y z
#
# Youngs Moduli (GPa) = 24.88424 135.51773 63.34049
#
# Poissons Ratio (x) = 0.22095 0.30096
# Poissons Ratio (y) = 0.04057 0.05903
# Poissons Ratio (z) = 0.11824 0.12631
#
# Static dielectric constant tensor:
#      x y z
#    x 3.560240 0.000000 0.179860 
#    y 0.000000 3.994520 0.000000 
#    z 0.179860 0.000000 3.807730 
# 
# 
# High freq. dielectric constant tensor:
#      x y z
#    x 1.804220 0.000000 0.015310 
#    y 0.000000 1.831600 0.000000 
#    z 0.015310 0.000000 1.818930 
# 
# From -- ./inp_files/310233.got.cif
#   From: 2010.06.25/outbox.cif.g09.slc.cpg/sg15_156_cif.got.tgz:310233.got - 2010.06.28 07:06:18.
