data_PCOD8145195
_publ_section_title
;
Structure prediction by ZEFSAII (Michael W. Deem and Ramdas Pophale) SiO2 
 PCOD8145195
Probable space group: C 2/C
;
_chemical_formula_sum "Si O2"
_cell_formula_units_Z 60
_cell_length_a 5.449777
_cell_length_b 24.781512
_cell_length_c 19.640641
_cell_angle_alpha 90.000000
_cell_angle_beta 90.976800
_cell_angle_gamma 90.000000
_cell_volume 2652.156047
_symmetry_space_group_name_H-M "C 2/C"
_symmetry_group_IT_number 15
_symmetry_cell_setting 'monoclinic'
loop_
_space_group_symop_operation_xyz
x,y,z
-x,y,1/2-z
-x,-y,-z
x,-y,1/2+z
1/2+x,1/2+y,z
1/2-x,1/2+y,1/2-z
1/2-x,1/2-y,-z
1/2+x,1/2-y,1/2+z
loop_
_atom_site_type_symbol
_atom_site_label
_atom_site_fract_x
_atom_site_fract_y
_atom_site_fract_z
Si Si1 0.929107 0.356316 0.017468
Si Si2 0.684946 0.698419 0.632951
Si Si3 0.605078 0.569051 0.444406
Si Si4 0.728396 0.958082 0.053719
Si Si5 0.958954 0.141970 0.172130
Si Si6 0.382112 0.600503 0.679223
Si Si7 0.554449 0.808992 0.881608
Si Si8 0.500000 0.830086 0.250000
O O1 0.878469 0.309243 0.072015
O O2 0.020747 0.412317 0.052124
O O3 0.679847 0.374450 0.979332
O O4 0.097882 0.331841 0.958384
O O5 0.548249 0.642039 0.638642
O O6 0.491068 0.744909 0.615523
O O7 0.819801 0.709148 0.706279
O O8 0.827205 0.523104 0.444108
O O9 0.378961 0.546419 0.485054
O O10 0.519111 0.585219 0.368177
O O11 0.862334 0.949250 0.127145
O O12 0.185711 0.181800 0.154238
O O13 0.000000 0.126653 0.250000
O O14 0.686532 0.166625 0.157370
O O15 0.500000 0.579337 0.750000
O O16 0.130510 0.631177 0.695835
#
# Coordination Sequence:
#
# PCOD8145195 Si02
#       8
#     8   8   8   8   8   8   8   4
#     4  11  21  42  63  96 131 171 219 290 336 405
#     4  11  23  39  63  94 132 174 220 278 334 407
#     4  10  23  40  65  98 123 175 225 277 343 405
#     4  11  20  40  69  90 130 172 221 281 339 408
#     4  11  25  46  67  96 140 177 227 288 336 406
#     4  10  22  38  60  93 130 164 217 267 336 400
#     4  11  26  42  69 100 131 181 230 274 343 409
#     4  10  22  38  58  86 130 174 210 268 332 406
#
# _framework density 22.623104999999999
#
# number of rings (size 3 to 8) (size 9 to 14) (size 15 to 20)
#    0.000    1.333    4.000    1.200    2.800    2.667 
#    0.000    2.667    5.867    0.000    0.000    0.000 
#    0.000    0.000    0.000    0.000    0.000    0.000 
#
# Total GULP energy -371658.280809 kJ/mol
# GULP energy per Si atom -12388.609360 kJ/mol
# Density = 2.257161 g / cm^3
# Si number density = 22.623105 Si / 1000 Ang^3
#
#
#
# Elastic Constant Matrix: (Units=GPa)
#
#
# Indices 1 2 3 4 5 6 
#
# 1 69.8898 2.3059 7.6256 0.0000 -7.1510 0.0000
# 2 2.3059 76.0142 36.6266 0.0000 6.1827 0.0000
# 3 7.6256 36.6266 126.3143 0.0000 -7.9007 0.0000
# 4 0.0000 0.0000 0.0000 16.4888 0.0000 6.0830
# 5 -7.1510 6.1827 -7.9007 0.0000 22.9156 0.0000
# 6 0.0000 0.0000 0.0000 6.0830 0.0000 31.4652
#
#
#
# Elastic Compliance Matrix: (Units=1/GPa)
#
#
# Indices 1 2 3 4 5 6 
#
# 1 0.014852 -0.000625 -0.000424 0.000000 0.004657 0.000000
# 2 -0.000625 0.016106 -0.005025 0.000000 -0.006273 0.000000
# 3 -0.000424 -0.005025 0.009685 0.000000 0.004562 0.000000
# 4 0.000000 0.000000 0.000000 0.065305 0.000000 -0.012625
# 5 0.004657 -0.006273 0.004562 0.000000 0.048357 0.000000
# 6 0.000000 0.000000 0.000000 -0.012625 0.000000 0.034222
#
#
# Mechanical properties :
#
#
# Convention : Reuss Voigt Hill
#
# Bulk Modulus (GPa) = 35.09445 40.59272 37.84359
# Shear Modulus (GPa) = 23.79010 29.21793 26.50402
#
# Velocity S-wave (km/s) = 3.24633 3.59765 3.42650
# Velocity P-wave (km/s) = 5.44040 5.93629 5.69374
#
# Compressibility (1/GPa) = 0.02849453
#
# Stress axis : x y z
#
# Youngs Moduli (GPa) = 67.33274 62.08985 103.25549
#
# Poissons Ratio (x) = 0.03880 0.04379
# Poissons Ratio (y) = 0.04208 0.51883
# Poissons Ratio (z) = 0.02856 0.31198
#
# Static dielectric constant tensor:
#      x y z
#    x 4.043140 0.000000 0.160070 
#    y 0.000000 4.119430 0.000000 
#    z 0.160070 0.000000 4.416420 
# 
# 
# High freq. dielectric constant tensor:
#      x y z
#    x 1.879780 0.000000 0.004200 
#    y 0.000000 1.876940 0.000000 
#    z 0.004200 0.000000 1.909360 
# 
# From -- ./inp_files/228136.got.cif
#   From: 2010.06.25/outbox.cif.g09.slc.cpg/sg15_115_cif.got.tgz:228136.got - 2010.06.28 07:06:18.
