data_PCOD8145698
_publ_section_title
;
Structure prediction by ZEFSAII (Michael W. Deem and Ramdas Pophale) SiO2 
 PCOD8145698
Probable space group: C 2/C
;
_chemical_formula_sum "Si O2"
_cell_formula_units_Z 40
_cell_length_a 9.773569
_cell_length_b 23.011634
_cell_length_c 7.745494
_cell_angle_alpha 90.000000
_cell_angle_beta 87.973969
_cell_angle_gamma 90.000000
_cell_volume 1740.917484
_symmetry_space_group_name_H-M "C 2/C"
_symmetry_group_IT_number 15
_symmetry_cell_setting 'monoclinic'
loop_
_space_group_symop_operation_xyz
x,y,z
-x,y,1/2-z
-x,-y,-z
x,-y,1/2+z
1/2+x,1/2+y,z
1/2-x,1/2+y,1/2-z
1/2-x,1/2-y,-z
1/2+x,1/2-y,1/2+z
loop_
_atom_site_type_symbol
_atom_site_label
_atom_site_fract_x
_atom_site_fract_y
_atom_site_fract_z
Si Si1 0.601693 0.176996 0.095114
Si Si2 0.000000 0.970606 0.750000
Si Si3 0.469178 0.934832 0.448876
Si Si4 0.399703 0.713405 0.103007
Si Si5 0.657066 0.432504 0.427246
Si Si6 0.000000 0.159701 0.750000
O O1 0.500000 0.199772 0.250000
O O2 0.756618 0.182838 0.160266
O O3 0.560599 0.110494 0.053720
O O4 0.601603 0.216297 0.919465
O O5 0.055250 0.929663 0.595644
O O6 0.873584 0.009064 0.681633
O O7 0.500000 0.924190 0.250000
O O8 0.309215 0.926108 0.491574
O O9 0.500000 0.000000 0.500000
O O10 0.500000 0.694416 0.250000
O O11 0.449219 0.696758 0.911274
O O12 0.628656 0.379036 0.302536
#
# Coordination Sequence:
#
# PCOD8145698 Si02
#       6
#     8   4   8   8   8   4
#     4  11  26  48  72 108 145 186 245 297 363 437
#     4   9  20  40  64  96 144 184 243 288 362 426
#     4  12  25  43  69 101 143 188 234 296 364 425
#     4  11  26  48  74 105 145 193 236 302 357 430
#     4  10  22  39  65  99 137 187 233 299 345 427
#     4  11  24  42  68 106 136 180 247 284 354 424
#
# _framework density 22.976392000000001
#
# number of rings (size 3 to 8) (size 9 to 14) (size 15 to 20)
#    0.000    1.200    1.000    3.600    4.200    5.600 
#    0.000    0.000    0.000    0.000    0.000    0.000 
#    0.000    0.000    0.000    0.000    0.000    0.000 
#
# Total GULP energy -247977.151505 kJ/mol
# GULP energy per Si atom -12398.857575 kJ/mol
# Density = 2.292410 g / cm^3
# Si number density = 22.976392 Si / 1000 Ang^3
#
#
#
# Elastic Constant Matrix: (Units=GPa)
#
#
# Indices 1 2 3 4 5 6 
#
# 1 182.0030 64.1493 51.9914 0.0000 10.4848 0.0000
# 2 64.1493 122.4224 30.2554 0.0000 8.6547 0.0000
# 3 51.9914 30.2554 127.3091 0.0000 0.5417 0.0000
# 4 0.0000 0.0000 0.0000 3.4021 0.0000 -3.6742
# 5 10.4848 8.6547 0.5417 0.0000 35.0113 0.0000
# 6 0.0000 0.0000 0.0000 -3.6742 0.0000 8.1820
#
#
#
# Elastic Compliance Matrix: (Units=1/GPa)
#
#
# Indices 1 2 3 4 5 6 
#
# 1 0.007337 -0.003196 -0.002231 0.000000 -0.001373 0.000000
# 2 -0.003196 0.010230 -0.001119 0.000000 -0.001554 0.000000
# 3 -0.002231 -0.001119 0.009029 0.000000 0.000805 0.000000
# 4 0.000000 0.000000 0.000000 0.570731 0.000000 0.256295
# 5 -0.001373 -0.001554 0.000805 0.000000 0.029345 0.000000
# 6 0.000000 0.000000 0.000000 0.256295 0.000000 0.237313
#
#
# Mechanical properties :
#
#
# Convention : Reuss Voigt Hill
#
# Bulk Modulus (GPa) = 74.05970 80.50298 77.28134
# Shear Modulus (GPa) = 5.67164 28.34162 17.00663
#
# Velocity S-wave (km/s) = 1.57284 3.51595 2.72357
# Velocity P-wave (km/s) = 5.96669 7.18302 6.60292
#
# Compressibility (1/GPa) = 0.01350262
#
# Stress axis : x y z
#
# Youngs Moduli (GPa) = 136.28760 97.75345 110.75949
#
# Poissons Ratio (x) = 0.31246 0.24711
# Poissons Ratio (y) = 0.43563 0.12396
# Poissons Ratio (z) = 0.30406 0.10940
#
# Static dielectric constant tensor:
#      x y z
#    x 4.122130 0.000000 0.045670 
#    y 0.000000 4.248180 0.000000 
#    z 0.045670 0.000000 4.140770 
# 
# 
# High freq. dielectric constant tensor:
#      x y z
#    x 1.905560 0.000000 -0.001330 
#    y 0.000000 1.914350 0.000000 
#    z -0.001330 0.000000 1.915530 
# 
# From -- ./inp_files/24467.got.cif
#   From: 2010.06.25/outbox.cif.g09.slc.cpg/sg15_13_cif.got.tgz:24467.got - 2010.06.28 07:06:18.
