data_PCOD8145937
_publ_section_title
;
Structure prediction by ZEFSAII (Michael W. Deem and Ramdas Pophale) SiO2 
 PCOD8145937
Probable space group: C 2/C
;
_chemical_formula_sum "Si O2"
_cell_formula_units_Z 56
_cell_length_a 9.182834
_cell_length_b 22.678866
_cell_length_c 12.740017
_cell_angle_alpha 90.000000
_cell_angle_beta 84.954705
_cell_angle_gamma 90.000000
_cell_volume 2642.908501
_symmetry_space_group_name_H-M "C 2/C"
_symmetry_group_IT_number 15
_symmetry_cell_setting 'monoclinic'
loop_
_space_group_symop_operation_xyz
x,y,z
-x,y,1/2-z
-x,-y,-z
x,-y,1/2+z
1/2+x,1/2+y,z
1/2-x,1/2+y,1/2-z
1/2-x,1/2-y,-z
1/2+x,1/2-y,1/2+z
loop_
_atom_site_type_symbol
_atom_site_label
_atom_site_fract_x
_atom_site_fract_y
_atom_site_fract_z
Si Si1 0.470601 0.290229 0.499341
Si Si2 0.621395 0.639084 0.157486
Si Si3 0.660526 0.492033 0.710702
Si Si4 0.702377 0.194995 0.869851
Si Si5 0.095940 0.473270 0.648427
Si Si6 0.116939 0.431279 0.420689
Si Si7 0.859622 0.732999 0.191619
O O1 0.555085 0.343782 0.549061
O O2 0.411767 0.244598 0.588923
O O3 0.334298 0.315186 0.443066
O O4 0.590493 0.257601 0.422409
O O5 0.500000 0.653614 0.250000
O O6 0.659811 0.570451 0.151615
O O7 0.766098 0.674745 0.178392
O O8 0.500000 0.515139 0.750000
O O9 0.744547 0.487453 0.816441
O O10 0.734308 0.536950 0.625052
O O11 0.614562 0.133724 0.870643
O O12 0.768069 0.214988 0.754256
O O13 0.108848 0.428785 0.548758
O O14 0.000000 0.445132 0.750000
O O15 0.023322 0.534484 0.615273
O O16 0.000000 0.713566 0.250000
#
# Coordination Sequence:
#
# PCOD8145937 Si02
#       7
#     8   8   8   8   8   8   8
#     4  10  22  40  63  95 128 166 214 258 331 379
#     4  11  22  41  63  93 128 172 216 264 314 388
#     4  10  24  40  62  95 129 168 214 265 322 382
#     4  10  22  41  66  97 129 167 211 276 324 383
#     4   9  21  43  62  91 125 163 226 256 316 387
#     4  10  22  42  67  93 127 171 212 269 328 377
#     4  10  22  40  63  95 128 167 214 262 325 379
#
# _framework density 21.188776000000001
#
# number of rings (size 3 to 8) (size 9 to 14) (size 15 to 20)
#    0.000    2.000    1.429    0.429    4.000    7.429 
#   12.857    0.000    0.000    0.000    0.000    0.000 
#    0.000    0.000    0.000    0.000    0.000    0.000 
#
# Total GULP energy -347257.224731 kJ/mol
# GULP energy per Si atom -12402.043740 kJ/mol
# Density = 2.114055 g / cm^3
# Si number density = 21.188776 Si / 1000 Ang^3
#
#
#
# Elastic Constant Matrix: (Units=GPa)
#
#
# Indices 1 2 3 4 5 6 
#
# 1 90.0364 13.3317 22.4435 0.0000 -2.1172 0.0000
# 2 13.3317 55.8093 -17.3575 0.0000 3.3911 0.0000
# 3 22.4435 -17.3575 55.9905 0.0000 -4.2552 0.0000
# 4 0.0000 0.0000 0.0000 27.7392 0.0000 -2.7022
# 5 -2.1172 3.3911 -4.2552 0.0000 31.6044 0.0000
# 6 0.0000 0.0000 0.0000 -2.7022 0.0000 26.0741
#
#
#
# Elastic Compliance Matrix: (Units=1/GPa)
#
#
# Indices 1 2 3 4 5 6 
#
# 1 0.013731 -0.005547 -0.007182 0.000000 0.000548 0.000000
# 2 -0.005547 0.022125 0.008966 0.000000 -0.001539 0.000000
# 3 -0.007182 0.008966 0.023651 0.000000 0.001741 0.000000
# 4 0.000000 0.000000 0.000000 0.036418 0.000000 0.003774
# 5 0.000548 -0.001539 0.001741 0.000000 0.032077 0.000000
# 6 0.000000 0.000000 0.000000 0.003774 0.000000 0.038743
#
#
# Mechanical properties :
#
#
# Convention : Reuss Voigt Hill
#
# Bulk Modulus (GPa) = 19.23822 26.51906 22.87864
# Shear Modulus (GPa) = 26.09613 29.31144 27.70379
#
# Velocity S-wave (km/s) = 3.51323 3.72337 3.61982
# Velocity P-wave (km/s) = 5.05531 5.57023 5.31900
#
# Compressibility (1/GPa) = 0.05197987
#
# Stress axis : x y z
#
# Youngs Moduli (GPa) = 72.82726 45.19747 42.28198
#
# Poissons Ratio (x) = 0.25071 0.30367
# Poissons Ratio (y) = 0.40398 -0.37908
# Poissons Ratio (z) = 0.52305 -0.40522
#
# Static dielectric constant tensor:
#      x y z
#    x 3.994320 0.000000 -0.067380 
#    y 0.000000 3.596240 0.000000 
#    z -0.067380 0.000000 3.991090 
# 
# 
# High freq. dielectric constant tensor:
#      x y z
#    x 1.842260 0.000000 -0.005370 
#    y 0.000000 1.814270 0.000000 
#    z -0.005370 0.000000 1.834800 
# 
# From -- ./inp_files/136473.got.cif
#   From: 2010.06.25/outbox.cif.g09.slc.cpg/sg15_69_cif.got.tgz:136473.got - 2010.06.28 07:06:18.
