data_PCOD8145941
_publ_section_title
;
Structure prediction by ZEFSAII (Michael W. Deem and Ramdas Pophale) SiO2 
 PCOD8145941
Probable space group: C 2/C
;
_chemical_formula_sum "Si O2"
_cell_formula_units_Z 56
_cell_length_a 13.833673
_cell_length_b 19.614465
_cell_length_c 13.375370
_cell_angle_alpha 90.000000
_cell_angle_beta 137.348104
_cell_angle_gamma 90.000000
_cell_volume 2458.987187
_symmetry_space_group_name_H-M "C 2/C"
_symmetry_group_IT_number 15
_symmetry_cell_setting 'monoclinic'
loop_
_space_group_symop_operation_xyz
x,y,z
-x,y,1/2-z
-x,-y,-z
x,-y,1/2+z
1/2+x,1/2+y,z
1/2-x,1/2+y,1/2-z
1/2-x,1/2-y,-z
1/2+x,1/2-y,1/2+z
loop_
_atom_site_type_symbol
_atom_site_label
_atom_site_fract_x
_atom_site_fract_y
_atom_site_fract_z
Si Si1 0.265912 0.435743 0.085951
Si Si2 0.990693 0.384183 0.485823
Si Si3 0.951232 0.934387 0.407884
Si Si4 0.230139 0.339852 0.327062
Si Si5 0.359294 0.322832 0.011643
Si Si6 0.625611 0.764890 0.695419
Si Si7 0.140230 0.565458 0.918808
O O1 0.121902 0.431462 0.042276
O O2 0.409011 0.448293 0.260184
O O3 0.284314 0.362023 0.046581
O O4 0.248837 0.500359 0.997095
O O5 0.915905 0.334648 0.346979
O O6 0.075621 0.340191 0.631160
O O7 0.105391 0.427549 0.510055
O O8 0.809487 0.907259 0.350872
O O9 0.081885 0.881325 0.517513
O O10 0.000000 0.000000 0.500000
O O11 0.318765 0.271798 0.365857
O O12 0.202453 0.361534 0.422265
O O13 0.248435 0.271918 0.872829
O O14 0.497616 0.278043 0.148429
O O15 0.000000 0.544802 0.750000
#
# Coordination Sequence:
#
# PCOD8145941 Si02
#       7
#     8   8   8   8   8   8   8
#     4  11  24  42  64 105 133 173 230 278 342 405
#     4  10  22  40  63  95 132 176 225 278 334 402
#     4  10  22  42  67  94 138 175 222 283 342 404
#     4   9  20  42  61  95 127 178 222 286 329 392
#     4  11  25  43  68  99 138 180 228 281 338 410
#     4  11  23  44  68  95 135 183 230 271 343 403
#     4  10  22  40  69  95 136 174 226 283 341 404
#
# _framework density 22.773603000000001
#
# number of rings (size 3 to 8) (size 9 to 14) (size 15 to 20)
#    0.000    1.714    1.429    1.714    4.000    1.143 
#    7.714    0.000    0.000    0.000    0.000    0.000 
#    0.000    0.000    0.000    0.000    0.000    0.000 
#
# Total GULP energy -346941.411858 kJ/mol
# GULP energy per Si atom -12390.764709 kJ/mol
# Density = 2.272177 g / cm^3
# Si number density = 22.773603 Si / 1000 Ang^3
#
#
#
# Elastic Constant Matrix: (Units=GPa)
#
#
# Indices 1 2 3 4 5 6 
#
# 1 97.4701 20.9545 30.1191 0.0000 -7.2981 0.0000
# 2 20.9545 91.5387 53.9236 0.0000 -3.6201 0.0000
# 3 30.1191 53.9236 97.5861 0.0000 5.1756 0.0000
# 4 0.0000 0.0000 0.0000 36.7323 0.0000 -4.3427
# 5 -7.2981 -3.6201 5.1756 0.0000 26.0417 0.0000
# 6 0.0000 0.0000 0.0000 -4.3427 0.0000 34.0820
#
#
#
# Elastic Compliance Matrix: (Units=1/GPa)
#
#
# Indices 1 2 3 4 5 6 
#
# 1 0.011760 -0.000406 -0.003615 0.000000 0.003958 0.000000
# 2 -0.000406 0.016650 -0.009289 0.000000 0.004047 0.000000
# 3 -0.003615 -0.009289 0.016796 0.000000 -0.005643 0.000000
# 4 0.000000 0.000000 0.000000 0.027640 0.000000 0.003522
# 5 0.003958 0.004047 -0.005643 0.000000 0.041193 0.000000
# 6 0.000000 0.000000 0.000000 0.003522 0.000000 0.029790
#
#
# Mechanical properties :
#
#
# Convention : Reuss Voigt Hill
#
# Bulk Modulus (GPa) = 53.80953 55.17659 54.49306
# Shear Modulus (GPa) = 28.30538 31.47770 29.89154
#
# Velocity S-wave (km/s) = 3.52931 3.72183 3.62685
# Velocity P-wave (km/s) = 6.34723 6.53837 6.44351
#
# Compressibility (1/GPa) = 0.01858407
#
# Stress axis : x y z
#
# Youngs Moduli (GPa) = 85.03156 60.06179 59.53942
#
# Poissons Ratio (x) = 0.02438 0.21526
# Poissons Ratio (y) = 0.03451 0.55309
# Poissons Ratio (z) = 0.30742 0.55794
#
# Static dielectric constant tensor:
#      x y z
#    x 4.268020 0.000000 0.231870 
#    y 0.000000 3.985300 0.000000 
#    z 0.231870 0.000000 4.213480 
# 
# 
# High freq. dielectric constant tensor:
#      x y z
#    x 1.904450 0.000000 0.014010 
#    y 0.000000 1.891590 0.000000 
#    z 0.014010 0.000000 1.883520 
# 
# From -- ./inp_files/156230.got.cif
#   From: 2010.06.25/outbox.cif.g09.slc.cpg/sg15_79_cif.got.tgz:156230.got - 2010.06.28 07:06:18.
