data_PCOD8145923
_publ_section_title
;
Structure prediction by ZEFSAII (Michael W. Deem and Ramdas Pophale) SiO2 
 PCOD8145923
Probable space group: C 2/C
;
_chemical_formula_sum "Si O2"
_cell_formula_units_Z 52
_cell_length_a 15.818579
_cell_length_b 22.689382
_cell_length_c 8.821563
_cell_angle_alpha 90.000000
_cell_angle_beta 57.227193
_cell_angle_gamma 90.000000
_cell_volume 2662.199341
_symmetry_space_group_name_H-M "C 2/C"
_symmetry_group_IT_number 15
_symmetry_cell_setting 'monoclinic'
loop_
_space_group_symop_operation_xyz
x,y,z
-x,y,1/2-z
-x,-y,-z
x,-y,1/2+z
1/2+x,1/2+y,z
1/2-x,1/2+y,1/2-z
1/2-x,1/2-y,-z
1/2+x,1/2-y,1/2+z
loop_
_atom_site_type_symbol
_atom_site_label
_atom_site_fract_x
_atom_site_fract_y
_atom_site_fract_z
Si Si1 0.671114 0.283284 0.248445
Si Si2 0.000000 0.623070 0.250000
Si Si3 0.387628 0.947567 0.329629
Si Si4 0.622659 0.832800 0.363347
Si Si5 0.468608 0.711117 0.116542
Si Si6 0.838578 0.561769 0.219158
Si Si7 0.212735 0.828957 0.884541
O O1 0.758587 0.320887 0.244340
O O2 0.563488 0.299047 0.417598
O O3 0.693889 0.213594 0.252867
O O4 0.663887 0.300411 0.080250
O O5 0.918255 0.661058 0.423417
O O6 0.946142 0.583865 0.174680
O O7 0.500000 0.971403 0.250000
O O8 0.394112 0.888997 0.224651
O O9 0.333629 0.936610 0.542257
O O10 0.323214 0.995956 0.298763
O O11 0.563832 0.779257 0.343565
O O12 0.500000 0.688488 0.250000
O O13 0.375136 0.671221 0.154848
O O14 0.750822 0.604288 0.367463
#
# Coordination Sequence:
#
# PCOD8145923 Si02
#       7
#     8   4   8   8   8   8   8
#     4  10  22  40  63  91 124 165 213 253 316 377
#     4  12  20  38  60  90 128 164 206 250 306 386
#     4  12  24  39  59  94 129 169 201 264 318 379
#     4  11  24  37  64  92 128 166 205 256 318 376
#     4  11  25  39  60  93 129 164 209 260 312 370
#     4  12  24  39  63  90 130 164 214 253 319 377
#     4  10  23  40  63  92 121 170 208 258 314 377
#
# _framework density 19.532722
#
# number of rings (size 3 to 8) (size 9 to 14) (size 15 to 20)
#    0.000    0.923    3.846    3.231    8.615    1.231 
#    0.000    0.000    0.000    0.923    0.000    0.000 
#    0.000    0.000    0.000    0.000    0.000    0.000 
#
# Total GULP energy -322469.316452 kJ/mol
# GULP energy per Si atom -12402.666017 kJ/mol
# Density = 1.948826 g / cm^3
# Si number density = 19.532722 Si / 1000 Ang^3
#
#
#
# Elastic Constant Matrix: (Units=GPa)
#
#
# Indices 1 2 3 4 5 6 
#
# 1 96.8929 45.5326 30.9683 0.0000 8.8325 0.0000
# 2 45.5326 99.0761 26.3630 0.0000 -6.9289 0.0000
# 3 30.9683 26.3630 62.1187 0.0000 5.3193 0.0000
# 4 0.0000 0.0000 0.0000 21.6329 0.0000 1.7515
# 5 8.8325 -6.9289 5.3193 0.0000 30.6244 0.0000
# 6 0.0000 0.0000 0.0000 1.7515 0.0000 28.3084
#
#
#
# Elastic Compliance Matrix: (Units=1/GPa)
#
#
# Indices 1 2 3 4 5 6 
#
# 1 0.015064 -0.006067 -0.004512 0.000000 -0.004934 0.000000
# 2 -0.006067 0.014196 -0.003477 0.000000 0.005566 0.000000
# 3 -0.004512 -0.003477 0.020078 0.000000 -0.002973 0.000000
# 4 0.000000 0.000000 0.000000 0.046459 0.000000 -0.002874
# 5 -0.004934 0.005566 -0.002973 0.000000 0.035852 0.000000
# 6 0.000000 0.000000 0.000000 -0.002874 0.000000 0.035503
#
#
# Mechanical properties :
#
#
# Convention : Reuss Voigt Hill
#
# Bulk Modulus (GPa) = 47.11420 51.53505 49.32462
# Shear Modulus (GPa) = 24.71104 26.46140 25.58622
#
# Velocity S-wave (km/s) = 3.56070 3.68465 3.62320
# Velocity P-wave (km/s) = 6.40919 6.67408 6.54298
#
# Compressibility (1/GPa) = 0.02122503
#
# Stress axis : x y z
#
# Youngs Moduli (GPa) = 66.38436 70.44300 49.80628
#
# Poissons Ratio (x) = 0.42739 0.22475
# Poissons Ratio (y) = 0.40277 0.17315
# Poissons Ratio (z) = 0.29956 0.24490
#
# Static dielectric constant tensor:
#      x y z
#    x 3.669300 0.000000 0.210500 
#    y 0.000000 3.430590 0.000000 
#    z 0.210500 0.000000 3.489020 
# 
# 
# High freq. dielectric constant tensor:
#      x y z
#    x 1.763260 0.000000 0.016890 
#    y 0.000000 1.745490 0.000000 
#    z 0.016890 0.000000 1.757320 
# 
# From -- ./inp_files/42045.got.cif
#   From: 2010.06.25/outbox.cif.g09.slc.cpg/sg15_22_cif.got.tgz:42045.got - 2010.06.28 07:06:18.
