data_PCOD8145975
_publ_section_title
;
Structure prediction by ZEFSAII (Michael W. Deem and Ramdas Pophale) SiO2 
 PCOD8145975
Probable space group: C 2/C
;
_chemical_formula_sum "Si O2"
_cell_formula_units_Z 60
_cell_length_a 29.241227
_cell_length_b 9.110031
_cell_length_c 11.272200
_cell_angle_alpha 90.000000
_cell_angle_beta 70.420685
_cell_angle_gamma 90.000000
_cell_volume 2829.158773
_symmetry_space_group_name_H-M "C 2/C"
_symmetry_group_IT_number 15
_symmetry_cell_setting 'monoclinic'
loop_
_space_group_symop_operation_xyz
x,y,z
-x,y,1/2-z
-x,-y,-z
x,-y,1/2+z
1/2+x,1/2+y,z
1/2-x,1/2+y,1/2-z
1/2-x,1/2-y,-z
1/2+x,1/2-y,1/2+z
loop_
_atom_site_type_symbol
_atom_site_label
_atom_site_fract_x
_atom_site_fract_y
_atom_site_fract_z
Si Si1 0.038070 0.656721 0.372455
Si Si2 0.171765 0.795939 0.544752
Si Si3 0.232472 0.398584 0.156656
Si Si4 0.867856 0.191374 0.669802
Si Si5 0.500000 0.392687 0.250000
Si Si6 0.912718 0.075116 0.231822
Si Si7 0.520966 0.166662 0.850798
Si Si8 0.768967 0.263945 0.849310
O O1 0.093390 0.701784 0.304271
O O2 0.038734 0.498206 0.309768
O O3 0.999122 0.777041 0.359805
O O4 0.024142 0.650397 0.521843
O O5 0.188530 0.661092 0.613266
O O6 0.218246 0.890387 0.463301
O O7 0.145381 0.743206 0.447561
O O8 0.133795 0.893905 0.647809
O O9 0.223647 0.567565 0.194675
O O10 0.233932 0.310253 0.280606
O O11 0.820961 0.184352 0.795575
O O12 0.893070 0.029733 0.642917
O O13 0.452057 0.492362 0.281404
O O14 0.935536 0.221494 0.150972
O O15 0.500000 0.237035 0.750000
O O16 0.750000 0.250000 0.000000
#
# Coordination Sequence:
#
# PCOD8145975 Si02
#       8
#     8   8   8   8   4   8   8   8
#     4  10  23  42  61  90 133 165 216 271 322 389
#     4  10  23  43  67  94 133 170 224 276 330 402
#     4  10  25  44  72  95 136 177 221 281 343 397
#     4  10  24  41  63  94 131 167 220 272 329 397
#     4  10  22  40  64  92 128 170 212 270 330 370
#     4  11  23  38  66  99 126 173 221 268 331 402
#     4  11  22  40  64  90 124 173 215 265 327 390
#     4  11  25  45  71 100 134 174 223 273 345 403
#
# _framework density 21.207718
#
# number of rings (size 3 to 8) (size 9 to 14) (size 15 to 20)
#    0.000    1.600    1.333    1.600   13.067    1.067 
#    0.000    0.000    0.000    0.000    0.000    0.000 
#    0.000    0.000    0.000    0.000    0.000    0.000 
#
# Total GULP energy -371766.645956 kJ/mol
# GULP energy per Si atom -12392.221532 kJ/mol
# Density = 2.115945 g / cm^3
# Si number density = 21.207718 Si / 1000 Ang^3
#
#
#
# Elastic Constant Matrix: (Units=GPa)
#
#
# Indices 1 2 3 4 5 6 
#
# 1 116.1582 55.3939 42.9998 0.0000 7.8193 0.0000
# 2 55.3939 146.1014 30.0127 0.0000 7.4383 0.0000
# 3 42.9998 30.0127 94.2432 0.0000 13.8605 0.0000
# 4 0.0000 0.0000 0.0000 25.4604 0.0000 -0.2138
# 5 7.8193 7.4383 13.8605 0.0000 28.2257 0.0000
# 6 0.0000 0.0000 0.0000 -0.2138 0.0000 26.3986
#
#
#
# Elastic Compliance Matrix: (Units=1/GPa)
#
#
# Indices 1 2 3 4 5 6 
#
# 1 0.011934 -0.003639 -0.004248 0.000000 -0.000261 0.000000
# 2 -0.003639 0.008452 -0.000918 0.000000 -0.000768 0.000000
# 3 -0.004248 -0.000918 0.013616 0.000000 -0.005268 0.000000
# 4 0.000000 0.000000 0.000000 0.039279 0.000000 0.000318
# 5 -0.000261 -0.000768 -0.005268 0.000000 0.038290 0.000000
# 6 0.000000 0.000000 0.000000 0.000318 0.000000 0.037883
#
#
# Mechanical properties :
#
#
# Convention : Reuss Voigt Hill
#
# Bulk Modulus (GPa) = 61.00481 68.14618 64.57549
# Shear Modulus (GPa) = 28.98045 31.22336 30.10190
#
# Velocity S-wave (km/s) = 3.70064 3.84117 3.77156
# Velocity P-wave (km/s) = 6.86203 7.20245 7.03430
#
# Compressibility (1/GPa) = 0.01639215
#
# Stress axis : x y z
#
# Youngs Moduli (GPa) = 83.79122 118.31487 73.44193
#
# Poissons Ratio (x) = 0.43054 0.31198
# Poissons Ratio (y) = 0.30491 0.06744
# Poissons Ratio (z) = 0.35594 0.10865
#
# Static dielectric constant tensor:
#      x y z
#    x 4.005470 0.000000 0.077380 
#    y 0.000000 3.944960 0.000000 
#    z 0.077380 0.000000 3.705740 
# 
# 
# High freq. dielectric constant tensor:
#      x y z
#    x 1.835450 0.000000 0.002080 
#    y 0.000000 1.839510 0.000000 
#    z 0.002080 0.000000 1.818590 
# 
# From -- ./inp_files/125887.got.cif
#   From: 2010.06.25/outbox.cif.g09.slc.cpg/sg15_63_cif.got.tgz:125887.got - 2010.06.28 07:06:18.
