data_PCOD8145791
_publ_section_title
;
Structure prediction by ZEFSAII (Michael W. Deem and Ramdas Pophale) SiO2 
 PCOD8145791
Probable space group: C 2/C
;
_chemical_formula_sum "Si O2"
_cell_formula_units_Z 60
_cell_length_a 17.222982
_cell_length_b 22.866888
_cell_length_c 9.040174
_cell_angle_alpha 90.000000
_cell_angle_beta 122.789351
_cell_angle_gamma 90.000000
_cell_volume 2993.066331
_symmetry_space_group_name_H-M "C 2/C"
_symmetry_group_IT_number 15
_symmetry_cell_setting 'monoclinic'
loop_
_space_group_symop_operation_xyz
x,y,z
-x,y,1/2-z
-x,-y,-z
x,-y,1/2+z
1/2+x,1/2+y,z
1/2-x,1/2+y,1/2-z
1/2-x,1/2-y,-z
1/2+x,1/2-y,1/2+z
loop_
_atom_site_type_symbol
_atom_site_label
_atom_site_fract_x
_atom_site_fract_y
_atom_site_fract_z
Si Si1 0.409432 0.712582 0.337300
Si Si2 0.782790 0.102843 0.221605
Si Si3 0.128857 0.977629 0.135486
Si Si4 0.500000 0.496892 0.250000
Si Si5 0.118026 0.777289 0.022712
Si Si6 0.592432 0.831752 0.016282
Si Si7 0.619783 0.160648 0.207632
Si Si8 0.750541 0.382524 0.153864
O O1 0.351474 0.656350 0.326115
O O2 0.375177 0.738637 0.144308
O O3 0.517214 0.695536 0.447897
O O4 0.396205 0.763066 0.442831
O O5 0.687587 0.110552 0.214574
O O6 0.836954 0.044601 0.324909
O O7 0.755351 0.100170 0.022441
O O8 0.217089 0.936586 0.218856
O O9 0.069495 0.959500 0.219188
O O10 0.063504 0.964342 0.925460
O O11 0.142892 0.721156 0.147164
O O12 0.191707 0.826198 0.138655
O O13 0.644783 0.870922 0.190961
O O14 0.487734 0.854046 0.927334
O O15 0.636297 0.837912 0.899661
#
# Coordination Sequence:
#
# PCOD8145791 Si02
#       8
#     8   8   8   4   8   8   8   8
#     4   9  19  35  58  85 117 155 192 232 288 352
#     4  11  23  38  60  87 118 155 200 240 285 350
#     4  11  24  42  61  92 120 158 195 236 285 350
#     4  10  24  42  64  82 130 158 192 234 288 336
#     4   9  19  35  58  85 117 155 192 232 288 352
#     4  10  22  40  58  84 117 152 194 248 298 344
#     4  10  22  40  58  84 117 152 194 248 298 344
#     4  11  23  38  60  87 118 155 200 240 285 350
#
# _framework density 20.046332
#
# number of rings (size 3 to 8) (size 9 to 14) (size 15 to 20)
#    0.000    1.867    1.333    1.600    5.600    5.867 
#    0.000    0.667    0.000    0.000    0.000    0.000 
#    0.000    0.000    0.000    0.000    0.000    0.000 
#
# Total GULP energy -371959.301335 kJ/mol
# GULP energy per Si atom -12398.643378 kJ/mol
# Density = 2.000071 g / cm^3
# Si number density = 20.046332 Si / 1000 Ang^3
#
#
#
# Elastic Constant Matrix: (Units=GPa)
#
#
# Indices 1 2 3 4 5 6 
#
# 1 121.6215 46.6447 42.6058 0.0000 -9.2023 0.0000
# 2 46.6447 59.8417 29.1797 0.0000 4.7627 0.0000
# 3 42.6058 29.1797 89.1989 0.0000 5.0751 0.0000
# 4 0.0000 0.0000 0.0000 14.5875 0.0000 -5.2381
# 5 -9.2023 4.7627 5.0751 0.0000 30.0228 0.0000
# 6 0.0000 0.0000 0.0000 -5.2381 0.0000 22.2200
#
#
#
# Elastic Compliance Matrix: (Units=1/GPa)
#
#
# Indices 1 2 3 4 5 6 
#
# 1 0.013568 -0.009210 -0.003825 0.000000 0.006266 0.000000
# 2 -0.009210 0.026263 -0.003831 0.000000 -0.006341 0.000000
# 3 -0.003825 -0.003831 0.014462 0.000000 -0.003009 0.000000
# 4 0.000000 0.000000 0.000000 0.074891 0.000000 0.017655
# 5 0.006266 -0.006341 -0.003009 0.000000 0.036743 0.000000
# 6 0.000000 0.000000 0.000000 0.017655 0.000000 0.049166
#
#
# Mechanical properties :
#
#
# Convention : Reuss Voigt Hill
#
# Bulk Modulus (GPa) = 48.63476 56.39139 52.51307
# Shear Modulus (GPa) = 19.55568 23.51485 21.53527
#
# Velocity S-wave (km/s) = 3.12673 3.42866 3.28117
# Velocity P-wave (km/s) = 6.11139 6.62313 6.37240
#
# Compressibility (1/GPa) = 0.02056142
#
# Stress axis : x y z
#
# Youngs Moduli (GPa) = 73.70051 38.07702 69.14532
#
# Poissons Ratio (x) = 0.35069 0.26446
# Poissons Ratio (y) = 0.67878 0.26492
# Poissons Ratio (z) = 0.28188 0.14589
#
# Static dielectric constant tensor:
#      x y z
#    x 3.854430 0.000000 0.009070 
#    y 0.000000 3.298940 0.000000 
#    z 0.009070 0.000000 3.738190 
# 
# 
# High freq. dielectric constant tensor:
#      x y z
#    x 1.796780 0.000000 0.000980 
#    y 0.000000 1.750790 0.000000 
#    z 0.000980 0.000000 1.789980 
# 
# From -- ./inp_files/51537.got.cif
#   From: 2010.06.25/outbox.cif.g09.slc.cpg/sg15_26_cif.got.tgz:51537.got - 2010.06.28 07:06:18.
