data_PCOD8145621
_publ_section_title
;
Structure prediction by ZEFSAII (Michael W. Deem and Ramdas Pophale) SiO2 
 PCOD8145621
Probable space group: C 2/C
;
_chemical_formula_sum "Si O2"
_cell_formula_units_Z 64
_cell_length_a 24.109726
_cell_length_b 8.622180
_cell_length_c 14.332691
_cell_angle_alpha 90.000000
_cell_angle_beta 91.528956
_cell_angle_gamma 90.000000
_cell_volume 2978.396053
_symmetry_space_group_name_H-M "C 2/C"
_symmetry_group_IT_number 15
_symmetry_cell_setting 'monoclinic'
loop_
_space_group_symop_operation_xyz
x,y,z
-x,y,1/2-z
-x,-y,-z
x,-y,1/2+z
1/2+x,1/2+y,z
1/2-x,1/2+y,1/2-z
1/2-x,1/2-y,-z
1/2+x,1/2-y,1/2+z
loop_
_atom_site_type_symbol
_atom_site_label
_atom_site_fract_x
_atom_site_fract_y
_atom_site_fract_z
Si Si1 0.064582 0.325927 0.277939
Si Si2 0.922278 0.361836 0.497854
Si Si3 0.230846 0.251315 0.607936
Si Si4 0.756451 0.575033 0.213755
Si Si5 0.385552 0.343742 0.373221
Si Si6 0.145491 0.813845 0.643628
Si Si7 0.383405 0.851159 0.701391
Si Si8 0.542087 0.203288 0.981469
O O1 0.103851 0.205164 0.228169
O O2 0.088165 0.495931 0.254107
O O3 0.073083 0.277812 0.385102
O O4 0.000000 0.316491 0.250000
O O5 0.868685 0.313487 0.435502
O O6 0.911007 0.320306 0.603645
O O7 0.939509 0.537187 0.477374
O O8 0.976486 0.267554 0.466553
O O9 0.250000 0.250000 0.500000
O O10 0.249865 0.401340 0.672235
O O11 0.164682 0.267551 0.596483
O O12 0.246763 0.097894 0.671452
O O13 0.710732 0.695854 0.170592
O O14 0.817385 0.629461 0.185833
O O15 0.365806 0.515309 0.392018
O O16 0.398726 0.296729 0.266617
O O17 0.438385 0.326303 0.441642
#
# Coordination Sequence:
#
# PCOD8145621 Si02
#       8
#     8   8   8   8   8   8   8   8
#     4  11  22  41  68  94 123 171 220 271 320 385
#     4  10  22  39  63  92 122 167 214 268 321 387
#     4  10  23  44  66  98 130 181 226 272 338 395
#     4  10  23  45  65  98 134 174 225 277 326 411
#     4  10  24  40  60  94 130 164 210 264 332 401
#     4  11  23  42  62  93 133 167 209 266 336 397
#     4  10  23  41  65  94 125 169 221 269 327 376
#     4  10  22  40  63  92 123 163 222 261 318 393
#
# _framework density 21.488076
#
# number of rings (size 3 to 8) (size 9 to 14) (size 15 to 20)
#    0.000    1.750    1.250    1.500    8.750    3.000 
#   13.500    0.000    0.000    0.000    0.000    0.000 
#    0.000    0.000    0.000    0.000    0.000    0.000 
#
# Total GULP energy -396470.636617 kJ/mol
# GULP energy per Si atom -12389.707394 kJ/mol
# Density = 2.143917 g / cm^3
# Si number density = 21.488076 Si / 1000 Ang^3
#
#
#
# Elastic Constant Matrix: (Units=GPa)
#
#
# Indices 1 2 3 4 5 6 
#
# 1 75.2958 19.8668 14.0362 0.0000 5.1776 0.0000
# 2 19.8668 37.3507 29.2519 0.0000 5.7710 0.0000
# 3 14.0362 29.2519 109.7022 0.0000 -2.6927 0.0000
# 4 0.0000 0.0000 0.0000 29.5249 0.0000 3.6545
# 5 5.1776 5.7710 -2.6927 0.0000 32.9865 0.0000
# 6 0.0000 0.0000 0.0000 3.6545 0.0000 32.4016
#
#
#
# Elastic Compliance Matrix: (Units=1/GPa)
#
#
# Indices 1 2 3 4 5 6 
#
# 1 0.015485 -0.008235 0.000191 0.000000 -0.000974 0.000000
# 2 -0.008235 0.039751 -0.009704 0.000000 -0.006454 0.000000
# 3 0.000191 -0.009704 0.011743 0.000000 0.002626 0.000000
# 4 0.000000 0.000000 0.000000 0.034349 0.000000 -0.003874
# 5 -0.000974 -0.006454 0.002626 0.000000 0.031812 0.000000
# 6 0.000000 0.000000 0.000000 -0.003874 0.000000 0.031300
#
#
# Mechanical properties :
#
#
# Convention : Reuss Voigt Hill
#
# Bulk Modulus (GPa) = 31.76459 38.73982 35.25221
# Shear Modulus (GPa) = 23.76064 29.59551 26.67808
#
# Velocity S-wave (km/s) = 3.32890 3.71522 3.52736
# Velocity P-wave (km/s) = 5.43967 6.03917 5.74724
#
# Compressibility (1/GPa) = 0.03148160
#
# Stress axis : x y z
#
# Youngs Moduli (GPa) = 64.57727 25.15668 85.15532
#
# Poissons Ratio (x) = 0.20718 -0.01624
# Poissons Ratio (y) = 0.53182 0.82636
# Poissons Ratio (z) = -0.01232 0.24413
#
# Static dielectric constant tensor:
#      x y z
#    x 4.311260 0.000000 0.116070 
#    y 0.000000 3.728610 0.000000 
#    z 0.116070 0.000000 3.980990 
# 
# 
# High freq. dielectric constant tensor:
#      x y z
#    x 1.855950 0.000000 0.007730 
#    y 0.000000 1.821260 0.000000 
#    z 0.007730 0.000000 1.849920 
# 
# From -- ./inp_files/172386.got.cif
#   From: 2010.06.25/outbox.cif.g09.slc.cpg/sg15_87_cif.got.tgz:172386.got - 2010.06.28 07:06:18.
