data_PCOD8145902
_publ_section_title
;
Structure prediction by ZEFSAII (Michael W. Deem and Ramdas Pophale) SiO2 
 PCOD8145902
Probable space group: C 2/C
;
_chemical_formula_sum "Si O2"
_cell_formula_units_Z 56
_cell_length_a 17.823454
_cell_length_b 19.843266
_cell_length_c 14.581988
_cell_angle_alpha 90.000000
_cell_angle_beta 145.571477
_cell_angle_gamma 90.000000
_cell_volume 2915.818107
_symmetry_space_group_name_H-M "C 2/C"
_symmetry_group_IT_number 15
_symmetry_cell_setting 'monoclinic'
loop_
_space_group_symop_operation_xyz
x,y,z
-x,y,1/2-z
-x,-y,-z
x,-y,1/2+z
1/2+x,1/2+y,z
1/2-x,1/2+y,1/2-z
1/2-x,1/2-y,-z
1/2+x,1/2-y,1/2+z
loop_
_atom_site_type_symbol
_atom_site_label
_atom_site_fract_x
_atom_site_fract_y
_atom_site_fract_z
Si Si1 0.997872 0.956695 0.354260
Si Si2 0.225216 0.758386 0.674579
Si Si3 0.036045 0.200915 0.684932
Si Si4 0.204210 0.000484 0.203035
Si Si5 0.167352 0.364712 0.231966
Si Si6 0.349235 0.187859 0.592637
Si Si7 0.136911 0.375942 0.587230
O O1 0.958114 0.879031 0.319656
O O2 0.000000 0.981031 0.250000
O O3 0.139632 0.968573 0.545559
O O4 0.893805 0.000261 0.308397
O O5 0.318721 0.730794 0.688032
O O6 0.232284 0.705307 0.764740
O O7 0.278310 0.830375 0.759033
O O8 0.073211 0.766504 0.491597
O O9 0.000000 0.223315 0.750000
O O10 0.326985 0.046596 0.357252
O O11 0.251260 0.925610 0.228526
O O12 0.175849 0.365106 0.350523
O O13 0.017099 0.368306 0.045710
O O14 0.500000 0.216276 0.750000
O O15 0.250000 0.250000 0.500000
O O16 0.325369 0.144987 0.477620
#
# Coordination Sequence:
#
# PCOD8145902 Si02
#       7
#     8   8   8   8   8   8   8
#     4  10  23  41  62  93 122 156 207 253 303 375
#     4  12  21  39  66  90 122 164 200 261 305 366
#     4  11  23  41  63  90 123 158 203 256 308 364
#     4  11  23  42  64  88 123 171 200 252 318 362
#     4  11  23  40  63  90 126 160 210 251 313 369
#     4  10  22  40  62  96 126 161 202 261 310 371
#     4  11  23  40  63  90 126 160 210 251 313 369
#
# _framework density 19.205587999999999
#
# number of rings (size 3 to 8) (size 9 to 14) (size 15 to 20)
#    0.000    1.143    5.714    0.857    2.000    0.000 
#    5.143    0.000    0.000    0.000    0.000    0.000 
#    0.000    0.000    0.000    0.000    0.000    0.000 
#
# Total GULP energy -347275.692744 kJ/mol
# GULP energy per Si atom -12402.703312 kJ/mol
# Density = 1.916188 g / cm^3
# Si number density = 19.205588 Si / 1000 Ang^3
#
#
#
# Elastic Constant Matrix: (Units=GPa)
#
#
# Indices 1 2 3 4 5 6 
#
# 1 95.9702 11.8648 22.4440 0.0000 -8.9646 0.0000
# 2 11.8648 63.4383 14.6260 0.0000 -5.1163 0.0000
# 3 22.4440 14.6260 69.6493 0.0000 -3.0263 0.0000
# 4 0.0000 0.0000 0.0000 30.7049 0.0000 4.2693
# 5 -8.9646 -5.1163 -3.0263 0.0000 32.3017 0.0000
# 6 0.0000 0.0000 0.0000 4.2693 0.0000 29.0785
#
#
#
# Elastic Compliance Matrix: (Units=1/GPa)
#
#
# Indices 1 2 3 4 5 6 
#
# 1 0.011609 -0.001173 -0.003376 0.000000 0.002720 0.000000
# 2 -0.001173 0.016857 -0.003072 0.000000 0.002056 0.000000
# 3 -0.003376 -0.003072 0.016094 0.000000 0.000084 0.000000
# 4 0.000000 0.000000 0.000000 0.033247 0.000000 -0.004881
# 5 0.002720 0.002056 0.000084 0.000000 0.032046 0.000000
# 6 0.000000 0.000000 0.000000 -0.004881 0.000000 0.035106
#
#
# Mechanical properties :
#
#
# Convention : Reuss Voigt Hill
#
# Bulk Modulus (GPa) = 34.11105 36.32524 35.21814
# Shear Modulus (GPa) = 29.41596 30.42522 29.92059
#
# Velocity S-wave (km/s) = 3.91786 3.98450 3.95132
# Velocity P-wave (km/s) = 6.18593 6.33429 6.26055
#
# Compressibility (1/GPa) = 0.02931602
#
# Stress axis : x y z
#
# Youngs Moduli (GPa) = 86.14325 59.32243 62.13318
#
# Poissons Ratio (x) = 0.06961 0.20977
# Poissons Ratio (y) = 0.10108 0.19090
# Poissons Ratio (z) = 0.29084 0.18226
#
# Static dielectric constant tensor:
#      x y z
#    x 3.590800 0.000000 -0.018610 
#    y 0.000000 3.370230 0.000000 
#    z -0.018610 0.000000 3.529470 
# 
# 
# High freq. dielectric constant tensor:
#      x y z
#    x 1.756240 0.000000 0.000570 
#    y 0.000000 1.744640 0.000000 
#    z 0.000570 0.000000 1.749940 
# 
# From -- ./inp_files/50125.got.cif
#   From: 2010.06.25/outbox.cif.g09.slc.cpg/sg15_26_cif.got.tgz:50125.got - 2010.06.28 07:06:18.
