data_PCOD8145118
_publ_section_title
;
Structure prediction by ZEFSAII (Michael W. Deem and Ramdas Pophale) SiO2 
 PCOD8145118
Probable space group: C 2/C
;
_chemical_formula_sum "Si O2"
_cell_formula_units_Z 56
_cell_length_a 12.908360
_cell_length_b 26.631903
_cell_length_c 9.374691
_cell_angle_alpha 90.000000
_cell_angle_beta 120.594512
_cell_angle_gamma 90.000000
_cell_volume 2774.136574
_symmetry_space_group_name_H-M "C 2/C"
_symmetry_group_IT_number 15
_symmetry_cell_setting 'monoclinic'
loop_
_space_group_symop_operation_xyz
x,y,z
-x,y,1/2-z
-x,-y,-z
x,-y,1/2+z
1/2+x,1/2+y,z
1/2-x,1/2+y,1/2-z
1/2-x,1/2-y,-z
1/2+x,1/2-y,1/2+z
loop_
_atom_site_type_symbol
_atom_site_label
_atom_site_fract_x
_atom_site_fract_y
_atom_site_fract_z
Si Si1 0.494519 0.805036 0.584158
Si Si2 0.415144 0.628810 0.310389
Si Si3 0.281982 0.804863 0.963617
Si Si4 0.962731 0.193123 0.873338
Si Si5 0.217880 0.345430 0.244682
Si Si6 0.866253 0.955763 0.970458
Si Si7 0.651475 0.449445 0.216194
O O1 0.500000 0.824805 0.750000
O O2 0.620924 0.809114 0.592896
O O3 0.465226 0.745542 0.562879
O O4 0.392282 0.838745 0.440368
O O5 0.500000 0.601293 0.250000
O O6 0.339494 0.671576 0.180575
O O7 0.505538 0.656108 0.479119
O O8 0.330702 0.590367 0.339854
O O9 0.250000 0.750000 0.000000
O O10 0.332453 0.836942 0.131802
O O11 0.817352 0.197512 0.775877
O O12 0.000000 0.167110 0.750000
O O13 0.279170 0.399940 0.284116
O O14 0.806532 0.003667 0.850574
O O15 0.813488 0.955292 0.092700
O O16 0.009752 0.949852 0.084940
#
# Coordination Sequence:
#
# PCOD8145118 Si02
#       7
#     8   8   8   8   8   8   8
#     4  11  27  42  63  94 129 176 222 270 319 395
#     4  12  22  37  64  96 131 169 219 266 336 396
#     4  12  24  43  65  95 133 179 221 269 321 392
#     4  11  23  38  61  93 132 171 211 270 329 384
#     4  12  23  43  65  91 135 169 223 261 337 390
#     4  10  22  37  61  96 136 159 214 266 342 388
#     4  10  22  38  62  96 129 171 203 275 332 395
#
# _framework density 20.18646
#
# number of rings (size 3 to 8) (size 9 to 14) (size 15 to 20)
#    0.000    0.857    4.286    2.143   10.000    1.143 
#    0.000    0.000    0.000    0.857    0.000    0.000 
#    0.000    0.000    0.000    0.000    0.000    0.000 
#
# Total GULP energy -347013.098159 kJ/mol
# GULP energy per Si atom -12393.324934 kJ/mol
# Density = 2.014051 g / cm^3
# Si number density = 20.186460 Si / 1000 Ang^3
#
#
#
# Elastic Constant Matrix: (Units=GPa)
#
#
# Indices 1 2 3 4 5 6 
#
# 1 88.6166 30.6830 54.8248 0.0000 -21.1419 0.0000
# 2 30.6830 113.3979 57.1110 0.0000 -6.7328 0.0000
# 3 54.8248 57.1110 132.0344 0.0000 -30.6132 0.0000
# 4 0.0000 0.0000 0.0000 32.9278 0.0000 -2.5514
# 5 -21.1419 -6.7328 -30.6132 0.0000 42.7535 0.0000
# 6 0.0000 0.0000 0.0000 -2.5514 0.0000 26.9364
#
#
#
# Elastic Compliance Matrix: (Units=1/GPa)
#
#
# Indices 1 2 3 4 5 6 
#
# 1 0.015865 -0.001542 -0.004986 0.000000 0.004033 0.000000
# 2 -0.001542 0.011578 -0.004942 0.000000 -0.002478 0.000000
# 3 -0.004986 -0.004942 0.013225 0.000000 0.006226 0.000000
# 4 0.000000 0.000000 0.000000 0.030594 0.000000 0.002898
# 5 0.004033 -0.002478 0.006226 0.000000 0.029452 0.000000
# 6 0.000000 0.000000 0.000000 0.002898 0.000000 0.037399
#
#
# Mechanical properties :
#
#
# Convention : Reuss Voigt Hill
#
# Bulk Modulus (GPa) = 56.40778 68.80961 62.60869
# Shear Modulus (GPa) = 29.94689 33.28554 31.61622
#
# Velocity S-wave (km/s) = 3.85582 4.06508 3.96183
# Velocity P-wave (km/s) = 6.91572 7.49627 7.21184
#
# Compressibility (1/GPa) = 0.01772805
#
# Stress axis : x y z
#
# Youngs Moduli (GPa) = 63.03118 86.37316 75.61360
#
# Poissons Ratio (x) = 0.13323 0.37697
# Poissons Ratio (y) = 0.09722 0.37368
# Poissons Ratio (z) = 0.31424 0.42685
#
# Static dielectric constant tensor:
#      x y z
#    x 3.535690 0.000000 -0.451110 
#    y 0.000000 3.719810 0.000000 
#    z -0.451110 0.000000 4.045440 
# 
# 
# High freq. dielectric constant tensor:
#      x y z
#    x 1.761740 0.000000 -0.032620 
#    y 0.000000 1.779660 0.000000 
#    z -0.032620 0.000000 1.804530 
# 
# From -- ./inp_files/43611.got.cif
#   From: 2010.06.25/outbox.cif.g09.slc.cpg/sg15_22_cif.got.tgz:43611.got - 2010.06.28 07:06:18.
