data_PCOD8145027
_publ_section_title
;
Structure prediction by ZEFSAII (Michael W. Deem and Ramdas Pophale) SiO2 
 PCOD8145027
Probable space group: C 2/C
;
_chemical_formula_sum "Si O2"
_cell_formula_units_Z 60
_cell_length_a 21.029253
_cell_length_b 18.577250
_cell_length_c 7.955015
_cell_angle_alpha 90.000000
_cell_angle_beta 82.388541
_cell_angle_gamma 90.000000
_cell_volume 3080.369244
_symmetry_space_group_name_H-M "C 2/C"
_symmetry_group_IT_number 15
_symmetry_cell_setting 'monoclinic'
loop_
_space_group_symop_operation_xyz
x,y,z
-x,y,1/2-z
-x,-y,-z
x,-y,1/2+z
1/2+x,1/2+y,z
1/2-x,1/2+y,1/2-z
1/2-x,1/2-y,-z
1/2+x,1/2-y,1/2+z
loop_
_atom_site_type_symbol
_atom_site_label
_atom_site_fract_x
_atom_site_fract_y
_atom_site_fract_z
Si Si1 0.893896 0.098955 0.513449
Si Si2 0.860576 0.326043 0.792701
Si Si3 0.848705 0.223412 0.106110
Si Si4 0.831170 0.979787 0.317622
Si Si5 0.000000 0.703915 0.250000
Si Si6 0.174527 0.753211 0.530270
Si Si7 0.740146 0.592618 0.378341
Si Si8 0.989714 0.193840 0.065319
O O1 0.878830 0.074704 0.707148
O O2 0.848403 0.164864 0.480846
O O3 0.968648 0.120789 0.467867
O O4 0.878510 0.029862 0.406281
O O5 0.853941 0.295969 0.606616
O O6 0.817196 0.397458 0.831917
O O7 0.935979 0.344411 0.796799
O O8 0.837556 0.268903 0.941626
O O9 0.850158 0.272995 0.275379
O O10 0.790463 0.169087 0.159412
O O11 0.914465 0.177039 0.066772
O O12 0.781584 0.927456 0.428228
O O13 0.783242 0.027353 0.226062
O O14 0.012462 0.751321 0.412725
O O15 0.250000 0.750000 0.500000
O O16 0.000000 0.226314 0.250000
#
# Coordination Sequence:
#
# PCOD8145027 Si02
#       8
#     8   8   8   8   4   8   8   8
#     4  11  21  40  54  79 117 157 197 241 276 342
#     4  11  22  37  61  92 116 144 187 246 304 351
#     4  11  22  35  59  89 115 149 192 242 298 343
#     4  10  23  37  58  78 113 162 204 233 278 328
#     4  10  22  36  62  92 112 152 178 238 312 356
#     4  12  21  35  61  87 113 150 188 244 309 343
#     4  11  21  40  55  83 116 146 197 246 280 346
#     4  11  20  37  56  78 120 153 186 234 288 338
#
# _framework density 19.478183999999999
#
# number of rings (size 3 to 8) (size 9 to 14) (size 15 to 20)
#    0.000    1.067    5.333    1.200    3.733    0.000 
#    0.000    7.333    0.000    0.800    0.000    0.000 
#    0.000    0.000    0.000    0.000    0.000    0.000 
#
# Total GULP energy -371823.989409 kJ/mol
# GULP energy per Si atom -12394.132980 kJ/mol
# Density = 1.943385 g / cm^3
# Si number density = 19.478184 Si / 1000 Ang^3
#
#
#
# Elastic Constant Matrix: (Units=GPa)
#
#
# Indices 1 2 3 4 5 6 
#
# 1 123.2917 25.3562 28.5146 0.0000 -19.6337 0.0000
# 2 25.3562 33.4758 26.4503 0.0000 -5.9159 0.0000
# 3 28.5146 26.4503 135.8667 0.0000 -5.2982 0.0000
# 4 0.0000 0.0000 0.0000 18.0898 0.0000 -8.6776
# 5 -19.6337 -5.9159 -5.2982 0.0000 28.1778 0.0000
# 6 0.0000 0.0000 0.0000 -8.6776 0.0000 29.6275
#
#
#
# Elastic Compliance Matrix: (Units=1/GPa)
#
#
# Indices 1 2 3 4 5 6 
#
# 1 0.010521 -0.006346 -0.000744 0.000000 0.005859 0.000000
# 2 -0.006346 0.040226 -0.006389 0.000000 0.002822 0.000000
# 3 -0.000744 -0.006389 0.008752 0.000000 -0.000214 0.000000
# 4 0.000000 0.000000 0.000000 0.064316 0.000000 0.018837
# 5 0.005859 0.002822 -0.000214 0.000000 0.040123 0.000000
# 6 0.000000 0.000000 0.000000 0.018837 0.000000 0.039270
#
#
# Mechanical properties :
#
#
# Convention : Reuss Voigt Hill
#
# Bulk Modulus (GPa) = 30.73105 50.36404 40.54754
# Shear Modulus (GPa) = 20.74573 29.33322 25.03948
#
# Velocity S-wave (km/s) = 3.26709 3.88487 3.58930
# Velocity P-wave (km/s) = 5.48117 6.78496 6.16762
#
# Compressibility (1/GPa) = 0.03254038
#
# Stress axis : x y z
#
# Youngs Moduli (GPa) = 95.04805 24.85952 114.26164
#
# Poissons Ratio (x) = 0.15775 0.08504
# Poissons Ratio (y) = 0.60315 0.73005
# Poissons Ratio (z) = 0.07074 0.15883
#
# Static dielectric constant tensor:
#      x y z
#    x 3.743640 0.000000 -0.051860 
#    y 0.000000 3.115200 0.000000 
#    z -0.051860 0.000000 4.105600 
# 
# 
# High freq. dielectric constant tensor:
#      x y z
#    x 1.766500 0.000000 -0.002600 
#    y 0.000000 1.702730 0.000000 
#    z -0.002600 0.000000 1.788670 
# 
# From -- ./inp_files/56592.got.cif
#   From: 2010.06.25/outbox.cif.g09.slc.cpg/sg15_29_cif.got.tgz:56592.got - 2010.06.28 07:06:18.
