data_PCOD8145253
_publ_section_title
;
Structure prediction by ZEFSAII (Michael W. Deem and Ramdas Pophale) SiO2 
 PCOD8145253
Probable space group: C 2/C
;
_chemical_formula_sum "Si O2"
_cell_formula_units_Z 36
_cell_length_a 8.286435
_cell_length_b 11.772977
_cell_length_c 13.501614
_cell_angle_alpha 90.000000
_cell_angle_beta 85.503237
_cell_angle_gamma 90.000000
_cell_volume 1313.109033
_symmetry_space_group_name_H-M "C 2/C"
_symmetry_group_IT_number 15
_symmetry_cell_setting 'monoclinic'
loop_
_space_group_symop_operation_xyz
x,y,z
-x,y,1/2-z
-x,-y,-z
x,-y,1/2+z
1/2+x,1/2+y,z
1/2-x,1/2+y,1/2-z
1/2-x,1/2-y,-z
1/2+x,1/2-y,1/2+z
loop_
_atom_site_type_symbol
_atom_site_label
_atom_site_fract_x
_atom_site_fract_y
_atom_site_fract_z
Si Si1 0.898166 0.385194 0.519971
Si Si2 0.254950 0.873088 0.950292
Si Si3 0.500000 0.591381 0.750000
Si Si4 0.571617 0.366048 0.458313
Si Si5 0.175881 0.447485 0.761997
O O1 0.748845 0.432032 0.455768
O O2 0.914228 0.253884 0.485485
O O3 0.838468 0.378444 0.635837
O O4 0.087378 0.436426 0.501005
O O5 0.290968 0.861973 0.831679
O O6 0.250000 0.750000 0.000000
O O7 0.077944 0.931632 0.977913
O O8 0.481929 0.663231 0.651027
O O9 0.331999 0.524688 0.767719
O O10 0.000000 0.510089 0.750000
#
# Coordination Sequence:
#
# PCOD8145253 Si02
#       5
#     8   8   4   8   8
#     4   9  20  40  63  86 117 162 208 248 292 367
#     4   9  19  36  63  89 115 156 209 251 293 355
#     4  12  26  38  60  94 132 158 196 260 316 358
#     4  10  22  38  60  90 121 158 206 251 301 358
#     4  10  22  39  61  88 126 163 199 247 311 364
#
# _framework density 27.415852999999998
#
# number of rings (size 3 to 8) (size 9 to 14) (size 15 to 20)
#    0.000    2.222    0.000    1.333    7.778    5.333 
#    0.000    4.444    2.444    0.000    0.000    0.000 
#    0.000    0.000    0.000    0.000    0.000    0.000 
#
# Total GULP energy -223061.199286 kJ/mol
# GULP energy per Si atom -12392.288849 kJ/mol
# Density = 2.735345 g / cm^3
# Si number density = 27.415853 Si / 1000 Ang^3
#
#
#
# Elastic Constant Matrix: (Units=GPa)
#
#
# Indices 1 2 3 4 5 6 
#
# 1 309.2358 90.8498 73.2668 0.0000 -3.6598 0.0000
# 2 90.8498 85.5685 9.6914 0.0000 -4.6850 0.0000
# 3 73.2668 9.6914 148.8061 0.0000 6.9652 0.0000
# 4 0.0000 0.0000 0.0000 15.2121 0.0000 -1.9381
# 5 -3.6598 -4.6850 6.9652 0.0000 54.0873 0.0000
# 6 0.0000 0.0000 0.0000 -1.9381 0.0000 42.8783
#
#
#
# Elastic Compliance Matrix: (Units=1/GPa)
#
#
# Indices 1 2 3 4 5 6 
#
# 1 0.005380 -0.005441 -0.002304 0.000000 0.000189 0.000000
# 2 -0.005441 0.017344 0.001505 0.000000 0.000940 0.000000
# 3 -0.002304 0.001505 0.007805 0.000000 -0.001031 0.000000
# 4 0.000000 0.000000 0.000000 0.066118 0.000000 0.002988
# 5 0.000189 0.000940 -0.001031 0.000000 0.018716 0.000000
# 6 0.000000 0.000000 0.000000 0.002988 0.000000 0.023457
#
#
# Mechanical properties :
#
#
# Convention : Reuss Voigt Hill
#
# Bulk Modulus (GPa) = 55.39939 99.02515 77.21227
# Shear Modulus (GPa) = 31.78330 47.08904 39.43617
#
# Velocity S-wave (km/s) = 3.40855 4.14887 3.79680
# Velocity P-wave (km/s) = 5.97845 7.69083 6.88806
#
# Compressibility (1/GPa) = 0.01805074
#
# Stress axis : x y z
#
# Youngs Moduli (GPa) = 185.86145 57.65517 128.13035
#
# Poissons Ratio (x) = 0.31371 0.29516
# Poissons Ratio (y) = 1.01130 -0.19289
# Poissons Ratio (z) = 0.42815 -0.08679
#
# Static dielectric constant tensor:
#      x y z
#    x 7.053590 0.000000 -0.238630 
#    y 0.000000 4.920490 0.000000 
#    z -0.238630 0.000000 5.107980 
# 
# 
# High freq. dielectric constant tensor:
#      x y z
#    x 2.185400 0.000000 -0.010270 
#    y 0.000000 2.138840 0.000000 
#    z -0.010270 0.000000 2.078750 
# 
# From -- ./inp_files/76624.got.cif
#   From: 2010.06.25/outbox.cif.g09.slc.cpg/sg15_39_cif.got.tgz:76624.got - 2010.06.28 07:06:18.
