data_PCOD8145514
_publ_section_title
;
Structure prediction by ZEFSAII (Michael W. Deem and Ramdas Pophale) SiO2 
 PCOD8145514
Probable space group: C 2/C
;
_chemical_formula_sum "Si O2"
_cell_formula_units_Z 48
_cell_length_a 17.533515
_cell_length_b 5.077252
_cell_length_c 26.602508
_cell_angle_alpha 90.000000
_cell_angle_beta 59.068148
_cell_angle_gamma 90.000000
_cell_volume 2031.401855
_symmetry_space_group_name_H-M "C 2/C"
_symmetry_group_IT_number 15
_symmetry_cell_setting 'monoclinic'
loop_
_space_group_symop_operation_xyz
x,y,z
-x,y,1/2-z
-x,-y,-z
x,-y,1/2+z
1/2+x,1/2+y,z
1/2-x,1/2+y,1/2-z
1/2-x,1/2-y,-z
1/2+x,1/2-y,1/2+z
loop_
_atom_site_type_symbol
_atom_site_label
_atom_site_fract_x
_atom_site_fract_y
_atom_site_fract_z
Si Si1 0.435019 0.937875 0.701104
Si Si2 0.123976 0.525680 0.670245
Si Si3 0.123633 0.122784 0.082898
Si Si4 0.930236 0.043956 0.140513
Si Si5 0.818318 0.021022 0.078262
Si Si6 0.684587 0.003026 0.984462
O O1 0.538201 0.867572 0.678619
O O2 0.383022 0.046805 0.767287
O O3 0.423433 0.161356 0.663279
O O4 0.392627 0.669490 0.693398
O O5 0.120083 0.813785 0.644257
O O6 0.217602 0.387356 0.625801
O O7 0.209789 0.947006 0.038500
O O8 0.034376 0.979635 0.094504
O O9 0.133663 0.411262 0.052000
O O10 0.877391 0.018938 0.107445
O O11 0.857747 0.235887 0.025755
O O12 0.821022 0.732755 0.054046
#
# Coordination Sequence:
#
# PCOD8145514 Si02
#       6
#     8   8   8   8   8   8
#     4  10  22  39  60  84 112 153 193 232 284 341
#     4   9  21  39  61  84 114 150 193 237 282 339
#     4   9  21  40  62  86 116 152 194 238 282 339
#     4  11  23  38  58  86 118 149 189 237 287 339
#     4  11  23  38  58  87 118 150 189 237 287 339
#     4  10  22  39  61  85 114 154 194 232 284 341
#
# _framework density 23.629002
#
# number of rings (size 3 to 8) (size 9 to 14) (size 15 to 20)
#    0.000    2.000    0.000    2.000    0.000   19.333 
#    0.000    0.000    0.000    0.000    0.000    0.000 
#    0.000    0.000    0.000    0.000    0.000    0.000 
#
# Total GULP energy -297528.280168 kJ/mol
# GULP energy per Si atom -12397.011674 kJ/mol
# Density = 2.357522 g / cm^3
# Si number density = 23.629002 Si / 1000 Ang^3
#
#
#
# Elastic Constant Matrix: (Units=GPa)
#
#
# Indices 1 2 3 4 5 6 
#
# 1 89.0792 28.5621 42.2012 0.0762 23.5962 0.1790
# 2 28.5621 71.0564 6.1860 0.2287 7.5790 0.0662
# 3 42.2012 6.1860 94.0919 0.0843 8.8763 0.0152
# 4 0.0762 0.2287 0.0843 31.4343 0.0202 6.9138
# 5 23.5962 7.5790 8.8763 0.0202 35.7165 0.0223
# 6 0.1790 0.0662 0.0152 6.9138 0.0223 25.1229
#
#
#
# Elastic Compliance Matrix: (Units=1/GPa)
#
#
# Indices 1 2 3 4 5 6 
#
# 1 0.019149 -0.006043 -0.007290 0.000050 -0.009557 -0.000121
# 2 -0.006043 0.016349 0.001624 -0.000115 0.000120 0.000031
# 3 -0.007290 0.001624 0.013690 -0.000043 0.001069 0.000050
# 4 0.000050 -0.000115 -0.000043 0.033863 -0.000011 -0.009319
# 5 -0.009557 0.000120 0.001069 -0.000011 0.034021 0.000040
# 6 -0.000121 0.000031 0.000050 -0.009319 0.000040 0.042370
#
#
# Mechanical properties :
#
#
# Convention : Reuss Voigt Hill
#
# Bulk Modulus (GPa) = 38.80426 45.34736 42.07581
# Shear Modulus (GPa) = 26.11684 30.27330 28.19507
#
# Velocity S-wave (km/s) = 3.32819 3.58326 3.45808
# Velocity P-wave (km/s) = 5.58812 6.02932 5.81291
#
# Compressibility (1/GPa) = 0.02577037
#
# Stress axis : x y z
#
# Youngs Moduli (GPa) = 52.22273 61.16719 73.04733
#
# Poissons Ratio (x) = 0.36965 0.53249
# Poissons Ratio (y) = 0.31559 -0.11866
# Poissons Ratio (z) = 0.38068 -0.09936
#
# Static dielectric constant tensor:
#      x y z
#    x 4.218960 -0.000040 -0.036040 
#    y -0.000040 3.955690 -0.000220 
#    z -0.036040 -0.000220 4.389020 
# 
# 
# High freq. dielectric constant tensor:
#      x y z
#    x 1.919580 -0.000010 0.010100 
#    y -0.000010 1.928940 -0.000030 
#    z 0.010100 -0.000030 1.945870 
# 
# From -- ./inp_files/275826.got.cif
#   From: 2010.06.25/outbox.cif.g09.slc.cpg/sg15_138_cif.got.tgz:275826.got - 2010.06.28 07:06:18.
