data_PCOD8145001
_publ_section_title
;
Structure prediction by ZEFSAII (Michael W. Deem and Ramdas Pophale) SiO2 
 PCOD8145001
Probable space group: C 2/C
;
_chemical_formula_sum "Si O2"
_cell_formula_units_Z 52
_cell_length_a 17.156055
_cell_length_b 17.251780
_cell_length_c 17.680413
_cell_angle_alpha 90.000000
_cell_angle_beta 28.946135
_cell_angle_gamma 90.000000
_cell_volume 2532.664041
_symmetry_space_group_name_H-M "C 2/C"
_symmetry_group_IT_number 15
_symmetry_cell_setting 'monoclinic'
loop_
_space_group_symop_operation_xyz
x,y,z
-x,y,1/2-z
-x,-y,-z
x,-y,1/2+z
1/2+x,1/2+y,z
1/2-x,1/2+y,1/2-z
1/2-x,1/2-y,-z
1/2+x,1/2-y,1/2+z
loop_
_atom_site_type_symbol
_atom_site_label
_atom_site_fract_x
_atom_site_fract_y
_atom_site_fract_z
Si Si1 0.518398 0.586508 0.839920
Si Si2 0.258269 0.340644 0.478298
Si Si3 0.797868 0.950743 0.015360
Si Si4 0.500000 0.057378 0.250000
Si Si5 0.132355 0.856064 0.395686
Si Si6 0.922529 0.746967 0.659609
Si Si7 0.260690 0.817918 0.550328
O O1 0.644674 0.627548 0.676648
O O2 0.351415 0.633454 0.975522
O O3 0.587366 0.585956 0.866314
O O4 0.466071 0.498369 0.862932
O O5 0.250000 0.250000 0.500000
O O6 0.084522 0.382950 0.618709
O O7 0.808454 0.898226 0.079717
O O8 0.641264 0.004095 0.164044
O O9 0.770533 0.900592 0.962552
O O10 0.276766 0.800527 0.247144
O O11 0.979031 0.803336 0.544840
O O12 0.873369 0.801762 0.772058
O O13 0.060807 0.685551 0.565767
O O14 0.250000 0.750000 0.500000
#
# Coordination Sequence:
#
# PCOD8145001 Si02
#       7
#     8   8   8   4   8   8   8
#     4  10  24  41  62  91 118 168 204 256 330 366
#     4  10  22  45  68  87 112 154 220 269 308 362
#     4  11  22  38  63  89 138 160 203 259 305 385
#     4  10  22  38  62  98 116 158 206 254 316 360
#     4  11  23  39  58  91 133 162 209 248 323 368
#     4  10  22  36  59  96 123 173 208 258 298 369
#     4  11  20  36  61  93 129 163 217 243 300 364
#
# _framework density 20.531739999999999
#
# number of rings (size 3 to 8) (size 9 to 14) (size 15 to 20)
#    0.000    1.538    3.077    2.769    2.154    4.923 
#    0.000    0.769    0.000    0.000    0.000    0.000 
#    0.000    0.000    0.000    0.000    0.000    0.000 
#
# Total GULP energy -322134.692293 kJ/mol
# GULP energy per Si atom -12389.795857 kJ/mol
# Density = 2.048501 g / cm^3
# Si number density = 20.531740 Si / 1000 Ang^3
#
#
#
# Elastic Constant Matrix: (Units=GPa)
#
#
# Indices 1 2 3 4 5 6 
#
# 1 80.0074 24.5942 33.5589 -0.0163 2.2814 0.0103
# 2 24.5942 115.5055 51.9358 -0.0526 -7.0838 0.0364
# 3 33.5589 51.9358 116.6099 -0.0425 -9.8363 0.0295
# 4 -0.0163 -0.0526 -0.0425 33.3079 0.0221 -3.1524
# 5 2.2814 -7.0838 -9.8363 0.0221 15.7000 -0.0076
# 6 0.0103 0.0364 0.0295 -3.1524 -0.0076 30.2952
#
#
#
# Elastic Compliance Matrix: (Units=1/GPa)
#
#
# Indices 1 2 3 4 5 6 
#
# 1 0.014842 -0.001709 -0.003967 0.000003 -0.005413 0.000000
# 2 -0.001709 0.011080 -0.004224 0.000009 0.002601 -0.000007
# 3 -0.003967 -0.004224 0.012127 0.000002 0.006269 -0.000004
# 4 0.000003 0.000009 0.000002 0.030322 -0.000036 0.003155
# 5 -0.005413 0.002601 0.006269 -0.000036 0.069582 0.000006
# 6 0.000000 -0.000007 -0.000004 0.003155 0.000006 0.033337
#
#
# Mechanical properties :
#
#
# Convention : Reuss Voigt Hill
#
# Bulk Modulus (GPa) = 54.79170 59.14450 56.96810
# Shear Modulus (GPa) = 25.35852 29.32955 27.34403
#
# Velocity S-wave (km/s) = 3.51820 3.78365 3.65333
# Velocity P-wave (km/s) = 6.57631 6.92509 6.75295
#
# Compressibility (1/GPa) = 0.01825094
#
# Stress axis : x y z
#
# Youngs Moduli (GPa) = 67.37454 90.25200 82.45919
#
# Poissons Ratio (x) = 0.15420 0.32712
# Poissons Ratio (y) = 0.11511 0.34828
# Poissons Ratio (z) = 0.26728 0.38120
#
# Static dielectric constant tensor:
#      x y z
#    x 2.690480 0.520020 -2.519320 
#    y 0.520020 5.092760 1.242860 
#    z -2.519320 1.242860 -1.377130 
# 
# 
# High freq. dielectric constant tensor:
#      x y z
#    x 1.779600 0.000000 -0.015520 
#    y 0.000000 1.811020 0.000000 
#    z -0.015520 0.000000 1.814330 
# 
# From -- ./inp_files/70432.got.cif
#   From: 2010.06.25/outbox.cif.g09.slc.cpg/sg15_36_cif.got.tgz:70432.got - 2010.06.28 07:06:18.
