data_PCOD8145696
_publ_section_title
;
Structure prediction by ZEFSAII (Michael W. Deem and Ramdas Pophale) SiO2 
 PCOD8145696
Probable space group: C 2/C
;
_chemical_formula_sum "Si O2"
_cell_formula_units_Z 56
_cell_length_a 17.204986
_cell_length_b 17.012988
_cell_length_c 11.664188
_cell_angle_alpha 90.000000
_cell_angle_beta 124.968751
_cell_angle_gamma 90.000000
_cell_volume 2797.819590
_symmetry_space_group_name_H-M "C 2/C"
_symmetry_group_IT_number 15
_symmetry_cell_setting 'monoclinic'
loop_
_space_group_symop_operation_xyz
x,y,z
-x,y,1/2-z
-x,-y,-z
x,-y,1/2+z
1/2+x,1/2+y,z
1/2-x,1/2+y,1/2-z
1/2-x,1/2-y,-z
1/2+x,1/2-y,1/2+z
loop_
_atom_site_type_symbol
_atom_site_label
_atom_site_fract_x
_atom_site_fract_y
_atom_site_fract_z
Si Si1 0.690858 0.606285 0.558097
Si Si2 0.749798 0.934415 0.916380
Si Si3 0.035826 0.778566 0.901250
Si Si4 0.340575 0.300498 0.850455
Si Si5 0.309497 0.151990 0.456272
Si Si6 0.389429 0.987342 0.886125
Si Si7 0.719852 0.132382 0.642057
O O1 0.690623 0.514288 0.531605
O O2 0.591599 0.639957 0.428865
O O3 0.779409 0.647571 0.564694
O O4 0.691902 0.626964 0.694969
O O5 0.818519 0.873523 0.912408
O O6 0.647250 0.947275 0.765029
O O7 0.737153 0.902209 0.032337
O O8 0.000000 0.747124 0.750000
O O9 0.952009 0.793851 0.919946
O O10 0.105261 0.710081 0.004263
O O11 0.282903 0.313720 0.685046
O O12 0.312890 0.221812 0.895687
O O13 0.341203 0.064248 0.445767
O O14 0.356038 0.077100 0.858868
O O15 0.500000 0.000000 0.000000
#
# Coordination Sequence:
#
# PCOD8145696 Si02
#       7
#     8   8   8   8   8   8   8
#     4  11  22  41  66  92 128 169 214 267 326 377
#     4  10  24  42  66  92 132 177 205 267 325 389
#     4  12  23  37  67  99 126 166 218 271 319 386
#     4  11  23  41  67  96 128 170 219 266 326 386
#     4  11  21  42  63  98 133 159 217 274 326 381
#     4  10  22  39  65  98 130 167 214 263 321 393
#     4  11  21  42  64  88 133 174 208 259 330 384
#
# _framework density 20.015585999999999
#
# number of rings (size 3 to 8) (size 9 to 14) (size 15 to 20)
#    0.000    1.143    4.286    2.571    0.000    2.286 
#    0.000    0.714    0.000    0.000    0.000    0.000 
#    0.000    0.000    0.000    0.000    0.000    0.000 
#
# Total GULP energy -347048.778322 kJ/mol
# GULP energy per Si atom -12394.599226 kJ/mol
# Density = 1.997003 g / cm^3
# Si number density = 20.015586 Si / 1000 Ang^3
#
#
#
# Elastic Constant Matrix: (Units=GPa)
#
#
# Indices 1 2 3 4 5 6 
#
# 1 98.0980 51.6627 49.3266 0.0000 -2.3727 0.0000
# 2 51.6627 145.9730 28.6883 0.0000 5.4573 0.0000
# 3 49.3266 28.6883 83.7816 0.0000 -12.6236 0.0000
# 4 0.0000 0.0000 0.0000 29.9374 0.0000 -3.4912
# 5 -2.3727 5.4573 -12.6236 0.0000 36.9759 0.0000
# 6 0.0000 0.0000 0.0000 -3.4912 0.0000 17.8713
#
#
#
# Elastic Compliance Matrix: (Units=1/GPa)
#
#
# Indices 1 2 3 4 5 6 
#
# 1 0.016671 -0.004168 -0.008575 0.000000 -0.001242 0.000000
# 2 -0.004168 0.008537 -0.000737 0.000000 -0.001779 0.000000
# 3 -0.008575 -0.000737 0.018101 0.000000 0.005738 0.000000
# 4 0.000000 0.000000 0.000000 0.034182 0.000000 0.006678
# 5 -0.001242 -0.001779 0.005738 0.000000 0.029187 0.000000
# 6 0.000000 0.000000 0.000000 0.006678 0.000000 0.057260
#
#
# Mechanical properties :
#
#
# Convention : Reuss Voigt Hill
#
# Bulk Modulus (GPa) = 61.16807 65.24532 63.20670
# Shear Modulus (GPa) = 25.46495 30.16859 27.81677
#
# Velocity S-wave (km/s) = 3.57074 3.88655 3.73199
# Velocity P-wave (km/s) = 6.90122 7.26694 7.08644
#
# Compressibility (1/GPa) = 0.01634840
#
# Stress axis : x y z
#
# Youngs Moduli (GPa) = 59.98514 117.13334 55.24466
#
# Poissons Ratio (x) = 0.48826 0.47371
# Poissons Ratio (y) = 0.25004 0.04073
# Poissons Ratio (z) = 0.51436 0.08635
#
# Static dielectric constant tensor:
#      x y z
#    x 3.421190 0.000000 -0.054720 
#    y 0.000000 3.973170 0.000000 
#    z -0.054720 0.000000 3.889760 
# 
# 
# High freq. dielectric constant tensor:
#      x y z
#    x 1.762920 0.000000 -0.006630 
#    y 0.000000 1.803910 0.000000 
#    z -0.006630 0.000000 1.779880 
# 
# From -- ./inp_files/98831.got.cif
#   From: 2010.06.25/outbox.cif.g09.slc.cpg/sg15_50_cif.got.tgz:98831.got - 2010.06.28 07:06:18.
