data_PCOD8145539
_publ_section_title
;
Structure prediction by ZEFSAII (Michael W. Deem and Ramdas Pophale) SiO2 
 PCOD8145539
Probable space group: C 2/C
;
_chemical_formula_sum "Si O2"
_cell_formula_units_Z 52
_cell_length_a 11.655448
_cell_length_b 22.662475
_cell_length_c 10.737746
_cell_angle_alpha 90.000000
_cell_angle_beta 71.324585
_cell_angle_gamma 90.000000
_cell_volume 2686.945572
_symmetry_space_group_name_H-M "C 2/C"
_symmetry_group_IT_number 15
_symmetry_cell_setting 'monoclinic'
loop_
_space_group_symop_operation_xyz
x,y,z
-x,y,1/2-z
-x,-y,-z
x,-y,1/2+z
1/2+x,1/2+y,z
1/2-x,1/2+y,1/2-z
1/2-x,1/2-y,-z
1/2+x,1/2-y,1/2+z
loop_
_atom_site_type_symbol
_atom_site_label
_atom_site_fract_x
_atom_site_fract_y
_atom_site_fract_z
Si Si1 0.369489 0.724320 0.517929
Si Si2 0.000000 0.819993 0.750000
Si Si3 0.220601 0.319270 0.488905
Si Si4 0.122875 0.867343 0.280020
Si Si5 0.577303 0.500201 0.845001
Si Si6 0.222413 0.886816 0.781082
Si Si7 0.542737 0.830749 0.871012
O O1 0.250000 0.750000 0.500000
O O2 0.474559 0.721249 0.377615
O O3 0.362437 0.661175 0.588235
O O4 0.398528 0.769454 0.615254
O O5 0.880865 0.859290 0.770610
O O6 0.250000 0.250000 0.500000
O O7 0.273158 0.342469 0.342661
O O8 0.275177 0.353230 0.588289
O O9 0.081218 0.339688 0.510233
O O10 0.136718 0.936564 0.300475
O O11 0.000000 0.852390 0.250000
O O12 0.500000 0.482072 0.750000
O O13 0.688966 0.454651 0.819476
O O14 0.500000 0.500000 0.000000
O O15 0.353292 0.882075 0.663852
O O16 0.500000 0.818167 0.750000
#
# Coordination Sequence:
#
# PCOD8145539 Si02
#       7
#     8   4   8   8   8   8   8
#     4  12  24  37  57  92 127 161 205 259 328 384
#     4  12  22  36  58  88 126 162 200 256 328 378
#     4  11  22  40  67  89 127 169 221 264 318 391
#     4  11  23  41  62  96 122 165 219 270 318 391
#     4  11  23  40  66  94 130 166 217 281 332 387
#     4  11  21  39  62  93 121 166 211 264 326 385
#     4  10  22  39  61  88 122 170 210 253 315 394
#
# _framework density 19.352830000000001
#
# number of rings (size 3 to 8) (size 9 to 14) (size 15 to 20)
#    0.000    0.923    2.308    7.846    2.154    0.000 
#    0.000    0.769    0.000    3.692    0.000    0.000 
#    0.000    0.000    0.000    0.000    0.000    0.000 
#
# Total GULP energy -322185.586334 kJ/mol
# GULP energy per Si atom -12391.753321 kJ/mol
# Density = 1.930878 g / cm^3
# Si number density = 19.352830 Si / 1000 Ang^3
#
#
#
# Elastic Constant Matrix: (Units=GPa)
#
#
# Indices 1 2 3 4 5 6 
#
# 1 131.8414 59.4679 48.5278 0.0000 -12.0600 0.0000
# 2 59.4679 140.5909 55.1929 0.0000 -11.1791 0.0000
# 3 48.5278 55.1929 113.7582 0.0000 -29.6911 0.0000
# 4 0.0000 0.0000 0.0000 31.5417 0.0000 1.0776
# 5 -12.0600 -11.1791 -29.6911 0.0000 35.9716 0.0000
# 6 0.0000 0.0000 0.0000 1.0776 0.0000 31.5636
#
#
#
# Elastic Compliance Matrix: (Units=1/GPa)
#
#
# Indices 1 2 3 4 5 6 
#
# 1 0.010021 -0.003167 -0.002700 0.000000 0.000147 0.000000
# 2 -0.003167 0.009816 -0.003687 0.000000 -0.001054 0.000000
# 3 -0.002700 -0.003687 0.014270 0.000000 0.009727 0.000000
# 4 0.000000 0.000000 0.000000 0.031741 0.000000 -0.001084
# 5 0.000147 -0.001054 0.009727 0.000000 0.035550 0.000000
# 6 0.000000 0.000000 0.000000 -0.001084 0.000000 0.031719
#
#
# Mechanical properties :
#
#
# Convention : Reuss Voigt Hill
#
# Bulk Modulus (GPa) = 66.66850 79.17418 72.92134
# Shear Modulus (GPa) = 31.80194 34.68218 33.24206
#
# Velocity S-wave (km/s) = 4.05813 4.23791 4.14899
# Velocity P-wave (km/s) = 7.51542 8.05892 7.79191
#
# Compressibility (1/GPa) = 0.01499959
#
# Stress axis : x y z
#
# Youngs Moduli (GPa) = 99.79527 101.87581 70.07821
#
# Poissons Ratio (x) = 0.32264 0.18919
# Poissons Ratio (y) = 0.31605 0.25835
# Poissons Ratio (z) = 0.26942 0.37557
#
# Static dielectric constant tensor:
#      x y z
#    x 6.136790 0.000000 -0.430700 
#    y 0.000000 3.555370 0.000000 
#    z -0.430700 0.000000 2.526360 
# 
# 
# High freq. dielectric constant tensor:
#      x y z
#    x 1.756350 0.000000 0.002320 
#    y 0.000000 1.742320 0.000000 
#    z 0.002320 0.000000 1.767990 
# 
# From -- ./inp_files/90297.got.cif
#   From: 2010.06.25/outbox.cif.g09.slc.cpg/sg15_46_cif.got.tgz:90297.got - 2010.06.28 07:06:18.
