data_PCOD8145431
_publ_section_title
;
Structure prediction by ZEFSAII (Michael W. Deem and Ramdas Pophale) SiO2 
 PCOD8145431
Probable space group: C 2/C
;
_chemical_formula_sum "Si O2"
_cell_formula_units_Z 36
_cell_length_a 9.159875
_cell_length_b 17.138733
_cell_length_c 10.914087
_cell_angle_alpha 90.000000
_cell_angle_beta 103.777469
_cell_angle_gamma 90.000000
_cell_volume 1664.090221
_symmetry_space_group_name_H-M "C 2/C"
_symmetry_group_IT_number 15
_symmetry_cell_setting 'monoclinic'
loop_
_space_group_symop_operation_xyz
x,y,z
-x,y,1/2-z
-x,-y,-z
x,-y,1/2+z
1/2+x,1/2+y,z
1/2-x,1/2+y,1/2-z
1/2-x,1/2-y,-z
1/2+x,1/2-y,1/2+z
loop_
_atom_site_type_symbol
_atom_site_label
_atom_site_fract_x
_atom_site_fract_y
_atom_site_fract_z
Si Si1 0.101876 0.075367 0.505631
Si Si2 0.950074 0.457257 0.113112
Si Si3 0.048603 0.206165 0.885634
Si Si4 0.500000 0.670554 0.250000
Si Si5 0.618730 0.800669 0.115458
O O1 0.272831 0.053438 0.565927
O O2 0.077846 0.115707 0.367789
O O3 0.055133 0.132160 0.606328
O O4 0.000000 0.000000 0.500000
O O5 0.000000 0.502585 0.250000
O O6 0.036949 0.376081 0.149268
O O7 0.000000 0.500000 0.000000
O O8 0.219848 0.177408 0.907257
O O9 0.000000 0.245674 0.750000
O O10 0.019663 0.270739 0.982136
O O11 0.624889 0.729127 0.215453
#
# Coordination Sequence:
#
# PCOD8145431 Si02
#       5
#     8   8   8   4   8
#     4  11  26  43  71  97 140 182 233 283 351 416
#     4  12  27  45  72 102 144 186 233 291 350 413
#     4  10  22  38  67  95 131 175 219 282 338 411
#     4  10  24  42  72 100 136 180 226 286 346 410
#     4  10  22  43  64 100 137 169 231 273 349 414
#
# _framework density 21.633441000000001
#
# number of rings (size 3 to 8) (size 9 to 14) (size 15 to 20)
#    0.000    1.333    1.111    2.667    7.778    2.667 
#    0.000    0.000    0.000    0.000    0.000    0.000 
#    0.000    0.000    0.000    0.000    0.000    0.000 
#
# Total GULP energy -223087.862444 kJ/mol
# GULP energy per Si atom -12393.770136 kJ/mol
# Density = 2.158420 g / cm^3
# Si number density = 21.633441 Si / 1000 Ang^3
#
#
#
# Elastic Constant Matrix: (Units=GPa)
#
#
# Indices 1 2 3 4 5 6 
#
# 1 130.5129 32.8587 35.8455 0.0000 -0.6271 0.0000
# 2 32.8587 73.1614 46.0198 0.0000 -8.1394 0.0000
# 3 35.8455 46.0198 166.0142 0.0000 -19.4430 0.0000
# 4 0.0000 0.0000 0.0000 25.4373 0.0000 -9.1013
# 5 -0.6271 -8.1394 -19.4430 0.0000 36.1642 0.0000
# 6 0.0000 0.0000 0.0000 -9.1013 0.0000 29.6331
#
#
#
# Elastic Compliance Matrix: (Units=1/GPa)
#
#
# Indices 1 2 3 4 5 6 
#
# 1 0.008815 -0.003400 -0.001102 0.000000 -0.001205 0.000000
# 2 -0.003400 0.017928 -0.004023 0.000000 0.001813 0.000000
# 3 -0.001102 -0.004023 0.007757 0.000000 0.003246 0.000000
# 4 0.000000 0.000000 0.000000 0.044166 0.000000 0.013565
# 5 -0.001205 0.001813 0.003246 0.000000 0.029784 0.000000
# 6 0.000000 0.000000 0.000000 0.013565 0.000000 0.037912
#
#
# Mechanical properties :
#
#
# Convention : Reuss Voigt Hill
#
# Bulk Modulus (GPa) = 57.30838 66.57075 61.93956
# Shear Modulus (GPa) = 29.54597 35.24455 32.39526
#
# Velocity S-wave (km/s) = 3.69962 4.04068 3.87390
# Velocity P-wave (km/s) = 6.69311 7.25316 6.97876
#
# Compressibility (1/GPa) = 0.01744945
#
# Stress axis : x y z
#
# Youngs Moduli (GPa) = 113.44405 55.77939 128.91763
#
# Poissons Ratio (x) = 0.18964 0.14206
# Poissons Ratio (y) = 0.38570 0.51866
# Poissons Ratio (z) = 0.12501 0.22441
#
# Static dielectric constant tensor:
#      x y z
#    x 4.124080 0.000000 -0.227100 
#    y 0.000000 3.858950 0.000000 
#    z -0.227100 0.000000 4.275240 
# 
# 
# High freq. dielectric constant tensor:
#      x y z
#    x 1.857970 0.000000 -0.016570 
#    y 0.000000 1.836740 0.000000 
#    z -0.016570 0.000000 1.872910 
# 
# From -- ./inp_files/76596.got.cif
#   From: 2010.06.25/outbox.cif.g09.slc.cpg/sg15_39_cif.got.tgz:76596.got - 2010.06.28 07:06:18.
