data_PCOD8145767
_publ_section_title
;
Structure prediction by ZEFSAII (Michael W. Deem and Ramdas Pophale) SiO2 
 PCOD8145767
Probable space group: C 2/C
;
_chemical_formula_sum "Si O2"
_cell_formula_units_Z 60
_cell_length_a 24.214106
_cell_length_b 7.818578
_cell_length_c 16.205639
_cell_angle_alpha 90.000000
_cell_angle_beta 63.914320
_cell_angle_gamma 90.000000
_cell_volume 2755.530381
_symmetry_space_group_name_H-M "C 2/C"
_symmetry_group_IT_number 15
_symmetry_cell_setting 'monoclinic'
loop_
_space_group_symop_operation_xyz
x,y,z
-x,y,1/2-z
-x,-y,-z
x,-y,1/2+z
1/2+x,1/2+y,z
1/2-x,1/2+y,1/2-z
1/2-x,1/2-y,-z
1/2+x,1/2-y,1/2+z
loop_
_atom_site_type_symbol
_atom_site_label
_atom_site_fract_x
_atom_site_fract_y
_atom_site_fract_z
Si Si1 0.280648 0.400398 0.532117
Si Si2 0.563816 0.088290 0.938067
Si Si3 0.155864 0.510769 0.638874
Si Si4 0.404465 0.273839 0.423705
Si Si5 0.405259 0.701174 0.232916
Si Si6 0.829047 0.369411 0.691182
Si Si7 0.200122 0.022966 0.298798
Si Si8 0.500000 0.448928 0.250000
O O1 0.250000 0.250000 0.500000
O O2 0.227687 0.547977 0.563648
O O3 0.350198 0.420305 0.449899
O O4 0.292882 0.367674 0.621369
O O5 0.557735 0.175087 0.852633
O O6 0.617399 0.945316 0.901641
O O7 0.578307 0.239992 0.992843
O O8 0.500000 0.000000 0.000000
O O9 0.118880 0.407611 0.594552
O O10 0.121597 0.690440 0.672864
O O11 0.154980 0.395701 0.722745
O O12 0.465749 0.330086 0.337672
O O13 0.347475 0.618846 0.226892
O O14 0.451186 0.559195 0.233389
O O15 0.821706 0.170784 0.672641
O O16 0.766567 0.472888 0.710392
#
# Coordination Sequence:
#
# PCOD8145767 Si02
#       8
#     8   8   8   8   8   8   8   4
#     4   9  19  39  67  97 128 165 216 279 335 385
#     4  11  26  43  69  98 133 181 230 277 329 405
#     4   9  21  41  70  93 131 170 218 278 342 396
#     4  11  24  45  67  95 134 183 225 275 336 395
#     4  11  25  46  65 102 133 178 227 279 332 409
#     4  10  22  39  70 102 129 175 221 277 338 401
#     4  11  20  40  71  97 134 169 226 276 341 403
#     4  12  30  42  66  96 140 188 220 276 336 406
#
# _framework density 21.774391000000001
#
# number of rings (size 3 to 8) (size 9 to 14) (size 15 to 20)
#    0.000    1.600    1.333    3.200    9.333    1.600 
#    2.400    0.667    0.000    0.000    0.000    0.000 
#    0.000    0.000    0.000    0.000    0.000    0.000 
#
# Total GULP energy -371759.429975 kJ/mol
# GULP energy per Si atom -12391.980999 kJ/mol
# Density = 2.172483 g / cm^3
# Si number density = 21.774391 Si / 1000 Ang^3
#
#
#
# Elastic Constant Matrix: (Units=GPa)
#
#
# Indices 1 2 3 4 5 6 
#
# 1 93.4911 9.5863 29.6280 0.0000 -21.5884 0.0002
# 2 9.5863 62.8778 24.3354 -0.0002 -13.1688 -0.0003
# 3 29.6280 24.3354 77.4839 0.0000 -28.2827 0.0001
# 4 0.0000 -0.0002 0.0000 34.6534 0.0000 -13.2521
# 5 -21.5884 -13.1688 -28.2827 0.0000 50.6053 0.0000
# 6 0.0002 -0.0003 0.0001 -13.2521 0.0000 52.2371
#
#
#
# Elastic Compliance Matrix: (Units=1/GPa)
#
#
# Indices 1 2 3 4 5 6 
#
# 1 0.012616 0.000199 -0.003647 0.000000 0.003395 0.000000
# 2 0.000199 0.018258 -0.005082 0.000000 0.001996 0.000000
# 3 -0.003647 -0.005082 0.018651 0.000000 0.007545 0.000000
# 4 0.000000 0.000000 0.000000 0.031958 0.000000 0.008107
# 5 0.003395 0.001996 0.007545 0.000000 0.025946 0.000000
# 6 0.000000 0.000000 0.000000 0.008107 0.000000 0.021200
#
#
# Mechanical properties :
#
#
# Convention : Reuss Voigt Hill
#
# Bulk Modulus (GPa) = 30.80241 40.10578 35.45410
# Shear Modulus (GPa) = 31.94690 38.85271 35.39980
#
# Velocity S-wave (km/s) = 3.83453 4.22872 4.03644
# Velocity P-wave (km/s) = 5.81220 6.50396 6.16779
#
# Compressibility (1/GPa) = 0.03246499
#
# Stress axis : x y z
#
# Youngs Moduli (GPa) = 79.26681 54.76933 53.61718
#
# Poissons Ratio (x) = -0.01091 0.19555
# Poissons Ratio (y) = -0.01580 0.27248
# Poissons Ratio (z) = 0.28910 0.27834
#
# Static dielectric constant tensor:
#      x y z
#    x 3.862470 0.000000 -0.252710 
#    y 0.000000 3.765130 0.000000 
#    z -0.252710 0.000000 4.118270 
# 
# 
# High freq. dielectric constant tensor:
#      x y z
#    x 1.873890 0.000000 -0.009790 
#    y 0.000000 1.831990 0.000000 
#    z -0.009790 0.000000 1.857570 
# 
# From -- ./inp_files/172371.got.cif
#   From: 2010.06.25/outbox.cif.g09.slc.cpg/sg15_87_cif.got.tgz:172371.got - 2010.06.28 07:06:18.
