data_PCOD8145952
_publ_section_title
;
Structure prediction by ZEFSAII (Michael W. Deem and Ramdas Pophale) SiO2 
 PCOD8145952
Probable space group: C 2/C
;
_chemical_formula_sum "Si O2"
_cell_formula_units_Z 56
_cell_length_a 8.582725
_cell_length_b 16.877098
_cell_length_c 18.879237
_cell_angle_alpha 90.000000
_cell_angle_beta 79.880966
_cell_angle_gamma 90.000000
_cell_volume 2692.147231
_symmetry_space_group_name_H-M "C 2/C"
_symmetry_group_IT_number 15
_symmetry_cell_setting 'monoclinic'
loop_
_space_group_symop_operation_xyz
x,y,z
-x,y,1/2-z
-x,-y,-z
x,-y,1/2+z
1/2+x,1/2+y,z
1/2-x,1/2+y,1/2-z
1/2-x,1/2-y,-z
1/2+x,1/2-y,1/2+z
loop_
_atom_site_type_symbol
_atom_site_label
_atom_site_fract_x
_atom_site_fract_y
_atom_site_fract_z
Si Si1 0.898325 0.313808 0.824310
Si Si2 0.563032 0.329057 0.072920
Si Si3 0.908494 0.607168 0.559697
Si Si4 0.447008 0.960275 0.908342
Si Si5 0.902431 0.985433 0.079287
Si Si6 0.581764 0.261479 0.550754
Si Si7 0.453866 0.632300 0.171984
O O1 0.939112 0.248411 0.879215
O O2 0.962824 0.399873 0.842355
O O3 0.711739 0.320211 0.823280
O O4 0.000000 0.286202 0.750000
O O5 0.726593 0.373839 0.067016
O O6 0.429667 0.394586 0.103438
O O7 0.542564 0.301323 0.993590
O O8 0.981176 0.587882 0.477183
O O9 0.924407 0.530658 0.609981
O O10 0.011402 0.678535 0.583121
O O11 0.278924 0.003640 0.926049
O O12 0.949090 0.044918 0.138789
O O13 0.000000 0.000000 0.000000
O O14 0.750000 0.250000 0.500000
O O15 0.589440 0.317911 0.619257
O O16 0.500000 0.625040 0.250000
#
# Coordination Sequence:
#
# PCOD8145952 Si02
#       7
#     8   8   8   8   8   8   8
#     4  11  25  46  67  92 137 186 226 278 349 414
#     4  12  22  41  69  98 132 175 234 282 333 394
#     4  11  21  37  68  98 131 165 224 284 327 393
#     4  10  22  40  64 101 128 172 221 276 339 400
#     4  11  21  40  68  99 131 172 226 277 332 406
#     4  12  24  39  69 105 136 177 232 284 336 412
#     4  11  26  44  67 100 141 180 224 285 353 408
#
# _framework density 20.80124
#
# number of rings (size 3 to 8) (size 9 to 14) (size 15 to 20)
#    0.000    0.857    5.714    2.143    2.000    1.714 
#    0.000    2.143    0.000    0.000    0.000    0.000 
#    0.000    0.000    0.000    0.000    0.000    0.000 
#
# Total GULP energy -347216.369409 kJ/mol
# GULP energy per Si atom -12400.584622 kJ/mol
# Density = 2.075390 g / cm^3
# Si number density = 20.801240 Si / 1000 Ang^3
#
#
#
# Elastic Constant Matrix: (Units=GPa)
#
#
# Indices 1 2 3 4 5 6 
#
# 1 74.9332 39.6576 31.7591 0.0000 5.8886 0.0000
# 2 39.6576 130.0062 40.0563 0.0000 9.8919 0.0000
# 3 31.7591 40.0563 109.7290 0.0000 13.4111 0.0000
# 4 0.0000 0.0000 0.0000 24.5253 0.0000 3.1949
# 5 5.8886 9.8919 13.4111 0.0000 29.8041 0.0000
# 6 0.0000 0.0000 0.0000 3.1949 0.0000 42.2622
#
#
#
# Elastic Compliance Matrix: (Units=1/GPa)
#
#
# Indices 1 2 3 4 5 6 
#
# 1 0.016980 -0.004109 -0.003356 0.000000 -0.000481 0.000000
# 2 -0.004109 0.009728 -0.002187 0.000000 -0.001433 0.000000
# 3 -0.003356 -0.002187 0.011337 0.000000 -0.003712 0.000000
# 4 0.000000 0.000000 0.000000 0.041180 0.000000 -0.003113
# 5 -0.000481 -0.001433 -0.003712 0.000000 0.035794 0.000000
# 6 0.000000 0.000000 0.000000 -0.003113 0.000000 0.023897
#
#
# Mechanical properties :
#
#
# Convention : Reuss Voigt Hill
#
# Bulk Modulus (GPa) = 53.35748 59.73491 56.54620
# Shear Modulus (GPa) = 30.40148 32.86470 31.63309
#
# Velocity S-wave (km/s) = 3.82713 3.97916 3.90389
# Velocity P-wave (km/s) = 6.72578 7.06335 6.89663
#
# Compressibility (1/GPa) = 0.01874152
#
# Stress axis : x y z
#
# Youngs Moduli (GPa) = 58.89286 102.79387 88.20954
#
# Poissons Ratio (x) = 0.42239 0.29601
# Poissons Ratio (y) = 0.24200 0.19290
# Poissons Ratio (z) = 0.19763 0.22479
#
# Static dielectric constant tensor:
#      x y z
#    x 3.894660 0.000000 0.109160 
#    y 0.000000 4.316510 0.000000 
#    z 0.109160 0.000000 3.644310 
# 
# 
# High freq. dielectric constant tensor:
#      x y z
#    x 1.819170 0.000000 0.006000 
#    y 0.000000 1.837970 0.000000 
#    z 0.006000 0.000000 1.781430 
# 
# From -- ./inp_files/190918.got.cif
#   From: 2010.06.25/outbox.cif.g09.slc.cpg/sg15_96_cif.got.tgz:190918.got - 2010.06.28 07:06:18.
