data_PCOD8145598
_publ_section_title
;
Structure prediction by ZEFSAII (Michael W. Deem and Ramdas Pophale) SiO2 
 PCOD8145598
Probable space group: C 2/C
;
_chemical_formula_sum "Si O2"
_cell_formula_units_Z 56
_cell_length_a 22.211268
_cell_length_b 7.615681
_cell_length_c 16.434018
_cell_angle_alpha 90.000000
_cell_angle_beta 87.185981
_cell_angle_gamma 90.000000
_cell_volume 2776.526655
_symmetry_space_group_name_H-M "C 2/C"
_symmetry_group_IT_number 15
_symmetry_cell_setting 'monoclinic'
loop_
_space_group_symop_operation_xyz
x,y,z
-x,y,1/2-z
-x,-y,-z
x,-y,1/2+z
1/2+x,1/2+y,z
1/2-x,1/2+y,1/2-z
1/2-x,1/2-y,-z
1/2+x,1/2-y,1/2+z
loop_
_atom_site_type_symbol
_atom_site_label
_atom_site_fract_x
_atom_site_fract_y
_atom_site_fract_z
Si Si1 0.991602 0.962545 0.156002
Si Si2 0.590644 0.230650 0.892846
Si Si3 0.806074 0.841115 0.037621
Si Si4 0.327453 0.276467 0.285726
Si Si5 0.885826 0.105040 0.938614
Si Si6 0.796580 0.905294 0.683099
Si Si7 0.901201 0.339840 0.636772
O O1 0.055099 0.973248 0.107174
O O2 0.000000 0.922499 0.250000
O O3 0.951816 0.807945 0.118756
O O4 0.959282 0.148104 0.145655
O O5 0.654671 0.258586 0.844334
O O6 0.570355 0.029890 0.882226
O O7 0.595989 0.271774 0.987788
O O8 0.846772 0.693504 0.077720
O O9 0.780939 0.976306 0.106124
O O10 0.750000 0.750000 0.000000
O O11 0.845086 0.941458 0.967754
O O12 0.348291 0.276677 0.377705
O O13 0.262469 0.189065 0.280208
O O14 0.324798 0.475453 0.252474
O O15 0.376201 0.167416 0.230544
#
# Coordination Sequence:
#
# PCOD8145598 Si02
#       7
#     8   8   8   8   8   8   8
#     4  12  23  50  67  94 139 176 229 276 333 400
#     4  11  24  43  68  98 131 175 221 281 336 390
#     4  10  24  42  64 100 136 176 217 278 342 400
#     4  11  22  41  64  98 133 179 220 275 334 403
#     4  11  24  42  71  93 137 180 219 282 339 388
#     4  10  22  39  62  94 136 171 218 273 336 394
#     4  11  24  45  67  98 136 174 224 277 331 404
#
# _framework density 20.169084999999999
#
# number of rings (size 3 to 8) (size 9 to 14) (size 15 to 20)
#    0.000    1.143    5.714    1.286    8.000    2.286 
#    2.571    0.000    0.000    0.000    0.000    0.000 
#    0.000    0.000    0.000    0.000    0.000    0.000 
#
# Total GULP energy -347371.819632 kJ/mol
# GULP energy per Si atom -12406.136415 kJ/mol
# Density = 2.012318 g / cm^3
# Si number density = 20.169085 Si / 1000 Ang^3
#
#
#
# Elastic Constant Matrix: (Units=GPa)
#
#
# Indices 1 2 3 4 5 6 
#
# 1 92.8157 37.1086 33.4571 0.0000 -5.0584 0.0000
# 2 37.1086 124.0714 28.4727 0.0000 2.1477 0.0000
# 3 33.4571 28.4727 95.5216 0.0000 -0.1904 0.0000
# 4 0.0000 0.0000 0.0000 5.8139 0.0000 -30.1780
# 5 -5.0584 2.1477 -0.1904 0.0000 43.2832 0.0000
# 6 0.0000 0.0000 0.0000 -30.1780 0.0000 -41.6522
#
#
#
# Elastic Compliance Matrix: (Units=1/GPa)
#
#
# Indices 1 2 3 4 5 6 
#
# 1 0.013509 -0.003204 -0.003773 0.000000 0.001721 0.000000
# 2 -0.003204 0.009420 -0.001687 0.000000 -0.000849 0.000000
# 3 -0.003773 -0.001687 0.012293 0.000000 -0.000303 0.000000
# 4 0.000000 0.000000 0.000000 0.036129 0.000000 -0.026176
# 5 0.001721 -0.000849 -0.000303 0.000000 0.023346 0.000000
# 6 0.000000 0.000000 0.000000 -0.026176 0.000000 -0.005043
#
#
# Mechanical properties :
#
#
# Convention : Reuss Voigt Hill
#
# Bulk Modulus (GPa) = 55.88921 56.72061 56.30491
# Shear Modulus (GPa) = 44.26852 15.71367 29.99109
#
# Velocity S-wave (km/s) = 4.69003 2.79426 3.86033
# Velocity P-wave (km/s) = 7.55639 6.21242 6.91712
#
# Compressibility (1/GPa) = 0.01789254
#
# Stress axis : x y z
#
# Youngs Moduli (GPa) = 74.02452 106.15517 81.34900
#
# Poissons Ratio (x) = 0.34016 0.30694
# Poissons Ratio (y) = 0.23720 0.13726
# Poissons Ratio (z) = 0.27930 0.17911
#
# Static dielectric constant tensor:
#      x y z
#    x 3.695600 0.000000 -0.087250 
#    y 0.000000 3.529720 0.000000 
#    z -0.087250 0.000000 3.904510 
# 
# 
# High freq. dielectric constant tensor:
#      x y z
#    x 1.794150 0.000000 -0.003530 
#    y 0.000000 1.777700 0.000000 
#    z -0.003530 0.000000 1.798290 
# 
# From -- ./inp_files/213423.got.cif
#   From: 2010.06.25/outbox.cif.g09.slc.cpg/sg15_107_cif.got.tgz:213423.got - 2010.06.28 07:06:18.
