data_PCOD8145434
_publ_section_title
;
Structure prediction by ZEFSAII (Michael W. Deem and Ramdas Pophale) SiO2 
 PCOD8145434
Probable space group: C 2/C
;
_chemical_formula_sum "Si O2"
_cell_formula_units_Z 60
_cell_length_a 11.518590
_cell_length_b 21.729714
_cell_length_c 16.854492
_cell_angle_alpha 90.000000
_cell_angle_beta 41.455127
_cell_angle_gamma 90.000000
_cell_volume 2792.857756
_symmetry_space_group_name_H-M "C 2/C"
_symmetry_group_IT_number 15
_symmetry_cell_setting 'monoclinic'
loop_
_space_group_symop_operation_xyz
x,y,z
-x,y,1/2-z
-x,-y,-z
x,-y,1/2+z
1/2+x,1/2+y,z
1/2-x,1/2+y,1/2-z
1/2-x,1/2-y,-z
1/2+x,1/2-y,1/2+z
loop_
_atom_site_type_symbol
_atom_site_label
_atom_site_fract_x
_atom_site_fract_y
_atom_site_fract_z
Si Si1 0.701062 0.744287 0.935025
Si Si2 0.798591 0.271853 0.118337
Si Si3 0.087552 0.611896 0.030115
Si Si4 0.681703 0.453109 0.202951
Si Si5 0.500000 0.333672 0.750000
Si Si6 0.851447 0.845241 0.168218
Si Si7 0.730117 0.360806 0.914793
Si Si8 0.300018 0.589084 0.241804
O O1 0.824776 0.794159 0.831227
O O2 0.729269 0.677993 0.875601
O O3 0.750000 0.750000 0.000000
O O4 0.498061 0.759480 0.038708
O O5 0.681346 0.288977 0.254376
O O6 0.709542 0.209321 0.132829
O O7 0.805748 0.326903 0.051196
O O8 0.124061 0.605355 0.105784
O O9 0.878168 0.615118 0.126267
O O10 0.163440 0.553975 0.941534
O O11 0.500000 0.439013 0.250000
O O12 0.730088 0.406153 0.250441
O O13 0.681335 0.518283 0.245293
O O14 0.524758 0.377151 0.814506
O O15 0.054773 0.859143 0.056014
O O16 0.702455 0.401797 0.850928
#
# Coordination Sequence:
#
# PCOD8145434 Si02
#       8
#     8   8   8   8   4   8   8   8
#     4  11  21  38  63  94 138 175 215 275 336 409
#     4  10  22  38  67  98 134 175 212 276 338 409
#     4  11  23  45  66  98 133 174 225 280 340 401
#     4  11  23  46  72  93 131 181 230 286 332 405
#     4  12  22  40  64  94 136 178 226 264 346 404
#     4  10  22  42  65 100 129 173 226 271 339 398
#     4  11  23  40  68 102 135 169 217 284 342 406
#     4  12  25  43  68  97 133 182 230 276 337 405
#
# _framework density 21.483371000000002
#
# number of rings (size 3 to 8) (size 9 to 14) (size 15 to 20)
#    0.000    1.067    3.333    4.400    1.867    0.533 
#    2.400    0.000    8.800    0.000    0.000    0.000 
#    0.000    0.000    0.000    0.000    0.000    0.000 
#
# Total GULP energy -371737.319644 kJ/mol
# GULP energy per Si atom -12391.243988 kJ/mol
# Density = 2.143447 g / cm^3
# Si number density = 21.483371 Si / 1000 Ang^3
#
#
#
# Elastic Constant Matrix: (Units=GPa)
#
#
# Indices 1 2 3 4 5 6 
#
# 1 115.8082 42.5475 24.9391 -0.0002 15.1341 -0.0008
# 2 42.5475 116.8831 23.4098 0.0000 13.6871 -0.0002
# 3 24.9391 23.4098 92.4292 -0.0057 0.2493 0.0004
# 4 -0.0002 0.0000 -0.0057 21.9695 0.0014 1.5840
# 5 15.1341 13.6871 0.2493 0.0014 36.7514 0.0002
# 6 -0.0008 -0.0002 0.0004 1.5840 0.0002 26.5750
#
#
#
# Elastic Compliance Matrix: (Units=1/GPa)
#
#
# Indices 1 2 3 4 5 6 
#
# 1 0.010634 -0.003077 -0.002081 0.000000 -0.003219 0.000000
# 2 -0.003077 0.010333 -0.001780 0.000000 -0.002569 0.000000
# 3 -0.002081 -0.001780 0.011828 0.000003 0.001440 0.000000
# 4 0.000000 0.000000 0.000003 0.045714 -0.000001 -0.002725
# 5 -0.003219 -0.002569 0.001440 -0.000001 0.029482 0.000000
# 6 0.000000 0.000000 0.000000 -0.002725 0.000000 0.037792
#
#
# Mechanical properties :
#
#
# Convention : Reuss Voigt Hill
#
# Bulk Modulus (GPa) = 52.85920 56.32369 54.59145
# Shear Modulus (GPa) = 30.12660 32.67413 31.40036
#
# Velocity S-wave (km/s) = 3.74882 3.90411 3.82725
# Velocity P-wave (km/s) = 6.58759 6.82620 6.70796
#
# Compressibility (1/GPa) = 0.01891818
#
# Stress axis : x y z
#
# Youngs Moduli (GPa) = 94.03414 96.77686 84.54830
#
# Poissons Ratio (x) = 0.29781 0.17597
# Poissons Ratio (y) = 0.28937 0.15048
# Poissons Ratio (z) = 0.19571 0.17225
#
# Static dielectric constant tensor:
#      x y z
#    x 3.639520 0.000000 0.024530 
#    y 0.000000 3.849280 0.000000 
#    z 0.024530 0.000000 3.858220 
# 
# 
# High freq. dielectric constant tensor:
#      x y z
#    x 1.842720 0.000000 0.005980 
#    y 0.000000 1.828800 0.000000 
#    z 0.005980 0.000000 1.854260 
# 
# From -- ./inp_files/200514.got.cif
#   From: 2010.06.25/outbox.cif.g09.slc.cpg/sg15_101_cif.got.tgz:200514.got - 2010.06.28 07:06:18.
