data_PCOD8145563
_publ_section_title
;
Structure prediction by ZEFSAII (Michael W. Deem and Ramdas Pophale) SiO2 
 PCOD8145563
Probable space group: C 2/C
;
_chemical_formula_sum "Si O2"
_cell_formula_units_Z 40
_cell_length_a 26.010269
_cell_length_b 13.072513
_cell_length_c 5.224359
_cell_angle_alpha 90.000000
_cell_angle_beta 77.147149
_cell_angle_gamma 90.000000
_cell_volume 1731.876291
_symmetry_space_group_name_H-M "C 2/C"
_symmetry_group_IT_number 15
_symmetry_cell_setting 'monoclinic'
loop_
_space_group_symop_operation_xyz
x,y,z
-x,y,1/2-z
-x,-y,-z
x,-y,1/2+z
1/2+x,1/2+y,z
1/2-x,1/2+y,1/2-z
1/2-x,1/2-y,-z
1/2+x,1/2-y,1/2+z
loop_
_atom_site_type_symbol
_atom_site_label
_atom_site_fract_x
_atom_site_fract_y
_atom_site_fract_z
Si Si1 0.770917 0.696392 0.726229
Si Si2 0.438461 0.060759 0.296746
Si Si3 0.125958 0.243916 0.616838
Si Si4 0.181575 0.936408 0.308129
Si Si5 0.937760 0.056059 0.852516
O O1 0.750000 0.750000 0.500000
O O2 0.834277 0.706357 0.638248
O O3 0.745476 0.581653 0.751989
O O4 0.750000 0.750000 0.000000
O O5 0.500000 0.086773 0.250000
O O6 0.407429 0.161681 0.239325
O O7 0.422866 0.021415 0.596381
O O8 0.155691 0.177664 0.806664
O O9 0.084067 0.166043 0.534400
O O10 0.164161 0.997342 0.580243
O O11 0.000000 0.059189 0.750000
O O12 0.917266 0.024339 0.590948
#
# Coordination Sequence:
#
# PCOD8145563 Si02
#       5
#     8   8   8   8   8
#     4  10  23  40  58  86 124 166 212 256 303 362
#     4  10  24  44  65  93 127 165 214 269 319 368
#     4  11  23  41  68  94 124 169 215 259 313 379
#     4  11  23  40  62  92 129 163 201 255 317 379
#     4  10  22  39  61  95 133 165 202 251 314 385
#
# _framework density 23.096339
#
# number of rings (size 3 to 8) (size 9 to 14) (size 15 to 20)
#    0.000    1.600    0.000    4.200    0.000   11.200 
#    0.000    6.000    0.000    0.000    0.000    0.000 
#    0.000    0.000    0.000    0.000    0.000    0.000 
#
# Total GULP energy -247775.429008 kJ/mol
# GULP energy per Si atom -12388.771450 kJ/mol
# Density = 2.304377 g / cm^3
# Si number density = 23.096339 Si / 1000 Ang^3
#
#
#
# Elastic Constant Matrix: (Units=GPa)
#
#
# Indices 1 2 3 4 5 6 
#
# 1 78.8655 67.9151 68.5405 0.0000 -2.4620 0.0000
# 2 67.9151 131.1797 45.3535 0.0000 -7.9365 0.0000
# 3 68.5405 45.3535 141.6854 0.0000 9.0680 0.0000
# 4 0.0000 0.0000 0.0000 23.0064 0.0000 -2.1739
# 5 -2.4620 -7.9365 9.0680 0.0000 28.1942 0.0000
# 6 0.0000 0.0000 0.0000 -2.1739 0.0000 56.7668
#
#
#
# Elastic Compliance Matrix: (Units=1/GPa)
#
#
# Indices 1 2 3 4 5 6 
#
# 1 0.036575 -0.014085 -0.013412 0.000000 0.003543 0.000000
# 2 -0.014085 0.014320 0.002093 0.000000 0.002128 0.000000
# 3 -0.013412 0.002093 0.013184 0.000000 -0.004822 0.000000
# 4 0.000000 0.000000 0.000000 0.043624 0.000000 0.001671
# 5 0.003543 0.002128 -0.004822 0.000000 0.037928 0.000000
# 6 0.000000 0.000000 0.000000 0.001671 0.000000 0.017680
#
#
# Mechanical properties :
#
#
# Convention : Reuss Voigt Hill
#
# Bulk Modulus (GPa) = 75.33543 79.48323 77.40933
# Shear Modulus (GPa) = 22.87896 32.92156 27.90026
#
# Velocity S-wave (km/s) = 3.15078 3.77955 3.47939
# Velocity P-wave (km/s) = 6.77682 7.31677 7.05196
#
# Compressibility (1/GPa) = 0.01327397
#
# Stress axis : x y z
#
# Youngs Moduli (GPa) = 27.34095 69.83188 75.84814
#
# Poissons Ratio (x) = 0.98356 1.01724
# Poissons Ratio (y) = 0.38509 -0.15879
# Poissons Ratio (z) = 0.36668 -0.14619
#
# Static dielectric constant tensor:
#      x y z
#    x 4.967700 0.000000 -0.361160 
#    y 0.000000 4.230230 0.000000 
#    z -0.361160 0.000000 4.259030 
# 
# 
# High freq. dielectric constant tensor:
#      x y z
#    x 1.941150 0.000000 -0.014380 
#    y 0.000000 1.894430 0.000000 
#    z -0.014380 0.000000 1.913730 
# 
# From -- ./inp_files/18021.got.cif
#   From: 2010.06.25/outbox.cif.g09.slc.cpg/sg15_10_cif.got.tgz:18021.got - 2010.06.28 07:06:18.
