data_PCOD8145120
_publ_section_title
;
Structure prediction by ZEFSAII (Michael W. Deem and Ramdas Pophale) SiO2 
 PCOD8145120
Probable space group: C 2/C
;
_chemical_formula_sum "Si O2"
_cell_formula_units_Z 64
_cell_length_a 25.085175
_cell_length_b 11.479778
_cell_length_c 15.148109
_cell_angle_alpha 90.000000
_cell_angle_beta 134.169598
_cell_angle_gamma 90.000000
_cell_volume 3128.945725
_symmetry_space_group_name_H-M "C 2/C"
_symmetry_group_IT_number 15
_symmetry_cell_setting 'monoclinic'
loop_
_space_group_symop_operation_xyz
x,y,z
-x,y,1/2-z
-x,-y,-z
x,-y,1/2+z
1/2+x,1/2+y,z
1/2-x,1/2+y,1/2-z
1/2-x,1/2-y,-z
1/2+x,1/2-y,1/2+z
loop_
_atom_site_type_symbol
_atom_site_label
_atom_site_fract_x
_atom_site_fract_y
_atom_site_fract_z
Si Si1 0.530720 0.628919 0.031172
Si Si2 0.434726 0.416875 0.109311
Si Si3 0.218291 0.484328 0.534803
Si Si4 0.397210 0.340510 0.481113
Si Si5 0.589443 0.167146 0.850470
Si Si6 0.720388 0.348950 0.527462
Si Si7 0.250428 0.186596 0.788948
Si Si8 0.669593 0.285103 0.780127
O O1 0.534595 0.668764 0.932690
O O2 0.472626 0.705576 0.020378
O O3 0.500000 0.500000 0.000000
O O4 0.611761 0.628413 0.167250
O O5 0.500000 0.454703 0.250000
O O6 0.401112 0.528773 0.021900
O O7 0.368932 0.353885 0.085992
O O8 0.130853 0.453118 0.424335
O O9 0.245056 0.531085 0.469501
O O10 0.224439 0.579249 0.619981
O O11 0.265120 0.366128 0.605871
O O12 0.382300 0.260294 0.546664
O O13 0.334287 0.333207 0.334660
O O14 0.500000 0.151175 0.750000
O O15 0.623036 0.210234 0.796700
O O16 0.750000 0.250000 0.500000
O O17 0.742595 0.312338 0.652912
O O18 0.299218 0.193436 0.756157
#
# Coordination Sequence:
#
# PCOD8145120 Si02
#       8
#     8   8   8   8   8   8   8   8
#     4  10  22  37  61  98 130 166 204 270 333 374
#     4  11  23  37  64 100 133 164 208 273 340 382
#     4  11  25  43  67  97 131 173 218 264 329 383
#     4  11  23  40  65  96 130 166 212 272 329 377
#     4  12  25  44  64  95 134 174 218 266 317 386
#     4  10  24  43  63  92 130 173 215 265 322 387
#     4  11  25  44  67  97 130 168 221 269 318 394
#     4  12  23  43  69  98 131 167 227 270 321 388
#
# _framework density 20.454174999999999
#
# number of rings (size 3 to 8) (size 9 to 14) (size 15 to 20)
#    0.000    1.000    3.750    3.000   10.500    0.000 
#    0.000    4.375    0.000    0.000    0.000    0.000 
#    0.000    0.000    0.000    0.000    0.000    0.000 
#
# Total GULP energy -396606.656142 kJ/mol
# GULP energy per Si atom -12393.958004 kJ/mol
# Density = 2.040762 g / cm^3
# Si number density = 20.454175 Si / 1000 Ang^3
#
#
#
# Elastic Constant Matrix: (Units=GPa)
#
#
# Indices 1 2 3 4 5 6 
#
# 1 160.1639 49.6876 49.1160 0.0000 0.1750 0.0000
# 2 49.6876 54.0075 48.1797 0.0000 6.7512 0.0000
# 3 49.1160 48.1797 134.7789 0.0000 12.7425 0.0000
# 4 0.0000 0.0000 0.0000 34.9070 0.0000 -0.8358
# 5 0.1750 6.7512 12.7425 0.0000 37.9469 0.0000
# 6 0.0000 0.0000 0.0000 -0.8358 0.0000 30.8002
#
#
#
# Elastic Compliance Matrix: (Units=1/GPa)
#
#
# Indices 1 2 3 4 5 6 
#
# 1 0.008843 -0.007816 -0.000574 0.000000 0.001543 0.000000
# 2 -0.007816 0.034191 -0.009091 0.000000 -0.002994 0.000000
# 3 -0.000574 -0.009091 0.011077 0.000000 -0.002100 0.000000
# 4 0.000000 0.000000 0.000000 0.028666 0.000000 0.000778
# 5 0.001543 -0.002994 -0.002100 0.000000 0.027583 0.000000
# 6 0.000000 0.000000 0.000000 0.000778 0.000000 0.032488
#
#
# Mechanical properties :
#
#
# Convention : Reuss Voigt Hill
#
# Bulk Modulus (GPa) = 52.22369 71.43522 61.82946
# Shear Modulus (GPa) = 27.14527 34.19526 30.67027
#
# Velocity S-wave (km/s) = 3.64693 4.09320 3.87649
# Velocity P-wave (km/s) = 6.58186 7.57228 7.09437
#
# Compressibility (1/GPa) = 0.01914840
#
# Stress axis : x y z
#
# Youngs Moduli (GPa) = 113.08658 29.24749 90.27601
#
# Poissons Ratio (x) = 0.22860 0.05185
# Poissons Ratio (y) = 0.88388 0.82070
# Poissons Ratio (z) = 0.06495 0.26589
#
# Static dielectric constant tensor:
#      x y z
#    x 5.052790 0.000000 -0.063080 
#    y 0.000000 3.659370 0.000000 
#    z -0.063080 0.000000 3.982840 
# 
# 
# High freq. dielectric constant tensor:
#      x y z
#    x 1.828240 0.000000 -0.004950 
#    y 0.000000 1.769520 0.000000 
#    z -0.004950 0.000000 1.805120 
# 
# From -- ./inp_files/177838.got.cif
#   From: 2010.06.25/outbox.cif.g09.slc.cpg/sg15_89_cif.got.tgz:177838.got - 2010.06.28 07:06:18.
