data_PCOD8145310
_publ_section_title
;
Structure prediction by ZEFSAII (Michael W. Deem and Ramdas Pophale) SiO2 
 PCOD8145310
Probable space group: C 2/C
;
_chemical_formula_sum "Si O2"
_cell_formula_units_Z 56
_cell_length_a 22.917957
_cell_length_b 23.228790
_cell_length_c 5.506836
_cell_angle_alpha 90.000000
_cell_angle_beta 125.807740
_cell_angle_gamma 90.000000
_cell_volume 2377.482562
_symmetry_space_group_name_H-M "C 2/C"
_symmetry_group_IT_number 15
_symmetry_cell_setting 'monoclinic'
loop_
_space_group_symop_operation_xyz
x,y,z
-x,y,1/2-z
-x,-y,-z
x,-y,1/2+z
1/2+x,1/2+y,z
1/2-x,1/2+y,1/2-z
1/2-x,1/2-y,-z
1/2+x,1/2-y,1/2+z
loop_
_atom_site_type_symbol
_atom_site_label
_atom_site_fract_x
_atom_site_fract_y
_atom_site_fract_z
Si Si1 0.346648 0.141636 0.402211
Si Si2 0.459927 0.193073 0.401093
Si Si3 0.610711 0.017650 0.885662
Si Si4 0.073865 0.181986 0.833547
Si Si5 0.305826 0.359893 0.170379
Si Si6 0.728815 0.473273 0.198043
Si Si7 0.323429 0.260046 0.546453
O O1 0.385832 0.155255 0.238132
O O2 0.377795 0.085764 0.611167
O O3 0.362184 0.198815 0.599603
O O4 0.261571 0.130907 0.172641
O O5 0.500000 0.174744 0.250000
O O6 0.444549 0.261322 0.369560
O O7 0.500000 0.175875 0.750000
O O8 0.569093 0.003593 0.039495
O O9 0.684880 0.980553 0.083725
O O10 0.118212 0.134476 0.787576
O O11 0.000000 0.153176 0.750000
O O12 0.121263 0.200312 0.177210
O O13 0.297004 0.406725 0.363086
O O14 0.302807 0.294042 0.252109
O O15 0.696730 0.500469 0.370916
O O16 0.250000 0.250000 0.500000
#
# Coordination Sequence:
#
# PCOD8145310 Si02
#       7
#     8   8   8   8   8   8   8
#     4  12  22  42  67  99 137 170 233 285 338 407
#     4  11  25  45  65  94 138 187 220 266 344 422
#     4  10  22  38  62  94 127 178 220 276 336 394
#     4  11  25  43  63  95 145 185 218 268 349 425
#     4  12  24  39  67 102 132 173 229 284 342 402
#     4  10  22  41  62  95 132 174 223 277 337 398
#     4  12  25  37  65 104 141 172 223 293 347 396
#
# _framework density 23.554328000000002
#
# number of rings (size 3 to 8) (size 9 to 14) (size 15 to 20)
#    0.000    0.857    5.714    3.000    6.000    2.286 
#    0.000    0.000    0.000    3.429    0.000    0.000 
#    0.000    0.000    0.000    0.000    0.000    0.000 
#
# Total GULP energy -347036.440572 kJ/mol
# GULP energy per Si atom -12394.158592 kJ/mol
# Density = 2.350072 g / cm^3
# Si number density = 23.554328 Si / 1000 Ang^3
#
#
#
# Elastic Constant Matrix: (Units=GPa)
#
#
# Indices 1 2 3 4 5 6 
#
# 1 124.4173 -4.3158 12.9449 0.0000 -16.8282 0.0000
# 2 -4.3158 61.7354 -3.9715 0.0000 -24.1872 0.0000
# 3 12.9449 -3.9715 79.9763 0.0000 -29.6778 0.0000
# 4 0.0000 0.0000 0.0000 15.8556 0.0000 -14.7351
# 5 -16.8282 -24.1872 -29.6778 0.0000 38.2476 0.0000
# 6 0.0000 0.0000 0.0000 -14.7351 0.0000 33.8704
#
#
#
# Elastic Compliance Matrix: (Units=1/GPa)
#
#
# Indices 1 2 3 4 5 6 
#
# 1 0.009010 0.003618 0.001463 0.000000 0.007387 0.000000
# 2 0.003618 0.028220 0.011275 0.000000 0.028186 0.000000
# 3 0.001463 0.011275 0.022065 0.000000 0.024895 0.000000
# 4 0.000000 0.000000 0.000000 0.105874 0.000000 0.046060
# 5 0.007387 0.028186 0.024895 0.000000 0.066537 0.000000
# 6 0.000000 0.000000 0.000000 0.046060 0.000000 0.049562
#
#
# Mechanical properties :
#
#
# Convention : Reuss Voigt Hill
#
# Bulk Modulus (GPa) = 10.86884 30.60493 20.73689
# Shear Modulus (GPa) = 17.90672 35.02615 26.46644
#
# Velocity S-wave (km/s) = 2.76022 3.86040 3.35570
# Velocity P-wave (km/s) = 3.84484 5.73513 4.88234
#
# Compressibility (1/GPa) = 0.09200610
#
# Stress axis : x y z
#
# Youngs Moduli (GPa) = 110.98838 35.43646 45.32083
#
# Poissons Ratio (x) = -0.12821 -0.06628
# Poissons Ratio (y) = -0.40157 -0.51100
# Poissons Ratio (z) = -0.16233 -0.39955
#
# Static dielectric constant tensor:
#      x y z
#    x 4.825760 0.000000 0.029470 
#    y 0.000000 4.159250 0.000000 
#    z 0.029470 0.000000 6.524370 
# 
# 
# High freq. dielectric constant tensor:
#      x y z
#    x 1.938550 0.000000 -0.021640 
#    y 0.000000 1.913010 0.000000 
#    z -0.021640 0.000000 1.913980 
# 
# From -- ./inp_files/16183.got.cif
#   From: 2010.06.25/outbox.cif.g09.slc.cpg/sg15_9_cif.got.tgz:16183.got - 2010.06.28 07:06:18.
