data_PCOD8145581
_publ_section_title
;
Structure prediction by ZEFSAII (Michael W. Deem and Ramdas Pophale) SiO2 
 PCOD8145581
Probable space group: C 2/C
;
_chemical_formula_sum "Si O2"
_cell_formula_units_Z 64
_cell_length_a 18.567617
_cell_length_b 13.046003
_cell_length_c 14.469189
_cell_angle_alpha 90.000000
_cell_angle_beta 66.601005
_cell_angle_gamma 90.000000
_cell_volume 3216.678908
_symmetry_space_group_name_H-M "C 2/C"
_symmetry_group_IT_number 15
_symmetry_cell_setting 'monoclinic'
loop_
_space_group_symop_operation_xyz
x,y,z
-x,y,1/2-z
-x,-y,-z
x,-y,1/2+z
1/2+x,1/2+y,z
1/2-x,1/2+y,1/2-z
1/2-x,1/2-y,-z
1/2+x,1/2-y,1/2+z
loop_
_atom_site_type_symbol
_atom_site_label
_atom_site_fract_x
_atom_site_fract_y
_atom_site_fract_z
Si Si1 0.729132 0.026786 0.603853
Si Si2 0.171553 0.208718 0.871928
Si Si3 0.626041 0.907869 0.991733
Si Si4 0.496122 0.621833 0.507917
Si Si5 0.356049 0.051363 0.676650
Si Si6 0.840685 0.152657 0.996433
Si Si7 0.486091 0.789598 0.150472
Si Si8 0.737025 0.684920 0.648553
O O1 0.764822 0.136594 0.611370
O O2 0.681987 0.028486 0.531767
O O3 0.667422 0.994089 0.715832
O O4 0.800575 0.947815 0.560062
O O5 0.196515 0.241311 0.755819
O O6 0.086494 0.155882 0.907653
O O7 0.173327 0.309846 0.932330
O O8 0.549059 0.872368 0.084433
O O9 0.598939 0.975752 0.916954
O O10 0.500000 0.500000 0.500000
O O11 0.566098 0.655488 0.539455
O O12 0.508708 0.679951 0.403583
O O13 0.402896 0.155638 0.676195
O O14 0.274977 0.080312 0.666798
O O15 0.805211 0.249799 0.066403
O O16 0.828822 0.158029 0.892796
O O17 0.500000 0.764170 0.250000
#
# Coordination Sequence:
#
# PCOD8145581 Si02
#       8
#     8   8   8   8   8   8   8   8
#     4  11  21  37  63  91 125 161 214 263 309 381
#     4  10  23  40  59  89 127 165 207 260 308 378
#     4  11  22  39  62  89 128 163 213 263 319 366
#     4  11  23  43  62  91 129 163 204 259 319 378
#     4  11  21  39  62  94 124 164 214 262 314 378
#     4  11  21  40  65  89 124 165 206 260 316 374
#     4  11  23  43  64  92 124 168 211 262 321 383
#     4  10  22  39  62  90 121 163 212 252 316 373
#
# _framework density 19.896297000000001
#
# number of rings (size 3 to 8) (size 9 to 14) (size 15 to 20)
#    0.000    1.250    5.000    1.500    0.000    0.500 
#    2.250    0.000    0.000    0.000    0.000    0.000 
#    0.000    0.000    0.000    0.000    0.000    0.000 
#
# Total GULP energy -396815.779805 kJ/mol
# GULP energy per Si atom -12400.493119 kJ/mol
# Density = 1.985101 g / cm^3
# Si number density = 19.896297 Si / 1000 Ang^3
#
#
#
# Elastic Constant Matrix: (Units=GPa)
#
#
# Indices 1 2 3 4 5 6 
#
# 1 92.1341 7.6397 29.6906 0.0000 12.2810 0.0000
# 2 7.6397 61.5706 14.8293 0.0000 12.6794 0.0000
# 3 29.6906 14.8293 107.8660 0.0000 12.8167 0.0000
# 4 0.0000 0.0000 0.0000 28.1913 0.0000 0.6529
# 5 12.2810 12.6794 12.8167 0.0000 30.7779 0.0000
# 6 0.0000 0.0000 0.0000 0.6529 0.0000 30.0451
#
#
#
# Elastic Compliance Matrix: (Units=1/GPa)
#
#
# Indices 1 2 3 4 5 6 
#
# 1 0.012294 -0.000065 -0.002941 0.000000 -0.003654 0.000000
# 2 -0.000065 0.018032 -0.001664 0.000000 -0.006710 0.000000
# 3 -0.002941 -0.001664 0.010613 0.000000 -0.002561 0.000000
# 4 0.000000 0.000000 0.000000 0.035490 0.000000 -0.000771
# 5 -0.003654 -0.006710 -0.002561 0.000000 0.037779 0.000000
# 6 0.000000 0.000000 0.000000 -0.000771 0.000000 0.033300
#
#
# Mechanical properties :
#
#
# Convention : Reuss Voigt Hill
#
# Bulk Modulus (GPa) = 31.64521 40.65444 36.14983
# Shear Modulus (GPa) = 29.87197 31.76359 30.81778
#
# Velocity S-wave (km/s) = 3.87897 3.99990 3.93990
# Velocity P-wave (km/s) = 6.00013 6.46605 6.23744
#
# Compressibility (1/GPa) = 0.03160036
#
# Stress axis : x y z
#
# Youngs Moduli (GPa) = 81.34120 55.45670 94.22158
#
# Poissons Ratio (x) = 0.00358 0.27709
# Poissons Ratio (y) = 0.00525 0.15678
# Poissons Ratio (z) = 0.23921 0.09228
#
# Static dielectric constant tensor:
#      x y z
#    x 3.595150 0.000000 0.022110 
#    y 0.000000 3.502020 0.000000 
#    z 0.022110 0.000000 3.783650 
# 
# 
# High freq. dielectric constant tensor:
#      x y z
#    x 1.777390 0.000000 0.003830 
#    y 0.000000 1.771060 0.000000 
#    z 0.003830 0.000000 1.785240 
# 
# From -- ./inp_files/167626.got.cif
#   From: 2010.06.25/outbox.cif.g09.slc.cpg/sg15_84_cif.got.tgz:167626.got - 2010.06.28 07:06:18.
