data_PCOD8145380
_publ_section_title
;
Structure prediction by ZEFSAII (Michael W. Deem and Ramdas Pophale) SiO2 
 PCOD8145380
Probable space group: C 2/C
;
_chemical_formula_sum "Si O2"
_cell_formula_units_Z 52
_cell_length_a 18.318218
_cell_length_b 8.376463
_cell_length_c 21.689600
_cell_angle_alpha 90.000000
_cell_angle_beta 126.213621
_cell_angle_gamma 90.000000
_cell_volume 2685.171526
_symmetry_space_group_name_H-M "C 2/C"
_symmetry_group_IT_number 15
_symmetry_cell_setting 'monoclinic'
loop_
_space_group_symop_operation_xyz
x,y,z
-x,y,1/2-z
-x,-y,-z
x,-y,1/2+z
1/2+x,1/2+y,z
1/2-x,1/2+y,1/2-z
1/2-x,1/2-y,-z
1/2+x,1/2-y,1/2+z
loop_
_atom_site_type_symbol
_atom_site_label
_atom_site_fract_x
_atom_site_fract_y
_atom_site_fract_z
Si Si1 0.500000 0.056171 0.250000
Si Si2 0.628068 0.215718 0.995023
Si Si3 0.816096 0.278937 0.624624
Si Si4 0.223862 0.997159 0.484287
Si Si5 0.952011 0.573044 0.854088
Si Si6 0.655316 0.806047 0.647224
Si Si7 0.239033 0.374153 0.205394
O O1 0.517986 0.938360 0.201842
O O2 0.584959 0.169830 0.304460
O O3 0.651543 0.366822 0.964364
O O4 0.637078 0.264102 0.070783
O O5 0.693724 0.067649 0.014105
O O6 0.526456 0.162455 0.931431
O O7 0.764216 0.426099 0.567419
O O8 0.756965 0.229469 0.653725
O O9 0.827230 0.135734 0.581328
O O10 0.935640 0.393024 0.872567
O O11 0.859010 0.673543 0.814807
O O12 0.683545 0.659714 0.705287
O O13 0.737478 0.936973 0.688226
#
# Coordination Sequence:
#
# PCOD8145380 Si02
#       7
#     4   8   8   8   8   8   8
#     4  12  22  40  70  90 126 164 218 260 316 372
#     4  11  21  41  61  95 124 170 207 259 314 384
#     4  11  21  44  61  95 123 167 210 263 317 378
#     4  10  23  37  67  87 128 165 209 256 323 379
#     4  10  23  39  63  93 123 165 210 264 311 380
#     4  10  22  38  65  85 128 168 206 256 316 387
#     4  10  22  40  63  91 121 168 209 257 316 378
#
# _framework density 19.365617
#
# number of rings (size 3 to 8) (size 9 to 14) (size 15 to 20)
#    0.923    0.615    4.615    0.462    4.308    0.000 
#    2.769    0.769    0.000    0.000    0.000    0.000 
#    0.000    0.000    0.000    0.000    0.000    0.000 
#
# Total GULP energy -322374.482294 kJ/mol
# GULP energy per Si atom -12399.018550 kJ/mol
# Density = 1.932154 g / cm^3
# Si number density = 19.365617 Si / 1000 Ang^3
#
#
#
# Elastic Constant Matrix: (Units=GPa)
#
#
# Indices 1 2 3 4 5 6 
#
# 1 89.9440 15.4909 28.1104 0.0000 -9.0413 0.0000
# 2 15.4909 54.1830 29.1422 0.0000 7.8134 0.0000
# 3 28.1104 29.1422 106.4352 0.0000 -6.9340 0.0000
# 4 0.0000 0.0000 0.0000 20.3063 0.0000 -2.7304
# 5 -9.0413 7.8134 -6.9340 0.0000 39.0010 0.0000
# 6 0.0000 0.0000 0.0000 -2.7304 0.0000 19.4058
#
#
#
# Elastic Compliance Matrix: (Units=1/GPa)
#
#
# Indices 1 2 3 4 5 6 
#
# 1 0.012649 -0.002778 -0.002380 0.000000 0.003066 0.000000
# 2 -0.002778 0.023464 -0.006110 0.000000 -0.006431 0.000000
# 3 -0.002380 -0.006110 0.011878 0.000000 0.002784 0.000000
# 4 0.000000 0.000000 0.000000 0.050195 0.000000 0.007062
# 5 0.003066 -0.006431 0.002784 0.000000 0.028134 0.000000
# 6 0.000000 0.000000 0.000000 0.007062 0.000000 0.052525
#
#
# Mechanical properties :
#
#
# Convention : Reuss Voigt Hill
#
# Bulk Modulus (GPa) = 39.28575 44.00545 41.64560
# Shear Modulus (GPa) = 23.82477 27.59720 25.71099
#
# Velocity S-wave (km/s) = 3.51131 3.77909 3.64766
# Velocity P-wave (km/s) = 6.06378 6.46644 6.26835
#
# Compressibility (1/GPa) = 0.02545452
#
# Stress axis : x y z
#
# Youngs Moduli (GPa) = 79.06044 42.61915 84.18756
#
# Poissons Ratio (x) = 0.11840 0.20038
# Poissons Ratio (y) = 0.21964 0.51436
# Poissons Ratio (z) = 0.18818 0.26039
#
# Static dielectric constant tensor:
#      x y z
#    x 3.466270 0.000000 -0.118810 
#    y 0.000000 3.344160 0.000000 
#    z -0.118810 0.000000 3.486220 
# 
# 
# High freq. dielectric constant tensor:
#      x y z
#    x 1.751940 0.000000 -0.014180 
#    y 0.000000 1.737410 0.000000 
#    z -0.014180 0.000000 1.759910 
# 
# From -- ./inp_files/247866.got.cif
#   From: 2010.06.25/outbox.cif.g09.slc.cpg/sg15_124_cif.got.tgz:247866.got - 2010.06.28 07:06:18.
