data_PCOD8145626
_publ_section_title
;
Structure prediction by ZEFSAII (Michael W. Deem and Ramdas Pophale) SiO2 
 PCOD8145626
Probable space group: C 2/C
;
_chemical_formula_sum "Si O2"
_cell_formula_units_Z 36
_cell_length_a 22.416066
_cell_length_b 7.396872
_cell_length_c 23.684009
_cell_angle_alpha 90.000000
_cell_angle_beta 157.637671
_cell_angle_gamma 90.000000
_cell_volume 1494.082175
_symmetry_space_group_name_H-M "C 2/C"
_symmetry_group_IT_number 15
_symmetry_cell_setting 'monoclinic'
loop_
_space_group_symop_operation_xyz
x,y,z
-x,y,1/2-z
-x,-y,-z
x,-y,1/2+z
1/2+x,1/2+y,z
1/2-x,1/2+y,1/2-z
1/2-x,1/2-y,-z
1/2+x,1/2-y,1/2+z
loop_
_atom_site_type_symbol
_atom_site_label
_atom_site_fract_x
_atom_site_fract_y
_atom_site_fract_z
Si Si1 0.777215 0.611680 0.284601
Si Si2 0.074117 0.868200 0.007291
Si Si3 0.500000 0.262889 0.250000
Si Si4 0.561542 0.980029 0.969909
Si Si5 0.818192 0.155031 0.487418
O O1 0.593647 0.586425 0.109628
O O2 0.885894 0.601082 0.324001
O O3 0.801687 0.812943 0.334544
O O4 0.840332 0.460610 0.384875
O O5 0.053647 0.693999 0.947538
O O6 0.136760 0.033064 0.025848
O O7 0.634713 0.133656 0.341397
O O8 0.576333 0.390536 0.365208
O O9 0.649906 0.866422 0.999375
#
# Coordination Sequence:
#
# PCOD8145626 Si02
#       5
#     8   8   4   8   8
#     4   9  21  40  57 100 135 147 208 239 294 399
#     4  10  22  39  63  93 126 168 195 247 308 378
#     4  10  26  44  60  98 110 162 232 274 296 362
#     4   9  22  39  62  94 132 158 204 244 300 398
#     4  11  23  43  68  81 129 164 207 268 320 339
#
# _framework density 24.095061000000001
#
# number of rings (size 3 to 8) (size 9 to 14) (size 15 to 20)
#    1.333    0.889    0.000    1.333    6.222    2.667 
#    0.000    6.667    0.000    0.000    0.000    0.000 
#    0.000    0.000    0.000    0.000    0.000    0.000 
#
# Total GULP energy -223159.013206 kJ/mol
# GULP energy per Si atom -12397.722956 kJ/mol
# Density = 2.404022 g / cm^3
# Si number density = 24.095061 Si / 1000 Ang^3
#
#
#
# Elastic Constant Matrix: (Units=GPa)
#
#
# Indices 1 2 3 4 5 6 
#
# 1 77.7429 10.5890 48.4389 -0.0032 21.5238 0.0006
# 2 10.5890 74.3576 18.6285 -0.0090 12.5156 0.0007
# 3 48.4389 18.6285 187.6788 -0.0182 19.4801 0.0021
# 4 -0.0032 -0.0090 -0.0182 16.6909 -0.0052 1.1557
# 5 21.5238 12.5156 19.4801 -0.0052 38.4501 0.0010
# 6 0.0006 0.0007 0.0021 1.1557 0.0010 26.7301
#
#
#
# Elastic Compliance Matrix: (Units=1/GPa)
#
#
# Indices 1 2 3 4 5 6 
#
# 1 0.017314 -0.000247 -0.003638 -0.000003 -0.007769 0.000000
# 2 -0.000247 0.014406 -0.000943 0.000005 -0.004073 0.000000
# 3 -0.003638 -0.000943 0.006457 0.000006 -0.000928 -0.000001
# 4 -0.000003 0.000005 0.000006 0.060093 0.000005 -0.002598
# 5 -0.007769 -0.004073 -0.000928 0.000005 0.032152 -0.000001
# 6 0.000000 0.000000 -0.000001 -0.002598 -0.000001 0.037523
#
#
# Mechanical properties :
#
#
# Convention : Reuss Voigt Hill
#
# Bulk Modulus (GPa) = 35.06211 55.01023 45.03617
# Shear Modulus (GPa) = 26.72254 33.84907 30.28581
#
# Velocity S-wave (km/s) = 3.33385 3.75215 3.54917
# Velocity P-wave (km/s) = 5.42241 6.45380 5.96046
#
# Compressibility (1/GPa) = 0.02852082
#
# Stress axis : x y z
#
# Youngs Moduli (GPa) = 57.75691 69.41768 154.86816
#
# Poissons Ratio (x) = 0.01712 0.56338
# Poissons Ratio (y) = 0.01425 0.14611
# Poissons Ratio (z) = 0.21011 0.06549
#
# Static dielectric constant tensor:
#      x y z
#    x 4.026530 0.000000 0.013750 
#    y 0.000000 4.211110 0.000000 
#    z 0.013750 0.000000 4.405470 
# 
# 
# High freq. dielectric constant tensor:
#      x y z
#    x 1.929370 0.000000 0.002660 
#    y 0.000000 1.948990 0.000000 
#    z 0.002660 0.000000 1.978740 
# 
# From -- ./inp_files/302027.got.cif
#   From: 2010.06.25/outbox.cif.g09.slc.cpg/sg15_152_cif.got.tgz:302027.got - 2010.06.28 07:06:18.
