data_PCOD8145917
_publ_section_title
;
Structure prediction by ZEFSAII (Michael W. Deem and Ramdas Pophale) SiO2 
 PCOD8145917
Probable space group: C 2/C
;
_chemical_formula_sum "Si O2"
_cell_formula_units_Z 40
_cell_length_a 5.150430
_cell_length_b 14.822621
_cell_length_c 26.680299
_cell_angle_alpha 90.000000
_cell_angle_beta 76.526943
_cell_angle_gamma 90.000000
_cell_volume 1980.795682
_symmetry_space_group_name_H-M "C 2/C"
_symmetry_group_IT_number 15
_symmetry_cell_setting 'monoclinic'
loop_
_space_group_symop_operation_xyz
x,y,z
-x,y,1/2-z
-x,-y,-z
x,-y,1/2+z
1/2+x,1/2+y,z
1/2-x,1/2+y,1/2-z
1/2-x,1/2-y,-z
1/2+x,1/2-y,1/2+z
loop_
_atom_site_type_symbol
_atom_site_label
_atom_site_fract_x
_atom_site_fract_y
_atom_site_fract_z
Si Si1 0.182999 0.778539 0.638973
Si Si2 0.179322 0.617963 0.564118
Si Si3 0.753794 0.643284 0.501192
Si Si4 0.543042 0.932773 0.607702
Si Si5 0.618347 0.185188 0.190720
O O1 0.157119 0.713706 0.592576
O O2 0.254465 0.880716 0.615934
O O3 0.419502 0.749504 0.667251
O O4 0.909708 0.771521 0.682646
O O5 0.490617 0.600971 0.538723
O O6 0.044034 0.540941 0.604939
O O7 0.016829 0.615139 0.519796
O O8 0.750000 0.750000 0.500000
O O9 0.766358 0.604993 0.444669
O O10 0.658883 0.907520 0.657412
O O11 0.500000 0.162985 0.250000
#
# Coordination Sequence:
#
# PCOD8145917 Si02
#       5
#     8   8   8   8   8
#     4  10  22  40  63  89 122 160 206 248 311 369
#     4  12  24  39  62  92 130 160 202 255 303 370
#     4  12  23  39  61  90 128 169 202 243 310 373
#     4  10  25  37  65  90 125 159 212 249 309 371
#     4  10  22  43  66  87 120 161 206 259 316 359
#
# _framework density 20.193906999999999
#
# number of rings (size 3 to 8) (size 9 to 14) (size 15 to 20)
#    1.200    0.000    2.000    4.800    5.600    0.000 
#    0.000    2.000    0.000    0.000    0.000    0.000 
#    0.000    0.000    0.000    0.000    0.000    0.000 
#
# Total GULP energy -247785.089237 kJ/mol
# GULP energy per Si atom -12389.254462 kJ/mol
# Density = 2.014795 g / cm^3
# Si number density = 20.193907 Si / 1000 Ang^3
#
#
#
# Elastic Constant Matrix: (Units=GPa)
#
#
# Indices 1 2 3 4 5 6 
#
# 1 134.5940 27.9009 40.2988 0.0000 -14.9727 0.0000
# 2 27.9009 68.8116 19.3683 0.0000 -3.7057 0.0000
# 3 40.2988 19.3683 124.8897 0.0000 -14.0148 0.0000
# 4 0.0000 0.0000 0.0000 10.2483 0.0000 0.6674
# 5 -14.9727 -3.7057 -14.0148 0.0000 32.0412 0.0000
# 6 0.0000 0.0000 0.0000 0.6674 0.0000 21.0382
#
#
#
# Elastic Compliance Matrix: (Units=1/GPa)
#
#
# Indices 1 2 3 4 5 6 
#
# 1 0.008991 -0.002890 -0.002123 0.000000 0.002939 0.000000
# 2 -0.002890 0.016142 -0.001591 0.000000 -0.000179 0.000000
# 3 -0.002123 -0.001591 0.009262 0.000000 0.002875 0.000000
# 4 0.000000 0.000000 0.000000 0.097779 0.000000 -0.003102
# 5 0.002939 -0.000179 0.002875 0.000000 0.033820 0.000000
# 6 0.000000 0.000000 0.000000 -0.003102 0.000000 0.047631
#
#
# Mechanical properties :
#
#
# Convention : Reuss Voigt Hill
#
# Bulk Modulus (GPa) = 47.19915 55.93683 51.56799
# Shear Modulus (GPa) = 21.37703 28.71404 25.04554
#
# Velocity S-wave (km/s) = 3.25713 3.77492 3.52554
# Velocity P-wave (km/s) = 6.12934 6.83813 6.49342
#
# Compressibility (1/GPa) = 0.02118682
#
# Stress axis : x y z
#
# Youngs Moduli (GPa) = 111.21648 61.94893 107.97300
#
# Poissons Ratio (x) = 0.17902 0.22927
# Poissons Ratio (y) = 0.32140 0.17179
# Poissons Ratio (z) = 0.23616 0.09856
#
# Static dielectric constant tensor:
#      x y z
#    x 3.945830 0.000000 -0.000860 
#    y 0.000000 3.561120 0.000000 
#    z -0.000860 0.000000 3.493200 
# 
# 
# High freq. dielectric constant tensor:
#      x y z
#    x 1.800340 0.000000 -0.002700 
#    y 0.000000 1.760830 0.000000 
#    z -0.002700 0.000000 1.779760 
# 
# From -- ./inp_files/226854.got.cif
#   From: 2010.06.25/outbox.cif.g09.slc.cpg/sg15_114_cif.got.tgz:226854.got - 2010.06.28 07:06:18.
