data_PCOD8145071
_publ_section_title
;
Structure prediction by ZEFSAII (Michael W. Deem and Ramdas Pophale) SiO2 
 PCOD8145071
Probable space group: C 2/C
;
_chemical_formula_sum "Si O2"
_cell_formula_units_Z 48
_cell_length_a 9.104448
_cell_length_b 10.040889
_cell_length_c 23.418767
_cell_angle_alpha 90.000000
_cell_angle_beta 66.680722
_cell_angle_gamma 90.000000
_cell_volume 1965.987076
_symmetry_space_group_name_H-M "C 2/C"
_symmetry_group_IT_number 15
_symmetry_cell_setting 'monoclinic'
loop_
_space_group_symop_operation_xyz
x,y,z
-x,y,1/2-z
-x,-y,-z
x,-y,1/2+z
1/2+x,1/2+y,z
1/2-x,1/2+y,1/2-z
1/2-x,1/2-y,-z
1/2+x,1/2-y,1/2+z
loop_
_atom_site_type_symbol
_atom_site_label
_atom_site_fract_x
_atom_site_fract_y
_atom_site_fract_z
Si Si1 0.239970 0.409579 0.430987
Si Si2 0.549687 0.542628 0.379753
Si Si3 0.077854 0.249512 0.181162
Si Si4 0.082764 0.547478 0.181551
Si Si5 0.418688 0.837477 0.600182
Si Si6 0.102010 0.846056 0.985313
O O1 0.423322 0.427965 0.378573
O O2 0.126196 0.527453 0.426974
O O3 0.171256 0.262936 0.428032
O O4 0.251122 0.407555 0.499685
O O5 0.488159 0.680994 0.365023
O O6 0.730821 0.521918 0.333688
O O7 0.528226 0.544064 0.452883
O O8 0.013168 0.399578 0.184685
O O9 0.268355 0.229323 0.155093
O O10 0.000000 0.184909 0.250000
O O11 0.000000 0.614848 0.250000
O O12 0.049508 0.631173 0.129291
O O13 0.475480 0.726413 0.546386
#
# Coordination Sequence:
#
# PCOD8145071 Si02
#       6
#     8   8   8   8   8   8
#     4  10  22  37  57  85 119 154 189 233 289 352
#     4  11  23  39  61  88 120 157 197 244 298 354
#     4  10  23  42  62  86 117 156 202 248 294 347
#     4  11  23  40  62  86 115 155 203 251 297 349
#     4  11  23  39  61  88 120 157 197 244 298 354
#     4  11  22  37  60  91 124 155 194 241 296 359
#
# _framework density 24.415216999999998
#
# number of rings (size 3 to 8) (size 9 to 14) (size 15 to 20)
#    0.000    1.333    0.000    6.000    0.000    5.333 
#    0.000    0.000    0.000   15.000    0.000    0.000 
#    0.000    0.000    0.000    0.000    0.000    0.000 
#
# Total GULP energy -297449.919700 kJ/mol
# GULP energy per Si atom -12393.746654 kJ/mol
# Density = 2.435965 g / cm^3
# Si number density = 24.415217 Si / 1000 Ang^3
#
#
#
# Elastic Constant Matrix: (Units=GPa)
#
#
# Indices 1 2 3 4 5 6 
#
# 1 87.1509 14.0309 27.7020 0.0000 -8.2778 0.0000
# 2 14.0309 54.9697 9.7058 0.0000 0.2684 0.0000
# 3 27.7020 9.7058 107.3692 0.0000 -20.3062 0.0000
# 4 0.0000 0.0000 0.0000 32.8531 0.0000 1.4786
# 5 -8.2778 0.2684 -20.3062 0.0000 38.9515 0.0000
# 6 0.0000 0.0000 0.0000 1.4786 0.0000 24.5215
#
#
#
# Elastic Compliance Matrix: (Units=1/GPa)
#
#
# Indices 1 2 3 4 5 6 
#
# 1 0.012953 -0.002810 -0.002844 0.000000 0.001289 0.000000
# 2 -0.002810 0.019140 -0.001268 0.000000 -0.001390 0.000000
# 3 -0.002844 -0.001268 0.011149 0.000000 0.005216 0.000000
# 4 0.000000 0.000000 0.000000 0.030521 0.000000 -0.001840
# 5 0.001289 -0.001390 0.005216 0.000000 0.028676 0.000000
# 6 0.000000 0.000000 0.000000 -0.001840 0.000000 0.040892
#
#
# Mechanical properties :
#
#
# Convention : Reuss Voigt Hill
#
# Bulk Modulus (GPa) = 34.01737 39.15191 36.58464
# Shear Modulus (GPa) = 29.94469 32.46864 31.20666
#
# Velocity S-wave (km/s) = 3.50591 3.65067 3.57902
# Velocity P-wave (km/s) = 5.50923 5.81726 5.66534
#
# Compressibility (1/GPa) = 0.02939675
#
# Stress axis : x y z
#
# Youngs Moduli (GPa) = 77.20025 52.24697 89.69727
#
# Poissons Ratio (x) = 0.14684 0.25511
# Poissons Ratio (y) = 0.21697 0.11373
# Poissons Ratio (z) = 0.21957 0.06625
#
# Static dielectric constant tensor:
#      x y z
#    x 4.410020 0.000000 -0.096020 
#    y 0.000000 4.533050 0.000000 
#    z -0.096020 0.000000 4.377590 
# 
# 
# High freq. dielectric constant tensor:
#      x y z
#    x 1.976240 0.000000 -0.009520 
#    y 0.000000 1.982800 0.000000 
#    z -0.009520 0.000000 1.962160 
# 
# From -- ./inp_files/263469.got.cif
#   From: 2010.06.25/outbox.cif.g09.slc.cpg/sg15_132_cif.got.tgz:263469.got - 2010.06.28 07:06:18.
