data_PCOD8145635
_publ_section_title
;
Structure prediction by ZEFSAII (Michael W. Deem and Ramdas Pophale) SiO2 
 PCOD8145635
Probable space group: C 2/C
;
_chemical_formula_sum "Si O2"
_cell_formula_units_Z 48
_cell_length_a 22.790275
_cell_length_b 8.587061
_cell_length_c 19.919266
_cell_angle_alpha 90.000000
_cell_angle_beta 147.905258
_cell_angle_gamma 90.000000
_cell_volume 2071.210758
_symmetry_space_group_name_H-M "C 2/C"
_symmetry_group_IT_number 15
_symmetry_cell_setting 'monoclinic'
loop_
_space_group_symop_operation_xyz
x,y,z
-x,y,1/2-z
-x,-y,-z
x,-y,1/2+z
1/2+x,1/2+y,z
1/2-x,1/2+y,1/2-z
1/2-x,1/2-y,-z
1/2+x,1/2-y,1/2+z
loop_
_atom_site_type_symbol
_atom_site_label
_atom_site_fract_x
_atom_site_fract_y
_atom_site_fract_z
Si Si1 0.640989 0.431255 0.998483
Si Si2 0.909757 0.925773 0.261479
Si Si3 0.820867 0.634223 0.111985
Si Si4 0.674041 0.651822 0.678685
Si Si5 0.879312 0.518028 0.409275
Si Si6 0.185053 0.585517 0.007127
O O1 0.528065 0.500271 0.857624
O O2 0.741008 0.552523 0.088585
O O3 0.621491 0.406377 0.058312
O O4 0.674442 0.272612 0.991276
O O5 0.909873 0.744846 0.235973
O O6 0.893111 0.926533 0.325649
O O7 0.814090 0.032568 0.135224
O O8 0.750000 0.750000 0.000000
O O9 0.871648 0.500399 0.112028
O O10 0.804872 0.624696 0.812978
O O11 0.672428 0.836025 0.678407
O O12 0.880820 0.529595 0.491169
O O13 0.000000 0.500000 0.500000
#
# Coordination Sequence:
#
# PCOD8145635 Si02
#       6
#     8   8   8   8   8   8
#     4  11  22  40  66  93 129 173 208 263 331 382
#     4  10  22  41  65  95 128 169 214 265 325 383
#     4  10  22  42  63  91 127 163 215 270 312 381
#     4  10  22  39  63  96 129 160 215 270 315 385
#     4  10  22  40  64  92 127 170 212 264 326 378
#     4   9  22  41  63  94 128 164 220 271 314 387
#
# _framework density 23.174852000000001
#
# number of rings (size 3 to 8) (size 9 to 14) (size 15 to 20)
#    0.000    2.000    0.000    2.000    0.000   16.000 
#    0.000    8.333    0.000    0.000    0.000    0.000 
#    0.000    0.000    0.000    0.000    0.000    0.000 
#
# Total GULP energy -297549.034691 kJ/mol
# GULP energy per Si atom -12397.876445 kJ/mol
# Density = 2.312210 g / cm^3
# Si number density = 23.174852 Si / 1000 Ang^3
#
#
#
# Elastic Constant Matrix: (Units=GPa)
#
#
# Indices 1 2 3 4 5 6 
#
# 1 53.4073 57.6479 50.2723 0.0000 14.1619 0.0000
# 2 57.6479 165.8442 71.7190 0.0000 6.7810 0.0000
# 3 50.2723 71.7190 102.1214 0.0000 17.8603 0.0000
# 4 0.0000 0.0000 0.0000 36.2128 0.0000 -3.7836
# 5 14.1619 6.7810 17.8603 0.0000 33.6297 0.0000
# 6 0.0000 0.0000 0.0000 -3.7836 0.0000 34.6776
#
#
#
# Elastic Compliance Matrix: (Units=1/GPa)
#
#
# Indices 1 2 3 4 5 6 
#
# 1 0.043582 -0.008899 -0.013570 0.000000 -0.009352 0.000000
# 2 -0.008899 0.010559 -0.003658 0.000000 0.003561 0.000000
# 3 -0.013570 -0.003658 0.019747 0.000000 -0.004035 0.000000
# 4 0.000000 0.000000 0.000000 0.027933 0.000000 0.003048
# 5 -0.009352 0.003561 -0.004035 0.000000 0.035099 0.000000
# 6 0.000000 0.000000 0.000000 0.003048 0.000000 0.029170
#
#
# Mechanical properties :
#
#
# Convention : Reuss Voigt Hill
#
# Bulk Modulus (GPa) = 46.21871 75.62792 60.92331
# Shear Modulus (GPa) = 22.16763 30.35292 26.26027
#
# Velocity S-wave (km/s) = 3.09615 3.62295 3.36986
# Velocity P-wave (km/s) = 5.72436 7.08558 6.44103
#
# Compressibility (1/GPa) = 0.02163626
#
# Stress axis : x y z
#
# Youngs Moduli (GPa) = 22.94507 94.70445 50.64116
#
# Poissons Ratio (x) = 0.84276 0.68718
# Poissons Ratio (y) = 0.20418 0.18523
# Poissons Ratio (z) = 0.31135 0.34640
#
# Static dielectric constant tensor:
#      x y z
#    x 4.130260 0.000000 -0.475990 
#    y 0.000000 1.538190 0.000000 
#    z -0.475990 0.000000 3.722530 
# 
# 
# High freq. dielectric constant tensor:
#      x y z
#    x 1.930660 0.000000 -0.009370 
#    y 0.000000 1.926150 0.000000 
#    z -0.009370 0.000000 1.891140 
# 
# From -- ./inp_files/281723.got.cif
#   From: 2010.06.25/outbox.cif.g09.slc.cpg/sg15_141_cif.got.tgz:281723.got - 2010.06.28 07:06:18.
