data_PCOD8145752
_publ_section_title
;
Structure prediction by ZEFSAII (Michael W. Deem and Ramdas Pophale) SiO2 
 PCOD8145752
Probable space group: C 2/C
;
_chemical_formula_sum "Si O2"
_cell_formula_units_Z 48
_cell_length_a 15.025251
_cell_length_b 27.461899
_cell_length_c 5.634289
_cell_angle_alpha 90.000000
_cell_angle_beta 64.750925
_cell_angle_gamma 90.000000
_cell_volume 2102.721529
_symmetry_space_group_name_H-M "C 2/C"
_symmetry_group_IT_number 15
_symmetry_cell_setting 'monoclinic'
loop_
_space_group_symop_operation_xyz
x,y,z
-x,y,1/2-z
-x,-y,-z
x,-y,1/2+z
1/2+x,1/2+y,z
1/2-x,1/2+y,1/2-z
1/2-x,1/2-y,-z
1/2+x,1/2-y,1/2+z
loop_
_atom_site_type_symbol
_atom_site_label
_atom_site_fract_x
_atom_site_fract_y
_atom_site_fract_z
Si Si1 0.611179 0.721423 0.578638
Si Si2 0.500000 0.580949 0.250000
Si Si3 0.500000 0.030419 0.250000
Si Si4 0.644693 0.472470 0.337219
Si Si5 0.696948 0.093545 0.027238
Si Si6 0.316781 0.634804 0.274405
Si Si7 0.274139 0.805621 0.227876
O O1 0.500000 0.734792 0.750000
O O2 0.619991 0.666301 0.480532
O O3 0.645879 0.762637 0.351072
O O4 0.675697 0.721435 0.744878
O O5 0.468360 0.548339 0.516390
O O6 0.400538 0.610461 0.335212
O O7 0.594870 0.064921 0.150013
O O8 0.500000 0.000000 0.500000
O O9 0.661199 0.499424 0.572487
O O10 0.729323 0.430660 0.248059
O O11 0.750588 0.093143 0.224096
O O12 0.682991 0.150701 0.984352
O O13 0.245842 0.671888 0.492983
#
# Coordination Sequence:
#
# PCOD8145752 Si02
#       7
#     8   4   4   8   8   8   8
#     4  10  22  39  68 101 142 185 237 296 361 436
#     4  12  24  42  72 107 148 191 242 290 370 456
#     4  12  30  52  80 107 142 197 262 318 380 440
#     4  12  26  45  68 102 144 184 233 297 361 430
#     4  11  26  46  73 101 143 188 246 309 371 439
#     4  11  23  42  70 103 148 191 236 294 370 446
#     4  10  22  43  65 101 141 187 236 295 365 441
#
# _framework density 22.827560999999999
#
# number of rings (size 3 to 8) (size 9 to 14) (size 15 to 20)
#    0.000    1.000    1.667    4.000    5.833    1.333 
#    0.000    0.000    0.000    0.000    0.000    0.000 
#    0.000    0.000    0.000    0.000    0.000    0.000 
#
# Total GULP energy -297337.162873 kJ/mol
# GULP energy per Si atom -12389.048453 kJ/mol
# Density = 2.277560 g / cm^3
# Si number density = 22.827561 Si / 1000 Ang^3
#
#
#
# Elastic Constant Matrix: (Units=GPa)
#
#
# Indices 1 2 3 4 5 6 
#
# 1 126.9696 58.6229 71.7259 0.0000 -20.6573 0.0000
# 2 58.6229 110.1710 52.1972 0.0000 -10.6969 0.0000
# 3 71.7259 52.1972 128.7569 0.0000 -12.5890 0.0000
# 4 0.0000 0.0000 0.0000 35.8543 0.0000 -5.6300
# 5 -20.6573 -10.6969 -12.5890 0.0000 45.1833 0.0000
# 6 0.0000 0.0000 0.0000 -5.6300 0.0000 33.8004
#
#
#
# Elastic Compliance Matrix: (Units=1/GPa)
#
#
# Indices 1 2 3 4 5 6 
#
# 1 0.013510 -0.004255 -0.005444 0.000000 0.003652 0.000000
# 2 -0.004255 0.012665 -0.002736 0.000000 0.000291 0.000000
# 3 -0.005444 -0.002736 0.011926 0.000000 0.000186 0.000000
# 4 0.000000 0.000000 0.000000 0.028640 0.000000 0.004770
# 5 0.003652 0.000291 0.000186 0.000000 0.023923 0.000000
# 6 0.000000 0.000000 0.000000 0.004770 0.000000 0.030380
#
#
# Mechanical properties :
#
#
# Convention : Reuss Voigt Hill
#
# Bulk Modulus (GPa) = 75.57073 81.22105 78.39589
# Shear Modulus (GPa) = 33.26149 35.19103 34.22626
#
# Velocity S-wave (km/s) = 3.82131 3.93058 3.87633
# Velocity P-wave (km/s) = 7.25581 7.50046 7.37915
#
# Compressibility (1/GPa) = 0.01323264
#
# Stress axis : x y z
#
# Youngs Moduli (GPa) = 74.01956 78.95620 83.84736
#
# Poissons Ratio (x) = 0.33595 0.45646
# Poissons Ratio (y) = 0.31495 0.22938
# Poissons Ratio (z) = 0.40295 0.21600
#
# Static dielectric constant tensor:
#      x y z
#    x 3.956640 0.000000 0.007090 
#    y 0.000000 4.526400 0.000000 
#    z 0.007090 0.000000 4.279660 
# 
# 
# High freq. dielectric constant tensor:
#      x y z
#    x 1.883210 0.000000 -0.002960 
#    y 0.000000 1.923900 0.000000 
#    z -0.002960 0.000000 1.909300 
# 
# From -- ./inp_files/8974.got.cif
#   From: 2010.06.25/outbox.cif.g09.slc.cpg/sg15_5_cif.got.tgz:8974.got - 2010.06.28 07:06:18.
