data_PCOD8145476
_publ_section_title
;
Structure prediction by ZEFSAII (Michael W. Deem and Ramdas Pophale) SiO2 
 PCOD8145476
Probable space group: C 2/C
;
_chemical_formula_sum "Si O2"
_cell_formula_units_Z 64
_cell_length_a 12.754815
_cell_length_b 31.463029
_cell_length_c 8.542963
_cell_angle_alpha 90.000000
_cell_angle_beta 96.699993
_cell_angle_gamma 90.000000
_cell_volume 3404.921492
_symmetry_space_group_name_H-M "C 2/C"
_symmetry_group_IT_number 15
_symmetry_cell_setting 'monoclinic'
loop_
_space_group_symop_operation_xyz
x,y,z
-x,y,1/2-z
-x,-y,-z
x,-y,1/2+z
1/2+x,1/2+y,z
1/2-x,1/2+y,1/2-z
1/2-x,1/2-y,-z
1/2+x,1/2-y,1/2+z
loop_
_atom_site_type_symbol
_atom_site_label
_atom_site_fract_x
_atom_site_fract_y
_atom_site_fract_z
Si Si1 0.224511 0.623017 0.970908
Si Si2 0.693701 0.291468 0.558060
Si Si3 0.026421 0.767201 0.082501
Si Si4 0.384769 0.678393 0.151138
Si Si5 0.374462 0.038220 0.567745
Si Si6 0.526275 0.831263 0.580454
Si Si7 0.316516 0.860497 0.396779
Si Si8 0.391871 0.951521 0.435661
O O1 0.215641 0.572246 0.991177
O O2 0.216903 0.637736 0.789209
O O3 0.334883 0.635023 0.072740
O O4 0.126092 0.643869 0.038991
O O5 0.750000 0.250000 0.500000
O O6 0.573114 0.279077 0.536786
O O7 0.703774 0.301973 0.744627
O O8 0.725999 0.333895 0.470016
O O9 0.055330 0.718138 0.095248
O O10 0.000000 0.785480 0.250000
O O11 0.117774 0.790952 0.002007
O O12 0.500000 0.668958 0.250000
O O13 0.483663 0.051167 0.497116
O O14 0.389731 0.039256 0.753649
O O15 0.336924 0.990904 0.514789
O O16 0.500000 0.847904 0.750000
O O17 0.428348 0.836956 0.443669
O O18 0.329565 0.908275 0.468559
#
# Coordination Sequence:
#
# PCOD8145476 Si02
#       8
#     8   8   8   8   8   8   8   8
#     4  11  22  36  58  81 111 154 191 231 288 336
#     4  11  22  36  55  78 110 146 191 231 281 329
#     4  10  22  39  55  77 107 149 193 239 283 328
#     4  10  24  41  57  79 109 147 198 244 286 326
#     4   9  18  33  52  80 113 148 184 218 276 341
#     4  11  22  33  52  82 117 148 190 230 277 338
#     4  11  21  36  55  83 118 152 186 229 279 343
#     4   9  18  33  51  80 116 150 177 223 273 334
#
# _framework density 18.796322
#
# number of rings (size 3 to 8) (size 9 to 14) (size 15 to 20)
#    0.000    1.750    2.500    1.875    3.500    3.500 
#    0.000    0.000    0.000    0.000    0.000   14.875 
#    0.000    0.000    0.000    0.000    0.000    0.000 
#
# Total GULP energy -396469.890241 kJ/mol
# GULP energy per Si atom -12389.684070 kJ/mol
# Density = 1.875354 g / cm^3
# Si number density = 18.796322 Si / 1000 Ang^3
#
#
#
# Elastic Constant Matrix: (Units=GPa)
#
#
# Indices 1 2 3 4 5 6 
#
# 1 45.1656 29.4930 24.5451 0.0000 -2.4348 0.0000
# 2 29.4930 121.4780 50.8328 0.0000 -14.4255 0.0000
# 3 24.5451 50.8328 89.9837 0.0000 -11.6543 0.0000
# 4 0.0000 0.0000 0.0000 28.6158 0.0000 0.4188
# 5 -2.4348 -14.4255 -11.6543 0.0000 33.1282 0.0000
# 6 0.0000 0.0000 0.0000 0.4188 0.0000 14.8065
#
#
#
# Elastic Compliance Matrix: (Units=1/GPa)
#
#
# Indices 1 2 3 4 5 6 
#
# 1 0.028011 -0.004877 -0.005128 0.000000 -0.001869 0.000000
# 2 -0.004877 0.011860 -0.004974 0.000000 0.003056 0.000000
# 3 -0.005128 -0.004974 0.015708 0.000000 0.002983 0.000000
# 4 0.000000 0.000000 0.000000 0.034960 0.000000 -0.000989
# 5 -0.001869 0.003056 0.002983 0.000000 0.032429 0.000000
# 6 0.000000 0.000000 0.000000 -0.000989 0.000000 0.067566
#
#
# Mechanical properties :
#
#
# Convention : Reuss Voigt Hill
#
# Bulk Modulus (GPa) = 39.02820 51.81877 45.42349
# Shear Modulus (GPa) = 21.83101 25.42721 23.62911
#
# Velocity S-wave (km/s) = 3.41170 3.68200 3.54943
# Velocity P-wave (km/s) = 6.02731 6.76052 6.40441
#
# Compressibility (1/GPa) = 0.02562250
#
# Stress axis : x y z
#
# Youngs Moduli (GPa) = 35.69999 84.31529 63.66185
#
# Poissons Ratio (x) = 0.41120 0.32644
# Poissons Ratio (y) = 0.17411 0.31665
# Poissons Ratio (z) = 0.18306 0.41937
#
# Static dielectric constant tensor:
#      x y z
#    x 3.161890 0.000000 0.036000 
#    y 0.000000 2.900830 0.000000 
#    z 0.036000 0.000000 3.634600 
# 
# 
# High freq. dielectric constant tensor:
#      x y z
#    x 1.700810 0.000000 -0.004380 
#    y 0.000000 1.726680 0.000000 
#    z -0.004380 0.000000 1.744230 
# 
# From -- ./inp_files/35660.got.cif
#   From: 2010.06.25/outbox.cif.g09.slc.cpg/sg15_18_cif.got.tgz:35660.got - 2010.06.28 07:06:18.
