data_PCOD8145765
_publ_section_title
;
Structure prediction by ZEFSAII (Michael W. Deem and Ramdas Pophale) SiO2 
 PCOD8145765
Probable space group: C 2/C
;
_chemical_formula_sum "Si O2"
_cell_formula_units_Z 56
_cell_length_a 8.748653
_cell_length_b 23.992519
_cell_length_c 13.515710
_cell_angle_alpha 90.000000
_cell_angle_beta 107.663632
_cell_angle_gamma 90.000000
_cell_volume 2703.226205
_symmetry_space_group_name_H-M "C 2/C"
_symmetry_group_IT_number 15
_symmetry_cell_setting 'monoclinic'
loop_
_space_group_symop_operation_xyz
x,y,z
-x,y,1/2-z
-x,-y,-z
x,-y,1/2+z
1/2+x,1/2+y,z
1/2-x,1/2+y,1/2-z
1/2-x,1/2-y,-z
1/2+x,1/2-y,1/2+z
loop_
_atom_site_type_symbol
_atom_site_label
_atom_site_fract_x
_atom_site_fract_y
_atom_site_fract_z
Si Si1 0.634756 0.134867 0.463631
Si Si2 0.141535 0.037646 0.561823
Si Si3 0.878578 0.208664 0.134992
Si Si4 0.316865 0.056324 0.204669
Si Si5 0.719538 0.904953 0.588490
Si Si6 0.543960 0.365936 0.371400
Si Si7 0.531956 0.751624 0.555691
O O1 0.702983 0.108290 0.375013
O O2 0.467066 0.108421 0.462998
O O3 0.768468 0.120104 0.572342
O O4 0.600235 0.200912 0.444647
O O5 0.248803 0.047936 0.486098
O O6 0.078829 0.095359 0.593434
O O7 0.238493 0.001962 0.660061
O O8 0.000000 0.000000 0.500000
O O9 0.840489 0.146120 0.090942
O O10 0.707490 0.234170 0.134182
O O11 0.000000 0.210786 0.250000
O O12 0.957369 0.243325 0.060749
O O13 0.500000 0.040966 0.250000
O O14 0.240347 0.074475 0.293442
O O15 0.500000 0.374092 0.250000
O O16 0.525424 0.302844 0.400782
#
# Coordination Sequence:
#
# PCOD8145765 Si02
#       7
#     8   8   8   8   8   8   8
#     4  10  23  47  68  98 137 170 223 281 326 402
#     4  12  26  44  65  95 139 171 222 276 326 393
#     4  10  22  39  70 101 129 176 225 271 332 397
#     4  10  24  43  71 102 128 179 230 268 336 393
#     4  10  24  44  73  95 131 177 227 273 327 402
#     4  12  27  43  65 101 134 175 217 273 349 395
#     4  10  23  44  65 100 137 172 221 277 337 399
#
# _framework density 20.715987999999999
#
# number of rings (size 3 to 8) (size 9 to 14) (size 15 to 20)
#    0.000    1.429    2.857    0.429    8.000    6.286 
#    0.000    0.714    0.000    0.000    0.000    0.000 
#    0.000    0.000    0.000    0.000    0.000    0.000 
#
# Total GULP energy -347199.884588 kJ/mol
# GULP energy per Si atom -12399.995878 kJ/mol
# Density = 2.066884 g / cm^3
# Si number density = 20.715988 Si / 1000 Ang^3
#
#
#
# Elastic Constant Matrix: (Units=GPa)
#
#
# Indices 1 2 3 4 5 6 
#
# 1 79.9382 50.7159 67.7666 0.0000 0.3651 0.0000
# 2 50.7159 121.3734 52.6578 0.0000 -8.2504 0.0000
# 3 67.7666 52.6578 147.2502 0.0000 15.6487 0.0000
# 4 0.0000 0.0000 0.0000 33.1334 0.0000 -0.5393
# 5 0.3651 -8.2504 15.6487 0.0000 38.8254 0.0000
# 6 0.0000 0.0000 0.0000 -0.5393 0.0000 29.1700
#
#
#
# Elastic Compliance Matrix: (Units=1/GPa)
#
#
# Indices 1 2 3 4 5 6 
#
# 1 0.024032 -0.005907 -0.009184 0.000000 0.002220 0.000000
# 2 -0.005907 0.011720 -0.001822 0.000000 0.003280 0.000000
# 3 -0.009184 -0.001822 0.012225 0.000000 -0.005228 0.000000
# 4 0.000000 0.000000 0.000000 0.030190 0.000000 0.000558
# 5 0.002220 0.003280 -0.005228 0.000000 0.028540 0.000000
# 6 0.000000 0.000000 0.000000 0.000558 0.000000 0.034292
#
#
# Mechanical properties :
#
#
# Convention : Reuss Voigt Hill
#
# Bulk Modulus (GPa) = 70.65411 76.76028 73.70720
# Shear Modulus (GPa) = 27.84883 32.05388 29.95135
#
# Velocity S-wave (km/s) = 3.67047 3.93784 3.80650
# Velocity P-wave (km/s) = 7.22103 7.60326 7.41461
#
# Compressibility (1/GPa) = 0.01415346
#
# Stress axis : x y z
#
# Youngs Moduli (GPa) = 41.61074 85.32117 81.80209
#
# Poissons Ratio (x) = 0.50396 0.75124
# Poissons Ratio (y) = 0.24578 0.14901
# Poissons Ratio (z) = 0.38214 0.15542
#
# Static dielectric constant tensor:
#      x y z
#    x 3.369080 0.000000 0.302070 
#    y 0.000000 4.438650 0.000000 
#    z 0.302070 0.000000 3.692020 
# 
# 
# High freq. dielectric constant tensor:
#      x y z
#    x 1.818590 0.000000 0.008500 
#    y 0.000000 1.818550 0.000000 
#    z 0.008500 0.000000 1.810900 
# 
# From -- ./inp_files/137476.got.cif
#   From: 2010.06.25/outbox.cif.g09.slc.cpg/sg15_69_cif.got.tgz:137476.got - 2010.06.28 07:06:18.
