data_PCOD8145522
_publ_section_title
;
Structure prediction by ZEFSAII (Michael W. Deem and Ramdas Pophale) SiO2 
 PCOD8145522
Probable space group: C 2/C
;
_chemical_formula_sum "Si O2"
_cell_formula_units_Z 40
_cell_length_a 12.559569
_cell_length_b 12.098228
_cell_length_c 19.862260
_cell_angle_alpha 90.000000
_cell_angle_beta 37.825104
_cell_angle_gamma 90.000000
_cell_volume 1850.823419
_symmetry_space_group_name_H-M "C 2/C"
_symmetry_group_IT_number 15
_symmetry_cell_setting 'monoclinic'
loop_
_space_group_symop_operation_xyz
x,y,z
-x,y,1/2-z
-x,-y,-z
x,-y,1/2+z
1/2+x,1/2+y,z
1/2-x,1/2+y,1/2-z
1/2-x,1/2-y,-z
1/2+x,1/2-y,1/2+z
loop_
_atom_site_type_symbol
_atom_site_label
_atom_site_fract_x
_atom_site_fract_y
_atom_site_fract_z
Si Si1 0.444142 0.021186 0.950986
Si Si2 0.911154 0.631759 0.228811
Si Si3 0.340638 0.216932 0.721970
Si Si4 0.043749 0.071730 0.155477
Si Si5 0.361653 0.536669 0.623086
O O1 0.565305 0.116647 0.861749
O O2 0.468338 0.908633 0.894345
O O3 0.248113 0.063374 0.040749
O O4 0.500000 0.000000 0.000000
O O5 0.768973 0.719453 0.278524
O O6 0.814774 0.525359 0.307021
O O7 0.000000 0.685687 0.250000
O O8 0.479334 0.300318 0.685799
O O9 0.198548 0.165927 0.846410
O O10 0.000000 0.022341 0.250000
O O11 0.935121 0.995965 0.159245
O O12 0.500000 0.500000 0.500000
#
# Coordination Sequence:
#
# PCOD8145522 Si02
#       5
#     8   8   8   8   8
#     4  11  23  42  63  90 125 162 203 253 304 359
#     4  10  22  39  60  89 122 160 202 250 304 360
#     4  10  23  40  62  90 122 159 207 250 301 364
#     4  11  23  40  63  91 122 162 204 252 304 359
#     4  10  22  41  61  88 124 161 201 251 303 360
#
# _framework density 21.612000999999999
#
# number of rings (size 3 to 8) (size 9 to 14) (size 15 to 20)
#    0.000    1.600    0.000    5.400    0.000   13.600 
#    0.000    3.000    0.000    0.000    0.000    0.000 
#    0.000    0.000    0.000    0.000    0.000    0.000 
#
# Total GULP energy -247848.874277 kJ/mol
# GULP energy per Si atom -12392.443714 kJ/mol
# Density = 2.156281 g / cm^3
# Si number density = 21.612001 Si / 1000 Ang^3
#
#
#
# Elastic Constant Matrix: (Units=GPa)
#
#
# Indices 1 2 3 4 5 6 
#
# 1 86.3803 7.2682 31.4187 0.0000 -8.7688 0.0000
# 2 7.2682 65.0765 28.3820 -0.0001 -16.1469 0.0000
# 3 31.4187 28.3820 127.0882 -0.0007 -4.9893 0.0001
# 4 0.0000 -0.0001 -0.0007 39.6609 0.0002 -5.9538
# 5 -8.7688 -16.1469 -4.9893 0.0002 42.0018 0.0000
# 6 0.0000 0.0000 0.0001 -5.9538 0.0000 17.1886
#
#
#
# Elastic Compliance Matrix: (Units=1/GPa)
#
#
# Indices 1 2 3 4 5 6 
#
# 1 0.012963 0.000597 -0.003238 0.000000 0.002551 0.000000
# 2 0.000597 0.018778 -0.004072 0.000000 0.006860 0.000000
# 3 -0.003238 -0.004072 0.009535 0.000000 -0.001109 0.000000
# 4 0.000000 0.000000 0.000000 0.026597 0.000000 0.009213
# 5 0.002551 0.006860 -0.001109 0.000000 0.026847 0.000000
# 6 0.000000 0.000000 0.000000 0.009213 0.000000 0.061369
#
#
# Mechanical properties :
#
#
# Convention : Reuss Voigt Hill
#
# Bulk Modulus (GPa) = 35.90557 45.85365 40.87961
# Shear Modulus (GPa) = 27.96465 33.86865 30.91665
#
# Velocity S-wave (km/s) = 3.60104 3.96298 3.78634
# Velocity P-wave (km/s) = 5.82579 6.49639 6.17021
#
# Compressibility (1/GPa) = 0.02785083
#
# Stress axis : x y z
#
# Youngs Moduli (GPa) = 77.14146 53.25436 104.87792
#
# Poissons Ratio (x) = -0.03182 0.33960
# Poissons Ratio (y) = -0.04609 0.42706
# Poissons Ratio (z) = 0.24979 0.21685
#
# Static dielectric constant tensor:
#      x y z
#    x 3.775020 0.000000 0.043880 
#    y 0.000000 4.264160 0.000000 
#    z 0.043880 0.000000 4.125280 
# 
# 
# High freq. dielectric constant tensor:
#      x y z
#    x 1.862080 0.000000 -0.007140 
#    y 0.000000 1.842400 0.000000 
#    z -0.007140 0.000000 1.855960 
# 
# From -- ./inp_files/237371.got.cif
#   From: 2010.06.25/outbox.cif.g09.slc.cpg/sg15_119_cif.got.tgz:237371.got - 2010.06.28 07:06:18.
