data_PCOD8145357
_publ_section_title
;
Structure prediction by ZEFSAII (Michael W. Deem and Ramdas Pophale) SiO2 
 PCOD8145357
Probable space group: C 2/C
;
_chemical_formula_sum "Si O2"
_cell_formula_units_Z 52
_cell_length_a 9.875421
_cell_length_b 14.047095
_cell_length_c 21.766549
_cell_angle_alpha 90.000000
_cell_angle_beta 57.050903
_cell_angle_gamma 90.000000
_cell_volume 2533.806479
_symmetry_space_group_name_H-M "C 2/C"
_symmetry_group_IT_number 15
_symmetry_cell_setting 'monoclinic'
loop_
_space_group_symop_operation_xyz
x,y,z
-x,y,1/2-z
-x,-y,-z
x,-y,1/2+z
1/2+x,1/2+y,z
1/2-x,1/2+y,1/2-z
1/2-x,1/2-y,-z
1/2+x,1/2-y,1/2+z
loop_
_atom_site_type_symbol
_atom_site_label
_atom_site_fract_x
_atom_site_fract_y
_atom_site_fract_z
Si Si1 0.000000 0.132646 0.750000
Si Si2 0.385581 0.931529 0.913761
Si Si3 0.433357 0.539641 0.953469
Si Si4 0.659527 0.061442 0.801463
Si Si5 0.360475 0.737737 0.241661
Si Si6 0.796436 0.066529 0.169471
Si Si7 0.025420 0.229116 0.871970
O O1 0.974769 0.199616 0.815400
O O2 0.161038 0.067697 0.713353
O O3 0.534289 0.005405 0.875827
O O4 0.283957 0.921412 0.876544
O O5 0.446020 0.826371 0.914695
O O6 0.262209 0.967640 0.997666
O O7 0.521546 0.477860 0.878574
O O8 0.480094 0.649997 0.933240
O O9 0.500000 0.500000 0.000000
O O10 0.676088 0.003779 0.734328
O O11 0.585895 0.165145 0.805513
O O12 0.500000 0.694960 0.250000
O O13 0.306079 0.665850 0.202250
O O14 0.217151 0.758468 0.324441
#
# Coordination Sequence:
#
# PCOD8145357 Si02
#       7
#     4   8   8   8   8   8   8
#     4  10  22  38  64  92 130 152 210 276 318 338
#     4  11  22  38  65  89 121 167 214 243 313 378
#     4  10  23  40  63  88 129 167 203 250 314 380
#     4  11  22  37  64  91 124 161 212 259 305 378
#     4  11  23  36  63  95 125 155 209 268 309 355
#     4  11  21  39  61  91 123 167 203 260 305 366
#     4  11  21  40  63  93 120 164 208 266 305 366
#
# _framework density 20.522483999999999
#
# number of rings (size 3 to 8) (size 9 to 14) (size 15 to 20)
#    0.000    1.231    4.615    3.692    3.231    0.000 
#    0.000    1.538    3.385    0.000    0.000    0.000 
#    0.000    0.000    0.000    0.000    0.000    0.000 
#
# Total GULP energy -322318.851635 kJ/mol
# GULP energy per Si atom -12396.878909 kJ/mol
# Density = 2.047577 g / cm^3
# Si number density = 20.522484 Si / 1000 Ang^3
#
#
#
# Elastic Constant Matrix: (Units=GPa)
#
#
# Indices 1 2 3 4 5 6 
#
# 1 80.3110 11.4919 8.7873 0.0000 -18.3485 0.0000
# 2 11.4919 106.8520 21.0118 0.0000 -8.9431 0.0000
# 3 8.7873 21.0118 84.0378 -0.0001 -37.4507 0.0000
# 4 0.0000 0.0000 -0.0001 41.9726 0.0000 0.2309
# 5 -18.3485 -8.9431 -37.4507 0.0000 36.0682 0.0000
# 6 0.0000 0.0000 0.0000 0.2309 0.0000 23.9011
#
#
#
# Elastic Compliance Matrix: (Units=1/GPa)
#
#
# Indices 1 2 3 4 5 6 
#
# 1 0.014763 -0.001396 0.003719 0.000000 0.011026 0.000000
# 2 -0.001396 0.009976 -0.002908 0.000000 -0.001256 0.000000
# 3 0.003719 -0.002908 0.023748 0.000000 0.025829 0.000000
# 4 0.000000 0.000000 0.000000 0.023826 0.000000 -0.000230
# 5 0.011026 -0.001256 0.025829 0.000000 0.059842 0.000000
# 6 0.000000 0.000000 0.000000 -0.000230 0.000000 0.041841
#
#
# Mechanical properties :
#
#
# Convention : Reuss Voigt Hill
#
# Bulk Modulus (GPa) = 21.13439 39.30919 30.22179
# Shear Modulus (GPa) = 26.18621 35.71569 30.95095
#
# Velocity S-wave (km/s) = 3.57596 4.17624 3.88770
# Velocity P-wave (km/s) = 5.23168 6.51540 5.90851
#
# Compressibility (1/GPa) = 0.04731624
#
# Stress axis : x y z
#
# Youngs Moduli (GPa) = 67.73470 100.24450 42.10838
#
# Poissons Ratio (x) = 0.13997 -0.15659
# Poissons Ratio (y) = 0.09458 0.12246
# Poissons Ratio (z) = -0.25189 0.29152
#
# Static dielectric constant tensor:
#      x y z
#    x 3.642050 0.000000 -0.401670 
#    y 0.000000 3.877280 0.000000 
#    z -0.401670 0.000000 4.054080 
# 
# 
# High freq. dielectric constant tensor:
#      x y z
#    x 1.789850 0.000000 -0.023140 
#    y 0.000000 1.811450 0.000000 
#    z -0.023140 0.000000 1.797610 
# 
# From -- ./inp_files/269701.got.cif
#   From: 2010.06.25/outbox.cif.g09.slc.cpg/sg15_135_cif.got.tgz:269701.got - 2010.06.28 07:06:18.
