data_PCOD8145453
_publ_section_title
;
Structure prediction by ZEFSAII (Michael W. Deem and Ramdas Pophale) SiO2 
 PCOD8145453
Probable space group: C 2/C
;
_chemical_formula_sum "Si O2"
_cell_formula_units_Z 64
_cell_length_a 17.473882
_cell_length_b 15.314637
_cell_length_c 17.385201
_cell_angle_alpha 90.000000
_cell_angle_beta 42.720307
_cell_angle_gamma 90.000000
_cell_volume 3156.272764
_symmetry_space_group_name_H-M "C 2/C"
_symmetry_group_IT_number 15
_symmetry_cell_setting 'monoclinic'
loop_
_space_group_symop_operation_xyz
x,y,z
-x,y,1/2-z
-x,-y,-z
x,-y,1/2+z
1/2+x,1/2+y,z
1/2-x,1/2+y,1/2-z
1/2-x,1/2-y,-z
1/2+x,1/2-y,1/2+z
loop_
_atom_site_type_symbol
_atom_site_label
_atom_site_fract_x
_atom_site_fract_y
_atom_site_fract_z
Si Si1 0.605572 0.639477 0.228359
Si Si2 0.898948 0.715695 0.376477
Si Si3 0.120285 0.338418 0.201006
Si Si4 0.177713 0.127390 0.491380
Si Si5 0.845685 0.469295 0.188146
Si Si6 0.065254 0.431451 0.540785
Si Si7 0.234715 0.544297 0.499413
Si Si8 0.894240 0.055297 0.108637
O O1 0.500000 0.631339 0.250000
O O2 0.650127 0.738670 0.199791
O O3 0.704476 0.579267 0.121708
O O4 0.572430 0.605596 0.337724
O O5 0.906852 0.819078 0.390157
O O6 0.789068 0.687244 0.410142
O O7 0.910057 0.665241 0.448494
O O8 0.000000 0.685065 0.250000
O O9 0.120617 0.393414 0.278389
O O10 0.000000 0.344154 0.250000
O O11 0.214557 0.376285 0.073265
O O12 0.133683 0.125692 0.436676
O O13 0.190978 0.029427 0.512945
O O14 0.716171 0.496003 0.295743
O O15 0.931002 0.551568 0.134664
O O16 0.866008 0.432800 0.088744
O O17 0.115738 0.502896 0.562512
O O18 0.000000 0.000000 0.000000
#
# Coordination Sequence:
#
# PCOD8145453 Si02
#       8
#     8   8   8   8   8   8   8   8
#     4  11  26  43  62  92 135 175 222 270 319 394
#     4  10  22  41  65  99 128 167 207 273 331 385
#     4  11  23  40  68  97 127 165 220 273 328 383
#     4  10  23  40  65  93 131 162 223 260 322 404
#     4  11  22  42  65  97 124 168 218 275 328 390
#     4  10  22  38  68  97 129 163 216 273 334 385
#     4  11  20  42  66  93 127 173 216 266 334 396
#     4  12  25  44  64  94 131 182 220 259 329 402
#
# _framework density 20.277080999999999
#
# number of rings (size 3 to 8) (size 9 to 14) (size 15 to 20)
#    0.000    1.250    3.750    1.875    3.500    1.500 
#    2.250    1.250    0.000    0.000    0.000    0.000 
#    0.000    0.000    0.000    0.000    0.000    0.000 
#
# Total GULP energy -396788.840488 kJ/mol
# GULP energy per Si atom -12399.651265 kJ/mol
# Density = 2.023093 g / cm^3
# Si number density = 20.277081 Si / 1000 Ang^3
#
#
#
# Elastic Constant Matrix: (Units=GPa)
#
#
# Indices 1 2 3 4 5 6 
#
# 1 111.5075 51.0398 46.3441 0.0000 17.9010 0.0000
# 2 51.0398 118.6223 56.1187 0.0000 10.1736 0.0000
# 3 46.3441 56.1187 116.2552 0.0000 6.6016 0.0000
# 4 0.0000 0.0000 0.0000 25.4719 0.0000 -0.3566
# 5 17.9010 10.1736 6.6016 0.0000 37.6876 0.0000
# 6 0.0000 0.0000 0.0000 -0.3566 0.0000 9.6031
#
#
#
# Elastic Compliance Matrix: (Units=1/GPa)
#
#
# Indices 1 2 3 4 5 6 
#
# 1 0.012594 -0.003603 -0.003027 0.000000 -0.004479 0.000000
# 2 -0.003603 0.012114 -0.004366 0.000000 -0.000794 0.000000
# 3 -0.003027 -0.004366 0.011886 0.000000 0.000535 0.000000
# 4 0.000000 0.000000 0.000000 0.039279 0.000000 0.001459
# 5 -0.004479 -0.000794 0.000535 0.000000 0.028782 0.000000
# 6 0.000000 0.000000 0.000000 0.001459 0.000000 0.104187
#
#
# Mechanical properties :
#
#
# Convention : Reuss Voigt Hill
#
# Bulk Modulus (GPa) = 68.48506 72.59889 70.54198
# Shear Modulus (GPa) = 21.21320 27.41136 24.31228
#
# Velocity S-wave (km/s) = 3.23796 3.68073 3.46642
# Velocity P-wave (km/s) = 6.91571 7.34471 7.13344
#
# Compressibility (1/GPa) = 0.01460173
#
# Stress axis : x y z
#
# Youngs Moduli (GPa) = 79.40121 82.54871 84.13322
#
# Poissons Ratio (x) = 0.29740 0.25468
# Poissons Ratio (y) = 0.28606 0.36736
# Poissons Ratio (z) = 0.24036 0.36044
#
# Static dielectric constant tensor:
#      x y z
#    x 3.801170 0.000000 0.059560 
#    y 0.000000 3.675470 0.000000 
#    z 0.059560 0.000000 3.693930 
# 
# 
# High freq. dielectric constant tensor:
#      x y z
#    x 1.798810 0.000000 0.008260 
#    y 0.000000 1.789300 0.000000 
#    z 0.008260 0.000000 1.796670 
# 
# From -- ./inp_files/211378.got.cif
#   From: 2010.06.25/outbox.cif.g09.slc.cpg/sg15_106_cif.got.tgz:211378.got - 2010.06.28 07:06:18.
