data_PCOD8145121
_publ_section_title
;
Structure prediction by ZEFSAII (Michael W. Deem and Ramdas Pophale) SiO2 
 PCOD8145121
Probable space group: C 2/C
;
_chemical_formula_sum "Si O2"
_cell_formula_units_Z 52
_cell_length_a 29.559471
_cell_length_b 9.211766
_cell_length_c 14.004227
_cell_angle_alpha 90.000000
_cell_angle_beta 140.663500
_cell_angle_gamma 90.000000
_cell_volume 2417.137967
_symmetry_space_group_name_H-M "C 2/C"
_symmetry_group_IT_number 15
_symmetry_cell_setting 'monoclinic'
loop_
_space_group_symop_operation_xyz
x,y,z
-x,y,1/2-z
-x,-y,-z
x,-y,1/2+z
1/2+x,1/2+y,z
1/2-x,1/2+y,1/2-z
1/2-x,1/2-y,-z
1/2+x,1/2-y,1/2+z
loop_
_atom_site_type_symbol
_atom_site_label
_atom_site_fract_x
_atom_site_fract_y
_atom_site_fract_z
Si Si1 0.272024 0.709151 0.671959
Si Si2 0.782711 0.083161 0.277100
Si Si3 0.828371 0.231313 0.170267
Si Si4 0.127476 0.244760 0.827202
Si Si5 0.000000 0.738745 0.750000
Si Si6 0.445877 0.961794 0.327256
Si Si7 0.113350 0.035031 0.396264
O O1 0.277964 0.815153 0.774266
O O2 0.248631 0.545156 0.659279
O O3 0.204369 0.763189 0.502515
O O4 0.349234 0.718577 0.745521
O O5 0.829164 0.183619 0.282210
O O6 0.827339 0.001188 0.430123
O O7 0.874964 0.378152 0.245984
O O8 0.860983 0.106536 0.159387
O O9 0.750000 0.250000 0.000000
O O10 0.081661 0.389830 0.765965
O O11 0.080314 0.116092 0.799613
O O12 0.010716 0.636495 0.676340
O O13 0.064073 0.851485 0.871826
O O14 0.500000 0.000000 0.500000
#
# Coordination Sequence:
#
# PCOD8145121 Si02
#       7
#     8   8   8   8   4   8   8
#     4  10  22  37  62 101 133 168 216 274 338 399
#     4  11  22  36  65  99 128 175 219 274 342 404
#     4  11  23  43  66  99 140 174 224 287 343 398
#     4  10  22  42  64  92 137 172 218 278 334 389
#     4  10  26  48  64  94 134 180 232 270 336 406
#     4  11  27  44  69  98 135 182 220 278 339 408
#     4  10  23  43  66  92 127 179 224 277 333 398
#
# _framework density 21.513045999999999
#
# number of rings (size 3 to 8) (size 9 to 14) (size 15 to 20)
#    0.000    1.538    1.538    1.846    8.615    5.538 
#    0.000    3.077    0.000    0.000    0.000    0.000 
#    0.000    0.000    0.000    0.000    0.000    0.000 
#
# Total GULP energy -322137.766728 kJ/mol
# GULP energy per Si atom -12389.914105 kJ/mol
# Density = 2.146408 g / cm^3
# Si number density = 21.513046 Si / 1000 Ang^3
#
#
#
# Elastic Constant Matrix: (Units=GPa)
#
#
# Indices 1 2 3 4 5 6 
#
# 1 101.6024 59.1563 18.7435 0.0000 -2.4157 0.0000
# 2 59.1563 167.0759 31.3240 0.0000 4.5680 0.0000
# 3 18.7435 31.3240 59.4016 0.0000 4.5776 0.0000
# 4 0.0000 0.0000 0.0000 36.6672 0.0000 -1.2046
# 5 -2.4157 4.5680 4.5776 0.0000 24.5355 0.0000
# 6 0.0000 0.0000 0.0000 -1.2046 0.0000 36.8339
#
#
#
# Elastic Compliance Matrix: (Units=1/GPa)
#
#
# Indices 1 2 3 4 5 6 
#
# 1 0.012706 -0.004193 -0.001984 0.000000 0.002402 0.000000
# 2 -0.004193 0.008034 -0.002807 0.000000 -0.001385 0.000000
# 3 -0.001984 -0.002807 0.019191 0.000000 -0.003253 0.000000
# 4 0.000000 0.000000 0.000000 0.027302 0.000000 0.000893
# 5 0.002402 -0.001385 -0.003253 0.000000 0.041859 0.000000
# 6 0.000000 0.000000 0.000000 0.000893 0.000000 0.027178
#
#
# Mechanical properties :
#
#
# Convention : Reuss Voigt Hill
#
# Bulk Modulus (GPa) = 45.52595 60.72528 53.12561
# Shear Modulus (GPa) = 30.94865 34.19771 32.57318
#
# Velocity S-wave (km/s) = 3.79700 3.99134 3.89538
# Velocity P-wave (km/s) = 6.35853 7.03772 6.70673
#
# Compressibility (1/GPa) = 0.02196550
#
# Stress axis : x y z
#
# Youngs Moduli (GPa) = 78.70012 124.47234 52.10709
#
# Poissons Ratio (x) = 0.52188 0.10336
# Poissons Ratio (y) = 0.32997 0.14625
# Poissons Ratio (z) = 0.15610 0.34937
#
# Static dielectric constant tensor:
#      x y z
#    x 4.320700 0.000000 -0.180620 
#    y 0.000000 4.399810 0.000000 
#    z -0.180620 0.000000 3.582970 
# 
# 
# High freq. dielectric constant tensor:
#      x y z
#    x 1.849580 0.000000 -0.020850 
#    y 0.000000 1.875310 0.000000 
#    z -0.020850 0.000000 1.813440 
# 
# From -- ./inp_files/181205.got.cif
#   From: 2010.06.25/outbox.cif.g09.slc.cpg/sg15_91_cif.got.tgz:181205.got - 2010.06.28 07:06:18.
