data_PCOD8145278
_publ_section_title
;
Structure prediction by ZEFSAII (Michael W. Deem and Ramdas Pophale) SiO2 
 PCOD8145278
Probable space group: C 2/C
;
_chemical_formula_sum "Si O2"
_cell_formula_units_Z 60
_cell_length_a 18.414487
_cell_length_b 20.226720
_cell_length_c 12.503797
_cell_angle_alpha 90.000000
_cell_angle_beta 142.659218
_cell_angle_gamma 90.000000
_cell_volume 2824.859121
_symmetry_space_group_name_H-M "C 2/C"
_symmetry_group_IT_number 15
_symmetry_cell_setting 'monoclinic'
loop_
_space_group_symop_operation_xyz
x,y,z
-x,y,1/2-z
-x,-y,-z
x,-y,1/2+z
1/2+x,1/2+y,z
1/2-x,1/2+y,1/2-z
1/2-x,1/2-y,-z
1/2+x,1/2-y,1/2+z
loop_
_atom_site_type_symbol
_atom_site_label
_atom_site_fract_x
_atom_site_fract_y
_atom_site_fract_z
Si Si1 0.227012 0.859723 0.704482
Si Si2 0.805441 0.163728 0.960756
Si Si3 0.234244 0.873220 0.312836
Si Si4 0.374649 0.512691 0.300835
Si Si5 0.868209 0.313148 0.062216
Si Si6 0.000000 0.068166 0.250000
Si Si7 0.664847 0.187694 0.375858
Si Si8 0.490882 0.299904 0.358411
O O1 0.186746 0.929612 0.702915
O O2 0.282215 0.862648 0.650233
O O3 0.114555 0.808613 0.568784
O O4 0.333954 0.833082 0.902565
O O5 0.731117 0.155680 0.763424
O O6 0.718468 0.147691 0.957806
O O7 0.858964 0.234604 0.052521
O O8 0.916076 0.113442 0.077525
O O9 0.340790 0.854003 0.520340
O O10 0.109394 0.838874 0.195508
O O11 0.217027 0.951961 0.296948
O O12 0.500000 0.500000 0.500000
O O13 0.407293 0.527019 0.214958
O O14 0.000000 0.335630 0.250000
O O15 0.750000 0.250000 0.500000
O O16 0.539810 0.221070 0.190487
O O17 0.500000 0.331557 0.250000
#
# Coordination Sequence:
#
# PCOD8145278 Si02
#       8
#     8   8   8   8   8   4   8   8
#     4  12  23  42  64 100 132 165 224 277 338 405
#     4  11  23  40  63  95 137 166 223 274 325 409
#     4  11  23  40  60 100 137 174 219 266 351 402
#     4  12  25  36  66  98 133 180 214 286 344 390
#     4  11  25  43  66  94 131 185 218 269 339 399
#     4  12  22  42  60 106 132 172 232 274 340 404
#     4  10  22  38  61  97 130 173 206 273 345 404
#     4  11  21  38  64  99 136 161 212 276 351 400
#
# _framework density 21.239996000000001
#
# number of rings (size 3 to 8) (size 9 to 14) (size 15 to 20)
#    0.000    0.800    7.333    1.600    2.800    2.133 
#    0.000    0.000    0.000    1.600    0.000    0.000 
#    0.000    0.000    0.000    0.000    0.000    0.000 
#
# Total GULP energy -371804.691236 kJ/mol
# GULP energy per Si atom -12393.489708 kJ/mol
# Density = 2.119165 g / cm^3
# Si number density = 21.239996 Si / 1000 Ang^3
#
#
#
# Elastic Constant Matrix: (Units=GPa)
#
#
# Indices 1 2 3 4 5 6 
#
# 1 78.9250 29.5120 18.9606 0.0000 -30.9886 0.0000
# 2 29.5120 87.3483 39.8018 0.0000 -1.1926 0.0000
# 3 18.9606 39.8018 129.9457 0.0000 -7.6321 0.0000
# 4 0.0000 0.0000 0.0000 28.1699 0.0000 -3.4568
# 5 -30.9886 -1.1926 -7.6321 0.0000 36.4868 0.0000
# 6 0.0000 0.0000 0.0000 -3.4568 0.0000 13.1922
#
#
#
# Elastic Compliance Matrix: (Units=1/GPa)
#
#
# Indices 1 2 3 4 5 6 
#
# 1 0.023094 -0.007579 0.000090 0.000000 0.019385 0.000000
# 2 -0.007579 0.015799 -0.004132 0.000000 -0.006785 0.000000
# 3 0.000090 -0.004132 0.009056 0.000000 0.001836 0.000000
# 4 0.000000 0.000000 0.000000 0.036678 0.000000 0.009611
# 5 0.019385 -0.006785 0.001836 0.000000 0.044033 0.000000
# 6 0.000000 0.000000 0.000000 0.009611 0.000000 0.078321
#
#
# Mechanical properties :
#
#
# Convention : Reuss Voigt Hill
#
# Bulk Modulus (GPa) = 40.47358 52.52976 46.50167
# Shear Modulus (GPa) = 20.96802 29.43273 25.20038
#
# Velocity S-wave (km/s) = 3.14537 3.72657 3.44824
# Velocity P-wave (km/s) = 5.68224 6.58040 6.14774
#
# Compressibility (1/GPa) = 0.02470748
#
# Stress axis : x y z
#
# Youngs Moduli (GPa) = 43.30189 63.29407 110.42709
#
# Poissons Ratio (x) = 0.47971 -0.00998
# Poissons Ratio (y) = 0.32819 0.45627
# Poissons Ratio (z) = -0.00391 0.26152
#
# Static dielectric constant tensor:
#      x y z
#    x 4.051980 0.000000 -0.158970 
#    y 0.000000 3.890800 0.000000 
#    z -0.158970 0.000000 4.035040 
# 
# 
# High freq. dielectric constant tensor:
#      x y z
#    x 1.834270 0.000000 -0.020780 
#    y 0.000000 1.809890 0.000000 
#    z -0.020780 0.000000 1.832850 
# 
# From -- ./inp_files/107664.got.cif
#   From: 2010.06.25/outbox.cif.g09.slc.cpg/sg15_54_cif.got.tgz:107664.got - 2010.06.28 07:06:18.
