data_PCOD8145815
_publ_section_title
;
Structure prediction by ZEFSAII (Michael W. Deem and Ramdas Pophale) SiO2 
 PCOD8145815
Probable space group: C 2/C
;
_chemical_formula_sum "Si O2"
_cell_formula_units_Z 48
_cell_length_a 28.650676
_cell_length_b 11.985784
_cell_length_c 15.605026
_cell_angle_alpha 90.000000
_cell_angle_beta 28.942149
_cell_angle_gamma 90.000000
_cell_volume 2593.253798
_symmetry_space_group_name_H-M "C 2/C"
_symmetry_group_IT_number 15
_symmetry_cell_setting 'monoclinic'
loop_
_space_group_symop_operation_xyz
x,y,z
-x,y,1/2-z
-x,-y,-z
x,-y,1/2+z
1/2+x,1/2+y,z
1/2-x,1/2+y,1/2-z
1/2-x,1/2-y,-z
1/2+x,1/2-y,1/2+z
loop_
_atom_site_type_symbol
_atom_site_label
_atom_site_fract_x
_atom_site_fract_y
_atom_site_fract_z
Si Si1 0.000000 0.993545 0.750000
Si Si2 0.859462 0.170362 0.031910
Si Si3 0.163455 0.745738 0.754402
Si Si4 0.516014 0.100649 0.412583
Si Si5 0.766927 0.637908 0.421976
Si Si6 0.000000 0.643698 0.250000
Si Si7 0.824518 0.909176 0.922630
O O1 0.060121 0.072997 0.588759
O O2 0.075767 0.920482 0.683729
O O3 0.807926 0.187879 0.205893
O O4 0.773992 0.134048 0.107717
O O5 0.905597 0.280990 0.915976
O O6 0.152903 0.830919 0.693670
O O7 0.242070 0.649366 0.612683
O O8 0.058436 0.696954 0.943858
O O9 0.620345 0.140755 0.268919
O O10 0.512594 0.069324 0.316041
O O11 0.500000 0.000000 0.500000
O O12 0.750000 0.750000 0.500000
O O13 0.718749 0.527203 0.542731
#
# Coordination Sequence:
#
# PCOD8145815 Si02
#       7
#     4   8   8   8   8   4   8
#     4   9  20  38  61  82 116 156 203 237 292 348
#     4   9  19  37  59  85 111 157 194 242 287 348
#     4  10  22  40  60  85 126 152 194 242 306 347
#     4  11  21  39  60  88 117 159 195 240 298 355
#     4  11  21  40  61  86 119 152 203 241 288 355
#     4   9  18  36  59  80 118 150 193 245 288 342
#     4  10  22  41  59  87 123 156 189 255 294 349
#
# _framework density 18.509564999999998
#
# number of rings (size 3 to 8) (size 9 to 14) (size 15 to 20)
#    0.000    2.000    3.333    0.000    2.333    2.000 
#    9.000    0.833    0.000    0.000    0.000    0.000 
#    0.000    0.000    0.000    0.000    0.000    0.000 
#
# Total GULP energy -297419.984442 kJ/mol
# GULP energy per Si atom -12392.499352 kJ/mol
# Density = 1.846744 g / cm^3
# Si number density = 18.509565 Si / 1000 Ang^3
#
#
#
# Elastic Constant Matrix: (Units=GPa)
#
#
# Indices 1 2 3 4 5 6 
#
# 1 115.9946 57.9805 70.5128 0.0000 0.0190 0.0000
# 2 57.9805 104.5759 47.6360 0.0000 4.8069 0.0000
# 3 70.5128 47.6360 115.9734 0.0000 -3.7461 0.0000
# 4 0.0000 0.0000 0.0000 26.2231 0.0000 3.5482
# 5 0.0190 4.8069 -3.7461 0.0000 40.4756 0.0000
# 6 0.0000 0.0000 0.0000 3.5482 0.0000 33.6037
#
#
#
# Elastic Compliance Matrix: (Units=1/GPa)
#
#
# Indices 1 2 3 4 5 6 
#
# 1 0.015819 -0.005396 -0.007403 0.000000 -0.000052 0.000000
# 2 -0.005396 0.013744 -0.002424 0.000000 -0.001854 0.000000
# 3 -0.007403 -0.002424 0.014171 0.000000 0.001603 0.000000
# 4 0.000000 0.000000 0.000000 0.038687 0.000000 -0.004085
# 5 -0.000052 -0.001854 0.001603 0.000000 0.025075 0.000000
# 6 0.000000 0.000000 0.000000 -0.004085 0.000000 0.030190
#
#
# Mechanical properties :
#
#
# Convention : Reuss Voigt Hill
#
# Bulk Modulus (GPa) = 75.26173 76.53361 75.89767
# Shear Modulus (GPa) = 28.97524 30.75479 29.86502
#
# Velocity S-wave (km/s) = 3.96083 4.08065 4.02119
# Velocity P-wave (km/s) = 7.85282 7.97748 7.91540
#
# Compressibility (1/GPa) = 0.01328697
#
# Stress axis : x y z
#
# Youngs Moduli (GPa) = 63.21691 72.76127 70.56422
#
# Poissons Ratio (x) = 0.39260 0.52240
# Poissons Ratio (y) = 0.34110 0.17108
# Poissons Ratio (z) = 0.46801 0.17640
#
# Static dielectric constant tensor:
#      x y z
#    x 3.302550 0.000000 -0.115100 
#    y 0.000000 5.313050 0.000000 
#    z -0.115100 0.000000 3.435120 
# 
# 
# High freq. dielectric constant tensor:
#      x y z
#    x 1.722370 0.000000 -0.006780 
#    y 0.000000 1.711030 0.000000 
#    z -0.006780 0.000000 1.725150 
# 
# From -- ./inp_files/151883.got.cif
#   From: 2010.06.25/outbox.cif.g09.slc.cpg/sg15_76_cif.got.tgz:151883.got - 2010.06.28 07:06:18.
