data_PCOD8145506
_publ_section_title
;
Structure prediction by ZEFSAII (Michael W. Deem and Ramdas Pophale) SiO2 
 PCOD8145506
Probable space group: C 2/C
;
_chemical_formula_sum "Si O2"
_cell_formula_units_Z 64
_cell_length_a 23.645061
_cell_length_b 21.662543
_cell_length_c 5.552569
_cell_angle_alpha 90.000000
_cell_angle_beta 76.594796
_cell_angle_gamma 90.000000
_cell_volume 2766.605490
_symmetry_space_group_name_H-M "C 2/C"
_symmetry_group_IT_number 15
_symmetry_cell_setting 'monoclinic'
loop_
_space_group_symop_operation_xyz
x,y,z
-x,y,1/2-z
-x,-y,-z
x,-y,1/2+z
1/2+x,1/2+y,z
1/2-x,1/2+y,1/2-z
1/2-x,1/2-y,-z
1/2+x,1/2-y,1/2+z
loop_
_atom_site_type_symbol
_atom_site_label
_atom_site_fract_x
_atom_site_fract_y
_atom_site_fract_z
Si Si1 0.229436 0.649176 0.133307
Si Si2 0.522762 0.069693 0.976963
Si Si3 0.149901 0.837072 0.836503
Si Si4 0.273369 0.975108 0.626340
Si Si5 0.068613 0.750049 0.181662
Si Si6 0.155320 0.264824 0.973652
Si Si7 0.859932 0.974541 0.763129
Si Si8 0.632089 0.138144 0.875736
O O1 0.298955 0.653869 0.012252
O O2 0.221653 0.598900 0.355514
O O3 0.203996 0.716914 0.227266
O O4 0.194651 0.623805 0.935344
O O5 0.500000 0.102039 0.750000
O O6 0.593218 0.075722 0.895729
O O7 0.500000 0.101049 0.250000
O O8 0.500000 0.000000 0.000000
O O9 0.179621 0.789683 0.616924
O O10 0.132702 0.900921 0.729580
O O11 0.091870 0.806520 0.996944
O O12 0.206627 0.997493 0.677636
O O13 0.302665 0.994053 0.339959
O O14 0.094831 0.759872 0.421713
O O15 0.000000 0.752464 0.250000
O O16 0.092317 0.684607 0.070175
O O17 0.142437 0.330115 0.111477
O O18 0.889119 0.998514 0.481271
#
# Coordination Sequence:
#
# PCOD8145506 Si02
#       8
#     8   8   8   8   8   8   8   8
#     4  10  22  39  59  90 136 170 222 278 354 411
#     4  10  23  43  66  91 125 177 239 298 345 389
#     4  10  22  39  65  97 130 174 216 279 336 419
#     4   9  19  36  55  83 121 175 221 264 315 389
#     4  10  23  41  64  92 124 164 223 276 339 409
#     4  10  23  38  62  95 125 176 218 280 347 416
#     4   9  19  36  63  92 127 171 213 250 313 394
#     4  10  23  38  61  90 128 174 222 280 348 406
#
# _framework density 23.133040999999999
#
# number of rings (size 3 to 8) (size 9 to 14) (size 15 to 20)
#    0.000    2.250    0.000    0.750    8.750    7.000 
#    4.500    0.000    0.000    0.750    0.000    0.000 
#    0.000    0.000    0.000    0.000    0.000    0.000 
#
# Total GULP energy -396482.668692 kJ/mol
# GULP energy per Si atom -12390.083397 kJ/mol
# Density = 2.308039 g / cm^3
# Si number density = 23.133041 Si / 1000 Ang^3
#
#
#
# Elastic Constant Matrix: (Units=GPa)
#
#
# Indices 1 2 3 4 5 6 
#
# 1 82.9294 10.7727 11.4084 0.0000 1.4012 0.0000
# 2 10.7727 81.4944 15.4937 0.0000 -3.5551 0.0000
# 3 11.4084 15.4937 109.7193 0.0000 27.3963 0.0000
# 4 0.0000 0.0000 0.0000 26.0723 0.0000 -0.2183
# 5 1.4012 -3.5551 27.3963 0.0000 26.3384 0.0000
# 6 0.0000 0.0000 0.0000 -0.2183 0.0000 30.5830
#
#
#
# Elastic Compliance Matrix: (Units=1/GPa)
#
#
# Indices 1 2 3 4 5 6 
#
# 1 0.012397 -0.001396 -0.001189 0.000000 0.000389 0.000000
# 2 -0.001396 0.013232 -0.002956 0.000000 0.004935 0.000000
# 3 -0.001189 -0.002956 0.013156 0.000000 -0.014020 0.000000
# 4 0.000000 0.000000 0.000000 0.038357 0.000000 0.000274
# 5 0.000389 0.004935 -0.014020 0.000000 0.053196 0.000000
# 6 0.000000 0.000000 0.000000 0.000274 0.000000 0.032700
#
#
# Mechanical properties :
#
#
# Convention : Reuss Voigt Hill
#
# Bulk Modulus (GPa) = 36.09530 38.83253 37.46392
# Shear Modulus (GPa) = 27.26974 32.36329 29.81652
#
# Velocity S-wave (km/s) = 3.43712 3.74439 3.59404
# Velocity P-wave (km/s) = 5.60259 5.95961 5.78385
#
# Compressibility (1/GPa) = 0.02770444
#
# Stress axis : x y z
#
# Youngs Moduli (GPa) = 80.66630 75.57164 76.01173
#
# Poissons Ratio (x) = 0.10548 0.09038
# Poissons Ratio (y) = 0.11259 0.22466
# Poissons Ratio (z) = 0.09591 0.22336
#
# Static dielectric constant tensor:
#      x y z
#    x 4.018370 0.000000 0.442760 
#    y 0.000000 4.057140 0.000000 
#    z 0.442760 0.000000 4.531960 
# 
# 
# High freq. dielectric constant tensor:
#      x y z
#    x 1.877790 0.000000 0.022950 
#    y 0.000000 1.910050 0.000000 
#    z 0.022950 0.000000 1.913870 
# 
# From -- ./inp_files/16229.got.cif
#   From: 2010.06.25/outbox.cif.g09.slc.cpg/sg15_9_cif.got.tgz:16229.got - 2010.06.28 07:06:18.
