data_PCOD8145137
_publ_section_title
;
Structure prediction by ZEFSAII (Michael W. Deem and Ramdas Pophale) SiO2 
 PCOD8145137
Probable space group: C 2/C
;
_chemical_formula_sum "Si O2"
_cell_formula_units_Z 56
_cell_length_a 26.070686
_cell_length_b 18.255830
_cell_length_c 9.375203
_cell_angle_alpha 90.000000
_cell_angle_beta 142.479002
_cell_angle_gamma 90.000000
_cell_volume 2717.622911
_symmetry_space_group_name_H-M "C 2/C"
_symmetry_group_IT_number 15
_symmetry_cell_setting 'monoclinic'
loop_
_space_group_symop_operation_xyz
x,y,z
-x,y,1/2-z
-x,-y,-z
x,-y,1/2+z
1/2+x,1/2+y,z
1/2-x,1/2+y,1/2-z
1/2-x,1/2-y,-z
1/2+x,1/2-y,1/2+z
loop_
_atom_site_type_symbol
_atom_site_label
_atom_site_fract_x
_atom_site_fract_y
_atom_site_fract_z
Si Si1 0.813720 0.229094 0.840701
Si Si2 0.000000 0.540066 0.750000
Si Si3 0.218242 0.068602 0.715258
Si Si4 0.878537 0.419869 0.391660
Si Si5 0.850475 0.622413 0.534290
Si Si6 0.866854 0.221762 0.644029
Si Si7 0.797096 0.931343 0.985125
Si Si8 0.000000 0.703101 0.250000
O O1 0.827044 0.145683 0.923853
O O2 0.864676 0.241304 0.806374
O O3 0.713332 0.238393 0.602536
O O4 0.848679 0.288583 0.030070
O O5 0.940959 0.489270 0.520296
O O6 0.945530 0.593759 0.728305
O O7 0.316430 0.068871 0.887675
O O8 0.216921 0.052274 0.879941
O O9 0.169737 0.004203 0.522117
O O10 0.821298 0.409797 0.123059
O O11 0.931466 0.345735 0.519418
O O12 0.792384 0.592478 0.279044
O O13 0.863129 0.134210 0.610587
O O14 0.953954 0.247596 0.767176
#
# Coordination Sequence:
#
# PCOD8145137 Si02
#       8
#     8   4   8   8   8   8   8   4
#     4   9  20  38  62  82 122 155 207 245 293 352
#     4  11  24  36  56  83 138 158 190 229 302 372
#     4  11  20  40  60  91 118 153 203 248 298 354
#     4  11  24  36  56  93 123 160 189 244 298 360
#     4  11  23  37  56  88 120 166 195 239 293 357
#     4   9  19  39  59  87 112 167 196 245 299 358
#     4  10  22  37  64  85 118 158 202 247 295 356
#     4  11  22  38  62  83 128 154 200 245 300 362
#
# _framework density 20.606244
#
# number of rings (size 3 to 8) (size 9 to 14) (size 15 to 20)
#    0.000    1.714    2.857    2.143    2.000    1.714 
#    2.571    0.000    0.000    4.286    0.000    0.000 
#    0.000    0.000    0.000    0.000    0.000    0.000 
#
# Total GULP energy -347142.339216 kJ/mol
# GULP energy per Si atom -12397.940686 kJ/mol
# Density = 2.055934 g / cm^3
# Si number density = 20.606244 Si / 1000 Ang^3
#
#
#
# Elastic Constant Matrix: (Units=GPa)
#
#
# Indices 1 2 3 4 5 6 
#
# 1 82.3918 24.4290 9.8222 0.0000 -0.6012 0.0000
# 2 24.4290 139.2927 25.1896 0.0000 -9.5228 0.0000
# 3 9.8222 25.1896 42.1971 0.0000 -16.4173 0.0000
# 4 0.0000 0.0000 0.0000 29.6584 0.0000 3.7278
# 5 -0.6012 -9.5228 -16.4173 0.0000 28.9074 0.0000
# 6 0.0000 0.0000 0.0000 3.7278 0.0000 34.6617
#
#
#
# Elastic Compliance Matrix: (Units=1/GPa)
#
#
# Indices 1 2 3 4 5 6 
#
# 1 0.013007 -0.001939 -0.002584 0.000000 -0.001836 0.000000
# 2 -0.001939 0.008337 -0.004458 0.000000 0.000175 0.000000
# 3 -0.002584 -0.004458 0.033847 0.000000 0.017701 0.000000
# 4 0.000000 0.000000 0.000000 0.034179 0.000000 -0.003676
# 5 -0.001836 0.000175 0.017701 0.000000 0.044665 0.000000
# 6 0.000000 0.000000 0.000000 -0.003676 0.000000 0.029246
#
#
# Mechanical properties :
#
#
# Convention : Reuss Voigt Hill
#
# Bulk Modulus (GPa) = 26.86059 42.52923 34.69491
# Shear Modulus (GPa) = 25.81926 32.27488 29.04707
#
# Velocity S-wave (km/s) = 3.54359 3.96190 3.75857
# Velocity P-wave (km/s) = 5.45950 6.45079 5.97574
#
# Compressibility (1/GPa) = 0.03722926
#
# Stress axis : x y z
#
# Youngs Moduli (GPa) = 76.88278 119.94309 29.54428
#
# Poissons Ratio (x) = 0.23261 0.07635
# Poissons Ratio (y) = 0.14910 0.13170
# Poissons Ratio (z) = 0.19868 0.53466
#
# Static dielectric constant tensor:
#      x y z
#    x 3.570820 0.000000 -0.171610 
#    y 0.000000 4.194820 0.000000 
#    z -0.171610 0.000000 3.328650 
# 
# 
# High freq. dielectric constant tensor:
#      x y z
#    x 1.795360 0.000000 -0.020760 
#    y 0.000000 1.828340 0.000000 
#    z -0.020760 0.000000 1.762020 
# 
# From -- ./inp_files/62806.got.cif
#   From: 2010.06.25/outbox.cif.g09.slc.cpg/sg15_32_cif.got.tgz:62806.got - 2010.06.28 07:06:18.
