data_PCOD8145974
_publ_section_title
;
Structure prediction by ZEFSAII (Michael W. Deem and Ramdas Pophale) SiO2 
 PCOD8145974
Probable space group: C 2/C
;
_chemical_formula_sum "Si O2"
_cell_formula_units_Z 44
_cell_length_a 11.831296
_cell_length_b 19.571691
_cell_length_c 12.738614
_cell_angle_alpha 90.000000
_cell_angle_beta 135.292815
_cell_angle_gamma 90.000000
_cell_volume 2075.090153
_symmetry_space_group_name_H-M "C 2/C"
_symmetry_group_IT_number 15
_symmetry_cell_setting 'monoclinic'
loop_
_space_group_symop_operation_xyz
x,y,z
-x,y,1/2-z
-x,-y,-z
x,-y,1/2+z
1/2+x,1/2+y,z
1/2-x,1/2+y,1/2-z
1/2-x,1/2-y,-z
1/2+x,1/2-y,1/2+z
loop_
_atom_site_type_symbol
_atom_site_label
_atom_site_fract_x
_atom_site_fract_y
_atom_site_fract_z
Si Si1 0.888590 0.861092 0.893256
Si Si2 0.950845 0.403803 0.872012
Si Si3 0.675441 0.780058 0.056511
Si Si4 0.194698 0.493755 0.557199
Si Si5 0.500000 0.584020 0.250000
Si Si6 0.610662 0.394673 0.223194
O O1 0.713290 0.894192 0.801787
O O2 0.890550 0.780512 0.914986
O O3 0.937069 0.870236 0.804067
O O4 0.012195 0.899166 0.050872
O O5 0.909863 0.433104 0.960819
O O6 0.028127 0.329154 0.929908
O O7 0.079319 0.458707 0.906252
O O8 0.808568 0.820381 0.211403
O O9 0.750000 0.750000 0.000000
O O10 0.352663 0.461862 0.606094
O O11 0.257434 0.544931 0.691566
O O12 0.500000 0.407924 0.250000
#
# Coordination Sequence:
#
# PCOD8145974 Si02
#       6
#     8   8   8   8   4   8
#     4  11  23  39  63  96 124 165 209 251 319 371
#     4   9  21  38  64  87 124 161 203 263 300 368
#     4  11  22  40  61  91 128 158 207 260 313 365
#     4   9  19  42  61  87 125 161 211 250 309 370
#     4  10  22  40  64  92 128 170 204 254 310 388
#     4  11  21  38  64  91 122 159 203 263 305 361
#
# _framework density 21.203897999999999
#
# number of rings (size 3 to 8) (size 9 to 14) (size 15 to 20)
#    0.000    1.818    2.727    1.091    0.000    2.909 
#    0.000    8.182    4.000    9.818    0.000    0.000 
#    0.000    0.000    0.000    0.000    0.000    0.000 
#
# Total GULP energy -272627.711857 kJ/mol
# GULP energy per Si atom -12392.168721 kJ/mol
# Density = 2.115564 g / cm^3
# Si number density = 21.203898 Si / 1000 Ang^3
#
#
#
# Elastic Constant Matrix: (Units=GPa)
#
#
# Indices 1 2 3 4 5 6 
#
# 1 104.2884 51.6571 42.2031 0.0000 10.7148 0.0000
# 2 51.6571 118.9815 29.7905 0.0000 3.4724 0.0000
# 3 42.2031 29.7905 115.9763 0.0000 12.2414 0.0000
# 4 0.0000 0.0000 0.0000 14.5792 0.0000 18.0086
# 5 10.7148 3.4724 12.2414 0.0000 34.8015 0.0000
# 6 0.0000 0.0000 0.0000 18.0086 0.0000 36.6041
#
#
#
# Elastic Compliance Matrix: (Units=1/GPa)
#
#
# Indices 1 2 3 4 5 6 
#
# 1 0.013728 -0.005026 -0.003439 0.000000 -0.002516 0.000000
# 2 -0.005026 0.010823 -0.001039 0.000000 0.000833 0.000000
# 3 -0.003439 -0.001039 0.010404 0.000000 -0.002497 0.000000
# 4 0.000000 0.000000 0.000000 0.174849 0.000000 -0.086023
# 5 -0.002516 0.000833 -0.002497 0.000000 0.030304 0.000000
# 6 0.000000 0.000000 0.000000 -0.086023 0.000000 0.069641
#
#
# Mechanical properties :
#
#
# Convention : Reuss Voigt Hill
#
# Bulk Modulus (GPa) = 62.70649 65.17195 63.93922
# Shear Modulus (GPa) = 14.96678 31.57000 23.26839
#
# Velocity S-wave (km/s) = 2.65967 3.86278 3.31624
# Velocity P-wave (km/s) = 6.25053 7.12021 6.69949
#
# Compressibility (1/GPa) = 0.01594731
#
# Stress axis : x y z
#
# Youngs Moduli (GPa) = 72.84138 92.39991 96.11298
#
# Poissons Ratio (x) = 0.46439 0.33055
# Poissons Ratio (y) = 0.36609 0.09986
# Poissons Ratio (z) = 0.25052 0.09600
#
# Static dielectric constant tensor:
#      x y z
#    x 3.770270 0.000000 0.555690 
#    y 0.000000 4.096180 0.000000 
#    z 0.555690 0.000000 4.043990 
# 
# 
# High freq. dielectric constant tensor:
#      x y z
#    x 1.819790 0.000000 0.042190 
#    y 0.000000 1.844400 0.000000 
#    z 0.042190 0.000000 1.821770 
# 
# From -- ./inp_files/89204.got.cif
#   From: 2010.06.25/outbox.cif.g09.slc.cpg/sg15_45_cif.got.tgz:89204.got - 2010.06.28 07:06:18.
