data_PCOD8145169
_publ_section_title
;
Structure prediction by ZEFSAII (Michael W. Deem and Ramdas Pophale) SiO2 
 PCOD8145169
Probable space group: C 2/C
;
_chemical_formula_sum "Si O2"
_cell_formula_units_Z 36
_cell_length_a 12.049663
_cell_length_b 11.968321
_cell_length_c 21.004759
_cell_angle_alpha 90.000000
_cell_angle_beta 35.274554
_cell_angle_gamma 90.000000
_cell_volume 1749.339658
_symmetry_space_group_name_H-M "C 2/C"
_symmetry_group_IT_number 15
_symmetry_cell_setting 'monoclinic'
loop_
_space_group_symop_operation_xyz
x,y,z
-x,y,1/2-z
-x,-y,-z
x,-y,1/2+z
1/2+x,1/2+y,z
1/2-x,1/2+y,1/2-z
1/2-x,1/2-y,-z
1/2+x,1/2-y,1/2+z
loop_
_atom_site_type_symbol
_atom_site_label
_atom_site_fract_x
_atom_site_fract_y
_atom_site_fract_z
Si Si1 0.018352 0.176376 0.387098
Si Si2 0.000000 0.201656 0.750000
Si Si3 0.436506 0.129712 0.167512
Si Si4 0.582883 0.842910 0.458908
Si Si5 0.616170 0.909455 0.065634
O O1 0.206294 0.119021 0.269719
O O2 0.056128 0.216791 0.442203
O O3 0.846981 0.086252 0.463303
O O4 0.960726 0.288732 0.373454
O O5 0.001237 0.276849 0.812396
O O6 0.190981 0.125086 0.655629
O O7 0.524244 0.010481 0.148883
O O8 0.522346 0.163585 0.059644
O O9 0.451795 0.927292 0.477028
#
# Coordination Sequence:
#
# PCOD8145169 Si02
#       5
#     8   4   8   8   8
#     4   8  20  39  56  85 118 137 191 236 273 332
#     4  10  22  38  50  88 122 140 184 238 282 334
#     4  11  20  37  60  82 111 154 188 224 288 330
#     4   9  19  37  59  79 114 152 184 230 275 335
#     4   9  19  40  57  82 116 142 192 232 273 335
#
# _framework density 20.579194000000001
#
# number of rings (size 3 to 8) (size 9 to 14) (size 15 to 20)
#    1.333    1.333    0.000    1.333    0.000    2.667 
#    8.000    2.222    0.000    0.000    0.000    0.000 
#    0.000    0.000    0.000    0.000    0.000    0.000 
#
# Total GULP energy -223049.284542 kJ/mol
# GULP energy per Si atom -12391.626919 kJ/mol
# Density = 2.053235 g / cm^3
# Si number density = 20.579194 Si / 1000 Ang^3
#
#
#
# Elastic Constant Matrix: (Units=GPa)
#
#
# Indices 1 2 3 4 5 6 
#
# 1 66.4728 -6.3216 47.1907 0.0000 -15.0679 0.0000
# 2 -6.3216 40.6616 34.7006 -0.0005 -5.6181 -0.0001
# 3 47.1907 34.7006 154.7358 -0.0033 -29.0142 -0.0003
# 4 0.0000 -0.0005 -0.0033 24.9764 0.0000 -9.0872
# 5 -15.0679 -5.6181 -29.0142 0.0000 45.2894 0.0002
# 6 0.0000 -0.0001 -0.0003 -9.0872 0.0002 15.8324
#
#
#
# Elastic Compliance Matrix: (Units=1/GPa)
#
#
# Indices 1 2 3 4 5 6 
#
# 1 0.023499 0.011989 -0.009218 -0.000001 0.003400 -0.000001
# 2 0.011989 0.036549 -0.011655 -0.000001 0.001056 -0.000001
# 3 -0.009218 -0.011655 0.012549 0.000002 0.003527 0.000001
# 4 -0.000001 -0.000001 0.000002 0.050606 0.000001 0.029046
# 5 0.003400 0.001056 0.003527 0.000001 0.025602 0.000000
# 6 -0.000001 -0.000001 0.000001 0.029046 0.000000 0.079833
#
#
# Mechanical properties :
#
#
# Convention : Reuss Voigt Hill
#
# Bulk Modulus (GPa) = 18.23802 45.88994 32.06398
# Shear Modulus (GPa) = 18.89070 29.63966 24.26518
#
# Velocity S-wave (km/s) = 3.03306 3.79921 3.43755
# Velocity P-wave (km/s) = 4.59864 6.44926 5.60091
#
# Compressibility (1/GPa) = 0.05483052
#
# Stress axis : x y z
#
# Youngs Moduli (GPa) = 42.55585 27.36016 79.68902
#
# Poissons Ratio (x) = -0.32803 0.73455
# Poissons Ratio (y) = -0.51022 0.92877
# Poissons Ratio (z) = 0.39227 0.31888
#
# Static dielectric constant tensor:
#      x y z
#    x 3.656940 0.000000 -0.327290 
#    y 0.000000 3.483240 0.000000 
#    z -0.327290 0.000000 3.620660 
# 
# 
# High freq. dielectric constant tensor:
#      x y z
#    x 1.799350 0.000000 -0.025400 
#    y 0.000000 1.782560 0.000000 
#    z -0.025400 0.000000 1.799980 
# 
# From -- ./inp_files/295579.got.cif
#   From: 2010.06.25/outbox.cif.g09.slc.cpg/sg15_148_cif.got.tgz:295579.got - 2010.06.28 07:06:18.
