data_PCOD8145192
_publ_section_title
;
Structure prediction by ZEFSAII (Michael W. Deem and Ramdas Pophale) SiO2 
 PCOD8145192
Probable space group: C 2/C
;
_chemical_formula_sum "Si O2"
_cell_formula_units_Z 56
_cell_length_a 24.603014
_cell_length_b 14.050366
_cell_length_c 24.094831
_cell_angle_alpha 90.000000
_cell_angle_beta 159.100382
_cell_angle_gamma 90.000000
_cell_volume 2971.266629
_symmetry_space_group_name_H-M "C 2/C"
_symmetry_group_IT_number 15
_symmetry_cell_setting 'monoclinic'
loop_
_space_group_symop_operation_xyz
x,y,z
-x,y,1/2-z
-x,-y,-z
x,-y,1/2+z
1/2+x,1/2+y,z
1/2-x,1/2+y,1/2-z
1/2-x,1/2-y,-z
1/2+x,1/2-y,1/2+z
loop_
_atom_site_type_symbol
_atom_site_label
_atom_site_fract_x
_atom_site_fract_y
_atom_site_fract_z
Si Si1 0.629450 0.086977 0.067772
Si Si2 0.128699 0.912684 0.497904
Si Si3 0.183144 0.769838 0.174491
Si Si4 0.784319 0.469138 0.242752
Si Si5 0.676282 0.352915 0.426508
Si Si6 0.903435 0.271851 0.472649
Si Si7 0.225019 0.061765 0.857931
O O1 0.657131 0.200619 0.097244
O O2 0.703484 0.040669 0.193924
O O3 0.718228 0.045836 0.098891
O O4 0.451189 0.070432 0.889345
O O5 0.199487 0.918514 0.503453
O O6 0.155877 0.802884 0.539279
O O7 0.948516 0.932303 0.327777
O O8 0.219046 0.980243 0.625724
O O9 0.167776 0.881335 0.143677
O O10 0.351195 0.752426 0.359393
O O11 0.083934 0.738275 0.134659
O O12 0.500000 0.332509 0.250000
O O13 0.750000 0.250000 0.500000
O O14 0.746272 0.412516 0.442454
O O15 0.842309 0.375188 0.432651
#
# Coordination Sequence:
#
# PCOD8145192 Si02
#       7
#     8   8   8   8   8   8   8
#     4  11  22  37  56  83 116 151 189 235 282 343
#     4  11  23  36  57  84 117 154 190 234 281 341
#     4  12  23  36  53  86 118 150 189 229 283 342
#     4  11  23  37  57  83 115 153 190 232 289 339
#     4  10  22  38  58  85 115 152 193 234 285 335
#     4  12  20  33  56  83 118 150 186 230 278 340
#     4  11  23  37  56  85 117 153 192 233 283 335
#
# _framework density 18.847180999999999
#
# number of rings (size 3 to 8) (size 9 to 14) (size 15 to 20)
#    0.000    0.857    7.143    0.857    2.000    2.286 
#    0.000    0.000    0.000    0.857    0.000    0.000 
#    0.000    0.000    0.000    0.000    0.000    0.000 
#
# Total GULP energy -347032.933486 kJ/mol
# GULP energy per Si atom -12394.033339 kJ/mol
# Density = 1.880428 g / cm^3
# Si number density = 18.847181 Si / 1000 Ang^3
#
#
#
# Elastic Constant Matrix: (Units=GPa)
#
#
# Indices 1 2 3 4 5 6 
#
# 1 110.2810 44.2826 40.4214 -0.0020 -4.6017 -0.0006
# 2 44.2826 85.3477 32.8561 0.0021 -1.8367 0.0007
# 3 40.4214 32.8561 56.5306 0.0177 -8.9010 0.0091
# 4 -0.0020 0.0021 0.0177 28.2840 0.0042 -3.4234
# 5 -4.6017 -1.8367 -8.9010 0.0042 24.3734 0.0024
# 6 -0.0006 0.0007 0.0091 -3.4234 0.0024 30.7383
#
#
#
# Elastic Compliance Matrix: (Units=1/GPa)
#
#
# Indices 1 2 3 4 5 6 
#
# 1 0.013363 -0.004172 -0.007196 0.000006 -0.000419 0.000003
# 2 -0.004172 0.016508 -0.006938 0.000003 -0.002078 0.000002
# 3 -0.007196 -0.006938 0.028193 -0.000020 0.008414 -0.000011
# 4 0.000006 0.000003 -0.000020 0.035839 -0.000013 0.003991
# 5 -0.000419 -0.002078 0.008414 -0.000013 0.043865 -0.000007
# 6 0.000003 0.000002 -0.000011 0.003991 -0.000007 0.032977
#
#
# Mechanical properties :
#
#
# Convention : Reuss Voigt Hill
#
# Bulk Modulus (GPa) = 46.62006 54.14215 50.38111
# Shear Modulus (GPa) = 23.30906 25.65244 24.48075
#
# Velocity S-wave (km/s) = 3.52055 3.69328 3.60795
# Velocity P-wave (km/s) = 6.42769 6.85393 6.64423
#
# Compressibility (1/GPa) = 0.02144999
#
# Stress axis : x y z
#
# Youngs Moduli (GPa) = 74.83221 60.57727 35.47022
#
# Poissons Ratio (x) = 0.25274 0.25526
# Poissons Ratio (y) = 0.31221 0.24611
# Poissons Ratio (z) = 0.53852 0.42031
#
# Static dielectric constant tensor:
#      x y z
#    x 3.456400 -0.000010 -0.028400 
#    y -0.000010 3.469060 -0.000030 
#    z -0.028400 -0.000030 3.543310 
# 
# 
# High freq. dielectric constant tensor:
#      x y z
#    x 1.710360 0.000000 0.007010 
#    y 0.000000 1.717940 0.000000 
#    z 0.007010 0.000000 1.745090 
# 
# From -- ./inp_files/61609.got.cif
#   From: 2010.06.25/outbox.cif.g09.slc.cpg/sg15_31_cif.got.tgz:61609.got - 2010.06.28 07:06:18.
