data_PCOD8145206
_publ_section_title
;
Structure prediction by ZEFSAII (Michael W. Deem and Ramdas Pophale) SiO2 
 PCOD8145206
Probable space group: C 2/C
;
_chemical_formula_sum "Si O2"
_cell_formula_units_Z 36
_cell_length_a 8.415935
_cell_length_b 11.042921
_cell_length_c 17.717574
_cell_angle_alpha 90.000000
_cell_angle_beta 65.946032
_cell_angle_gamma 90.000000
_cell_volume 1503.621043
_symmetry_space_group_name_H-M "C 2/C"
_symmetry_group_IT_number 15
_symmetry_cell_setting 'monoclinic'
loop_
_space_group_symop_operation_xyz
x,y,z
-x,y,1/2-z
-x,-y,-z
x,-y,1/2+z
1/2+x,1/2+y,z
1/2-x,1/2+y,1/2-z
1/2-x,1/2-y,-z
1/2+x,1/2-y,1/2+z
loop_
_atom_site_type_symbol
_atom_site_label
_atom_site_fract_x
_atom_site_fract_y
_atom_site_fract_z
Si Si1 0.854446 0.096160 0.509094
Si Si2 0.891508 0.478326 0.845127
Si Si3 0.205857 0.511346 0.383750
Si Si4 0.000000 0.842408 0.750000
Si Si5 0.125717 0.759048 0.879774
O O1 0.723609 0.097346 0.606865
O O2 0.957274 0.220149 0.468522
O O3 0.735789 0.055670 0.462203
O O4 0.000000 0.000000 0.500000
O O5 0.766959 0.364602 0.858344
O O6 0.000000 0.512494 0.750000
O O7 0.019026 0.445127 0.889477
O O8 0.347085 0.565801 0.300400
O O9 0.218998 0.365594 0.380757
O O10 0.944569 0.755812 0.692074
#
# Coordination Sequence:
#
# PCOD8145206 Si02
#       5
#     8   8   8   4   8
#     4   9  22  44  63  93 135 163 212 267 309 380
#     4  11  22  41  64  96 128 161 214 265 307 379
#     4  11  23  40  67  92 125 176 210 257 325 372
#     4  10  22  38  58  94 132 158 216 270 304 372
#     4  10  23  41  64  93 127 172 208 260 321 376
#
# _framework density 23.942204
#
# number of rings (size 3 to 8) (size 9 to 14) (size 15 to 20)
#    0.000    1.778    2.222    0.667    3.111    4.444 
#    0.000   13.333    0.000    0.000    0.000    0.000 
#    0.000    0.000    0.000    0.000    0.000    0.000 
#
# Total GULP energy -223095.829655 kJ/mol
# GULP energy per Si atom -12394.212759 kJ/mol
# Density = 2.388771 g / cm^3
# Si number density = 23.942204 Si / 1000 Ang^3
#
#
#
# Elastic Constant Matrix: (Units=GPa)
#
#
# Indices 1 2 3 4 5 6 
#
# 1 98.4829 -13.9910 28.2473 0.0000 5.3591 0.0000
# 2 -13.9910 63.2998 13.4905 0.0000 -4.7674 0.0000
# 3 28.2473 13.4905 110.4381 0.0000 -33.5552 0.0000
# 4 0.0000 0.0000 0.0000 13.4944 0.0000 -11.5742
# 5 5.3591 -4.7674 -33.5552 0.0000 46.0770 0.0000
# 6 0.0000 0.0000 0.0000 -11.5742 0.0000 5.0390
#
#
#
# Elastic Compliance Matrix: (Units=1/GPa)
#
#
# Indices 1 2 3 4 5 6 
#
# 1 0.012338 0.003439 -0.005013 0.000000 -0.004730 0.000000
# 2 0.003439 0.017182 -0.003287 0.000000 -0.001016 0.000000
# 3 -0.005013 -0.003287 0.013885 0.000000 0.010354 0.000000
# 4 0.000000 0.000000 0.000000 -0.076392 0.000000 -0.175465
# 5 -0.004730 -0.001016 0.010354 0.000000 0.029688 0.000000
# 6 0.000000 0.000000 0.000000 -0.175465 0.000000 -0.204577
#
#
# Mechanical properties :
#
#
# Convention : Reuss Voigt Hill
#
# Bulk Modulus (GPa) = 29.68908 36.41271 33.05089
# Shear Modulus (GPa) = -26.74853 29.22035 1.23591
#
# Velocity S-wave (km/s) = -3.34610 3.49729 0.71925
# Velocity P-wave (km/s) = 1.58154 5.61691 3.81106
#
# Compressibility (1/GPa) = 0.03368242
#
# Stress axis : x y z
#
# Youngs Moduli (GPa) = 81.05154 58.20039 72.02230
#
# Poissons Ratio (x) = -0.20016 0.36104
# Poissons Ratio (y) = -0.27875 0.23675
# Poissons Ratio (z) = 0.40630 0.19132
#
# Static dielectric constant tensor:
#      x y z
#    x 4.774010 0.000000 -0.193100 
#    y 0.000000 3.971510 0.000000 
#    z -0.193100 0.000000 4.812280 
# 
# 
# High freq. dielectric constant tensor:
#      x y z
#    x 1.975500 0.000000 -0.008890 
#    y 0.000000 1.936190 0.000000 
#    z -0.008890 0.000000 1.961750 
# 
# From -- ./inp_files/187591.got.cif
#   From: 2010.06.25/outbox.cif.g09.slc.cpg/sg15_94_cif.got.tgz:187591.got - 2010.06.28 07:06:18.
