data_PCOD8145389
_publ_section_title
;
Structure prediction by ZEFSAII (Michael W. Deem and Ramdas Pophale) SiO2 
 PCOD8145389
Probable space group: C 2/C
;
_chemical_formula_sum "Si O2"
_cell_formula_units_Z 48
_cell_length_a 21.986185
_cell_length_b 8.445721
_cell_length_c 22.337966
_cell_angle_alpha 90.000000
_cell_angle_beta 147.235558
_cell_angle_gamma 90.000000
_cell_volume 2244.797376
_symmetry_space_group_name_H-M "C 2/C"
_symmetry_group_IT_number 15
_symmetry_cell_setting 'monoclinic'
loop_
_space_group_symop_operation_xyz
x,y,z
-x,y,1/2-z
-x,-y,-z
x,-y,1/2+z
1/2+x,1/2+y,z
1/2-x,1/2+y,1/2-z
1/2-x,1/2-y,-z
1/2+x,1/2-y,1/2+z
loop_
_atom_site_type_symbol
_atom_site_label
_atom_site_fract_x
_atom_site_fract_y
_atom_site_fract_z
Si Si1 0.827523 0.282703 0.507580
Si Si2 0.522301 0.984321 0.201426
Si Si3 0.784129 0.007458 0.901594
Si Si4 0.068238 0.713255 0.977243
Si Si5 0.852323 0.151784 0.342354
Si Si6 0.286357 0.957841 0.356641
O O1 0.750000 0.250000 0.500000
O O2 0.855794 0.113108 0.501980
O O3 0.760997 0.386752 0.401998
O O4 0.944956 0.362740 0.623499
O O5 0.500000 0.925775 0.250000
O O6 0.652582 0.027603 0.301399
O O7 0.492954 0.839038 0.134148
O O8 0.819473 0.980879 0.862613
O O9 0.820307 0.186191 0.948163
O O10 0.985704 0.825033 0.947224
O O11 0.098758 0.559296 0.041978
O O12 0.798957 0.320843 0.317290
O O13 0.807295 0.084927 0.241602
#
# Coordination Sequence:
#
# PCOD8145389 Si02
#       6
#     8   8   8   8   8   8
#     4  10  22  44  66  92 122 170 217 266 324 385
#     4  11  23  43  66  90 132 172 219 271 327 385
#     4  11  24  41  67  96 130 170 218 273 323 393
#     4  11  23  40  60  97 131 171 213 266 332 389
#     4  11  22  40  63  94 131 169 216 265 331 390
#     4  10  22  38  65  93 130 169 216 265 324 391
#
# _framework density 21.382777000000001
#
# number of rings (size 3 to 8) (size 9 to 14) (size 15 to 20)
#    0.000    1.333    1.667    4.000    0.000    6.000 
#    3.000    0.000    0.000    0.000    0.000    0.000 
#    0.000    0.000    0.000    0.000    0.000    0.000 
#
# Total GULP energy -297517.560101 kJ/mol
# GULP energy per Si atom -12396.565004 kJ/mol
# Density = 2.133411 g / cm^3
# Si number density = 21.382777 Si / 1000 Ang^3
#
#
#
# Elastic Constant Matrix: (Units=GPa)
#
#
# Indices 1 2 3 4 5 6 
#
# 1 113.8752 41.5505 48.6311 0.0000 3.9457 0.0000
# 2 41.5505 100.5871 49.1103 0.0000 -0.2389 0.0000
# 3 48.6311 49.1103 89.9143 0.0000 6.9322 0.0000
# 4 0.0000 0.0000 0.0000 44.7820 0.0000 -2.4830
# 5 3.9457 -0.2389 6.9322 0.0000 34.1567 0.0000
# 6 0.0000 0.0000 0.0000 -2.4830 0.0000 21.7942
#
#
#
# Elastic Compliance Matrix: (Units=1/GPa)
#
#
# Indices 1 2 3 4 5 6 
#
# 1 0.011835 -0.002424 -0.005049 0.000000 -0.000359 0.000000
# 2 -0.002424 0.014143 -0.006545 0.000000 0.001707 0.000000
# 3 -0.005049 -0.006545 0.017662 0.000000 -0.003047 0.000000
# 4 0.000000 0.000000 0.000000 0.022472 0.000000 0.002560
# 5 -0.000359 0.001707 -0.003047 0.000000 0.029949 0.000000
# 6 0.000000 0.000000 0.000000 0.002560 0.000000 0.046175
#
#
# Mechanical properties :
#
#
# Convention : Reuss Voigt Hill
#
# Bulk Modulus (GPa) = 64.09087 64.77339 64.43213
# Shear Modulus (GPa) = 28.49424 31.15224 29.82324
#
# Velocity S-wave (km/s) = 3.65441 3.82106 3.73866
# Velocity P-wave (km/s) = 6.91697 7.05871 6.98820
#
# Compressibility (1/GPa) = 0.01560285
#
# Stress axis : x y z
#
# Youngs Moduli (GPa) = 84.49605 70.70811 56.61792
#
# Poissons Ratio (x) = 0.17143 0.28587
# Poissons Ratio (y) = 0.20486 0.37056
# Poissons Ratio (z) = 0.42663 0.46278
#
# Static dielectric constant tensor:
#      x y z
#    x 3.769980 0.000000 -0.199980 
#    y 0.000000 3.956540 0.000000 
#    z -0.199980 0.000000 3.978050 
# 
# 
# High freq. dielectric constant tensor:
#      x y z
#    x 1.826360 0.000000 -0.012450 
#    y 0.000000 1.849380 0.000000 
#    z -0.012450 0.000000 1.841390 
# 
# From -- ./inp_files/116267.got.cif
#   From: 2010.06.25/outbox.cif.g09.slc.cpg/sg15_59_cif.got.tgz:116267.got - 2010.06.28 07:06:18.
