data_PCOD8145942
_publ_section_title
;
Structure prediction by ZEFSAII (Michael W. Deem and Ramdas Pophale) SiO2 
 PCOD8145942
Probable space group: C 2/C
;
_chemical_formula_sum "Si O2"
_cell_formula_units_Z 40
_cell_length_a 20.267228
_cell_length_b 8.136249
_cell_length_c 11.011442
_cell_angle_alpha 90.000000
_cell_angle_beta 96.015517
_cell_angle_gamma 90.000000
_cell_volume 1805.779635
_symmetry_space_group_name_H-M "C 2/C"
_symmetry_group_IT_number 15
_symmetry_cell_setting 'monoclinic'
loop_
_space_group_symop_operation_xyz
x,y,z
-x,y,1/2-z
-x,-y,-z
x,-y,1/2+z
1/2+x,1/2+y,z
1/2-x,1/2+y,1/2-z
1/2-x,1/2-y,-z
1/2+x,1/2-y,1/2+z
loop_
_atom_site_type_symbol
_atom_site_label
_atom_site_fract_x
_atom_site_fract_y
_atom_site_fract_z
Si Si1 0.939765 0.624700 0.997649
Si Si2 0.389690 0.332511 0.763798
Si Si3 0.672987 0.115148 0.956849
Si Si4 0.445367 0.547911 0.588551
Si Si5 0.181640 0.055762 0.574294
O O1 0.928852 0.729162 0.872873
O O2 0.873743 0.530989 0.015272
O O3 0.954590 0.755636 0.109184
O O4 0.000000 0.500000 0.000000
O O5 0.351844 0.206448 0.669184
O O6 0.448568 0.440436 0.711865
O O7 0.335532 0.465473 0.802481
O O8 0.742539 0.022776 0.948496
O O9 0.674697 0.244498 0.069932
O O10 0.500000 0.500000 0.500000
O O11 0.369724 0.518696 0.531466
#
# Coordination Sequence:
#
# PCOD8145942 Si02
#       5
#     8   8   8   8   8
#     4  11  24  41  64  95 126 161 215 266 306 371
#     4  10  23  41  64  89 129 174 205 253 327 375
#     4  10  22  40  63  96 129 163 216 264 303 369
#     4  10  22  42  64  89 125 165 208 260 320 379
#     4   9  21  40  62  90 129 168 209 258 312 376
#
# _framework density 22.151097
#
# number of rings (size 3 to 8) (size 9 to 14) (size 15 to 20)
#    0.000    2.000    0.000    2.400    0.000   18.400 
#    0.000    4.000    0.000    0.000    0.000    0.000 
#    0.000    0.000    0.000    0.000    0.000    0.000 
#
# Total GULP energy -247775.143726 kJ/mol
# GULP energy per Si atom -12388.757186 kJ/mol
# Density = 2.210068 g / cm^3
# Si number density = 22.151097 Si / 1000 Ang^3
#
#
#
# Elastic Constant Matrix: (Units=GPa)
#
#
# Indices 1 2 3 4 5 6 
#
# 1 170.9133 95.7963 50.2918 0.0000 -20.0267 0.0000
# 2 95.7963 170.5055 66.8753 0.0000 -26.9321 0.0000
# 3 50.2918 66.8753 102.9819 0.0000 -21.6348 0.0000
# 4 0.0000 0.0000 0.0000 54.6534 0.0000 -9.8737
# 5 -20.0267 -26.9321 -21.6348 0.0000 31.9691 0.0000
# 6 0.0000 0.0000 0.0000 -9.8737 0.0000 50.6570
#
#
#
# Elastic Compliance Matrix: (Units=1/GPa)
#
#
# Indices 1 2 3 4 5 6 
#
# 1 0.008724 -0.004231 -0.001298 0.000000 0.001022 0.000000
# 2 -0.004231 0.010315 -0.003921 0.000000 0.003386 0.000000
# 3 -0.001298 -0.003921 0.014019 0.000000 0.005371 0.000000
# 4 0.000000 0.000000 0.000000 0.018965 0.000000 0.003697
# 5 0.001022 0.003386 0.005371 0.000000 0.038408 0.000000
# 6 0.000000 0.000000 0.000000 0.003697 0.000000 0.020461
#
#
# Mechanical properties :
#
#
# Convention : Reuss Voigt Hill
#
# Bulk Modulus (GPa) = 70.63185 96.70305 83.66745
# Shear Modulus (GPa) = 37.17200 42.88507 40.02853
#
# Velocity S-wave (km/s) = 4.10092 4.40480 4.25557
# Velocity P-wave (km/s) = 7.37421 8.34389 7.87399
#
# Compressibility (1/GPa) = 0.01415792
#
# Stress axis : x y z
#
# Youngs Moduli (GPa) = 114.62511 96.95078 71.33262
#
# Poissons Ratio (x) = 0.41018 0.09261
# Poissons Ratio (y) = 0.48496 0.27967
# Poissons Ratio (z) = 0.14881 0.38011
#
# Static dielectric constant tensor:
#      x y z
#    x 4.162890 0.000000 -0.055450 
#    y 0.000000 4.485150 0.000000 
#    z -0.055450 0.000000 4.271370 
# 
# 
# High freq. dielectric constant tensor:
#      x y z
#    x 1.893090 0.000000 0.001020 
#    y 0.000000 1.885840 0.000000 
#    z 0.001020 0.000000 1.852470 
# 
# From -- ./inp_files/109694.got.cif
#   From: 2010.06.25/outbox.cif.g09.slc.cpg/sg15_55_cif.got.tgz:109694.got - 2010.06.28 07:06:18.
