data_PCOD8145938
_publ_section_title
;
Structure prediction by ZEFSAII (Michael W. Deem and Ramdas Pophale) SiO2 
 PCOD8145938
Probable space group: C 2/C
;
_chemical_formula_sum "Si O2"
_cell_formula_units_Z 52
_cell_length_a 8.460260
_cell_length_b 20.763028
_cell_length_c 13.722654
_cell_angle_alpha 90.000000
_cell_angle_beta 89.659551
_cell_angle_gamma 90.000000
_cell_volume 2410.487291
_symmetry_space_group_name_H-M "C 2/C"
_symmetry_group_IT_number 15
_symmetry_cell_setting 'monoclinic'
loop_
_space_group_symop_operation_xyz
x,y,z
-x,y,1/2-z
-x,-y,-z
x,-y,1/2+z
1/2+x,1/2+y,z
1/2-x,1/2+y,1/2-z
1/2-x,1/2-y,-z
1/2+x,1/2-y,1/2+z
loop_
_atom_site_type_symbol
_atom_site_label
_atom_site_fract_x
_atom_site_fract_y
_atom_site_fract_z
Si Si1 0.741831 0.715849 0.895323
Si Si2 0.668595 0.467263 0.991742
Si Si3 0.289701 0.838153 0.910953
Si Si4 0.092684 0.714457 0.894148
Si Si5 0.671567 0.077388 0.616647
Si Si6 0.687132 0.908766 0.331125
Si Si7 0.500000 0.786013 0.750000
O O1 0.720206 0.639036 0.912905
O O2 0.605400 0.742947 0.824410
O O3 0.917794 0.721660 0.848291
O O4 0.750000 0.750000 0.000000
O O5 0.690264 0.444821 0.101966
O O6 0.500000 0.500000 0.000000
O O7 0.696607 0.406055 0.920621
O O8 0.793832 0.520593 0.958196
O O9 0.153022 0.785755 0.906575
O O10 0.389870 0.834660 0.811306
O O11 0.406118 0.822272 0.000555
O O12 0.208721 0.669952 0.824522
O O13 0.484688 0.088726 0.616733
O O14 0.711850 0.057644 0.727671
#
# Coordination Sequence:
#
# PCOD8145938 Si02
#       7
#     8   8   8   8   8   8   4
#     4  11  23  40  67 100 131 169 221 277 333 398
#     4  11  25  41  61  93 132 169 211 270 328 390
#     4  10  22  40  63  95 129 171 218 274 338 397
#     4   9  19  41  66  92 131 165 215 280 331 387
#     4  10  22  41  67  93 123 172 218 264 324 400
#     4   9  20  42  67  90 122 169 220 262 320 395
#     4  12  24  40  68 102 130 174 228 282 340 402
#
# _framework density 21.572403999999999
#
# number of rings (size 3 to 8) (size 9 to 14) (size 15 to 20)
#    0.000    1.846    1.538    1.385    2.154    6.154 
#    2.769    1.538    0.000    0.000    0.000    0.000 
#    0.000    0.000    0.000    0.000    0.000    0.000 
#
# Total GULP energy -322110.595093 kJ/mol
# GULP energy per Si atom -12388.869042 kJ/mol
# Density = 2.152330 g / cm^3
# Si number density = 21.572404 Si / 1000 Ang^3
#
#
#
# Elastic Constant Matrix: (Units=GPa)
#
#
# Indices 1 2 3 4 5 6 
#
# 1 95.5179 53.7072 42.3445 0.0000 20.5180 0.0000
# 2 53.7072 140.5902 34.1424 0.0000 -0.4944 0.0000
# 3 42.3445 34.1424 66.7042 0.0000 6.2276 0.0000
# 4 0.0000 0.0000 0.0000 26.1142 0.0000 0.2187
# 5 20.5180 -0.4944 6.2276 0.0000 37.1568 0.0000
# 6 0.0000 0.0000 0.0000 0.2187 0.0000 37.1347
#
#
#
# Elastic Compliance Matrix: (Units=1/GPa)
#
#
# Indices 1 2 3 4 5 6 
#
# 1 0.019274 -0.005292 -0.008662 0.000000 -0.009262 0.000000
# 2 -0.005292 0.009600 -0.001868 0.000000 0.003363 0.000000
# 3 -0.008662 -0.001868 0.021336 0.000000 0.001182 0.000000
# 4 0.000000 0.000000 0.000000 0.038295 0.000000 -0.000226
# 5 -0.009262 0.003363 0.001182 0.000000 0.031874 0.000000
# 6 0.000000 0.000000 0.000000 -0.000226 0.000000 0.026930
#
#
# Mechanical properties :
#
#
# Convention : Reuss Voigt Hill
#
# Bulk Modulus (GPa) = 53.86268 62.57785 58.22027
# Shear Modulus (GPa) = 27.00600 31.58901 29.29750
#
# Velocity S-wave (km/s) = 3.54203 3.83080 3.68924
# Velocity P-wave (km/s) = 6.46146 6.97409 6.72266
#
# Compressibility (1/GPa) = 0.01856573
#
# Stress axis : x y z
#
# Youngs Moduli (GPa) = 51.88223 104.16620 46.86840
#
# Poissons Ratio (x) = 0.55125 0.40598
# Poissons Ratio (y) = 0.27456 0.08757
# Poissons Ratio (z) = 0.44941 0.19462
#
# Static dielectric constant tensor:
#      x y z
#    x 3.792150 0.000000 0.078170 
#    y 0.000000 4.074060 0.000000 
#    z 0.078170 0.000000 4.046230 
# 
# 
# High freq. dielectric constant tensor:
#      x y z
#    x 1.840520 0.000000 0.005960 
#    y 0.000000 1.846120 0.000000 
#    z 0.005960 0.000000 1.851900 
# 
# From -- ./inp_files/136000.got.cif
#   From: 2010.06.25/outbox.cif.g09.slc.cpg/sg15_68_cif.got.tgz:136000.got - 2010.06.28 07:06:18.
