data_PCOD8145154
_publ_section_title
;
Structure prediction by ZEFSAII (Michael W. Deem and Ramdas Pophale) SiO2 
 PCOD8145154
Probable space group: C 2/C
;
_chemical_formula_sum "Si O2"
_cell_formula_units_Z 48
_cell_length_a 13.269277
_cell_length_b 19.012154
_cell_length_c 12.005371
_cell_angle_alpha 90.000000
_cell_angle_beta 47.723129
_cell_angle_gamma 90.000000
_cell_volume 2240.932576
_symmetry_space_group_name_H-M "C 2/C"
_symmetry_group_IT_number 15
_symmetry_cell_setting 'monoclinic'
loop_
_space_group_symop_operation_xyz
x,y,z
-x,y,1/2-z
-x,-y,-z
x,-y,1/2+z
1/2+x,1/2+y,z
1/2-x,1/2+y,1/2-z
1/2-x,1/2-y,-z
1/2+x,1/2-y,1/2+z
loop_
_atom_site_type_symbol
_atom_site_label
_atom_site_fract_x
_atom_site_fract_y
_atom_site_fract_z
Si Si1 0.646026 0.405065 0.111742
Si Si2 0.152693 0.936114 0.651174
Si Si3 0.559709 0.211407 0.322966
Si Si4 0.690398 0.810592 0.355319
Si Si5 0.717629 0.924398 0.714862
Si Si6 0.646330 0.077752 0.697150
O O1 0.500000 0.370538 0.250000
O O2 0.652400 0.480181 0.166532
O O3 0.764581 0.356962 0.072383
O O4 0.665978 0.412080 0.964661
O O5 0.215858 0.905518 0.716674
O O6 0.239580 0.912072 0.481137
O O7 0.000000 0.906795 0.750000
O O8 0.500000 0.238114 0.250000
O O9 0.449310 0.226545 0.501971
O O10 0.696868 0.252178 0.255244
O O11 0.591215 0.128117 0.292119
O O12 0.664217 0.858137 0.267806
O O13 0.660836 0.003709 0.750604
O O14 0.500000 0.081302 0.750000
#
# Coordination Sequence:
#
# PCOD8145154 Si02
#       6
#     8   8   8   8   8   8
#     4  10  22  37  66  99 137 175 215 279 338 394
#     4  10  23  40  65 104 137 178 219 270 340 404
#     4  12  26  43  68 103 135 177 225 282 343 397
#     4  12  26  45  66 101 137 176 226 278 343 400
#     4  11  23  42  71 103 138 173 229 283 334 399
#     4  11  25  44  71  99 137 180 226 280 339 399
#
# _framework density 21.419654000000001
#
# number of rings (size 3 to 8) (size 9 to 14) (size 15 to 20)
#    0.000    1.000    3.333    2.500    7.000    3.333 
#    0.000    4.167    0.000    0.000    0.000    0.000 
#    0.000    0.000    0.000    0.000    0.000    0.000 
#
# Total GULP energy -297730.830108 kJ/mol
# GULP energy per Si atom -12405.451255 kJ/mol
# Density = 2.137090 g / cm^3
# Si number density = 21.419654 Si / 1000 Ang^3
#
#
#
# Elastic Constant Matrix: (Units=GPa)
#
#
# Indices 1 2 3 4 5 6 
#
# 1 122.4795 49.8482 65.1011 -0.0001 -1.7905 0.0000
# 2 49.8482 77.1454 56.0735 -0.0002 -2.4299 0.0002
# 3 65.1011 56.0735 161.4854 0.0003 -22.3681 -0.0002
# 4 -0.0001 -0.0002 0.0003 -21.9969 0.0000 25.5904
# 5 -1.7905 -2.4299 -22.3681 0.0000 42.2210 0.0000
# 6 0.0000 0.0002 -0.0002 25.5904 0.0000 -3.7836
#
#
#
# Elastic Compliance Matrix: (Units=1/GPa)
#
#
# Indices 1 2 3 4 5 6 
#
# 1 0.012078 -0.005569 -0.003139 0.000000 -0.001471 0.000000
# 2 -0.005569 0.020128 -0.004982 0.000000 -0.001717 0.000000
# 3 -0.003139 -0.004982 0.009853 0.000000 0.004800 0.000000
# 4 0.000000 0.000000 0.000000 0.006619 0.000000 0.044767
# 5 -0.001471 -0.001717 0.004800 0.000000 0.026067 0.000000
# 6 0.000000 0.000000 0.000000 0.044767 0.000000 0.038480
#
#
# Mechanical properties :
#
#
# Convention : Reuss Voigt Hill
#
# Bulk Modulus (GPa) = 68.12583 78.12843 73.12713
# Shear Modulus (GPa) = 34.36459 15.96059 25.16259
#
# Velocity S-wave (km/s) = 4.00978 2.73268 3.43117
# Velocity P-wave (km/s) = 7.30151 6.81990 7.06481
#
# Compressibility (1/GPa) = 0.01467872
#
# Stress axis : x y z
#
# Youngs Moduli (GPa) = 82.79323 49.68181 101.49342
#
# Poissons Ratio (x) = 0.27668 0.31862
# Poissons Ratio (y) = 0.46108 0.50563
# Poissons Ratio (z) = 0.25991 0.24751
#
# Static dielectric constant tensor:
#      x y z
#    x 3.825020 0.000000 -0.104840 
#    y 0.000000 3.771490 0.000000 
#    z -0.104840 0.000000 4.017490 
# 
# 
# High freq. dielectric constant tensor:
#      x y z
#    x 1.838830 0.000000 -0.007370 
#    y 0.000000 1.833330 0.000000 
#    z -0.007370 0.000000 1.853070 
# 
# From -- ./inp_files/89398.got.cif
#   From: 2010.06.25/outbox.cif.g09.slc.cpg/sg15_45_cif.got.tgz:89398.got - 2010.06.28 07:06:18.
