data_PCOD8145520
_publ_section_title
;
Structure prediction by ZEFSAII (Michael W. Deem and Ramdas Pophale) SiO2 
 PCOD8145520
Probable space group: C 2/C
;
_chemical_formula_sum "Si O2"
_cell_formula_units_Z 40
_cell_length_a 17.746638
_cell_length_b 18.640280
_cell_length_c 11.878965
_cell_angle_alpha 90.000000
_cell_angle_beta 149.978871
_cell_angle_gamma 90.000000
_cell_volume 1966.049318
_symmetry_space_group_name_H-M "C 2/C"
_symmetry_group_IT_number 15
_symmetry_cell_setting 'monoclinic'
loop_
_space_group_symop_operation_xyz
x,y,z
-x,y,1/2-z
-x,-y,-z
x,-y,1/2+z
1/2+x,1/2+y,z
1/2-x,1/2+y,1/2-z
1/2-x,1/2-y,-z
1/2+x,1/2-y,1/2+z
loop_
_atom_site_type_symbol
_atom_site_label
_atom_site_fract_x
_atom_site_fract_y
_atom_site_fract_z
Si Si1 0.591495 0.568952 0.762383
Si Si2 0.319074 0.810918 0.509696
Si Si3 0.298805 0.693266 0.891603
Si Si4 0.553727 0.412656 0.662759
Si Si5 0.150395 0.333607 0.418261
O O1 0.500000 0.601003 0.750000
O O2 0.612751 0.483331 0.805383
O O3 0.489071 0.574779 0.520823
O O4 0.749206 0.611725 0.954751
O O5 0.500000 0.814438 0.750000
O O6 0.250000 0.750000 0.500000
O O7 0.268551 0.792133 0.318187
O O8 0.160458 0.675947 0.796597
O O9 0.415104 0.626200 0.046617
O O10 0.382555 0.761776 0.051304
O O11 0.696027 0.362234 0.833954
O O12 0.000000 0.381105 0.250000
#
# Coordination Sequence:
#
# PCOD8145520 Si02
#       5
#     8   8   8   8   8
#     4  10  22  41  65  87 122 175 212 255 312 385
#     4  11  26  40  63  93 127 164 209 263 314 377
#     4  10  22  39  60  88 125 161 205 258 309 379
#     4  10  22  41  62  90 126 167 215 253 318 380
#     4  11  22  34  61  92 120 158 203 267 313 361
#
# _framework density 20.345371
#
# number of rings (size 3 to 8) (size 9 to 14) (size 15 to 20)
#    0.000    1.600    0.000    4.800   11.200    0.800 
#    0.000    0.000    0.000    9.600    0.000    0.000 
#    0.000    0.000    0.000    0.000    0.000    0.000 
#
# Total GULP energy -247840.562718 kJ/mol
# GULP energy per Si atom -12392.028136 kJ/mol
# Density = 2.029906 g / cm^3
# Si number density = 20.345371 Si / 1000 Ang^3
#
#
#
# Elastic Constant Matrix: (Units=GPa)
#
#
# Indices 1 2 3 4 5 6 
#
# 1 147.1291 64.1128 78.9566 0.0000 16.5397 0.0000
# 2 64.1128 108.6387 46.4874 0.0000 2.0100 0.0000
# 3 78.9566 46.4874 117.0302 0.0000 17.2772 0.0000
# 4 0.0000 0.0000 0.0000 25.0676 0.0000 0.4324
# 5 16.5397 2.0100 17.2772 0.0000 38.1240 0.0000
# 6 0.0000 0.0000 0.0000 0.4324 0.0000 28.8552
#
#
#
# Elastic Compliance Matrix: (Units=1/GPa)
#
#
# Indices 1 2 3 4 5 6 
#
# 1 0.012389 -0.004625 -0.006177 0.000000 -0.002332 0.000000
# 2 -0.004625 0.012898 -0.002357 0.000000 0.002395 0.000000
# 3 -0.006177 -0.002357 0.014183 0.000000 -0.003624 0.000000
# 4 0.000000 0.000000 0.000000 0.039902 0.000000 -0.000598
# 5 -0.002332 0.002395 -0.003624 0.000000 0.028758 0.000000
# 6 0.000000 0.000000 0.000000 -0.000598 0.000000 0.034665
#
#
# Mechanical properties :
#
#
# Convention : Reuss Voigt Hill
#
# Bulk Modulus (GPa) = 76.02726 83.54575 79.78650
# Shear Modulus (GPa) = 28.81868 30.62543 29.72205
#
# Velocity S-wave (km/s) = 3.76769 3.88400 3.82629
# Velocity P-wave (km/s) = 7.50845 7.82731 7.66954
#
# Compressibility (1/GPa) = 0.01315318
#
# Stress axis : x y z
#
# Youngs Moduli (GPa) = 80.71492 77.52870 70.50458
#
# Poissons Ratio (x) = 0.35858 0.43552
# Poissons Ratio (y) = 0.37331 0.16616
# Poissons Ratio (z) = 0.49859 0.18271
#
# Static dielectric constant tensor:
#      x y z
#    x 4.473110 0.000000 0.663060 
#    y 0.000000 3.998030 0.000000 
#    z 0.663060 0.000000 4.488590 
# 
# 
# High freq. dielectric constant tensor:
#      x y z
#    x 1.818620 0.000000 -0.005120 
#    y 0.000000 1.786800 0.000000 
#    z -0.005120 0.000000 1.793880 
# 
# From -- ./inp_files/89309.got.cif
#   From: 2010.06.25/outbox.cif.g09.slc.cpg/sg15_45_cif.got.tgz:89309.got - 2010.06.28 07:06:18.
