data_PCOD8145587
_publ_section_title
;
Structure prediction by ZEFSAII (Michael W. Deem and Ramdas Pophale) SiO2 
 PCOD8145587
Probable space group: C 2/C
;
_chemical_formula_sum "Si O2"
_cell_formula_units_Z 56
_cell_length_a 20.058122
_cell_length_b 20.648171
_cell_length_c 13.149014
_cell_angle_alpha 90.000000
_cell_angle_beta 30.840204
_cell_angle_gamma 90.000000
_cell_volume 2791.786248
_symmetry_space_group_name_H-M "C 2/C"
_symmetry_group_IT_number 15
_symmetry_cell_setting 'monoclinic'
loop_
_space_group_symop_operation_xyz
x,y,z
-x,y,1/2-z
-x,-y,-z
x,-y,1/2+z
1/2+x,1/2+y,z
1/2-x,1/2+y,1/2-z
1/2-x,1/2-y,-z
1/2+x,1/2-y,1/2+z
loop_
_atom_site_type_symbol
_atom_site_label
_atom_site_fract_x
_atom_site_fract_y
_atom_site_fract_z
Si Si1 0.000000 0.309380 0.750000
Si Si2 0.000000 0.722158 0.750000
Si Si3 0.739147 0.256902 0.894341
Si Si4 0.891736 0.371433 0.218406
Si Si5 0.978639 0.960044 0.926790
Si Si6 0.143922 0.176665 0.924387
Si Si7 0.630209 0.118228 0.260403
Si Si8 0.722010 0.488583 0.466225
O O1 0.092055 0.263413 0.559885
O O2 0.076950 0.354467 0.725275
O O3 0.924804 0.678257 0.765699
O O4 0.098258 0.769201 0.563391
O O5 0.840459 0.208919 0.706578
O O6 0.769344 0.330370 0.820996
O O7 0.750000 0.250000 0.000000
O O8 0.785242 0.344178 0.279691
O O9 0.831420 0.435458 0.347944
O O10 0.018338 0.394565 0.989615
O O11 0.960699 0.881598 0.954976
O O12 0.104352 0.977731 0.697356
O O13 0.841394 0.984515 0.062274
O O14 0.000000 0.000000 0.000000
O O15 0.708615 0.056805 0.119385
#
# Coordination Sequence:
#
# PCOD8145587 Si02
#       8
#     4   4   8   8   8   8   8   8
#     4  10  22  39  62  91 126 168 202 260 332 374
#     4  12  24  41  66  97 130 180 222 266 322 390
#     4  10  22  39  63  94 125 164 214 260 324 388
#     4  11  23  41  63  93 131 169 215 263 328 381
#     4  10  24  44  67  91 123 176 215 263 327 382
#     4  11  22  44  66  92 135 169 221 273 321 389
#     4  11  22  40  64  94 128 164 209 266 326 383
#     4  10  24  43  62  97 129 161 217 268 316 394
#
# _framework density 20.058841999999999
#
# number of rings (size 3 to 8) (size 9 to 14) (size 15 to 20)
#    0.000    1.429    2.857    2.571    4.000    2.857 
#    5.143    0.000    0.000    0.000    0.000    0.000 
#    0.000    0.000    0.000    0.000    0.000    0.000 
#
# Total GULP energy -346970.052581 kJ/mol
# GULP energy per Si atom -12391.787592 kJ/mol
# Density = 2.001319 g / cm^3
# Si number density = 20.058842 Si / 1000 Ang^3
#
#
#
# Elastic Constant Matrix: (Units=GPa)
#
#
# Indices 1 2 3 4 5 6 
#
# 1 74.3499 49.1761 32.2337 0.0006 11.8753 -0.0002
# 2 49.1761 165.9825 81.0499 0.0000 -7.2660 -0.0001
# 3 32.2337 81.0499 142.4404 0.0001 2.3370 0.0000
# 4 0.0006 0.0000 0.0001 39.0205 0.0000 -1.7647
# 5 11.8753 -7.2660 2.3370 0.0000 23.8016 -0.0004
# 6 -0.0002 -0.0001 0.0000 -1.7647 -0.0004 32.7751
#
#
#
# Elastic Compliance Matrix: (Units=1/GPa)
#
#
# Indices 1 2 3 4 5 6 
#
# 1 0.019538 -0.005847 -0.000907 0.000000 -0.011444 0.000000
# 2 -0.005847 0.010315 -0.004653 0.000000 0.006523 0.000000
# 3 -0.000907 -0.004653 0.009905 0.000000 -0.001941 0.000000
# 4 0.000000 0.000000 0.000000 0.025690 0.000000 0.001383
# 5 -0.011444 0.006523 -0.001941 0.000000 0.049905 0.000001
# 6 0.000000 0.000000 0.000000 0.001383 0.000001 0.030585
#
#
# Mechanical properties :
#
#
# Convention : Reuss Voigt Hill
#
# Bulk Modulus (GPa) = 59.01569 78.63247 68.82408
# Shear Modulus (GPa) = 28.66972 33.80697 31.23835
#
# Velocity S-wave (km/s) = 3.78468 4.10980 3.95059
# Velocity P-wave (km/s) = 6.97019 7.86172 7.42934
#
# Compressibility (1/GPa) = 0.01694465
#
# Stress axis : x y z
#
# Youngs Moduli (GPa) = 51.18229 96.95002 100.95784
#
# Poissons Ratio (x) = 0.56684 0.09154
# Poissons Ratio (y) = 0.29925 0.46976
# Poissons Ratio (z) = 0.04641 0.45111
#
# Static dielectric constant tensor:
#      x y z
#    x 3.856470 0.000000 -0.337030 
#    y 0.000000 4.042290 0.000010 
#    z -0.337030 0.000010 4.596460 
# 
# 
# High freq. dielectric constant tensor:
#      x y z
#    x 1.772450 0.000000 0.003490 
#    y 0.000000 1.792030 0.000000 
#    z 0.003490 0.000000 1.802010 
# 
# From -- ./inp_files/169151.got.cif
#   From: 2010.06.25/outbox.cif.g09.slc.cpg/sg15_85_cif.got.tgz:169151.got - 2010.06.28 07:06:18.
