data_PCOD8145583
_publ_section_title
;
Structure prediction by ZEFSAII (Michael W. Deem and Ramdas Pophale) SiO2 
 PCOD8145583
Probable space group: C 2/C
;
_chemical_formula_sum "Si O2"
_cell_formula_units_Z 56
_cell_length_a 12.100724
_cell_length_b 21.608737
_cell_length_c 11.367693
_cell_angle_alpha 90.000000
_cell_angle_beta 109.733452
_cell_angle_gamma 90.000000
_cell_volume 2797.879079
_symmetry_space_group_name_H-M "C 2/C"
_symmetry_group_IT_number 15
_symmetry_cell_setting 'monoclinic'
loop_
_space_group_symop_operation_xyz
x,y,z
-x,y,1/2-z
-x,-y,-z
x,-y,1/2+z
1/2+x,1/2+y,z
1/2-x,1/2+y,1/2-z
1/2-x,1/2-y,-z
1/2+x,1/2-y,1/2+z
loop_
_atom_site_type_symbol
_atom_site_label
_atom_site_fract_x
_atom_site_fract_y
_atom_site_fract_z
Si Si1 0.195676 0.556053 0.736873
Si Si2 0.500000 0.024683 0.250000
Si Si3 0.574489 0.719101 0.448847
Si Si4 0.613589 0.467410 0.599871
Si Si5 0.500000 0.613765 0.250000
Si Si6 0.801385 0.307299 0.176039
Si Si7 0.192057 0.410450 0.977962
Si Si8 0.345128 0.776633 0.448770
O O1 0.076299 0.517932 0.693181
O O2 0.300000 0.524075 0.845407
O O3 0.172753 0.620850 0.794341
O O4 0.227523 0.556752 0.611757
O O5 0.414863 0.063309 0.135795
O O6 0.564739 0.657083 0.367787
O O7 0.676073 0.705324 0.576040
O O8 0.598919 0.777895 0.372537
O O9 0.463881 0.736063 0.491230
O O10 0.500000 0.500000 0.500000
O O11 0.586908 0.431496 0.711018
O O12 0.683434 0.415975 0.546456
O O13 0.798212 0.272813 0.299245
O O14 0.138133 0.344836 0.995034
O O15 0.250000 0.750000 0.500000
#
# Coordination Sequence:
#
# PCOD8145583 Si02
#       8
#     8   4   8   8   4   8   8   8
#     4  10  22  40  63  90 126 167 214 261 328 382
#     4  10  22  39  62  90 127 160 216 258 326 390
#     4  11  23  42  64  97 125 170 223 264 327 387
#     4  11  23  41  63  94 131 170 218 267 325 386
#     4  12  22  39  68  90 131 168 216 270 314 390
#     4  10  23  41  65  93 125 173 218 266 322 401
#     4  10  23  39  59  94 121 170 208 266 328 381
#     4  11  23  41  64  90 133 165 213 271 331 386
#
# _framework density 20.015160999999999
#
# number of rings (size 3 to 8) (size 9 to 14) (size 15 to 20)
#    0.000    1.429    1.429    3.000    4.000    2.857 
#    7.714    2.857    0.000    0.000    0.000    0.000 
#    0.000    0.000    0.000    0.000    0.000    0.000 
#
# Total GULP energy -347025.827926 kJ/mol
# GULP energy per Si atom -12393.779569 kJ/mol
# Density = 1.996961 g / cm^3
# Si number density = 20.015161 Si / 1000 Ang^3
#
#
#
# Elastic Constant Matrix: (Units=GPa)
#
#
# Indices 1 2 3 4 5 6 
#
# 1 135.9529 42.5260 43.1388 0.0000 -11.0746 0.0000
# 2 42.5260 68.3447 33.0137 0.0000 -5.0895 0.0000
# 3 43.1388 33.0137 74.5904 0.0000 -1.5783 0.0000
# 4 0.0000 0.0000 0.0000 1827.2328 0.0000 146.4195
# 5 -11.0746 -5.0895 -1.5783 0.0000 38.8541 0.0000
# 6 0.0000 0.0000 0.0000 146.4195 0.0000 42.7499
#
#
#
# Elastic Compliance Matrix: (Units=1/GPa)
#
#
# Indices 1 2 3 4 5 6 
#
# 1 0.010099 -0.004227 -0.003924 0.000000 0.002165 0.000000
# 2 -0.004227 0.020554 -0.006626 0.000000 0.001218 0.000000
# 3 -0.003924 -0.006626 0.018583 0.000000 -0.001232 0.000000
# 4 0.000000 0.000000 0.000000 0.000754 0.000000 -0.002583
# 5 0.002165 0.001218 -0.001232 0.000000 0.026464 0.000000
# 6 0.000000 0.000000 0.000000 -0.002583 0.000000 0.032240
#
#
# Mechanical properties :
#
#
# Convention : Reuss Voigt Hill
#
# Bulk Modulus (GPa) = 50.81251 57.36056 54.08654
# Shear Modulus (GPa) = 34.52794 392.44797 213.48796
#
# Velocity S-wave (km/s) = 4.15793 14.01788 10.33899
# Velocity P-wave (km/s) = 6.96371 17.05058 13.02335
#
# Compressibility (1/GPa) = 0.01968019
#
# Stress axis : x y z
#
# Youngs Moduli (GPa) = 99.01654 48.65308 53.81327
#
# Poissons Ratio (x) = 0.20567 0.21116
# Poissons Ratio (y) = 0.41858 0.35659
# Poissons Ratio (z) = 0.38854 0.32240
#
# Static dielectric constant tensor:
#      x y z
#    x 3.865240 0.000000 -0.111260 
#    y 0.000000 2.845220 0.000000 
#    z -0.111260 0.000000 3.740330 
# 
# 
# High freq. dielectric constant tensor:
#      x y z
#    x 1.790160 0.000000 -0.004310 
#    y 0.000000 1.789100 0.000000 
#    z -0.004310 0.000000 1.792430 
# 
# From -- ./inp_files/89697.got.cif
#   From: 2010.06.25/outbox.cif.g09.slc.cpg/sg15_45_cif.got.tgz:89697.got - 2010.06.28 07:06:18.
