data_PCOD8145302
_publ_section_title
;
Structure prediction by ZEFSAII (Michael W. Deem and Ramdas Pophale) SiO2 
 PCOD8145302
Probable space group: C 2/C
;
_chemical_formula_sum "Si O2"
_cell_formula_units_Z 52
_cell_length_a 29.641181
_cell_length_b 8.638212
_cell_length_c 10.435215
_cell_angle_alpha 90.000000
_cell_angle_beta 71.096361
_cell_angle_gamma 90.000000
_cell_volume 2527.793774
_symmetry_space_group_name_H-M "C 2/C"
_symmetry_group_IT_number 15
_symmetry_cell_setting 'monoclinic'
loop_
_space_group_symop_operation_xyz
x,y,z
-x,y,1/2-z
-x,-y,-z
x,-y,1/2+z
1/2+x,1/2+y,z
1/2-x,1/2+y,1/2-z
1/2-x,1/2-y,-z
1/2+x,1/2-y,1/2+z
loop_
_atom_site_type_symbol
_atom_site_label
_atom_site_fract_x
_atom_site_fract_y
_atom_site_fract_z
Si Si1 0.195631 0.938155 0.025783
Si Si2 0.147809 0.444275 0.334828
Si Si3 0.500000 0.160039 0.750000
Si Si4 0.802382 0.572372 0.454547
Si Si5 0.145461 0.917371 0.815184
Si Si6 0.954150 0.444220 0.966891
Si Si7 0.038654 0.869262 0.940949
O O1 0.196992 0.755287 0.034810
O O2 0.165739 0.006791 0.169326
O O3 0.250004 0.999314 0.978933
O O4 0.171270 0.991790 0.915392
O O5 0.163586 0.535418 0.195202
O O6 0.178104 0.499162 0.430756
O O7 0.155319 0.264125 0.300961
O O8 0.093118 0.487009 0.411687
O O9 0.524041 0.269559 0.831786
O O10 0.456772 0.045244 0.834604
O O11 0.089075 0.953697 0.873903
O O12 0.956820 0.255981 0.945699
O O13 0.000000 0.500000 0.000000
O O14 0.000000 0.000000 0.000000
#
# Coordination Sequence:
#
# PCOD8145302 Si02
#       7
#     8   8   4   8   8   8   8
#     4  10  22  41  60  87 125 158 205 254 314 366
#     4  10  22  38  62  91 120 155 209 250 308 370
#     4  10  22  40  64  84 130 164 210 256 314 372
#     4  10  22  39  62  90 118 161 205 257 306 371
#     4  10  23  40  60  89 124 160 202 254 309 373
#     4   9  21  39  59  87 121 161 204 253 304 375
#     4  10  23  40  60  95 125 162 212 258 314 372
#
# _framework density 20.571299
#
# number of rings (size 3 to 8) (size 9 to 14) (size 15 to 20)
#    0.000    2.154    0.000    0.923    8.615    4.923 
#    2.769    0.000    0.000    0.000    0.000    0.000 
#    0.000    0.000    0.000    0.000    0.000    0.000 
#
# Total GULP energy -322307.282344 kJ/mol
# GULP energy per Si atom -12396.433936 kJ/mol
# Density = 2.052448 g / cm^3
# Si number density = 20.571299 Si / 1000 Ang^3
#
#
#
# Elastic Constant Matrix: (Units=GPa)
#
#
# Indices 1 2 3 4 5 6 
#
# 1 111.8099 22.9567 28.5660 0.0000 -16.0642 0.0000
# 2 22.9567 44.9631 29.1488 0.0000 -8.9030 0.0000
# 3 28.5660 29.1488 101.6139 0.0000 -3.8891 0.0000
# 4 0.0000 0.0000 0.0000 47.8899 0.0000 -3.9829
# 5 -16.0642 -8.9030 -3.8891 0.0000 42.7706 0.0000
# 6 0.0000 0.0000 0.0000 -3.9829 0.0000 24.9470
#
#
#
# Elastic Compliance Matrix: (Units=1/GPa)
#
#
# Indices 1 2 3 4 5 6 
#
# 1 0.010592 -0.003621 -0.001822 0.000000 0.003059 0.000000
# 2 -0.003621 0.029664 -0.007333 0.000000 0.004148 0.000000
# 3 -0.001822 -0.007333 0.012415 0.000000 -0.001082 0.000000
# 4 0.000000 0.000000 0.000000 0.021162 0.000000 0.003379
# 5 0.003059 0.004148 -0.001082 0.000000 0.025295 0.000000
# 6 0.000000 0.000000 0.000000 0.003379 0.000000 0.040624
#
#
# Mechanical properties :
#
#
# Convention : Reuss Voigt Hill
#
# Bulk Modulus (GPa) = 36.87276 46.63668 41.75472
# Shear Modulus (GPa) = 28.67879 34.96918 31.82399
#
# Velocity S-wave (km/s) = 3.73784 4.12746 3.93747
# Velocity P-wave (km/s) = 6.04912 6.74051 6.40415
#
# Compressibility (1/GPa) = 0.02712029
#
# Stress axis : x y z
#
# Youngs Moduli (GPa) = 94.40900 33.71046 80.54524
#
# Poissons Ratio (x) = 0.12208 0.14674
# Poissons Ratio (y) = 0.34188 0.59061
# Poissons Ratio (z) = 0.17200 0.24719
#
# Static dielectric constant tensor:
#      x y z
#    x 4.166850 0.000000 0.103720 
#    y 0.000000 3.890880 0.000000 
#    z 0.103720 0.000000 4.417330 
# 
# 
# High freq. dielectric constant tensor:
#      x y z
#    x 1.822130 0.000000 -0.002220 
#    y 0.000000 1.792350 0.000000 
#    z -0.002220 0.000000 1.807010 
# 
# From -- ./inp_files/121435.got.cif
#   From: 2010.06.25/outbox.cif.g09.slc.cpg/sg15_61_cif.got.tgz:121435.got - 2010.06.28 07:06:18.
