data_PCOD8145545
_publ_section_title
;
Structure prediction by ZEFSAII (Michael W. Deem and Ramdas Pophale) SiO2 
 PCOD8145545
Probable space group: C 2/C
;
_chemical_formula_sum "Si O2"
_cell_formula_units_Z 32
_cell_length_a 14.763373
_cell_length_b 5.134998
_cell_length_c 25.448484
_cell_angle_alpha 90.000000
_cell_angle_beta 124.675354
_cell_angle_gamma 90.000000
_cell_volume 1586.591038
_symmetry_space_group_name_H-M "C 2/C"
_symmetry_group_IT_number 15
_symmetry_cell_setting 'monoclinic'
loop_
_space_group_symop_operation_xyz
x,y,z
-x,y,1/2-z
-x,-y,-z
x,-y,1/2+z
1/2+x,1/2+y,z
1/2-x,1/2+y,1/2-z
1/2-x,1/2-y,-z
1/2+x,1/2-y,1/2+z
loop_
_atom_site_type_symbol
_atom_site_label
_atom_site_fract_x
_atom_site_fract_y
_atom_site_fract_z
Si Si1 0.866806 0.708582 0.564714
Si Si2 0.017710 0.205884 0.883836
Si Si3 0.226415 0.615068 0.211012
Si Si4 0.399838 0.416652 0.682379
O O1 0.750000 0.750000 0.500000
O O2 0.914405 0.430337 0.563908
O O3 0.857583 0.707691 0.625392
O O4 0.952190 0.937834 0.575465
O O5 0.889829 0.271669 0.845731
O O6 0.054524 0.171045 0.834568
O O7 0.208713 0.357436 0.240772
O O8 0.296870 0.512155 0.185055
O O9 0.500000 0.301024 0.750000
#
# Coordination Sequence:
#
# PCOD8145545 Si02
#       4
#     8   8   8   8
#     4  10  22  42  65  86 129 172 210 259 320 381
#     4  10  22  39  61  89 124 162 217 252 319 378
#     4  12  23  38  62  96 133 163 210 268 326 381
#     4  10  22  39  63  93 124 167 208 266 321 370
#
# _framework density 20.169029999999999
#
# number of rings (size 3 to 8) (size 9 to 14) (size 15 to 20)
#    1.500    0.000    2.500    3.750    3.500    1.000 
#    0.000    2.500    0.000    0.000    0.000    0.000 
#    0.000    0.000    0.000    0.000    0.000    0.000 
#
# Total GULP energy -198228.790634 kJ/mol
# GULP energy per Si atom -12389.299415 kJ/mol
# Density = 2.012312 g / cm^3
# Si number density = 20.169030 Si / 1000 Ang^3
#
#
#
# Elastic Constant Matrix: (Units=GPa)
#
#
# Indices 1 2 3 4 5 6 
#
# 1 111.8414 12.5850 24.5810 0.0000 21.6274 0.0001
# 2 12.5850 104.6334 20.7695 0.0001 3.7805 0.0000
# 3 24.5810 20.7695 120.5149 0.0000 24.0787 -0.0001
# 4 0.0000 0.0001 0.0000 32.1097 0.0000 9.3578
# 5 21.6274 3.7805 24.0787 0.0000 26.2499 -0.0001
# 6 0.0001 0.0000 -0.0001 9.3578 -0.0001 18.0802
#
#
#
# Elastic Compliance Matrix: (Units=1/GPa)
#
#
# Indices 1 2 3 4 5 6 
#
# 1 0.010746 -0.000918 -0.000356 0.000000 -0.008395 0.000000
# 2 -0.000918 0.009975 -0.001709 0.000000 0.000888 0.000000
# 3 -0.000356 -0.001709 0.010477 0.000000 -0.009071 0.000000
# 4 0.000000 0.000000 0.000000 0.036675 0.000000 -0.018982
# 5 -0.008395 0.000888 -0.009071 0.000000 0.053205 0.000000
# 6 0.000000 0.000000 0.000000 -0.018982 0.000000 0.065134
#
#
# Mechanical properties :
#
#
# Convention : Reuss Voigt Hill
#
# Bulk Modulus (GPa) = 39.63455 50.31785 44.97620
# Shear Modulus (GPa) = 24.92648 33.89159 29.40904
#
# Velocity S-wave (km/s) = 3.51932 4.10369 3.82269
# Velocity P-wave (km/s) = 6.01731 6.88882 6.46776
#
# Compressibility (1/GPa) = 0.02523051
#
# Stress axis : x y z
#
# Youngs Moduli (GPa) = 93.05591 100.25242 95.44421
#
# Poissons Ratio (x) = 0.09208 0.03401
# Poissons Ratio (y) = 0.08547 0.16313
# Poissons Ratio (z) = 0.03316 0.17134
#
# Static dielectric constant tensor:
#      x y z
#    x 3.414910 0.000000 0.091970 
#    y 0.000000 3.752340 0.000000 
#    z 0.091970 0.000000 3.462740 
# 
# 
# High freq. dielectric constant tensor:
#      x y z
#    x 1.765300 0.000000 0.023210 
#    y 0.000000 1.790770 0.000000 
#    z 0.023210 0.000000 1.776800 
# 
# From -- ./inp_files/201828.got.cif
#   From: 2010.06.25/outbox.cif.g09.slc.cpg/sg15_101_cif.got.tgz:201828.got - 2010.06.28 07:06:18.
