data_PCOD8145173
_publ_section_title
;
Structure prediction by ZEFSAII (Michael W. Deem and Ramdas Pophale) SiO2 
 PCOD8145173
Probable space group: C 2/C
;
_chemical_formula_sum "Si O2"
_cell_formula_units_Z 44
_cell_length_a 19.195947
_cell_length_b 18.880651
_cell_length_c 5.202161
_cell_angle_alpha 90.000000
_cell_angle_beta 107.171033
_cell_angle_gamma 90.000000
_cell_volume 1801.391639
_symmetry_space_group_name_H-M "C 2/C"
_symmetry_group_IT_number 15
_symmetry_cell_setting 'monoclinic'
loop_
_space_group_symop_operation_xyz
x,y,z
-x,y,1/2-z
-x,-y,-z
x,-y,1/2+z
1/2+x,1/2+y,z
1/2-x,1/2+y,1/2-z
1/2-x,1/2-y,-z
1/2+x,1/2-y,1/2+z
loop_
_atom_site_type_symbol
_atom_site_label
_atom_site_fract_x
_atom_site_fract_y
_atom_site_fract_z
Si Si1 0.920036 0.470057 0.904343
Si Si2 0.607292 0.815189 0.646206
Si Si3 0.150796 0.046697 0.819594
Si Si4 0.266938 0.324001 0.882803
Si Si5 0.000000 0.881139 0.250000
Si Si6 0.409594 0.725362 0.357630
O O1 0.877008 0.497624 0.111072
O O2 0.936768 0.387119 0.906926
O O3 0.000000 0.500000 0.000000
O O4 0.689694 0.842227 0.669214
O O5 0.596342 0.779423 0.910296
O O6 0.574047 0.763788 0.392830
O O7 0.204920 0.114767 0.891411
O O8 0.166952 0.995616 0.077438
O O9 0.066356 0.071192 0.720053
O O10 0.250000 0.250000 0.000000
O O11 0.331025 0.313682 0.741975
O O12 0.027857 0.832223 0.516798
#
# Coordination Sequence:
#
# PCOD8145173 Si02
#       6
#     8   8   8   8   4   8
#     4  10  22  38  55  79 117 160 200 248 307 372
#     4  11  22  39  62  89 122 161 209 266 320 379
#     4  11  25  43  67  97 133 174 216 266 327 391
#     4   9  22  43  67  95 128 165 214 268 321 381
#     4  10  24  42  64  94 132 168 214 264 320 386
#     4  10  23  39  63  92 119 160 209 264 321 378
#
# _framework density 24.425561999999999
#
# number of rings (size 3 to 8) (size 9 to 14) (size 15 to 20)
#    0.000    1.818    0.000    2.182    0.000   19.636 
#    0.000    0.000    0.000    0.000    0.000    0.000 
#    0.000    0.000    0.000    0.000    0.000    0.000 
#
# Total GULP energy -272670.372996 kJ/mol
# GULP energy per Si atom -12394.107863 kJ/mol
# Density = 2.436997 g / cm^3
# Si number density = 24.425562 Si / 1000 Ang^3
#
#
#
# Elastic Constant Matrix: (Units=GPa)
#
#
# Indices 1 2 3 4 5 6 
#
# 1 50.1500 34.4035 12.2831 0.0000 23.2824 0.0000
# 2 34.4035 137.0527 40.9279 0.0000 7.8226 0.0000
# 3 12.2831 40.9279 137.5798 0.0000 -11.7815 0.0000
# 4 0.0000 0.0000 0.0000 36.5670 0.0000 0.1814
# 5 23.2824 7.8226 -11.7815 0.0000 28.4111 0.0000
# 6 0.0000 0.0000 0.0000 0.1814 0.0000 46.0379
#
#
#
# Elastic Compliance Matrix: (Units=1/GPa)
#
#
# Indices 1 2 3 4 5 6 
#
# 1 0.041873 -0.007208 -0.004523 0.000000 -0.034205 0.000000
# 2 -0.007208 0.009561 -0.001991 0.000000 0.002449 0.000000
# 3 -0.004523 -0.001991 0.008947 0.000000 0.007965 0.000000
# 4 0.000000 0.000000 0.000000 0.027348 0.000000 -0.000108
# 5 -0.034205 0.002449 0.007965 0.000000 0.065857 0.000000
# 6 0.000000 0.000000 0.000000 -0.000108 0.000000 0.021722
#
#
# Mechanical properties :
#
#
# Convention : Reuss Voigt Hill
#
# Bulk Modulus (GPa) = 30.36209 55.55683 42.95946
# Shear Modulus (GPa) = 23.39412 38.01438 30.70425
#
# Velocity S-wave (km/s) = 3.09815 3.94932 3.54934
# Velocity P-wave (km/s) = 5.02548 6.60234 5.86713
#
# Compressibility (1/GPa) = 0.03293581
#
# Stress axis : x y z
#
# Youngs Moduli (GPa) = 23.88188 104.59605 111.77337
#
# Poissons Ratio (x) = 0.75392 0.50558
# Poissons Ratio (y) = 0.17214 0.22253
# Poissons Ratio (z) = 0.10802 0.20824
#
# Static dielectric constant tensor:
#      x y z
#    x 5.340680 0.000000 0.392720 
#    y 0.000000 4.645050 0.000000 
#    z 0.392720 0.000000 3.926120 
# 
# 
# High freq. dielectric constant tensor:
#      x y z
#    x 1.969540 0.000000 0.009530 
#    y 0.000000 1.984470 0.000000 
#    z 0.009530 0.000000 1.963730 
# 
# From -- ./inp_files/12942.got.cif
#   From: 2010.06.25/outbox.cif.g09.slc.cpg/sg15_7_cif.got.tgz:12942.got - 2010.06.28 07:06:18.
