data_PCOD8145706
_publ_section_title
;
Structure prediction by ZEFSAII (Michael W. Deem and Ramdas Pophale) SiO2 
 PCOD8145706
Probable space group: C 2/C
;
_chemical_formula_sum "Si O2"
_cell_formula_units_Z 36
_cell_length_a 22.438263
_cell_length_b 10.097390
_cell_length_c 11.943567
_cell_angle_alpha 90.000000
_cell_angle_beta 41.660131
_cell_angle_gamma 90.000000
_cell_volume 1798.726162
_symmetry_space_group_name_H-M "C 2/C"
_symmetry_group_IT_number 15
_symmetry_cell_setting 'monoclinic'
loop_
_space_group_symop_operation_xyz
x,y,z
-x,y,1/2-z
-x,-y,-z
x,-y,1/2+z
1/2+x,1/2+y,z
1/2-x,1/2+y,1/2-z
1/2-x,1/2-y,-z
1/2+x,1/2-y,1/2+z
loop_
_atom_site_type_symbol
_atom_site_label
_atom_site_fract_x
_atom_site_fract_y
_atom_site_fract_z
Si Si1 0.086567 0.588047 0.407058
Si Si2 0.000000 0.974366 0.750000
Si Si3 0.165512 0.329866 0.254203
Si Si4 0.136962 0.746234 0.544032
Si Si5 0.501403 0.727429 0.624417
O O1 0.170262 0.488764 0.271026
O O2 0.087158 0.642703 0.532595
O O3 0.082409 0.713941 0.329053
O O4 0.000000 0.500000 0.500000
O O5 0.911959 0.886912 0.889024
O O6 0.988555 0.068494 0.656163
O O7 0.133039 0.312684 0.172954
O O8 0.096338 0.256222 0.432770
O O9 0.262090 0.266835 0.140724
O O10 0.500000 0.794565 0.750000
#
# Coordination Sequence:
#
# PCOD8145706 Si02
#       5
#     8   4   8   8   8
#     4  10  22  39  66  90 127 170 215 267 312 394
#     4  10  22  40  64  94 130 164 212 266 320 394
#     4  10  24  42  63  94 131 170 215 275 313 394
#     4  11  24  41  64  97 129 171 219 263 336 374
#     4   9  22  40  63  94 125 167 218 255 331 377
#
# _framework density 20.014164000000001
#
# number of rings (size 3 to 8) (size 9 to 14) (size 15 to 20)
#    0.667    1.333    0.000    2.667    9.333    3.556 
#    4.000    2.222    0.000    0.000    0.000    0.000 
#    0.000    0.000    0.000    0.000    0.000    0.000 
#
# Total GULP energy -223089.191370 kJ/mol
# GULP energy per Si atom -12393.843965 kJ/mol
# Density = 1.996861 g / cm^3
# Si number density = 20.014164 Si / 1000 Ang^3
#
#
#
# Elastic Constant Matrix: (Units=GPa)
#
#
# Indices 1 2 3 4 5 6 
#
# 1 105.9427 50.0353 49.0101 0.0000 15.8272 0.0000
# 2 50.0353 143.7965 50.9050 0.0000 10.2578 0.0000
# 3 49.0101 50.9050 128.8883 0.0000 12.1574 0.0000
# 4 0.0000 0.0000 0.0000 36.9595 0.0000 15.4864
# 5 15.8272 10.2578 12.1574 0.0000 29.1611 0.0000
# 6 0.0000 0.0000 0.0000 15.4864 0.0000 27.4913
#
#
#
# Elastic Compliance Matrix: (Units=1/GPa)
#
#
# Indices 1 2 3 4 5 6 
#
# 1 0.013123 -0.003049 -0.003347 0.000000 -0.004655 0.000000
# 2 -0.003049 0.008863 -0.002293 0.000000 -0.000507 0.000000
# 3 -0.003347 -0.002293 0.010086 0.000000 -0.001582 0.000000
# 4 0.000000 0.000000 0.000000 0.035416 0.000000 -0.019951
# 5 -0.004655 -0.000507 -0.001582 0.000000 0.037656 0.000000
# 6 0.000000 0.000000 0.000000 -0.019951 0.000000 0.047614
#
#
# Mechanical properties :
#
#
# Convention : Reuss Voigt Hill
#
# Bulk Modulus (GPa) = 68.05624 75.39204 71.72414
# Shear Modulus (GPa) = 28.56575 33.96753 31.26664
#
# Velocity S-wave (km/s) = 3.78203 4.12415 3.95679
# Velocity P-wave (km/s) = 7.29037 7.77362 7.53587
#
# Compressibility (1/GPa) = 0.01469373
#
# Stress axis : x y z
#
# Youngs Moduli (GPa) = 76.20339 112.82438 99.14603
#
# Poissons Ratio (x) = 0.34405 0.33180
# Poissons Ratio (y) = 0.23238 0.22737
# Poissons Ratio (z) = 0.25502 0.25874
#
# Static dielectric constant tensor:
#      x y z
#    x 3.690170 0.000000 0.035510 
#    y 0.000000 3.961910 0.000000 
#    z 0.035510 0.000000 3.580490 
# 
# 
# High freq. dielectric constant tensor:
#      x y z
#    x 1.777780 0.000000 0.011160 
#    y 0.000000 1.789730 0.000000 
#    z 0.011160 0.000000 1.775790 
# 
# From -- ./inp_files/117075.got.cif
#   From: 2010.06.25/outbox.cif.g09.slc.cpg/sg15_59_cif.got.tgz:117075.got - 2010.06.28 07:06:18.
