data_PCOD8145480
_publ_section_title
;
Structure prediction by ZEFSAII (Michael W. Deem and Ramdas Pophale) SiO2 
 PCOD8145480
Probable space group: C 2/C
;
_chemical_formula_sum "Si O2"
_cell_formula_units_Z 48
_cell_length_a 7.837101
_cell_length_b 18.168111
_cell_length_c 15.132045
_cell_angle_alpha 90.000000
_cell_angle_beta 94.082535
_cell_angle_gamma 90.000000
_cell_volume 2149.113899
_symmetry_space_group_name_H-M "C 2/C"
_symmetry_group_IT_number 15
_symmetry_cell_setting 'monoclinic'
loop_
_space_group_symop_operation_xyz
x,y,z
-x,y,1/2-z
-x,-y,-z
x,-y,1/2+z
1/2+x,1/2+y,z
1/2-x,1/2+y,1/2-z
1/2-x,1/2-y,-z
1/2+x,1/2-y,1/2+z
loop_
_atom_site_type_symbol
_atom_site_label
_atom_site_fract_x
_atom_site_fract_y
_atom_site_fract_z
Si Si1 0.500000 0.789980 0.250000
Si Si2 0.500000 0.407238 0.250000
Si Si3 0.842272 0.616542 0.061901
Si Si4 0.684072 0.934228 0.649431
Si Si5 0.676654 0.106939 0.642471
Si Si6 0.463806 0.523390 0.400303
Si Si7 0.679125 0.198696 0.276157
O O1 0.485727 0.843669 0.335019
O O2 0.335282 0.738673 0.234619
O O3 0.664470 0.360905 0.291499
O O4 0.447965 0.456257 0.332259
O O5 0.719766 0.560768 0.109438
O O6 0.809547 0.692212 0.116024
O O7 0.040600 0.591064 0.073022
O O8 0.785410 0.622359 0.958536
O O9 0.665181 0.884768 0.736047
O O10 0.877441 0.923218 0.620584
O O11 0.653332 0.021278 0.665452
O O12 0.500000 0.500000 0.500000
O O13 0.500000 0.240509 0.250000
#
# Coordination Sequence:
#
# PCOD8145480 Si02
#       7
#     4   4   8   8   8   8   8
#     4  12  28  45  66  97 146 178 224 278 352 405
#     4  10  22  39  56  99 140 176 216 274 350 389
#     4  11  21  41  70  99 133 174 236 278 338 407
#     4  10  22  42  68 105 133 175 230 281 342 400
#     4  11  25  40  69 105 133 175 226 295 333 393
#     4  11  20  34  62  97 140 171 212 280 341 392
#     4  10  24  46  71  91 135 190 222 273 345 421
#
# _framework density 22.334786999999999
#
# number of rings (size 3 to 8) (size 9 to 14) (size 15 to 20)
#    0.000    1.333    3.333    3.500    7.000    1.333 
#    0.000    3.333    0.000    0.000    0.000    0.000 
#    0.000    0.000    0.000    0.000    0.000    0.000 
#
# Total GULP energy -297346.063206 kJ/mol
# GULP energy per Si atom -12389.419300 kJ/mol
# Density = 2.228395 g / cm^3
# Si number density = 22.334787 Si / 1000 Ang^3
#
#
#
# Elastic Constant Matrix: (Units=GPa)
#
#
# Indices 1 2 3 4 5 6 
#
# 1 141.5310 38.0579 55.7854 0.0000 -5.4756 0.0000
# 2 38.0579 65.4919 28.8939 0.0000 -6.4564 0.0000
# 3 55.7854 28.8939 130.2580 0.0000 9.8909 0.0000
# 4 0.0000 0.0000 0.0000 17.0939 0.0000 -10.3555
# 5 -5.4756 -6.4564 9.8909 0.0000 38.7487 0.0000
# 6 0.0000 0.0000 0.0000 -10.3555 0.0000 42.6076
#
#
#
# Elastic Compliance Matrix: (Units=1/GPa)
#
#
# Indices 1 2 3 4 5 6 
#
# 1 0.009478 -0.003895 -0.003312 0.000000 0.001536 0.000000
# 2 -0.003895 0.019110 -0.002826 0.000000 0.003355 0.000000
# 3 -0.003312 -0.002826 0.009987 0.000000 -0.003488 0.000000
# 4 0.000000 0.000000 0.000000 0.068601 0.000000 0.016673
# 5 0.001536 0.003355 -0.003488 0.000000 0.027474 0.000000
# 6 0.000000 0.000000 0.000000 0.016673 0.000000 0.027522
#
#
# Mechanical properties :
#
#
# Convention : Reuss Voigt Hill
#
# Bulk Modulus (GPa) = 54.02500 64.75061 59.38780
# Shear Modulus (GPa) = 26.53842 33.99293 30.26568
#
# Velocity S-wave (km/s) = 3.45078 3.90548 3.68515
# Velocity P-wave (km/s) = 6.33391 7.02786 6.68989
#
# Compressibility (1/GPa) = 0.01850995
#
# Stress axis : x y z
#
# Youngs Moduli (GPa) = 105.51075 52.32890 100.13083
#
# Poissons Ratio (x) = 0.20383 0.33159
# Poissons Ratio (y) = 0.41098 0.28292
# Poissons Ratio (z) = 0.34941 0.14786
#
# Static dielectric constant tensor:
#      x y z
#    x -1.129510 0.000000 -0.249200 
#    y 0.000000 3.949320 0.000000 
#    z -0.249200 0.000000 3.793370 
# 
# 
# High freq. dielectric constant tensor:
#      x y z
#    x 1.900420 0.000000 -0.000630 
#    y 0.000000 1.862090 0.000000 
#    z -0.000630 0.000000 1.878630 
# 
# From -- ./inp_files/134901.got.cif
#   From: 2010.06.25/outbox.cif.g09.slc.cpg/sg15_68_cif.got.tgz:134901.got - 2010.06.28 07:06:18.
