data_PCOD8145057
_publ_section_title
;
Structure prediction by ZEFSAII (Michael W. Deem and Ramdas Pophale) SiO2 
 PCOD8145057
Probable space group: C 2/C
;
_chemical_formula_sum "Si O2"
_cell_formula_units_Z 52
_cell_length_a 22.420178
_cell_length_b 25.816254
_cell_length_c 18.165959
_cell_angle_alpha 90.000000
_cell_angle_beta 162.299209
_cell_angle_gamma 90.000000
_cell_volume 3196.908524
_symmetry_space_group_name_H-M "C 2/C"
_symmetry_group_IT_number 15
_symmetry_cell_setting 'monoclinic'
loop_
_space_group_symop_operation_xyz
x,y,z
-x,y,1/2-z
-x,-y,-z
x,-y,1/2+z
1/2+x,1/2+y,z
1/2-x,1/2+y,1/2-z
1/2-x,1/2-y,-z
1/2+x,1/2-y,1/2+z
loop_
_atom_site_type_symbol
_atom_site_label
_atom_site_fract_x
_atom_site_fract_y
_atom_site_fract_z
Si Si1 0.245272 0.095322 0.832356
Si Si2 0.000000 0.463690 0.750000
Si Si3 0.061187 0.303584 0.906563
Si Si4 0.290089 0.493642 0.475877
Si Si5 0.342289 0.413771 0.921540
Si Si6 0.849379 0.190587 0.506564
Si Si7 0.935207 0.442279 0.407970
O O1 0.305970 0.080945 0.821332
O O2 0.027158 0.071487 0.587376
O O3 0.393516 0.071485 0.065261
O O4 0.262912 0.157287 0.865394
O O5 0.843215 0.498275 0.609030
O O6 0.132456 0.245991 0.012527
O O7 0.000000 0.305934 0.750000
O O8 0.872008 0.319631 0.729959
O O9 0.314708 0.546636 0.457334
O O10 0.197544 0.445601 0.321248
O O11 0.500000 0.474414 0.750000
O O12 0.138786 0.410585 0.636032
O O13 0.405513 0.356774 0.020945
O O14 0.000000 0.190357 0.750000
O O15 0.000000 0.500000 0.500000
#
# Coordination Sequence:
#
# PCOD8145057 Si02
#       7
#     8   4   8   8   8   8   8
#     4  12  21  33  53  72 103 142 175 206 251 292
#     4  12  20  32  52  74 100 136 178 208 242 304
#     4  11  20  31  45  71 101 136 178 209 237 289
#     4  11  22  36  53  74  99 133 173 211 256 300
#     4  11  21  34  51  71 102 139 170 210 248 295
#     4  11  20  31  45  70 102 136 175 211 241 284
#     4  10  22  37  50  73 103 132 172 213 255 297
#
# _framework density 16.265713999999999
#
# number of rings (size 3 to 8) (size 9 to 14) (size 15 to 20)
#    0.000    0.923    6.923    4.154    0.000    3.692 
#    0.000    0.000    0.000    0.000    0.000    0.000 
#    0.000    1.231    0.000    0.154    0.000    0.000 
#
# Total GULP energy -322295.100743 kJ/mol
# GULP energy per Si atom -12395.965413 kJ/mol
# Density = 1.622869 g / cm^3
# Si number density = 16.265714 Si / 1000 Ang^3
#
#
#
# Elastic Constant Matrix: (Units=GPa)
#
#
# Indices 1 2 3 4 5 6 
#
# 1 37.4764 16.6335 40.4641 0.0053 5.5329 0.0046
# 2 16.6335 56.5801 17.6758 -0.0004 -8.5753 -0.0020
# 3 40.4641 17.6758 115.9818 -0.0093 10.8405 -0.0217
# 4 0.0053 -0.0004 -0.0093 32.0449 -0.0025 11.6628
# 5 5.5329 -8.5753 10.8405 -0.0025 34.3241 -0.0061
# 6 0.0046 -0.0020 -0.0217 11.6628 -0.0061 41.8106
#
#
#
# Elastic Compliance Matrix: (Units=1/GPa)
#
#
# Indices 1 2 3 4 5 6 
#
# 1 0.047891 -0.010385 -0.014592 -0.000008 -0.005706 -0.000012
# 2 -0.010385 0.021958 -0.000404 0.000001 0.007288 0.000003
# 3 -0.014592 -0.000404 0.013977 0.000004 -0.002163 0.000008
# 4 -0.000008 0.000001 0.000004 0.034732 0.000001 -0.009688
# 5 -0.005706 0.007288 -0.002163 0.000001 0.032558 0.000004
# 6 -0.000012 0.000003 0.000008 -0.009688 0.000004 0.026620
#
#
# Mechanical properties :
#
#
# Convention : Reuss Voigt Hill
#
# Bulk Modulus (GPa) = 30.24618 39.95388 35.10003
# Shear Modulus (GPa) = 20.87513 30.65359 25.76436
#
# Velocity S-wave (km/s) = 3.58632 4.34585 3.98423
# Velocity P-wave (km/s) = 5.98200 7.05680 6.54151
#
# Compressibility (1/GPa) = 0.03306203
#
# Stress axis : x y z
#
# Youngs Moduli (GPa) = 20.88086 45.54162 71.54693
#
# Poissons Ratio (x) = 0.47295 1.04403
# Poissons Ratio (y) = 0.21685 0.02893
# Poissons Ratio (z) = 0.30470 0.01842
#
# Static dielectric constant tensor:
#      x y z
#    x 4.029200 0.000590 -0.671270 
#    y 0.000590 2.822530 -0.000340 
#    z -0.671270 -0.000340 4.088760 
# 
# 
# High freq. dielectric constant tensor:
#      x y z
#    x 1.604930 0.000000 0.033100 
#    y 0.000000 1.604940 0.000000 
#    z 0.033100 0.000000 1.633900 
# 
# From -- ./inp_files/216826.got.cif
#   From: 2010.06.25/outbox.cif.g09.slc.cpg/sg15_109_cif.got.tgz:216826.got - 2010.06.28 07:06:18.
