data_PCOD8145299
_publ_section_title
;
Structure prediction by ZEFSAII (Michael W. Deem and Ramdas Pophale) SiO2 
 PCOD8145299
Probable space group: C 2/C
;
_chemical_formula_sum "Si O2"
_cell_formula_units_Z 48
_cell_length_a 12.564669
_cell_length_b 19.676516
_cell_length_c 15.351130
_cell_angle_alpha 90.000000
_cell_angle_beta 141.644738
_cell_angle_gamma 90.000000
_cell_volume 2355.083723
_symmetry_space_group_name_H-M "C 2/C"
_symmetry_group_IT_number 15
_symmetry_cell_setting 'monoclinic'
loop_
_space_group_symop_operation_xyz
x,y,z
-x,y,1/2-z
-x,-y,-z
x,-y,1/2+z
1/2+x,1/2+y,z
1/2-x,1/2+y,1/2-z
1/2-x,1/2-y,-z
1/2+x,1/2-y,1/2+z
loop_
_atom_site_type_symbol
_atom_site_label
_atom_site_fract_x
_atom_site_fract_y
_atom_site_fract_z
Si Si1 0.910771 0.416352 0.370786
Si Si2 0.108680 0.723740 0.562025
Si Si3 0.284768 0.053820 0.314384
Si Si4 0.102806 0.669152 0.232335
Si Si5 0.500000 0.394576 0.750000
Si Si6 0.664280 0.695146 0.503279
Si Si7 0.500000 0.879631 0.250000
O O1 0.840074 0.340244 0.342991
O O2 0.765726 0.475554 0.268943
O O3 0.023211 0.421412 0.354000
O O4 0.026698 0.434495 0.527286
O O5 0.276970 0.769218 0.658390
O O6 0.038616 0.697448 0.425190
O O7 0.958566 0.769021 0.507148
O O8 0.274662 0.109512 0.229743
O O9 0.150840 0.060454 0.307063
O O10 0.000000 0.640314 0.250000
O O11 0.440387 0.352482 0.628454
O O12 0.750000 0.750000 0.500000
O O13 0.822150 0.659962 0.654797
#
# Coordination Sequence:
#
# PCOD8145299 Si02
#       7
#     8   8   8   8   4   8   4
#     4  10  22  38  62  90 125 166 202 250 311 377
#     4  11  22  40  62  95 125 161 211 260 311 364
#     4  10  22  43  63  89 124 165 208 250 316 369
#     4  11  23  41  65  88 124 169 210 254 304 377
#     4  12  21  42  64  94 121 164 202 262 318 369
#     4  12  22  34  64  99 128 155 202 264 323 366
#     4  12  21  36  62  98 125 164 204 260 314 375
#
# _framework density 20.381440999999999
#
# number of rings (size 3 to 8) (size 9 to 14) (size 15 to 20)
#    0.000    1.000    5.000    3.000    1.167    0.000 
#    1.500    0.833    7.333    0.000    0.000    0.000 
#    0.000    0.000    0.000    0.000    0.000    0.000 
#
# Total GULP energy -297392.186135 kJ/mol
# GULP energy per Si atom -12391.341089 kJ/mol
# Density = 2.033505 g / cm^3
# Si number density = 20.381441 Si / 1000 Ang^3
#
#
#
# Elastic Constant Matrix: (Units=GPa)
#
#
# Indices 1 2 3 4 5 6 
#
# 1 126.3452 48.4291 9.2136 0.0002 -13.5685 0.0002
# 2 48.4291 116.5771 24.1391 0.0000 4.9426 0.0000
# 3 9.2136 24.1391 64.8331 0.0005 -8.9645 0.0006
# 4 0.0002 0.0000 0.0005 18.9843 0.0003 7.0972
# 5 -13.5685 4.9426 -8.9645 0.0003 27.9394 0.0003
# 6 0.0002 0.0000 0.0006 7.0972 0.0003 21.7378
#
#
#
# Elastic Compliance Matrix: (Units=1/GPa)
#
#
# Indices 1 2 3 4 5 6 
#
# 1 0.010343 -0.004807 0.001185 0.000000 0.006253 0.000000
# 2 -0.004807 0.011756 -0.004504 0.000000 -0.005859 0.000000
# 3 0.001185 -0.004504 0.017918 0.000000 0.007121 0.000000
# 4 0.000000 0.000000 0.000000 0.059998 -0.000001 -0.019589
# 5 0.006253 -0.005859 0.007121 -0.000001 0.042150 -0.000001
# 6 0.000000 0.000000 0.000000 -0.019589 -0.000001 0.052398
#
#
# Mechanical properties :
#
#
# Convention : Reuss Voigt Hill
#
# Bulk Modulus (GPa) = 42.08209 52.36878 47.22543
# Shear Modulus (GPa) = 22.85856 28.79723 25.82790
#
# Velocity S-wave (km/s) = 3.35257 3.76295 3.56367
# Velocity P-wave (km/s) = 5.97314 6.68056 6.33673
#
# Compressibility (1/GPa) = 0.02376308
#
# Stress axis : x y z
#
# Youngs Moduli (GPa) = 96.68819 85.06289 55.81134
#
# Poissons Ratio (x) = 0.40889 -0.06611
# Poissons Ratio (y) = 0.46478 0.25138
# Poissons Ratio (z) = -0.11454 0.38313
#
# Static dielectric constant tensor:
#      x y z
#    x 3.605570 0.000000 -0.113700 
#    y 0.000000 4.028580 0.000000 
#    z -0.113700 0.000000 3.567810 
# 
# 
# High freq. dielectric constant tensor:
#      x y z
#    x 1.797120 0.000000 -0.012890 
#    y 0.000000 1.793180 0.000000 
#    z -0.012890 0.000000 1.788100 
# 
# From -- ./inp_files/57748.got.cif
#   From: 2010.06.25/outbox.cif.g09.slc.cpg/sg15_29_cif.got.tgz:57748.got - 2010.06.28 07:06:18.
