data_PCOD8145719
_publ_section_title
;
Structure prediction by ZEFSAII (Michael W. Deem and Ramdas Pophale) SiO2 
 PCOD8145719
Probable space group: C 2/C
;
_chemical_formula_sum "Si O2"
_cell_formula_units_Z 48
_cell_length_a 11.884907
_cell_length_b 18.666581
_cell_length_c 14.816974
_cell_angle_alpha 90.000000
_cell_angle_beta 40.549066
_cell_angle_gamma 90.000000
_cell_volume 2136.975679
_symmetry_space_group_name_H-M "C 2/C"
_symmetry_group_IT_number 15
_symmetry_cell_setting 'monoclinic'
loop_
_space_group_symop_operation_xyz
x,y,z
-x,y,1/2-z
-x,-y,-z
x,-y,1/2+z
1/2+x,1/2+y,z
1/2-x,1/2+y,1/2-z
1/2-x,1/2-y,-z
1/2+x,1/2-y,1/2+z
loop_
_atom_site_type_symbol
_atom_site_label
_atom_site_fract_x
_atom_site_fract_y
_atom_site_fract_z
Si Si1 0.489633 0.055772 0.654826
Si Si2 0.265777 0.555562 0.958179
Si Si3 0.129385 0.228549 0.887019
Si Si4 0.598785 0.195422 0.101715
Si Si5 0.876877 0.080489 0.697109
Si Si6 0.008275 0.722154 0.642074
O O1 0.500000 0.027941 0.750000
O O2 0.289734 0.041602 0.746948
O O3 0.549492 0.137971 0.611786
O O4 0.638671 0.010924 0.511671
O O5 0.316494 0.597108 0.835510
O O6 0.444104 0.533120 0.903458
O O7 0.157325 0.613872 0.079930
O O8 0.063024 0.150394 0.895999
O O9 0.314508 0.235981 0.726535
O O10 0.018069 0.294465 0.916974
O O11 0.133637 0.234303 0.995726
O O12 0.500000 0.220735 0.250000
O O13 0.750000 0.250000 0.000000
O O14 0.000000 0.750967 0.750000
#
# Coordination Sequence:
#
# PCOD8145719 Si02
#       6
#     8   8   8   8   8   8
#     4  10  22  42  65  92 131 181 227 275 335 402
#     4  11  22  40  66  96 138 179 221 279 339 413
#     4  11  21  38  63  97 128 170 211 279 337 394
#     4  12  22  35  59  96 134 168 217 270 342 407
#     4  10  22  39  66  96 132 173 220 280 342 396
#     4  10  22  41  68  91 130 173 224 274 330 396
#
# _framework density 22.461649999999999
#
# number of rings (size 3 to 8) (size 9 to 14) (size 15 to 20)
#    0.000    1.333    1.667    5.500    0.000    0.667 
#    0.000    0.000   29.333    0.000    0.000    0.000 
#    0.000    0.000    0.000    0.000    0.000    0.000 
#
# Total GULP energy -297347.932075 kJ/mol
# GULP energy per Si atom -12389.497170 kJ/mol
# Density = 2.241053 g / cm^3
# Si number density = 22.461650 Si / 1000 Ang^3
#
#
#
# Elastic Constant Matrix: (Units=GPa)
#
#
# Indices 1 2 3 4 5 6 
#
# 1 113.1467 39.3623 32.9583 -0.0064 -9.2951 0.0009
# 2 39.3623 79.1220 52.8036 -0.0102 -11.0163 0.0022
# 3 32.9583 52.8036 124.9728 -0.0202 3.9309 0.0071
# 4 -0.0064 -0.0102 -0.0202 25.1159 0.0057 -3.7936
# 5 -9.2951 -11.0163 3.9309 0.0057 48.7243 -0.0015
# 6 0.0009 0.0022 0.0071 -3.7936 -0.0015 26.1774
#
#
#
# Elastic Compliance Matrix: (Units=1/GPa)
#
#
# Indices 1 2 3 4 5 6 
#
# 1 0.010800 -0.004590 -0.000943 0.000000 0.001099 0.000000
# 2 -0.004590 0.020641 -0.007649 0.000000 0.004408 0.000001
# 3 -0.000943 -0.007649 0.011572 0.000006 -0.002843 -0.000002
# 4 0.000000 0.000000 0.000006 0.040706 -0.000005 0.005899
# 5 0.001099 0.004408 -0.002843 -0.000005 0.021959 0.000001
# 6 0.000000 0.000001 -0.000002 0.005899 0.000001 0.039056
#
#
# Mechanical properties :
#
#
# Convention : Reuss Voigt Hill
#
# Bulk Modulus (GPa) = 60.07077 63.05442 61.56259
# Shear Modulus (GPa) = 28.30461 32.81134 30.55798
#
# Velocity S-wave (km/s) = 3.55368 3.82615 3.69243
# Velocity P-wave (km/s) = 6.60606 6.90306 6.75619
#
# Compressibility (1/GPa) = 0.01664703
#
# Stress axis : x y z
#
# Youngs Moduli (GPa) = 92.59219 48.44693 86.41608
#
# Poissons Ratio (x) = 0.22239 0.08151
# Poissons Ratio (y) = 0.42504 0.66103
# Poissons Ratio (z) = 0.08733 0.37059
#
# Static dielectric constant tensor:
#      x y z
#    x 4.558590 -0.000250 -0.387660 
#    y -0.000250 4.528710 0.000370 
#    z -0.387660 0.000370 4.392570 
# 
# 
# High freq. dielectric constant tensor:
#      x y z
#    x 1.904330 0.000000 -0.010290 
#    y 0.000000 1.843480 0.000000 
#    z -0.010290 0.000000 1.895450 
# 
# From -- ./inp_files/147374.got.cif
#   From: 2010.06.25/outbox.cif.g09.slc.cpg/sg15_74_cif.got.tgz:147374.got - 2010.06.28 07:06:18.
