data_PCOD8145308
_publ_section_title
;
Structure prediction by ZEFSAII (Michael W. Deem and Ramdas Pophale) SiO2 
 PCOD8145308
Probable space group: C 2/C
;
_chemical_formula_sum "Si O2"
_cell_formula_units_Z 52
_cell_length_a 16.818769
_cell_length_b 14.621704
_cell_length_c 11.207213
_cell_angle_alpha 90.000000
_cell_angle_beta 109.224536
_cell_angle_gamma 90.000000
_cell_volume 2602.376460
_symmetry_space_group_name_H-M "C 2/C"
_symmetry_group_IT_number 15
_symmetry_cell_setting 'monoclinic'
loop_
_space_group_symop_operation_xyz
x,y,z
-x,y,1/2-z
-x,-y,-z
x,-y,1/2+z
1/2+x,1/2+y,z
1/2-x,1/2+y,1/2-z
1/2-x,1/2-y,-z
1/2+x,1/2-y,1/2+z
loop_
_atom_site_type_symbol
_atom_site_label
_atom_site_fract_x
_atom_site_fract_y
_atom_site_fract_z
Si Si1 0.500000 0.918029 0.750000
Si Si2 0.781719 0.678815 0.414802
Si Si3 0.382991 0.647342 0.293960
Si Si4 0.427929 0.342994 0.078333
Si Si5 0.590948 0.245015 0.195682
Si Si6 0.500000 0.501754 0.250000
Si Si7 0.437383 0.943517 0.056409
Si Si8 0.500000 0.206048 0.750000
O O1 0.451790 0.856120 0.824669
O O2 0.573018 0.983103 0.841523
O O3 0.750000 0.750000 0.500000
O O4 0.706006 0.627095 0.310940
O O5 0.825632 0.745895 0.341031
O O6 0.844179 0.593856 0.477043
O O7 0.372925 0.663429 0.431330
O O8 0.445031 0.561985 0.312621
O O9 0.418487 0.734330 0.240305
O O10 0.524616 0.313371 0.100753
O O11 0.388152 0.275100 0.158184
O O12 0.434251 0.444242 0.137094
O O13 0.485033 0.852799 0.124048
O O14 0.500000 0.000000 0.000000
#
# Coordination Sequence:
#
# PCOD8145308 Si02
#       8
#     4   8   8   8   8   4   8   4
#     4   9  19  37  63  90 118 170 223 257 319 403
#     4  12  24  41  59  98 133 166 213 280 337 381
#     4  11  22  38  64  91 132 168 213 269 332 403
#     4   9  20  41  69  89 116 173 221 262 321 404
#     4   9  20  40  66  90 124 165 219 273 323 395
#     4   9  21  41  61  96 120 166 217 265 323 399
#     4  11  21  39  63  90 129 170 220 268 325 403
#     4  10  22  38  62  94 118 178 222 258 336 406
#
# _framework density 19.981736000000001
#
# number of rings (size 3 to 8) (size 9 to 14) (size 15 to 20)
#    0.000    2.154    3.077    1.385    4.308    0.615 
#    2.769    3.077    0.000    0.000    0.000    0.000 
#    0.000    0.000    0.000    0.000    0.000    0.000 
#
# Total GULP energy -322121.905184 kJ/mol
# GULP energy per Si atom -12389.304046 kJ/mol
# Density = 1.993626 g / cm^3
# Si number density = 19.981736 Si / 1000 Ang^3
#
#
#
# Elastic Constant Matrix: (Units=GPa)
#
#
# Indices 1 2 3 4 5 6 
#
# 1 101.1300 37.7452 51.6032 0.0000 -6.7545 0.0000
# 2 37.7452 112.5679 47.6312 0.0000 -0.7995 0.0000
# 3 51.6032 47.6312 130.8240 0.0000 10.9116 0.0000
# 4 0.0000 0.0000 0.0000 23.9764 0.0000 0.4277
# 5 -6.7545 -0.7995 10.9116 0.0000 32.6770 0.0000
# 6 0.0000 0.0000 0.0000 0.4277 0.0000 19.5871
#
#
#
# Elastic Compliance Matrix: (Units=1/GPa)
#
#
# Indices 1 2 3 4 5 6 
#
# 1 0.013557 -0.002481 -0.004807 0.000000 0.004347 0.000000
# 2 -0.002481 0.011035 -0.003105 0.000000 0.000794 0.000000
# 3 -0.004807 -0.003105 0.011068 0.000000 -0.004765 0.000000
# 4 0.000000 0.000000 0.000000 0.041724 0.000000 -0.000911
# 5 0.004347 0.000794 -0.004765 0.000000 0.033112 0.000000
# 6 0.000000 0.000000 0.000000 -0.000911 0.000000 0.051074
#
#
# Mechanical properties :
#
#
# Convention : Reuss Voigt Hill
#
# Bulk Modulus (GPa) = 67.23192 68.72011 67.97601
# Shear Modulus (GPa) = 26.69306 29.08426 27.88866
#
# Velocity S-wave (km/s) = 3.65892 3.81930 3.73997
# Velocity P-wave (km/s) = 7.18123 7.34272 7.26242
#
# Compressibility (1/GPa) = 0.01487389
#
# Stress axis : x y z
#
# Youngs Moduli (GPa) = 73.76030 90.62033 90.35063
#
# Poissons Ratio (x) = 0.22484 0.43431
# Poissons Ratio (y) = 0.18301 0.28056
# Poissons Ratio (z) = 0.35456 0.28140
#
# Static dielectric constant tensor:
#      x y z
#    x 3.422370 0.000000 -0.100030 
#    y 0.000000 3.818740 0.000000 
#    z -0.100030 0.000000 3.757760 
# 
# 
# High freq. dielectric constant tensor:
#      x y z
#    x 1.752020 0.000000 -0.014410 
#    y 0.000000 1.788660 0.000000 
#    z -0.014410 0.000000 1.786000 
# 
# From -- ./inp_files/97160.got.cif
#   From: 2010.06.25/outbox.cif.g09.slc.cpg/sg15_49_cif.got.tgz:97160.got - 2010.06.28 07:06:18.
