data_PCOD8145510
_publ_section_title
;
Structure prediction by ZEFSAII (Michael W. Deem and Ramdas Pophale) SiO2 
 PCOD8145510
Probable space group: C 2/C
;
_chemical_formula_sum "Si O2"
_cell_formula_units_Z 52
_cell_length_a 6.772748
_cell_length_b 16.982836
_cell_length_c 27.330670
_cell_angle_alpha 90.000000
_cell_angle_beta 125.878016
_cell_angle_gamma 90.000000
_cell_volume 2547.143019
_symmetry_space_group_name_H-M "C 2/C"
_symmetry_group_IT_number 15
_symmetry_cell_setting 'monoclinic'
loop_
_space_group_symop_operation_xyz
x,y,z
-x,y,1/2-z
-x,-y,-z
x,-y,1/2+z
1/2+x,1/2+y,z
1/2-x,1/2+y,1/2-z
1/2-x,1/2-y,-z
1/2+x,1/2-y,1/2+z
loop_
_atom_site_type_symbol
_atom_site_label
_atom_site_fract_x
_atom_site_fract_y
_atom_site_fract_z
Si Si1 0.255757 0.258344 0.306241
Si Si2 0.133922 0.855809 0.412267
Si Si3 0.500349 0.722379 0.057872
Si Si4 0.138173 0.487963 0.571772
Si Si5 0.000000 0.315833 0.750000
Si Si6 0.526437 0.350807 0.849553
Si Si7 0.843408 0.076965 0.476657
O O1 0.369611 0.330097 0.354134
O O2 0.443876 0.237570 0.289751
O O3 0.193297 0.179326 0.328738
O O4 0.000000 0.292723 0.250000
O O5 0.293452 0.778278 0.432208
O O6 0.122978 0.879370 0.467005
O O7 0.251577 0.927039 0.397172
O O8 0.480000 0.722342 0.113507
O O9 0.565068 0.633510 0.052405
O O10 0.250000 0.750000 0.000000
O O11 0.361724 0.426750 0.606784
O O12 0.000000 0.500000 0.500000
O O13 0.931199 0.451225 0.576635
O O14 0.755545 0.368667 0.706634
O O15 0.000000 0.000000 0.500000
#
# Coordination Sequence:
#
# PCOD8145510 Si02
#       7
#     8   8   8   8   4   8   8
#     4  10  22  42  70  94 124 168 221 277 319 378
#     4  11  21  39  60  93 130 166 215 265 319 387
#     4  12  21  34  63  97 127 169 215 264 325 392
#     4  10  22  39  59  93 135 167 204 261 322 396
#     4  10  22  44  70  90 124 170 228 264 334 374
#     4  11  22  41  67  93 129 170 215 262 325 399
#     4  11  22  38  59  93 139 176 206 261 331 393
#
# _framework density 20.415029000000001
#
# number of rings (size 3 to 8) (size 9 to 14) (size 15 to 20)
#    0.000    1.231    1.538    6.923    0.000    0.000 
#    1.385    0.000    5.077    0.000    0.000    0.000 
#    0.000    0.000    0.000    0.000    0.000    0.000 
#
# Total GULP energy -322236.217223 kJ/mol
# GULP energy per Si atom -12393.700662 kJ/mol
# Density = 2.036856 g / cm^3
# Si number density = 20.415029 Si / 1000 Ang^3
#
#
#
# Elastic Constant Matrix: (Units=GPa)
#
#
# Indices 1 2 3 4 5 6 
#
# 1 110.3824 45.0898 39.2841 -0.0001 6.7198 -0.0001
# 2 45.0898 115.7157 42.4341 0.0000 14.8594 0.0000
# 3 39.2841 42.4341 100.3794 -0.0001 21.0479 -0.0001
# 4 -0.0001 0.0000 -0.0001 33.6097 -0.0001 7.8830
# 5 6.7198 14.8594 21.0479 -0.0001 47.5013 -0.0001
# 6 -0.0001 0.0000 -0.0001 7.8830 -0.0001 41.8361
#
#
#
# Elastic Compliance Matrix: (Units=1/GPa)
#
#
# Indices 1 2 3 4 5 6 
#
# 1 0.011566 -0.003423 -0.003264 0.000000 0.000881 0.000000
# 2 -0.003423 0.011327 -0.003095 0.000000 -0.001688 0.000000
# 3 -0.003264 -0.003095 0.013503 0.000000 -0.004553 0.000000
# 4 0.000000 0.000000 0.000000 0.031129 0.000000 -0.005865
# 5 0.000881 -0.001688 -0.004553 0.000000 0.023473 0.000000
# 6 0.000000 0.000000 0.000000 -0.005865 0.000000 0.025008
#
#
# Mechanical properties :
#
#
# Convention : Reuss Voigt Hill
#
# Bulk Modulus (GPa) = 59.41109 64.45482 61.93295
# Shear Modulus (GPa) = 35.41580 37.90074 36.65827
#
# Velocity S-wave (km/s) = 4.16960 4.31340 4.24211
# Velocity P-wave (km/s) = 7.23502 7.51319 7.37542
#
# Compressibility (1/GPa) = 0.01683187
#
# Stress axis : x y z
#
# Youngs Moduli (GPa) = 86.46335 88.28219 74.05930
#
# Poissons Ratio (x) = 0.30217 0.24173
# Poissons Ratio (y) = 0.29595 0.22922
# Poissons Ratio (z) = 0.28222 0.27324
#
# Static dielectric constant tensor:
#      x y z
#    x 4.043440 0.000000 0.087440 
#    y 0.000000 3.852860 0.000000 
#    z 0.087440 0.000000 3.775650 
# 
# 
# High freq. dielectric constant tensor:
#      x y z
#    x 1.815340 0.000000 0.013030 
#    y 0.000000 1.781800 0.000000 
#    z 0.013030 0.000000 1.796820 
# 
# From -- ./inp_files/286142.got.cif
#   From: 2010.06.25/outbox.cif.g09.slc.cpg/sg15_144_cif.got.tgz:286142.got - 2010.06.28 07:06:18.
