data_PCOD8145652
_publ_section_title
;
Structure prediction by ZEFSAII (Michael W. Deem and Ramdas Pophale) SiO2 
 PCOD8145652
Probable space group: C 2/C
;
_chemical_formula_sum "Si O2"
_cell_formula_units_Z 64
_cell_length_a 26.140514
_cell_length_b 15.646484
_cell_length_c 16.571639
_cell_angle_alpha 90.000000
_cell_angle_beta 152.602073
_cell_angle_gamma 90.000000
_cell_volume 3118.978948
_symmetry_space_group_name_H-M "C 2/C"
_symmetry_group_IT_number 15
_symmetry_cell_setting 'monoclinic'
loop_
_space_group_symop_operation_xyz
x,y,z
-x,y,1/2-z
-x,-y,-z
x,-y,1/2+z
1/2+x,1/2+y,z
1/2-x,1/2+y,1/2-z
1/2-x,1/2-y,-z
1/2+x,1/2-y,1/2+z
loop_
_atom_site_type_symbol
_atom_site_label
_atom_site_fract_x
_atom_site_fract_y
_atom_site_fract_z
Si Si1 0.951946 0.999138 0.598480
Si Si2 0.260251 0.590649 0.399787
Si Si3 0.611434 0.054699 0.651497
Si Si4 0.245218 0.358908 0.579135
Si Si5 0.679123 0.547224 0.847701
Si Si6 0.725693 0.610632 0.740077
Si Si7 0.587908 0.784831 0.228413
Si Si8 0.831310 0.296599 0.862734
O O1 0.876632 0.082150 0.514599
O O2 0.000000 0.960817 0.750000
O O3 0.047598 0.030594 0.671934
O O4 0.880445 0.926583 0.455306
O O5 0.205565 0.497154 0.330133
O O6 0.280543 0.609637 0.522792
O O7 0.180735 0.656630 0.241311
O O8 0.657896 0.066551 0.624842
O O9 0.603238 0.147030 0.679053
O O10 0.500000 0.000000 0.500000
O O11 0.260079 0.455901 0.571935
O O12 0.357607 0.305350 0.720156
O O13 0.142206 0.317724 0.387216
O O14 0.216690 0.357730 0.634419
O O15 0.707404 0.601201 0.808943
O O16 0.738576 0.710036 0.737284
O O17 0.457689 0.771735 0.058595
#
# Coordination Sequence:
#
# PCOD8145652 Si02
#       8
#     8   8   8   8   8   8   8   8
#     4   9  20  38  65  90 116 157 201 258 323 374
#     4  10  22  39  64  87 122 166 209 259 309 375
#     4  11  20  42  63  86 126 169 211 248 316 378
#     4  11  23  40  62  98 129 151 213 262 316 381
#     4  11  22  41  63  92 119 165 211 261 309 375
#     4  11  24  39  62  93 126 162 213 257 308 379
#     4  11  23  38  65  93 128 164 196 266 322 374
#     4  12  24  40  60  92 128 168 204 259 319 371
#
# _framework density 20.519535999999999
#
# number of rings (size 3 to 8) (size 9 to 14) (size 15 to 20)
#    0.000    1.250    3.750    3.000    0.000    2.500 
#    0.000    0.625    0.000    0.000    0.000    0.000 
#    0.000    0.000    0.000    0.000    0.000    0.000 
#
# Total GULP energy -396716.050250 kJ/mol
# GULP energy per Si atom -12397.376570 kJ/mol
# Density = 2.047283 g / cm^3
# Si number density = 20.519536 Si / 1000 Ang^3
#
#
#
# Elastic Constant Matrix: (Units=GPa)
#
#
# Indices 1 2 3 4 5 6 
#
# 1 135.9357 27.6867 51.1762 0.0000 -3.8601 0.0000
# 2 27.6867 52.3723 31.0778 0.0000 -2.1599 0.0000
# 3 51.1762 31.0778 93.6827 0.0000 -3.3269 0.0000
# 4 0.0000 0.0000 0.0000 27.4359 0.0000 -0.5957
# 5 -3.8601 -2.1599 -3.3269 0.0000 36.2272 0.0000
# 6 0.0000 0.0000 0.0000 -0.5957 0.0000 28.5793
#
#
#
# Elastic Compliance Matrix: (Units=1/GPa)
#
#
# Indices 1 2 3 4 5 6 
#
# 1 0.009509 -0.002409 -0.004379 0.000000 0.000467 0.000000
# 2 -0.002409 0.024402 -0.006758 0.000000 0.000577 0.000000
# 3 -0.004379 -0.006758 0.015327 0.000000 0.000538 0.000000
# 4 0.000000 0.000000 0.000000 0.036465 0.000000 0.000760
# 5 0.000467 0.000577 0.000538 0.000000 0.027737 0.000000
# 6 0.000000 0.000000 0.000000 0.000760 0.000000 0.035006
#
#
# Mechanical properties :
#
#
# Convention : Reuss Voigt Hill
#
# Bulk Modulus (GPa) = 45.15554 55.76356 50.45955
# Shear Modulus (GPa) = 27.33423 29.91848 28.62635
#
# Velocity S-wave (km/s) = 3.65376 3.82258 3.73913
# Velocity P-wave (km/s) = 6.31299 6.83503 6.57919
#
# Compressibility (1/GPa) = 0.02214568
#
# Stress axis : x y z
#
# Youngs Moduli (GPa) = 105.16550 40.98032 65.24322
#
# Poissons Ratio (x) = 0.09874 0.28567
# Poissons Ratio (y) = 0.25338 0.44093
# Poissons Ratio (z) = 0.46047 0.27696
#
# Static dielectric constant tensor:
#      x y z
#    x 3.832990 0.000000 0.102320 
#    y 0.000000 3.519690 0.000000 
#    z 0.102320 0.000000 3.784310 
# 
# 
# High freq. dielectric constant tensor:
#      x y z
#    x 1.813690 0.000000 0.003680 
#    y 0.000000 1.786010 0.000000 
#    z 0.003680 0.000000 1.798710 
# 
# From -- ./inp_files/174264.got.cif
#   From: 2010.06.25/outbox.cif.g09.slc.cpg/sg15_88_cif.got.tgz:174264.got - 2010.06.28 07:06:18.
