data_PCOD8145885
_publ_section_title
;
Structure prediction by ZEFSAII (Michael W. Deem and Ramdas Pophale) SiO2 
 PCOD8145885
Probable space group: C 2/C
;
_chemical_formula_sum "Si O2"
_cell_formula_units_Z 48
_cell_length_a 8.432345
_cell_length_b 27.904580
_cell_length_c 12.690237
_cell_angle_alpha 90.000000
_cell_angle_beta 134.567522
_cell_angle_gamma 90.000000
_cell_volume 2127.316450
_symmetry_space_group_name_H-M "C 2/C"
_symmetry_group_IT_number 15
_symmetry_cell_setting 'monoclinic'
loop_
_space_group_symop_operation_xyz
x,y,z
-x,y,1/2-z
-x,-y,-z
x,-y,1/2+z
1/2+x,1/2+y,z
1/2-x,1/2+y,1/2-z
1/2-x,1/2-y,-z
1/2+x,1/2-y,1/2+z
loop_
_atom_site_type_symbol
_atom_site_label
_atom_site_fract_x
_atom_site_fract_y
_atom_site_fract_z
Si Si1 0.402037 0.720294 0.311412
Si Si2 0.490222 0.729635 0.576993
Si Si3 0.544983 0.610114 0.154334
Si Si4 0.587297 0.961795 0.681286
Si Si5 0.759745 0.364321 0.172408
Si Si6 0.244949 0.557699 0.654931
O O1 0.500000 0.742525 0.250000
O O2 0.538848 0.738840 0.475645
O O3 0.377768 0.663984 0.293710
O O4 0.153907 0.737784 0.219284
O O5 0.250000 0.750000 0.500000
O O6 0.572788 0.673787 0.630533
O O7 0.500000 0.588257 0.250000
O O8 0.745418 0.579391 0.201442
O O9 0.339326 0.608071 0.976504
O O10 0.500000 0.983653 0.750000
O O11 0.400812 0.937567 0.519416
O O12 0.715852 0.004193 0.683563
O O13 0.824806 0.402183 0.293032
O O14 0.000000 0.340881 0.250000
O O15 0.500000 0.566706 0.750000
#
# Coordination Sequence:
#
# PCOD8145885 Si02
#       6
#     8   8   8   8   8   8
#     4  10  22  40  62  89 123 168 216 265 327 397
#     4  11  24  41  63  94 130 168 215 275 334 397
#     4  10  22  40  64  92 125 168 217 271 328 393
#     4  11  24  42  65  94 133 176 219 273 332 396
#     4  11  24  43  67  97 131 172 223 276 337 405
#     4  11  25  42  65  98 133 174 223 274 332 396
#
# _framework density 22.563639999999999
#
# number of rings (size 3 to 8) (size 9 to 14) (size 15 to 20)
#    0.000    1.333    0.000    4.500    0.000   14.667 
#    0.000    0.000    0.000    0.000    0.000    0.000 
#    0.000    0.000    0.000    0.000    0.000    0.000 
#
# Total GULP energy -297332.785037 kJ/mol
# GULP energy per Si atom -12388.866043 kJ/mol
# Density = 2.251228 g / cm^3
# Si number density = 22.563640 Si / 1000 Ang^3
#
#
#
# Elastic Constant Matrix: (Units=GPa)
#
#
# Indices 1 2 3 4 5 6 
#
# 1 76.3431 29.8873 36.6231 0.0000 -4.2358 0.0000
# 2 29.8873 64.0328 48.8131 0.0000 0.4147 0.0000
# 3 36.6231 48.8131 134.2269 0.0000 -2.5791 0.0000
# 4 0.0000 0.0000 0.0000 35.9034 0.0000 1.4016
# 5 -4.2358 0.4147 -2.5791 0.0000 50.3776 0.0000
# 6 0.0000 0.0000 0.0000 1.4016 0.0000 31.6433
#
#
#
# Elastic Compliance Matrix: (Units=1/GPa)
#
#
# Indices 1 2 3 4 5 6 
#
# 1 0.016639 -0.005996 -0.002334 0.000000 0.001329 0.000000
# 2 -0.005996 0.023785 -0.007034 0.000000 -0.001060 0.000000
# 3 -0.002334 -0.007034 0.010653 0.000000 0.000407 0.000000
# 4 0.000000 0.000000 0.000000 0.027901 0.000000 -0.001236
# 5 0.001329 -0.001060 0.000407 0.000000 0.019991 0.000000
# 6 0.000000 0.000000 0.000000 -0.001236 0.000000 0.031657
#
#
# Mechanical properties :
#
#
# Convention : Reuss Voigt Hill
#
# Bulk Modulus (GPa) = 49.14224 56.13887 52.64056
# Shear Modulus (GPa) = 29.73778 34.20349 31.97063
#
# Velocity S-wave (km/s) = 3.63430 3.89764 3.76827
# Velocity P-wave (km/s) = 6.27993 6.72233 6.50489
#
# Compressibility (1/GPa) = 0.02034909
#
# Stress axis : x y z
#
# Youngs Moduli (GPa) = 60.09813 42.04419 93.87310
#
# Poissons Ratio (x) = 0.25209 0.21910
# Poissons Ratio (y) = 0.36034 0.66030
# Poissons Ratio (z) = 0.14027 0.29574
#
# Static dielectric constant tensor:
#      x y z
#    x 4.252410 0.000000 -0.218360 
#    y 0.000000 3.878780 0.000000 
#    z -0.218360 0.000000 4.331890 
# 
# 
# High freq. dielectric constant tensor:
#      x y z
#    x 1.888410 0.000000 -0.007220 
#    y 0.000000 1.883780 0.000000 
#    z -0.007220 0.000000 1.909940 
# 
# From -- ./inp_files/139014.got.cif
#   From: 2010.06.25/outbox.cif.g09.slc.cpg/sg15_70_cif.got.tgz:139014.got - 2010.06.28 07:06:18.
