data_PCOD8145454
_publ_section_title
;
Structure prediction by ZEFSAII (Michael W. Deem and Ramdas Pophale) SiO2 
 PCOD8145454
Probable space group: C 2/C
;
_chemical_formula_sum "Si O2"
_cell_formula_units_Z 44
_cell_length_a 4.992054
_cell_length_b 19.330035
_cell_length_c 19.753554
_cell_angle_alpha 90.000000
_cell_angle_beta 103.555080
_cell_angle_gamma 90.000000
_cell_volume 1853.054659
_symmetry_space_group_name_H-M "C 2/C"
_symmetry_group_IT_number 15
_symmetry_cell_setting 'monoclinic'
loop_
_space_group_symop_operation_xyz
x,y,z
-x,y,1/2-z
-x,-y,-z
x,-y,1/2+z
1/2+x,1/2+y,z
1/2-x,1/2+y,1/2-z
1/2-x,1/2-y,-z
1/2+x,1/2-y,1/2+z
loop_
_atom_site_type_symbol
_atom_site_label
_atom_site_fract_x
_atom_site_fract_y
_atom_site_fract_z
Si Si1 0.273015 0.879361 0.063542
Si Si2 0.413734 0.169164 0.171520
Si Si3 0.696897 0.464012 0.397035
Si Si4 0.729539 0.202053 0.810437
Si Si5 0.000000 0.917091 0.250000
Si Si6 0.165769 0.879554 0.909593
O O1 0.488291 0.942566 0.070864
O O2 0.373717 0.817144 0.119607
O O3 0.986121 0.907279 0.075840
O O4 0.223437 0.846256 0.986569
O O5 0.500000 0.139258 0.250000
O O6 0.498342 0.250126 0.170897
O O7 0.569514 0.126711 0.122631
O O8 0.087547 0.160223 0.140854
O O9 0.651640 0.465389 0.313369
O O10 0.616520 0.539250 0.420003
O O11 0.500000 0.241344 0.750000
O O12 0.780296 0.130120 0.775480
#
# Coordination Sequence:
#
# PCOD8145454 Si02
#       6
#     8   8   8   8   4   8
#     4  11  24  43  73 101 139 181 230 294 348 415
#     4  12  27  44  68  94 140 190 229 292 345 418
#     4  11  23  42  69 102 139 179 227 290 349 418
#     4  11  22  44  68  97 139 178 250 284 349 403
#     4  10  22  38  68  98 128 178 234 290 338 404
#     4  12  26  45  67 104 142 183 228 281 366 426
#
# _framework density 23.744575000000001
#
# number of rings (size 3 to 8) (size 9 to 14) (size 15 to 20)
#    0.000    0.727    2.727    4.909    2.545    1.455 
#    0.000    0.000    0.000    0.000    0.000    0.000 
#    0.000    0.000    0.000    0.000    0.000    0.000 
#
# Total GULP energy -272885.934446 kJ/mol
# GULP energy per Si atom -12403.906111 kJ/mol
# Density = 2.369053 g / cm^3
# Si number density = 23.744575 Si / 1000 Ang^3
#
#
#
# Elastic Constant Matrix: (Units=GPa)
#
#
# Indices 1 2 3 4 5 6 
#
# 1 77.1127 5.9999 30.3131 0.0000 2.2272 0.0000
# 2 5.9999 63.1201 24.6964 0.0000 7.1433 0.0000
# 3 30.3131 24.6964 202.5034 0.0000 -7.7921 0.0000
# 4 0.0000 0.0000 0.0000 21.2569 0.0000 0.1227
# 5 2.2272 7.1433 -7.7921 0.0000 43.5920 0.0000
# 6 0.0000 0.0000 0.0000 0.1227 0.0000 40.7691
#
#
#
# Elastic Compliance Matrix: (Units=1/GPa)
#
#
# Indices 1 2 3 4 5 6 
#
# 1 0.013839 -0.000394 -0.002062 0.000000 -0.001011 0.000000
# 2 -0.000394 0.017077 -0.002145 0.000000 -0.003162 0.000000
# 3 -0.002062 -0.002145 0.005564 0.000000 0.001452 0.000000
# 4 0.000000 0.000000 0.000000 0.047044 0.000000 -0.000142
# 5 -0.001011 -0.003162 0.001452 0.000000 0.023769 0.000000
# 6 0.000000 0.000000 0.000000 -0.000142 0.000000 0.024529
#
#
# Mechanical properties :
#
#
# Convention : Reuss Voigt Hill
#
# Bulk Modulus (GPa) = 36.66106 51.63944 44.15025
# Shear Modulus (GPa) = 33.30693 39.90538 36.60616
#
# Velocity S-wave (km/s) = 3.74935 4.10397 3.93066
# Velocity P-wave (km/s) = 5.84951 6.65221 6.26373
#
# Compressibility (1/GPa) = 0.02727690
#
# Stress axis : x y z
#
# Youngs Moduli (GPa) = 72.26152 58.55659 179.71379
#
# Poissons Ratio (x) = 0.02308 0.37064
# Poissons Ratio (y) = 0.02848 0.38555
# Poissons Ratio (z) = 0.14903 0.12563
#
# Static dielectric constant tensor:
#      x y z
#    x 4.082030 0.000000 -0.050360 
#    y 0.000000 3.896270 0.000000 
#    z -0.050360 0.000000 4.734050 
# 
# 
# High freq. dielectric constant tensor:
#      x y z
#    x 1.942190 0.000000 -0.006380 
#    y 0.000000 1.917260 0.000000 
#    z -0.006380 0.000000 1.962370 
# 
# From -- ./inp_files/227397.got.cif
#   From: 2010.06.25/outbox.cif.g09.slc.cpg/sg15_114_cif.got.tgz:227397.got - 2010.06.28 07:06:18.
