data_PCOD8145018
_publ_section_title
;
Structure prediction by ZEFSAII (Michael W. Deem and Ramdas Pophale) SiO2 
 PCOD8145018
Probable space group: C 2/C
;
_chemical_formula_sum "Si O2"
_cell_formula_units_Z 40
_cell_length_a 22.665818
_cell_length_b 4.861211
_cell_length_c 18.285093
_cell_angle_alpha 90.000000
_cell_angle_beta 119.570015
_cell_angle_gamma 90.000000
_cell_volume 1752.302708
_symmetry_space_group_name_H-M "C 2/C"
_symmetry_group_IT_number 15
_symmetry_cell_setting 'monoclinic'
loop_
_space_group_symop_operation_xyz
x,y,z
-x,y,1/2-z
-x,-y,-z
x,-y,1/2+z
1/2+x,1/2+y,z
1/2-x,1/2+y,1/2-z
1/2-x,1/2-y,-z
1/2+x,1/2-y,1/2+z
loop_
_atom_site_type_symbol
_atom_site_label
_atom_site_fract_x
_atom_site_fract_y
_atom_site_fract_z
Si Si1 0.904417 0.874630 0.386755
Si Si2 0.051466 0.285409 0.973940
Si Si3 0.944599 0.234087 0.120077
Si Si4 0.795021 0.476006 0.775042
Si Si5 0.594449 0.744352 0.244922
O O1 0.898486 0.961163 0.297340
O O2 0.971234 0.690489 0.449131
O O3 0.904369 0.161684 0.432066
O O4 0.839558 0.681009 0.364894
O O5 0.050200 0.070215 0.907027
O O6 0.084877 0.563563 0.961344
O O7 0.897816 0.205106 0.163195
O O8 0.018984 0.361240 0.183238
O O9 0.762986 0.759378 0.786577
O O10 0.846491 0.542998 0.740473
#
# Coordination Sequence:
#
# PCOD8145018 Si02
#       5
#     8   8   8   8   8
#     4  10  22  39  62  91 124 157 207 244 302 356
#     4  10  22  36  62  93 127 154 188 256 316 361
#     4  10  22  36  61  94 126 153 186 257 314 363
#     4  12  24  38  61  88 118 163 209 253 280 350
#     4  10  22  38  62  90 124 155 206 242 305 357
#
# _framework density 22.827105
#
# number of rings (size 3 to 8) (size 9 to 14) (size 15 to 20)
#    0.000    1.600    4.000    0.000    5.600    4.000 
#    0.000    0.000    0.000    7.200    0.000    0.000 
#    0.000    0.000    0.000    0.000    0.000    0.000 
#
# Total GULP energy -247863.969603 kJ/mol
# GULP energy per Si atom -12393.198480 kJ/mol
# Density = 2.277515 g / cm^3
# Si number density = 22.827105 Si / 1000 Ang^3
#
#
#
# Elastic Constant Matrix: (Units=GPa)
#
#
# Indices 1 2 3 4 5 6 
#
# 1 105.8333 19.6031 28.8399 -0.0010 -1.7229 -0.0007
# 2 19.6031 66.1342 -10.5762 -0.0051 10.3618 -0.0027
# 3 28.8399 -10.5762 49.1222 -0.0023 -15.5921 -0.0019
# 4 -0.0010 -0.0051 -0.0023 31.7347 -0.0002 6.2205
# 5 -1.7229 10.3618 -15.5921 -0.0002 23.4321 0.0000
# 6 -0.0007 -0.0027 -0.0019 6.2205 0.0000 31.6020
#
#
#
# Elastic Compliance Matrix: (Units=1/GPa)
#
#
# Indices 1 2 3 4 5 6 
#
# 1 0.012941 -0.004862 -0.009711 -0.000001 -0.003360 -0.000001
# 2 -0.004862 0.018166 0.005201 0.000003 -0.004930 0.000001
# 3 -0.009711 0.005201 0.033244 0.000003 0.019107 0.000002
# 4 -0.000001 0.000003 0.000003 0.032776 0.000001 -0.006452
# 5 -0.003360 -0.004930 0.019107 0.000001 0.057323 0.000001
# 6 -0.000001 0.000001 0.000002 -0.006452 0.000001 0.032913
#
#
# Mechanical properties :
#
#
# Convention : Reuss Voigt Hill
#
# Bulk Modulus (GPa) = 21.92701 32.98037 27.45369
# Shear Modulus (GPa) = 22.59267 29.56862 26.08065
#
# Velocity S-wave (km/s) = 3.14941 3.60297 3.38380
# Velocity P-wave (km/s) = 4.78033 5.63807 5.22683
#
# Compressibility (1/GPa) = 0.04560586
#
# Stress axis : x y z
#
# Youngs Moduli (GPa) = 77.27292 55.04713 30.08098
#
# Poissons Ratio (x) = 0.26767 0.29213
# Poissons Ratio (y) = 0.37574 -0.15646
# Poissons Ratio (z) = 0.75042 -0.28631
#
# Static dielectric constant tensor:
#      x y z
#    x 4.109750 0.000000 0.011290 
#    y 0.000000 4.219710 0.000000 
#    z 0.011290 0.000000 4.028030 
# 
# 
# High freq. dielectric constant tensor:
#      x y z
#    x 1.863680 0.000000 -0.006450 
#    y 0.000000 1.927070 0.000000 
#    z -0.006450 0.000000 1.880490 
# 
# From -- ./inp_files/212724.got.cif
#   From: 2010.06.25/outbox.cif.g09.slc.cpg/sg15_107_cif.got.tgz:212724.got - 2010.06.28 07:06:18.
