data_PCOD8145179
_publ_section_title
;
Structure prediction by ZEFSAII (Michael W. Deem and Ramdas Pophale) SiO2 
 PCOD8145179
Probable space group: C 2/C
;
_chemical_formula_sum "Si O2"
_cell_formula_units_Z 44
_cell_length_a 16.940987
_cell_length_b 8.851430
_cell_length_c 11.323735
_cell_angle_alpha 90.000000
_cell_angle_beta 80.631880
_cell_angle_gamma 90.000000
_cell_volume 1675.369626
_symmetry_space_group_name_H-M "C 2/C"
_symmetry_group_IT_number 15
_symmetry_cell_setting 'monoclinic'
loop_
_space_group_symop_operation_xyz
x,y,z
-x,y,1/2-z
-x,-y,-z
x,-y,1/2+z
1/2+x,1/2+y,z
1/2-x,1/2+y,1/2-z
1/2-x,1/2-y,-z
1/2+x,1/2-y,1/2+z
loop_
_atom_site_type_symbol
_atom_site_label
_atom_site_fract_x
_atom_site_fract_y
_atom_site_fract_z
Si Si1 0.698233 0.513767 0.449856
Si Si2 0.908968 0.756712 0.420022
Si Si3 0.684869 0.240867 0.298425
Si Si4 0.857303 0.824996 0.815484
Si Si5 0.370797 0.051531 0.968116
Si Si6 0.000000 0.971522 0.250000
O O1 0.645380 0.666224 0.465043
O O2 0.686722 0.417334 0.333395
O O3 0.668689 0.405499 0.560072
O O4 0.791267 0.543764 0.451984
O O5 0.862102 0.735863 0.309725
O O6 0.935058 0.588927 0.460415
O O7 0.984542 0.865012 0.369372
O O8 0.777587 0.188767 0.252479
O O9 0.639851 0.136292 0.405351
O O10 0.890668 0.662890 0.853754
O O11 0.926242 0.919395 0.732912
#
# Coordination Sequence:
#
# PCOD8145179 Si02
#       6
#     8   8   8   8   8   4
#     4   8  17  35  57  86 119 149 200 258 291 344
#     4  11  21  36  61  91 122 158 199 252 304 353
#     4   9  19  38  62  88 117 162 208 241 295 361
#     4   8  17  35  56  81 120 159 193 245 300 356
#     4   9  18  34  56  85 117 152 205 256 285 345
#     4  10  22  38  56  88 128 160 196 246 310 362
#
# _framework density 26.262861999999998
#
# number of rings (size 3 to 8) (size 9 to 14) (size 15 to 20)
#    0.000    2.909    0.000    2.727    0.000    9.455 
#    0.000   14.545    0.000    0.000    0.000    3.818 
#    0.000    0.000    0.000    0.000    0.000    0.000 
#
# Total GULP energy -272631.712099 kJ/mol
# GULP energy per Si atom -12392.350550 kJ/mol
# Density = 2.620309 g / cm^3
# Si number density = 26.262862 Si / 1000 Ang^3
#
#
#
# Elastic Constant Matrix: (Units=GPa)
#
#
# Indices 1 2 3 4 5 6 
#
# 1 58.7576 38.0605 36.9277 0.0000 -12.6379 0.0000
# 2 38.0605 170.9423 40.0757 0.0000 -23.7765 0.0000
# 3 36.9277 40.0757 71.3330 0.0000 -13.2584 0.0000
# 4 0.0000 0.0000 0.0000 42.4033 0.0000 -12.1483
# 5 -12.6379 -23.7765 -13.2584 0.0000 36.1083 0.0000
# 6 0.0000 0.0000 0.0000 -12.1483 0.0000 25.2927
#
#
#
# Elastic Compliance Matrix: (Units=1/GPa)
#
#
# Indices 1 2 3 4 5 6 
#
# 1 0.026917 -0.002780 -0.011765 0.000000 0.003271 0.000000
# 2 -0.002780 0.007404 -0.002141 0.000000 0.003116 0.000000
# 3 -0.011765 -0.002141 0.021771 0.000000 0.002466 0.000000
# 4 0.000000 0.000000 0.000000 0.027346 0.000000 0.013135
# 5 0.003271 0.003116 0.002466 0.000000 0.031797 0.000000
# 6 0.000000 0.000000 0.000000 0.013135 0.000000 0.045846
#
#
# Mechanical properties :
#
#
# Convention : Reuss Voigt Hill
#
# Bulk Modulus (GPa) = 44.01488 59.01786 51.51637
# Shear Modulus (GPa) = 24.74923 33.15878 28.95400
#
# Velocity S-wave (km/s) = 3.07313 3.55713 3.32395
# Velocity P-wave (km/s) = 5.42106 6.27627 5.86428
#
# Compressibility (1/GPa) = 0.02271959
#
# Stress axis : x y z
#
# Youngs Moduli (GPa) = 37.15095 135.05459 45.93350
#
# Poissons Ratio (x) = 0.37547 0.54040
# Poissons Ratio (y) = 0.10328 0.09836
# Poissons Ratio (z) = 0.43707 0.28921
#
# Static dielectric constant tensor:
#      x y z
#    x 5.381740 0.000000 -1.259380 
#    y 0.000000 5.807280 0.000000 
#    z -1.259380 0.000000 5.491810 
# 
# 
# High freq. dielectric constant tensor:
#      x y z
#    x 2.018270 0.000000 -0.006870 
#    y 0.000000 2.080230 0.000000 
#    z -0.006870 0.000000 2.047960 
# 
# From -- ./inp_files/159210.got.cif
#   From: 2010.06.25/outbox.cif.g09.slc.cpg/sg15_80_cif.got.tgz:159210.got - 2010.06.28 07:06:18.
