data_PCOD8145340
_publ_section_title
;
Structure prediction by ZEFSAII (Michael W. Deem and Ramdas Pophale) SiO2 
 PCOD8145340
Probable space group: C 2/C
;
_chemical_formula_sum "Si O2"
_cell_formula_units_Z 48
_cell_length_a 18.057841
_cell_length_b 7.842097
_cell_length_c 14.002359
_cell_angle_alpha 90.000000
_cell_angle_beta 86.002468
_cell_angle_gamma 90.000000
_cell_volume 1978.068560
_symmetry_space_group_name_H-M "C 2/C"
_symmetry_group_IT_number 15
_symmetry_cell_setting 'monoclinic'
loop_
_space_group_symop_operation_xyz
x,y,z
-x,y,1/2-z
-x,-y,-z
x,-y,1/2+z
1/2+x,1/2+y,z
1/2-x,1/2+y,1/2-z
1/2-x,1/2-y,-z
1/2+x,1/2-y,1/2+z
loop_
_atom_site_type_symbol
_atom_site_label
_atom_site_fract_x
_atom_site_fract_y
_atom_site_fract_z
Si Si1 0.123418 0.335963 0.709894
Si Si2 0.341337 0.434112 0.990030
Si Si3 0.500000 0.429516 0.250000
Si Si4 0.711827 0.873380 0.879010
Si Si5 0.496921 0.676284 0.411020
Si Si6 0.138753 0.311698 0.492896
Si Si7 0.000000 0.422946 0.250000
O O1 0.074374 0.164840 0.708090
O O2 0.197999 0.336965 0.767839
O O3 0.145534 0.383967 0.600127
O O4 0.070701 0.465427 0.772798
O O5 0.299471 0.398971 0.892416
O O6 0.429974 0.411795 0.974739
O O7 0.319098 0.628595 0.022123
O O8 0.314027 0.300192 0.069386
O O9 0.532516 0.536497 0.336741
O O10 0.669447 0.042545 0.920650
O O11 0.553193 0.767038 0.478153
O O12 0.467519 0.822120 0.343126
#
# Coordination Sequence:
#
# PCOD8145340 Si02
#       7
#     8   8   4   8   8   8   4
#     4  11  23  42  67 100 134 181 228 285 347 416
#     4  11  25  46  69 101 139 188 229 289 362 417
#     4  10  22  40  68 106 136 170 230 294 346 402
#     4  11  26  48  66 101 148 184 232 291 351 431
#     4  11  22  42  68 104 135 175 233 295 344 414
#     4  12  24  45  75 101 137 185 241 288 356 416
#     4  10  22  38  64 100 132 172 228 290 346 400
#
# _framework density 24.266095
#
# number of rings (size 3 to 8) (size 9 to 14) (size 15 to 20)
#    0.000    1.000    3.333    3.000    4.667    1.333 
#    9.000    0.000    0.000    0.000    0.000    0.000 
#    0.000    0.000    0.000    0.000    0.000    0.000 
#
# Total GULP energy -297391.246338 kJ/mol
# GULP energy per Si atom -12391.301931 kJ/mol
# Density = 2.421086 g / cm^3
# Si number density = 24.266095 Si / 1000 Ang^3
#
#
#
# Elastic Constant Matrix: (Units=GPa)
#
#
# Indices 1 2 3 4 5 6 
#
# 1 65.9513 4.8410 22.5158 0.0000 24.2537 0.0000
# 2 4.8410 123.5230 23.0680 0.0000 0.8861 0.0000
# 3 22.5158 23.0680 122.5421 0.0000 33.4492 0.0000
# 4 0.0000 0.0000 0.0000 24.5881 0.0000 -0.3257
# 5 24.2537 0.8861 33.4492 0.0000 42.4509 0.0000
# 6 0.0000 0.0000 0.0000 -0.3257 0.0000 24.3763
#
#
#
# Elastic Compliance Matrix: (Units=1/GPa)
#
#
# Indices 1 2 3 4 5 6 
#
# 1 0.019280 -0.000577 -0.000548 0.000000 -0.010571 0.000000
# 2 -0.000577 0.008470 -0.001949 0.000000 0.001689 0.000000
# 3 -0.000548 -0.001949 0.010869 0.000000 -0.008211 0.000000
# 4 0.000000 0.000000 0.000000 0.040677 0.000000 0.000543
# 5 -0.010571 0.001689 -0.008211 0.000000 0.036031 0.000000
# 6 0.000000 0.000000 0.000000 0.000543 0.000000 0.041031
#
#
# Mechanical properties :
#
#
# Convention : Reuss Voigt Hill
#
# Bulk Modulus (GPa) = 30.79837 45.87399 38.33618
# Shear Modulus (GPa) = 28.84651 35.72251 32.28451
#
# Velocity S-wave (km/s) = 3.45158 3.84098 3.65147
# Velocity P-wave (km/s) = 5.34827 6.21421 5.79743
#
# Compressibility (1/GPa) = 0.03246925
#
# Stress axis : x y z
#
# Youngs Moduli (GPa) = 51.86762 118.06047 92.00187
#
# Poissons Ratio (x) = 0.06817 0.05044
# Poissons Ratio (y) = 0.02995 0.17936
# Poissons Ratio (z) = 0.02844 0.23016
#
# Static dielectric constant tensor:
#      x y z
#    x 4.268250 0.000000 0.413360 
#    y 0.000000 4.731550 0.000000 
#    z 0.413360 0.000000 4.134590 
# 
# 
# High freq. dielectric constant tensor:
#      x y z
#    x 1.949980 0.000000 0.027700 
#    y 0.000000 1.985360 0.000000 
#    z 0.027700 0.000000 1.956190 
# 
# From -- ./inp_files/159760.got.cif
#   From: 2010.06.25/outbox.cif.g09.slc.cpg/sg15_80_cif.got.tgz:159760.got - 2010.06.28 07:06:18.
