data_PCOD8145633
_publ_section_title
;
Structure prediction by ZEFSAII (Michael W. Deem and Ramdas Pophale) SiO2 
 PCOD8145633
Probable space group: C 2/C
;
_chemical_formula_sum "Si O2"
_cell_formula_units_Z 48
_cell_length_a 13.959188
_cell_length_b 25.934237
_cell_length_c 7.863335
_cell_angle_alpha 90.000000
_cell_angle_beta 49.110003
_cell_angle_gamma 90.000000
_cell_volume 2152.007039
_symmetry_space_group_name_H-M "C 2/C"
_symmetry_group_IT_number 15
_symmetry_cell_setting 'monoclinic'
loop_
_space_group_symop_operation_xyz
x,y,z
-x,y,1/2-z
-x,-y,-z
x,-y,1/2+z
1/2+x,1/2+y,z
1/2-x,1/2+y,1/2-z
1/2-x,1/2-y,-z
1/2+x,1/2-y,1/2+z
loop_
_atom_site_type_symbol
_atom_site_label
_atom_site_fract_x
_atom_site_fract_y
_atom_site_fract_z
Si Si1 0.271279 0.553750 0.114877
Si Si2 0.558772 0.795688 0.511935
Si Si3 0.000000 0.771525 0.750000
Si Si4 0.327276 0.661977 0.664579
Si Si5 0.286610 0.055519 0.703697
Si Si6 0.000000 0.120151 0.750000
Si Si7 0.969062 0.602099 0.972297
O O1 0.290449 0.494181 0.142663
O O2 0.173081 0.580029 0.359477
O O3 0.208749 0.557628 0.003951
O O4 0.405055 0.583174 0.966071
O O5 0.541005 0.761405 0.365358
O O6 0.706957 0.805954 0.371661
O O7 0.483790 0.849675 0.580794
O O8 0.500000 0.768944 0.750000
O O9 0.116156 0.807907 0.561650
O O10 0.286434 0.605915 0.642141
O O11 0.426867 0.656839 0.703414
O O12 0.431959 0.056133 0.598115
O O13 0.000000 0.623339 0.750000
#
# Coordination Sequence:
#
# PCOD8145633 Si02
#       7
#     8   8   4   8   8   4   8
#     4  11  22  39  64  97 132 181 226 274 338 411
#     4  11  24  47  71 102 135 175 227 289 343 406
#     4  12  26  45  72 104 132 180 231 280 352 412
#     4  10  25  46  65  99 138 177 228 283 343 407
#     4  10  22  39  63  95 135 176 225 280 341 398
#     4  10  24  43  66  94 136 184 223 274 346 402
#     4  11  21  39  66  99 134 170 223 287 341 397
#
# _framework density 22.304760000000002
#
# number of rings (size 3 to 8) (size 9 to 14) (size 15 to 20)
#    0.000    1.333    0.833    5.500    1.167    8.000 
#    6.000    0.000    0.000    0.000    0.000    0.000 
#    0.000    0.000    0.000    0.000    0.000    0.000 
#
# Total GULP energy -297686.765512 kJ/mol
# GULP energy per Si atom -12403.615230 kJ/mol
# Density = 2.225399 g / cm^3
# Si number density = 22.304760 Si / 1000 Ang^3
#
#
#
# Elastic Constant Matrix: (Units=GPa)
#
#
# Indices 1 2 3 4 5 6 
#
# 1 105.3182 41.2436 66.0894 0.0000 -6.1161 0.0000
# 2 41.2436 114.9181 73.6487 0.0000 -0.5811 0.0000
# 3 66.0894 73.6487 164.5655 0.0000 -8.3227 0.0000
# 4 0.0000 0.0000 0.0000 36.1162 0.0000 6.8955
# 5 -6.1161 -0.5811 -8.3227 0.0000 39.9696 0.0000
# 6 0.0000 0.0000 0.0000 6.8955 0.0000 16.6092
#
#
#
# Elastic Compliance Matrix: (Units=1/GPa)
#
#
# Indices 1 2 3 4 5 6 
#
# 1 0.013012 -0.001893 -0.004325 0.000000 0.001063 0.000000
# 2 -0.001893 0.012514 -0.004897 0.000000 -0.001127 0.000000
# 3 -0.004325 -0.004897 0.010074 0.000000 0.001365 0.000000
# 4 0.000000 0.000000 0.000000 0.030072 0.000000 -0.012485
# 5 0.001063 -0.001127 0.001365 0.000000 0.025449 0.000000
# 6 0.000000 0.000000 0.000000 -0.012485 0.000000 0.065391
#
#
# Mechanical properties :
#
#
# Convention : Reuss Voigt Hill
#
# Bulk Modulus (GPa) = 74.79261 82.97390 78.88325
# Shear Modulus (GPa) = 27.29275 32.12702 29.70989
#
# Velocity S-wave (km/s) = 3.50184 3.79933 3.65361
# Velocity P-wave (km/s) = 7.06791 7.51847 7.29667
#
# Compressibility (1/GPa) = 0.01337031
#
# Stress axis : x y z
#
# Youngs Moduli (GPa) = 76.85288 79.90985 99.26436
#
# Poissons Ratio (x) = 0.15127 0.42928
# Poissons Ratio (y) = 0.14548 0.48613
# Poissons Ratio (z) = 0.33236 0.39134
#
# Static dielectric constant tensor:
#      x y z
#    x 3.912980 0.000000 -0.042620 
#    y 0.000000 4.140690 0.000000 
#    z -0.042620 0.000000 3.994760 
# 
# 
# High freq. dielectric constant tensor:
#      x y z
#    x 1.876920 0.000000 0.001760 
#    y 0.000000 1.881520 0.000000 
#    z 0.001760 0.000000 1.880660 
# 
# From -- ./inp_files/43869.got.cif
#   From: 2010.06.25/outbox.cif.g09.slc.cpg/sg15_22_cif.got.tgz:43869.got - 2010.06.28 07:06:18.
