data_PCOD8145977
_publ_section_title
;
Structure prediction by ZEFSAII (Michael W. Deem and Ramdas Pophale) SiO2 
 PCOD8145977
Probable space group: C 2/C
;
_chemical_formula_sum "Si O2"
_cell_formula_units_Z 44
_cell_length_a 10.728260
_cell_length_b 21.987103
_cell_length_c 13.209961
_cell_angle_alpha 90.000000
_cell_angle_beta 41.406954
_cell_angle_gamma 90.000000
_cell_volume 2060.938025
_symmetry_space_group_name_H-M "C 2/C"
_symmetry_group_IT_number 15
_symmetry_cell_setting 'monoclinic'
loop_
_space_group_symop_operation_xyz
x,y,z
-x,y,1/2-z
-x,-y,-z
x,-y,1/2+z
1/2+x,1/2+y,z
1/2-x,1/2+y,1/2-z
1/2-x,1/2-y,-z
1/2+x,1/2-y,1/2+z
loop_
_atom_site_type_symbol
_atom_site_label
_atom_site_fract_x
_atom_site_fract_y
_atom_site_fract_z
Si Si1 0.360056 0.828231 0.749964
Si Si2 0.828210 0.293104 0.085550
Si Si3 0.451446 0.882504 0.168334
Si Si4 0.500000 0.621709 0.750000
Si Si5 0.379241 0.470344 0.163587
Si Si6 0.191328 0.909016 0.687044
O O1 0.500000 0.857458 0.750000
O O2 0.230952 0.776911 0.878977
O O3 0.478075 0.793655 0.592708
O O4 0.228870 0.877640 0.773714
O O5 0.856154 0.322504 0.179119
O O6 0.678705 0.335798 0.119681
O O7 0.500000 0.861144 0.250000
O O8 0.313176 0.940596 0.260361
O O9 0.635646 0.901240 0.993871
O O10 0.505068 0.581831 0.848959
O O11 0.328575 0.519934 0.278747
O O12 0.500000 0.500000 0.000000
O O13 0.000000 0.883956 0.750000
#
# Coordination Sequence:
#
# PCOD8145977 Si02
#       6
#     8   8   8   4   8   8
#     4  11  24  40  66  95 128 169 216 271 324 389
#     4  10  23  41  64  93 128 166 214 271 323 386
#     4  10  23  42  64  92 130 171 217 273 328 388
#     4  10  22  40  64  92 130 162 216 264 318 386
#     4  11  23  39  66  92 127 174 214 268 330 390
#     4  11  24  43  63  97 133 170 222 267 328 398
#
# _framework density 21.349502999999999
#
# number of rings (size 3 to 8) (size 9 to 14) (size 15 to 20)
#    0.000    1.455    1.818    2.182    2.545    4.364 
#    0.000    3.636    0.000    0.000    0.000    0.000 
#    0.000    0.000    0.000    0.000    0.000    0.000 
#
# Total GULP energy -272806.186958 kJ/mol
# GULP energy per Si atom -12400.281225 kJ/mol
# Density = 2.130091 g / cm^3
# Si number density = 21.349503 Si / 1000 Ang^3
#
#
#
# Elastic Constant Matrix: (Units=GPa)
#
#
# Indices 1 2 3 4 5 6 
#
# 1 157.4872 38.4957 15.9013 0.0001 -3.1534 0.0000
# 2 38.4957 61.3858 -0.2642 -0.0002 -4.0419 -0.0001
# 3 15.9013 -0.2642 55.0621 0.0000 -5.1433 0.0000
# 4 0.0001 -0.0002 0.0000 12.2812 -0.0003 0.1584
# 5 -3.1534 -4.0419 -5.1433 -0.0003 34.7580 0.0000
# 6 0.0000 -0.0001 0.0000 0.1584 0.0000 20.2657
#
#
#
# Elastic Compliance Matrix: (Units=1/GPa)
#
#
# Indices 1 2 3 4 5 6 
#
# 1 0.007774 -0.004898 -0.002287 0.000000 -0.000203 0.000000
# 2 -0.004898 0.019506 0.001702 0.000000 0.002076 0.000000
# 3 -0.002287 0.001702 0.019093 0.000000 0.002816 0.000000
# 4 0.000000 0.000000 0.000000 0.081433 0.000001 -0.000636
# 5 -0.000203 0.002076 0.002816 0.000001 0.029410 0.000000
# 6 0.000000 0.000000 0.000000 -0.000636 0.000000 0.049349
#
#
# Mechanical properties :
#
#
# Convention : Reuss Voigt Hill
#
# Bulk Modulus (GPa) = 28.24397 42.46675 35.35536
# Shear Modulus (GPa) = 21.80211 28.11445 24.95828
#
# Velocity S-wave (km/s) = 3.19909 3.63280 3.42282
# Velocity P-wave (km/s) = 5.18687 6.12623 5.67602
#
# Compressibility (1/GPa) = 0.03540579
#
# Stress axis : x y z
#
# Youngs Moduli (GPa) = 128.63449 51.26573 52.37496
#
# Poissons Ratio (x) = 0.25112 0.11981
# Poissons Ratio (y) = 0.63010 -0.08915
# Poissons Ratio (z) = 0.29425 -0.08726
#
# Static dielectric constant tensor:
#      x y z
#    x 4.160540 0.000000 -0.082530 
#    y 0.000000 3.809580 0.000000 
#    z -0.082530 0.000000 3.773950 
# 
# 
# High freq. dielectric constant tensor:
#      x y z
#    x 1.850620 0.000000 0.000750 
#    y 0.000000 1.831600 0.000000 
#    z 0.000750 0.000000 1.842970 
# 
# From -- ./inp_files/147007.got.cif
#   From: 2010.06.25/outbox.cif.g09.slc.cpg/sg15_74_cif.got.tgz:147007.got - 2010.06.28 07:06:18.
