data_PCOD8145806
_publ_section_title
;
Structure prediction by ZEFSAII (Michael W. Deem and Ramdas Pophale) SiO2 
 PCOD8145806
Probable space group: C 2/C
;
_chemical_formula_sum "Si O2"
_cell_formula_units_Z 56
_cell_length_a 27.061583
_cell_length_b 12.317665
_cell_length_c 22.145396
_cell_angle_alpha 90.000000
_cell_angle_beta 21.089720
_cell_angle_gamma 90.000000
_cell_volume 2656.205648
_symmetry_space_group_name_H-M "C 2/C"
_symmetry_group_IT_number 15
_symmetry_cell_setting 'monoclinic'
loop_
_space_group_symop_operation_xyz
x,y,z
-x,y,1/2-z
-x,-y,-z
x,-y,1/2+z
1/2+x,1/2+y,z
1/2-x,1/2+y,1/2-z
1/2-x,1/2-y,-z
1/2+x,1/2-y,1/2+z
loop_
_atom_site_type_symbol
_atom_site_label
_atom_site_fract_x
_atom_site_fract_y
_atom_site_fract_z
Si Si1 0.768467 0.575944 0.324182
Si Si2 0.713259 0.349506 0.666262
Si Si3 0.645981 0.982608 0.091967
Si Si4 0.382668 0.132375 0.756375
Si Si5 0.666868 0.344763 0.061881
Si Si6 0.857029 0.293508 0.613834
Si Si7 0.558630 0.440333 0.490729
O O1 0.855797 0.478916 0.252101
O O2 0.714784 0.655059 0.437924
O O3 0.863805 0.647012 0.170745
O O4 0.639582 0.528712 0.436275
O O5 0.819630 0.428833 0.511637
O O6 0.732516 0.226149 0.619726
O O7 0.730235 0.341922 0.719887
O O8 0.562675 0.398718 0.827334
O O9 0.500000 0.049210 0.250000
O O10 0.607950 0.888484 0.183077
O O11 0.777818 0.048458 0.966281
O O12 0.517023 0.181994 0.573537
O O13 0.500000 0.335737 0.250000
O O14 0.750000 0.250000 0.000000
O O15 0.847063 0.163436 0.635990
O O16 0.500000 0.500000 0.500000
#
# Coordination Sequence:
#
# PCOD8145806 Si02
#       7
#     8   8   8   8   8   8   8
#     4  11  23  42  65  95 128 173 215 274 328 390
#     4  11  21  38  62  95 130 166 217 259 327 397
#     4  11  22  40  68  96 128 175 216 271 329 397
#     4  10  22  40  59  92 134 167 215 263 321 393
#     4  11  26  49  68  93 130 173 231 279 337 399
#     4  11  22  39  63  94 129 169 213 268 325 398
#     4  11  23  40  63  93 135 168 215 271 337 397
#
# _framework density 21.082706000000002
#
# number of rings (size 3 to 8) (size 9 to 14) (size 15 to 20)
#    0.000    1.143    4.286    2.143    0.000    2.286 
#    0.000    0.714    0.000    0.000    0.000    0.000 
#    0.000    0.000    0.000    0.000    0.000    0.000 
#
# Total GULP energy -346972.742618 kJ/mol
# GULP energy per Si atom -12391.883665 kJ/mol
# Density = 2.103472 g / cm^3
# Si number density = 21.082706 Si / 1000 Ang^3
#
#
#
# Elastic Constant Matrix: (Units=GPa)
#
#
# Indices 1 2 3 4 5 6 
#
# 1 102.0194 45.8244 22.2755 -0.0014 7.4382 0.0005
# 2 45.8244 96.4567 42.8867 -0.0015 9.6587 0.0005
# 3 22.2755 42.8867 81.6813 -0.0046 -2.8862 0.0023
# 4 -0.0014 -0.0015 -0.0046 26.0292 0.0022 -5.2858
# 5 7.4382 9.6587 -2.8862 0.0022 40.3971 -0.0006
# 6 0.0005 0.0005 0.0023 -5.2858 -0.0006 43.5848
#
#
#
# Elastic Compliance Matrix: (Units=1/GPa)
#
#
# Indices 1 2 3 4 5 6 
#
# 1 0.012508 -0.005623 -0.000494 0.000000 -0.000994 0.000000
# 2 -0.005623 0.016644 -0.007328 0.000000 -0.003468 0.000000
# 3 -0.000494 -0.007328 0.016331 0.000002 0.003010 0.000000
# 4 0.000000 0.000000 0.000002 0.039388 -0.000002 0.004777
# 5 -0.000994 -0.003468 0.003010 -0.000002 0.025981 0.000000
# 6 0.000000 0.000000 0.000000 0.004777 0.000000 0.023523
#
#
# Mechanical properties :
#
#
# Convention : Reuss Voigt Hill
#
# Bulk Modulus (GPa) = 53.78209 55.79232 54.78720
# Shear Modulus (GPa) = 29.85703 33.28027 31.56865
#
# Velocity S-wave (km/s) = 3.76731 3.97742 3.87379
# Velocity P-wave (km/s) = 6.67000 6.90030 6.78613
#
# Compressibility (1/GPa) = 0.01859355
#
# Stress axis : x y z
#
# Youngs Moduli (GPa) = 79.94779 60.08059 61.23204
#
# Poissons Ratio (x) = 0.33785 0.03023
# Poissons Ratio (y) = 0.44957 0.44871
# Poissons Ratio (z) = 0.03947 0.44028
#
# Static dielectric constant tensor:
#      x y z
#    x 4.190540 0.000000 -0.077240 
#    y 0.000000 3.993060 0.000000 
#    z -0.077240 0.000000 3.818250 
# 
# 
# High freq. dielectric constant tensor:
#      x y z
#    x 1.837560 0.000000 -0.004400 
#    y 0.000000 1.826220 0.000000 
#    z -0.004400 0.000000 1.820500 
# 
# From -- ./inp_files/284604.got.cif
#   From: 2010.06.25/outbox.cif.g09.slc.cpg/sg15_143_cif.got.tgz:284604.got - 2010.06.28 07:06:18.
