data_PCOD8145817
_publ_section_title
;
Structure prediction by ZEFSAII (Michael W. Deem and Ramdas Pophale) SiO2 
 PCOD8145817
Probable space group: C 2/C
;
_chemical_formula_sum "Si O2"
_cell_formula_units_Z 64
_cell_length_a 15.165174
_cell_length_b 13.039808
_cell_length_c 26.398307
_cell_angle_alpha 90.000000
_cell_angle_beta 140.886514
_cell_angle_gamma 90.000000
_cell_volume 3293.264370
_symmetry_space_group_name_H-M "C 2/C"
_symmetry_group_IT_number 15
_symmetry_cell_setting 'monoclinic'
loop_
_space_group_symop_operation_xyz
x,y,z
-x,y,1/2-z
-x,-y,-z
x,-y,1/2+z
1/2+x,1/2+y,z
1/2-x,1/2+y,1/2-z
1/2-x,1/2-y,-z
1/2+x,1/2-y,1/2+z
loop_
_atom_site_type_symbol
_atom_site_label
_atom_site_fract_x
_atom_site_fract_y
_atom_site_fract_z
Si Si1 0.308374 0.480342 0.454339
Si Si2 0.699429 0.639783 0.959760
Si Si3 0.114019 0.941061 0.612773
Si Si4 0.636760 0.979597 0.529049
Si Si5 0.894527 0.901543 0.300969
Si Si6 0.837239 0.230996 0.290595
Si Si7 0.868623 0.668918 0.566238
Si Si8 0.854102 0.918817 0.707871
O O1 0.309367 0.571327 0.494622
O O2 0.456892 0.421175 0.522579
O O3 0.284306 0.527678 0.388010
O O4 0.185343 0.400328 0.411152
O O5 0.804636 0.587288 0.966470
O O6 0.547581 0.649659 0.865842
O O7 0.750000 0.750000 0.000000
O O8 0.170257 0.837013 0.662182
O O9 0.115761 0.031000 0.653835
O O10 0.598498 0.902504 0.466999
O O11 0.747985 0.923490 0.614188
O O12 0.500000 0.000000 0.500000
O O13 0.777205 0.816536 0.252486
O O14 0.869376 0.969644 0.240061
O O15 0.800658 0.164104 0.224819
O O16 0.991656 0.276580 0.352693
O O17 0.750000 0.750000 0.500000
O O18 0.000000 0.881345 0.750000
#
# Coordination Sequence:
#
# PCOD8145817 Si02
#       8
#     8   8   8   8   8   8   8   8
#     4   9  19  38  62  83 118 154 201 252 302 352
#     4  10  22  40  62  88 122 162 202 250 311 369
#     4   9  19  39  60  84 114 161 198 244 303 364
#     4  11  24  40  64  96 123 158 212 264 298 366
#     4  10  22  40  60  86 125 160 198 252 308 371
#     4  11  23  38  63  91 121 161 207 253 307 372
#     4  11  21  39  63  91 121 156 207 262 301 353
#     4  11  22  42  62  86 127 169 201 250 324 369
#
# _framework density 19.433605
#
# number of rings (size 3 to 8) (size 9 to 14) (size 15 to 20)
#    0.000    1.750    2.500    1.500    1.750    4.000 
#    2.250    0.000    0.000    0.000    0.000    0.000 
#    0.000    0.000    0.000    0.000    0.000    0.000 
#
# Total GULP energy -396883.598731 kJ/mol
# GULP energy per Si atom -12402.612460 kJ/mol
# Density = 1.938937 g / cm^3
# Si number density = 19.433605 Si / 1000 Ang^3
#
#
#
# Elastic Constant Matrix: (Units=GPa)
#
#
# Indices 1 2 3 4 5 6 
#
# 1 103.5536 20.1326 14.7909 0.0000 4.4662 0.0000
# 2 20.1326 84.5727 19.3980 0.0000 12.3639 0.0000
# 3 14.7909 19.3980 61.1443 0.0000 7.7662 0.0000
# 4 0.0000 0.0000 0.0000 26.3930 0.0000 9.8538
# 5 4.4662 12.3639 7.7662 0.0000 34.9048 0.0000
# 6 0.0000 0.0000 0.0000 9.8538 0.0000 25.4979
#
#
#
# Elastic Compliance Matrix: (Units=1/GPa)
#
#
# Indices 1 2 3 4 5 6 
#
# 1 0.010317 -0.002006 -0.001834 0.000000 -0.000202 0.000000
# 2 -0.002006 0.013630 -0.003353 0.000000 -0.003825 0.000000
# 3 -0.001834 -0.003353 0.018196 0.000000 -0.002626 0.000000
# 4 0.000000 0.000000 0.000000 0.044277 0.000000 -0.017111
# 5 -0.000202 -0.003825 -0.002626 0.000000 0.030614 0.000000
# 6 0.000000 0.000000 0.000000 -0.017111 0.000000 0.045832
#
#
# Mechanical properties :
#
#
# Convention : Reuss Voigt Hill
#
# Bulk Modulus (GPa) = 36.02630 39.76818 37.89724
# Shear Modulus (GPa) = 26.80902 30.35575 28.58239
#
# Velocity S-wave (km/s) = 3.71822 3.95653 3.83922
# Velocity P-wave (km/s) = 6.08374 6.43275 6.26068
#
# Compressibility (1/GPa) = 0.02775750
#
# Stress axis : x y z
#
# Youngs Moduli (GPa) = 96.92315 73.36775 54.95820
#
# Poissons Ratio (x) = 0.14718 0.10078
# Poissons Ratio (y) = 0.19443 0.18427
# Poissons Ratio (z) = 0.17774 0.24600
#
# Static dielectric constant tensor:
#      x y z
#    x 3.661330 0.000000 -0.130600 
#    y 0.000000 3.605980 0.000000 
#    z -0.130600 0.000000 3.545950 
# 
# 
# High freq. dielectric constant tensor:
#      x y z
#    x 1.767260 0.000000 -0.005270 
#    y 0.000000 1.757660 0.000000 
#    z -0.005270 0.000000 1.752390 
# 
# From -- ./inp_files/296172.got.cif
#   From: 2010.06.25/outbox.cif.g09.slc.cpg/sg15_149_cif.got.tgz:296172.got - 2010.06.28 07:06:18.
