data_PCOD8145645
_publ_section_title
;
Structure prediction by ZEFSAII (Michael W. Deem and Ramdas Pophale) SiO2 
 PCOD8145645
Probable space group: C 2/C
;
_chemical_formula_sum "Si O2"
_cell_formula_units_Z 56
_cell_length_a 5.598420
_cell_length_b 21.632864
_cell_length_c 20.972240
_cell_angle_alpha 90.000000
_cell_angle_beta 86.463483
_cell_angle_gamma 90.000000
_cell_volume 2535.108168
_symmetry_space_group_name_H-M "C 2/C"
_symmetry_group_IT_number 15
_symmetry_cell_setting 'monoclinic'
loop_
_space_group_symop_operation_xyz
x,y,z
-x,y,1/2-z
-x,-y,-z
x,-y,1/2+z
1/2+x,1/2+y,z
1/2-x,1/2+y,1/2-z
1/2-x,1/2-y,-z
1/2+x,1/2-y,1/2+z
loop_
_atom_site_type_symbol
_atom_site_label
_atom_site_fract_x
_atom_site_fract_y
_atom_site_fract_z
Si Si1 0.305804 0.770083 0.656084
Si Si2 0.146059 0.626511 0.169242
Si Si3 0.214556 0.529038 0.363036
Si Si4 0.500000 0.182729 0.750000
Si Si5 0.950308 0.867344 0.926262
Si Si6 0.901853 0.840270 0.071984
Si Si7 0.500000 0.430787 0.750000
Si Si8 0.887735 0.610770 0.627773
O O1 0.530212 0.806304 0.681275
O O2 0.128610 0.820098 0.628204
O O3 0.405804 0.729415 0.596111
O O4 0.191246 0.726217 0.711665
O O5 0.275077 0.621712 0.097681
O O6 0.303360 0.618297 0.229639
O O7 0.971247 0.568850 0.173423
O O8 0.302065 0.567669 0.424176
O O9 0.436350 0.524086 0.309938
O O10 0.103889 0.462935 0.378502
O O11 0.371072 0.138297 0.699882
O O12 0.925120 0.838804 0.995772
O O13 0.642381 0.869458 0.093399
O O14 0.141407 0.872295 0.095617
#
# Coordination Sequence:
#
# PCOD8145645 Si02
#       8
#     8   8   8   4   8   8   4   8
#     4  10  24  45  70 100 139 184 231 291 353 417
#     4  10  23  41  66 105 134 184 233 292 348 412
#     4  10  24  43  68 103 134 189 231 293 353 408
#     4  10  26  49  68 102 140 185 230 288 352 426
#     4  10  24  45  71 102 138 180 239 291 346 415
#     4  11  27  48  71 105 141 191 234 286 351 414
#     4  10  22  39  64 102 140 175 238 284 358 412
#     4  11  28  48  72 103 143 186 235 285 350 423
#
# _framework density 22.089787999999999
#
# number of rings (size 3 to 8) (size 9 to 14) (size 15 to 20)
#    0.000    1.714    0.000    0.857   14.000   11.429 
#    5.143    0.000    0.000    0.000    0.000    0.000 
#    0.000    0.000    0.000    0.000    0.000    0.000 
#
# Total GULP energy -346942.463301 kJ/mol
# GULP energy per Si atom -12390.802261 kJ/mol
# Density = 2.203951 g / cm^3
# Si number density = 22.089788 Si / 1000 Ang^3
#
#
#
# Elastic Constant Matrix: (Units=GPa)
#
#
# Indices 1 2 3 4 5 6 
#
# 1 111.2694 33.1183 30.3578 0.0000 7.3437 0.0000
# 2 33.1183 125.7685 11.6357 0.0000 1.2338 0.0000
# 3 30.3578 11.6357 105.7295 0.0000 -5.4351 0.0000
# 4 0.0000 0.0000 0.0000 16.6383 0.0000 -6.5645
# 5 7.3437 1.2338 -5.4351 0.0000 29.6303 0.0000
# 6 0.0000 0.0000 0.0000 -6.5645 0.0000 16.9276
#
#
#
# Elastic Compliance Matrix: (Units=1/GPa)
#
#
# Indices 1 2 3 4 5 6 
#
# 1 0.010754 -0.002527 -0.002969 0.000000 -0.003105 0.000000
# 2 -0.002527 0.008634 -0.000213 0.000000 0.000228 0.000000
# 3 -0.002969 -0.000213 0.010471 0.000000 0.002666 0.000000
# 4 0.000000 0.000000 0.000000 0.070959 0.000000 0.027518
# 5 -0.003105 0.000228 0.002666 0.000000 0.034998 0.000000
# 6 0.000000 0.000000 0.000000 0.027518 0.000000 0.069746
#
#
# Mechanical properties :
#
#
# Convention : Reuss Voigt Hill
#
# Bulk Modulus (GPa) = 54.22639 54.77678 54.50159
# Shear Modulus (GPa) = 22.40866 30.48296 26.44581
#
# Velocity S-wave (km/s) = 3.18848 3.71881 3.46381
# Velocity P-wave (km/s) = 6.17711 6.57955 6.38150
#
# Compressibility (1/GPa) = 0.01844120
#
# Stress axis : x y z
#
# Youngs Moduli (GPa) = 92.98590 115.82193 95.50046
#
# Poissons Ratio (x) = 0.29265 0.28358
# Poissons Ratio (y) = 0.23495 0.02034
# Poissons Ratio (z) = 0.27611 0.02467
#
# Static dielectric constant tensor:
#      x y z
#    x 4.327010 0.000000 -0.070930 
#    y 0.000000 4.003650 0.000000 
#    z -0.070930 0.000000 3.921590 
# 
# 
# High freq. dielectric constant tensor:
#      x y z
#    x 1.884860 0.000000 -0.003740 
#    y 0.000000 1.868060 0.000000 
#    z -0.003740 0.000000 1.869700 
# 
# From -- ./inp_files/227913.got.cif
#   From: 2010.06.25/outbox.cif.g09.slc.cpg/sg15_114_cif.got.tgz:227913.got - 2010.06.28 07:06:18.
