data_PCOD8145609
_publ_section_title
;
Structure prediction by ZEFSAII (Michael W. Deem and Ramdas Pophale) SiO2 
 PCOD8145609
Probable space group: C 2/C
;
_chemical_formula_sum "Si O2"
_cell_formula_units_Z 44
_cell_length_a 14.101139
_cell_length_b 8.034209
_cell_length_c 20.351002
_cell_angle_alpha 90.000000
_cell_angle_beta 60.216149
_cell_angle_gamma 90.000000
_cell_volume 2001.038998
_symmetry_space_group_name_H-M "C 2/C"
_symmetry_group_IT_number 15
_symmetry_cell_setting 'monoclinic'
loop_
_space_group_symop_operation_xyz
x,y,z
-x,y,1/2-z
-x,-y,-z
x,-y,1/2+z
1/2+x,1/2+y,z
1/2-x,1/2+y,1/2-z
1/2-x,1/2-y,-z
1/2+x,1/2-y,1/2+z
loop_
_atom_site_type_symbol
_atom_site_label
_atom_site_fract_x
_atom_site_fract_y
_atom_site_fract_z
Si Si1 0.234241 0.436329 0.481525
Si Si2 0.122967 0.187193 0.293753
Si Si3 0.540139 0.505956 0.560864
Si Si4 0.500000 0.055651 0.750000
Si Si5 0.282984 0.038286 0.662795
Si Si6 0.015900 0.383817 0.612835
O O1 0.250000 0.250000 0.500000
O O2 0.330489 0.542484 0.484024
O O3 0.256579 0.458456 0.397466
O O4 0.109344 0.487125 0.540649
O O5 0.091892 0.324001 0.249377
O O6 0.185210 0.037232 0.238676
O O7 0.204979 0.272767 0.317014
O O8 0.019773 0.125011 0.371308
O O9 0.500000 0.500000 0.500000
O O10 0.523491 0.687638 0.598113
O O11 0.542778 0.930862 0.678976
O O12 0.397000 0.941317 0.630870
#
# Coordination Sequence:
#
# PCOD8145609 Si02
#       6
#     8   8   8   4   8   8
#     4  10  22  39  63  89 123 164 207 256 311 374
#     4  11  23  41  64  95 129 167 215 265 320 383
#     4  11  24  42  66  94 127 169 214 265 318 379
#     4  10  24  42  62  94 128 170 218 262 318 380
#     4  11  23  41  65  94 127 166 209 264 320 381
#     4  10  23  42  65  93 128 166 209 262 318 380
#
# _framework density 21.988575999999998
#
# number of rings (size 3 to 8) (size 9 to 14) (size 15 to 20)
#    0.000    1.455    0.000    4.909    0.000   15.273 
#    0.000    5.455    0.000    0.000    0.000    0.000 
#    0.000    0.000    0.000    0.000    0.000    0.000 
#
# Total GULP energy -272707.860208 kJ/mol
# GULP energy per Si atom -12395.811828 kJ/mol
# Density = 2.193853 g / cm^3
# Si number density = 21.988576 Si / 1000 Ang^3
#
#
#
# Elastic Constant Matrix: (Units=GPa)
#
#
# Indices 1 2 3 4 5 6 
#
# 1 103.6722 14.8589 45.5716 0.0000 16.8454 0.0000
# 2 14.8589 80.6100 38.8900 0.0000 5.4215 0.0000
# 3 45.5716 38.8900 118.2484 0.0000 7.7073 0.0000
# 4 0.0000 0.0000 0.0000 40.1459 0.0000 0.7528
# 5 16.8454 5.4215 7.7073 0.0000 40.5944 0.0000
# 6 0.0000 0.0000 0.0000 0.7528 0.0000 36.1645
#
#
#
# Elastic Compliance Matrix: (Units=1/GPa)
#
#
# Indices 1 2 3 4 5 6 
#
# 1 0.012302 0.000205 -0.004530 0.000000 -0.004272 0.000000
# 2 0.000205 0.014794 -0.004870 0.000000 -0.001136 0.000000
# 3 -0.004530 -0.004870 0.011785 0.000000 0.000293 0.000000
# 4 0.000000 0.000000 0.000000 0.024919 0.000000 -0.000519
# 5 -0.004272 -0.001136 0.000293 0.000000 0.026503 0.000000
# 6 0.000000 0.000000 0.000000 -0.000519 0.000000 0.027662
#
#
# Mechanical properties :
#
#
# Convention : Reuss Voigt Hill
#
# Bulk Modulus (GPa) = 48.80340 55.68574 52.24457
# Shear Modulus (GPa) = 34.91973 36.92830 35.92401
#
# Velocity S-wave (km/s) = 3.98940 4.10253 4.04636
# Velocity P-wave (km/s) = 6.59269 6.91526 6.75590
#
# Compressibility (1/GPa) = 0.02049037
#
# Stress axis : x y z
#
# Youngs Moduli (GPa) = 81.28878 67.59619 84.85133
#
# Poissons Ratio (x) = -0.01387 0.38438
# Poissons Ratio (y) = -0.01668 0.41326
# Poissons Ratio (z) = 0.36824 0.32922
#
# Static dielectric constant tensor:
#      x y z
#    x 4.405950 0.000000 -0.197460 
#    y 0.000000 3.868820 0.000000 
#    z -0.197460 0.000000 4.339250 
# 
# 
# High freq. dielectric constant tensor:
#      x y z
#    x 1.880510 0.000000 0.000940 
#    y 0.000000 1.857260 0.000000 
#    z 0.000940 0.000000 1.875630 
# 
# From -- ./inp_files/202926.got.cif
#   From: 2010.06.25/outbox.cif.g09.slc.cpg/sg15_102_cif.got.tgz:202926.got - 2010.06.28 07:06:18.
