data_PCOD8145263
_publ_section_title
;
Structure prediction by ZEFSAII (Michael W. Deem and Ramdas Pophale) SiO2 
 PCOD8145263
Probable space group: C 2/C
;
_chemical_formula_sum "Si O2"
_cell_formula_units_Z 48
_cell_length_a 24.727208
_cell_length_b 12.130700
_cell_length_c 8.856594
_cell_angle_alpha 90.000000
_cell_angle_beta 122.554394
_cell_angle_gamma 90.000000
_cell_volume 2239.205405
_symmetry_space_group_name_H-M "C 2/C"
_symmetry_group_IT_number 15
_symmetry_cell_setting 'monoclinic'
loop_
_space_group_symop_operation_xyz
x,y,z
-x,y,1/2-z
-x,-y,-z
x,-y,1/2+z
1/2+x,1/2+y,z
1/2-x,1/2+y,1/2-z
1/2-x,1/2-y,-z
1/2+x,1/2-y,1/2+z
loop_
_atom_site_type_symbol
_atom_site_label
_atom_site_fract_x
_atom_site_fract_y
_atom_site_fract_z
Si Si1 0.771529 0.999980 0.991308
Si Si2 0.439301 0.957948 0.046860
Si Si3 0.163986 0.863258 0.157862
Si Si4 0.984298 0.113401 0.055297
Si Si5 0.487111 0.820598 0.563036
Si Si6 0.696238 0.120731 0.126150
O O1 0.716411 0.945894 0.806087
O O2 0.825915 0.052556 0.965717
O O3 0.803858 0.905506 0.140232
O O4 0.742198 0.094897 0.054166
O O5 0.500000 0.943186 0.250000
O O6 0.430987 0.086738 0.985450
O O7 0.451135 0.883958 0.915218
O O8 0.374908 0.917412 0.029664
O O9 0.198100 0.749675 0.164418
O O10 0.088864 0.849695 0.078000
O O11 0.000000 0.095982 0.250000
O O12 0.029725 0.211900 0.059535
O O13 0.000000 0.000000 0.000000
O O14 0.500000 0.776511 0.750000
#
# Coordination Sequence:
#
# PCOD8145263 Si02
#       6
#     8   8   8   8   8   8
#     4  10  25  42  64  96 119 172 218 263 309 382
#     4  10  22  39  63  97 133 162 201 263 324 383
#     4  11  23  46  65  87 132 164 216 269 313 372
#     4  12  25  42  66  96 127 171 212 258 324 387
#     4  10  22  38  60  94 133 162 203 251 325 376
#     4  11  23  41  69  92 130 165 215 259 326 379
#
# _framework density 21.436176
#
# number of rings (size 3 to 8) (size 9 to 14) (size 15 to 20)
#    0.000    1.333    1.667    3.000    7.000    0.667 
#    0.000    6.667    0.000    0.000    0.000    0.000 
#    0.000    0.000    0.000    0.000    0.000    0.000 
#
# Total GULP energy -297586.209142 kJ/mol
# GULP energy per Si atom -12399.425381 kJ/mol
# Density = 2.138739 g / cm^3
# Si number density = 21.436176 Si / 1000 Ang^3
#
#
#
# Elastic Constant Matrix: (Units=GPa)
#
#
# Indices 1 2 3 4 5 6 
#
# 1 61.8017 17.5721 32.6726 0.0000 -5.3584 0.0000
# 2 17.5721 156.4927 45.1016 0.0000 -16.6507 0.0000
# 3 32.6726 45.1016 119.2160 0.0000 -15.3664 0.0000
# 4 0.0000 0.0000 0.0000 65.7762 0.0000 -29.5736
# 5 -5.3584 -16.6507 -15.3664 0.0000 37.5602 0.0000
# 6 0.0000 0.0000 0.0000 -29.5736 0.0000 47.8871
#
#
#
# Elastic Compliance Matrix: (Units=1/GPa)
#
#
# Indices 1 2 3 4 5 6 
#
# 1 0.018998 -0.000679 -0.004898 0.000000 0.000406 0.000000
# 2 -0.000679 0.007370 -0.002316 0.000000 0.002223 0.000000
# 3 -0.004898 -0.002316 0.010962 0.000000 0.002759 0.000000
# 4 0.000000 0.000000 0.000000 0.021047 0.000000 0.012998
# 5 0.000406 0.002223 0.002759 0.000000 0.028796 0.000000
# 6 0.000000 0.000000 0.000000 0.012998 0.000000 0.028910
#
#
# Mechanical properties :
#
#
# Convention : Reuss Voigt Hill
#
# Bulk Modulus (GPa) = 46.41112 58.68922 52.55017
# Shear Modulus (GPa) = 35.95834 46.38896 41.17365
#
# Velocity S-wave (km/s) = 4.10012 4.65698 4.38740
# Velocity P-wave (km/s) = 6.64173 7.50697 7.08757
#
# Compressibility (1/GPa) = 0.02154656
#
# Stress axis : x y z
#
# Youngs Moduli (GPa) = 52.63673 135.68136 91.22274
#
# Poissons Ratio (x) = 0.09207 0.44678
# Poissons Ratio (y) = 0.03572 0.21125
# Poissons Ratio (z) = 0.25780 0.31421
#
# Static dielectric constant tensor:
#      x y z
#    x 3.865230 0.000000 -0.234570 
#    y 0.000000 4.096090 0.000000 
#    z -0.234570 0.000000 3.786420 
# 
# 
# High freq. dielectric constant tensor:
#      x y z
#    x 1.832880 0.000000 -0.024240 
#    y 0.000000 1.855520 0.000000 
#    z -0.024240 0.000000 1.840340 
# 
# From -- ./inp_files/65244.got.cif
#   From: 2010.06.25/outbox.cif.g09.slc.cpg/sg15_33_cif.got.tgz:65244.got - 2010.06.28 07:06:18.
