data_PCOD8145818
_publ_section_title
;
Structure prediction by ZEFSAII (Michael W. Deem and Ramdas Pophale) SiO2 
 PCOD8145818
Probable space group: C 2/C
;
_chemical_formula_sum "Si O2"
_cell_formula_units_Z 60
_cell_length_a 8.426553
_cell_length_b 26.529281
_cell_length_c 18.323086
_cell_angle_alpha 90.000000
_cell_angle_beta 136.402500
_cell_angle_gamma 90.000000
_cell_volume 2824.643983
_symmetry_space_group_name_H-M "C 2/C"
_symmetry_group_IT_number 15
_symmetry_cell_setting 'monoclinic'
loop_
_space_group_symop_operation_xyz
x,y,z
-x,y,1/2-z
-x,-y,-z
x,-y,1/2+z
1/2+x,1/2+y,z
1/2-x,1/2+y,1/2-z
1/2-x,1/2-y,-z
1/2+x,1/2-y,1/2+z
loop_
_atom_site_type_symbol
_atom_site_label
_atom_site_fract_x
_atom_site_fract_y
_atom_site_fract_z
Si Si1 0.660499 0.006039 0.238360
Si Si2 0.876294 0.698004 0.055297
Si Si3 0.500000 0.834078 0.750000
Si Si4 0.063034 0.096100 0.108109
Si Si5 0.270864 0.400143 0.217578
Si Si6 0.971171 0.893358 0.063952
Si Si7 0.610729 0.863448 0.517267
Si Si8 0.571936 0.955596 0.970784
O O1 0.500000 0.985485 0.250000
O O2 0.876949 0.042010 0.334036
O O3 0.476639 0.037014 0.130237
O O4 0.738743 0.960522 0.211822
O O5 0.001593 0.699805 0.176504
O O6 0.050623 0.686823 0.044953
O O7 0.750000 0.750000 0.000000
O O8 0.683356 0.655555 0.993784
O O9 0.712539 0.871019 0.820343
O O10 0.877028 0.132910 0.084085
O O11 0.962463 0.085246 0.993362
O O12 0.500000 0.385832 0.250000
O O13 0.302942 0.380999 0.312323
O O14 0.057335 0.371324 0.108786
O O15 0.838658 0.938074 0.065689
O O16 0.590289 0.909404 0.565097
O O17 0.500000 0.000000 0.000000
#
# Coordination Sequence:
#
# PCOD8145818 Si02
#       8
#     8   8   4   8   8   8   8   8
#     4  12  24  36  59  89 126 186 233 261 330 397
#     4  10  22  44  73 100 122 167 216 274 345 413
#     4  10  22  46  68  96 136 170 212 276 342 392
#     4  11  23  41  63  93 133 178 222 281 324 394
#     4  12  24  39  57  88 136 179 222 277 334 392
#     4  10  22  40  60  86 135 170 218 284 338 394
#     4  11  25  39  64  95 130 168 229 280 332 398
#     4  11  20  38  56  84 126 171 222 275 318 393
#
# _framework density 21.241614999999999
#
# number of rings (size 3 to 8) (size 9 to 14) (size 15 to 20)
#    0.000    1.067    6.000    1.600    5.600    3.200 
#    0.000    2.667    0.000    3.200    0.000    0.000 
#    0.000    0.000    0.000    0.000    0.000    0.000 
#
# Total GULP energy -371661.187679 kJ/mol
# GULP energy per Si atom -12388.706256 kJ/mol
# Density = 2.119327 g / cm^3
# Si number density = 21.241615 Si / 1000 Ang^3
#
#
#
# Elastic Constant Matrix: (Units=GPa)
#
#
# Indices 1 2 3 4 5 6 
#
# 1 97.4630 31.9482 37.9391 0.0000 -1.6864 0.0000
# 2 31.9482 76.2864 20.5836 0.0000 -8.2145 0.0000
# 3 37.9391 20.5836 125.0480 0.0000 -26.2889 0.0000
# 4 0.0000 0.0000 0.0000 20.5933 0.0000 -1.1417
# 5 -1.6864 -8.2145 -26.2889 0.0000 41.6221 0.0000
# 6 0.0000 0.0000 0.0000 -1.1417 0.0000 21.4492
#
#
#
# Elastic Compliance Matrix: (Units=1/GPa)
#
#
# Indices 1 2 3 4 5 6 
#
# 1 0.013288 -0.004837 -0.003832 0.000000 -0.002836 0.000000
# 2 -0.004837 0.015557 -0.000564 0.000000 0.002518 0.000000
# 3 -0.003832 -0.000564 0.010604 0.000000 0.006431 0.000000
# 4 0.000000 0.000000 0.000000 0.048703 0.000000 0.002592
# 5 -0.002836 0.002518 0.006431 0.000000 0.028470 0.000000
# 6 0.000000 0.000000 0.000000 0.002592 0.000000 0.046760
#
#
# Mechanical properties :
#
#
# Convention : Reuss Voigt Hill
#
# Bulk Modulus (GPa) = 47.65252 53.30436 50.47844
# Shear Modulus (GPa) = 26.47710 30.62135 28.54923
#
# Velocity S-wave (km/s) = 3.53437 3.80093 3.67007
# Velocity P-wave (km/s) = 6.25604 6.66419 6.46334
#
# Compressibility (1/GPa) = 0.02098525
#
# Stress axis : x y z
#
# Youngs Moduli (GPa) = 75.25475 64.27831 94.30094
#
# Poissons Ratio (x) = 0.31088 0.36134
# Poissons Ratio (y) = 0.36397 0.05319
# Poissons Ratio (z) = 0.28836 0.03626
#
# Static dielectric constant tensor:
#      x y z
#    x 4.294690 0.000000 -0.587750 
#    y 0.000000 3.284140 0.000000 
#    z -0.587750 0.000000 4.311610 
# 
# 
# High freq. dielectric constant tensor:
#      x y z
#    x 1.835570 0.000000 -0.020160 
#    y 0.000000 1.791080 0.000000 
#    z -0.020160 0.000000 1.851610 
# 
# From -- ./inp_files/234580.got.cif
#   From: 2010.06.25/outbox.cif.g09.slc.cpg/sg15_118_cif.got.tgz:234580.got - 2010.06.28 07:06:18.
