data_PCOD8145973
_publ_section_title
;
Structure prediction by ZEFSAII (Michael W. Deem and Ramdas Pophale) SiO2 
 PCOD8145973
Probable space group: C 2/C
;
_chemical_formula_sum "Si O2"
_cell_formula_units_Z 32
_cell_length_a 5.113355
_cell_length_b 29.829380
_cell_length_c 9.676345
_cell_angle_alpha 90.000000
_cell_angle_beta 108.205238
_cell_angle_gamma 90.000000
_cell_volume 1402.036399
_symmetry_space_group_name_H-M "C 2/C"
_symmetry_group_IT_number 15
_symmetry_cell_setting 'monoclinic'
loop_
_space_group_symop_operation_xyz
x,y,z
-x,y,1/2-z
-x,-y,-z
x,-y,1/2+z
1/2+x,1/2+y,z
1/2-x,1/2+y,1/2-z
1/2-x,1/2-y,-z
1/2+x,1/2-y,1/2+z
loop_
_atom_site_type_symbol
_atom_site_label
_atom_site_fract_x
_atom_site_fract_y
_atom_site_fract_z
Si Si1 0.318683 0.725779 0.838631
Si Si2 0.274995 0.320682 0.603471
Si Si3 0.423457 0.541747 0.582241
Si Si4 0.083770 0.596979 0.920049
O O1 0.500000 0.703433 0.750000
O O2 0.394882 0.778756 0.862029
O O3 0.000000 0.718784 0.750000
O O4 0.419561 0.699995 0.991462
O O5 0.500000 0.338651 0.750000
O O6 0.075476 0.361077 0.523623
O O7 0.500000 0.528317 0.750000
O O8 0.500000 0.500000 0.500000
O O9 0.601972 0.581472 0.545231
O O10 0.105739 0.558386 0.539486
O O11 0.000000 0.610735 0.750000
#
# Coordination Sequence:
#
# PCOD8145973 Si02
#       4
#     8   8   8   8
#     4  10  23  42  63  87 127 177 216 260 318 372
#     4  10  23  40  63  95 127 165 220 268 309 364
#     4  10  22  42  66  92 121 158 202 250 313 381
#     4  10  22  40  64  92 126 164 202 252 315 379
#
# _framework density 22.823944000000001
#
# number of rings (size 3 to 8) (size 9 to 14) (size 15 to 20)
#    0.000    2.000    0.000    1.500    0.000   20.000 
#    0.000    2.500    0.000    0.000    0.000    0.000 
#    0.000    0.000    0.000    0.000    0.000    0.000 
#
# Total GULP energy -198237.573271 kJ/mol
# GULP energy per Si atom -12389.848329 kJ/mol
# Density = 2.277200 g / cm^3
# Si number density = 22.823944 Si / 1000 Ang^3
#
#
#
# Elastic Constant Matrix: (Units=GPa)
#
#
# Indices 1 2 3 4 5 6 
#
# 1 122.2769 29.4325 52.9708 0.0000 -21.4185 0.0000
# 2 29.4325 107.1912 58.5232 0.0000 4.8444 0.0000
# 3 52.9708 58.5232 132.6282 0.0000 -9.8638 0.0000
# 4 0.0000 0.0000 0.0000 30.9911 0.0000 19.1793
# 5 -21.4185 4.8444 -9.8638 0.0000 28.5716 0.0000
# 6 0.0000 0.0000 0.0000 19.1793 0.0000 -11.4452
#
#
#
# Elastic Compliance Matrix: (Units=1/GPa)
#
#
# Indices 1 2 3 4 5 6 
#
# 1 0.011318 -0.001710 -0.003195 0.000000 0.007671 0.000000
# 2 -0.001710 0.013025 -0.005464 0.000000 -0.005377 0.000000
# 3 -0.003195 -0.005464 0.011411 0.000000 0.002471 0.000000
# 4 0.000000 0.000000 0.000000 0.015840 0.000000 0.026544
# 5 0.007671 -0.005377 0.002471 0.000000 0.042515 0.000000
# 6 0.000000 0.000000 0.000000 0.026544 0.000000 -0.042892
#
#
# Mechanical properties :
#
#
# Convention : Reuss Voigt Hill
#
# Bulk Modulus (GPa) = 66.60093 71.54994 69.07544
# Shear Modulus (GPa) = 64.96849 24.36815 44.66832
#
# Velocity S-wave (km/s) = 5.34105 3.27105 4.42869
# Velocity P-wave (km/s) = 8.20240 6.75892 7.51540
#
# Compressibility (1/GPa) = 0.01501481
#
# Stress axis : x y z
#
# Youngs Moduli (GPa) = 88.35827 76.77574 87.63508
#
# Poissons Ratio (x) = 0.13127 0.28001
# Poissons Ratio (y) = 0.15107 0.47887
# Poissons Ratio (z) = 0.28232 0.41953
#
# Static dielectric constant tensor:
#      x y z
#    x 4.147220 0.000000 -0.225380 
#    y 0.000000 3.967500 0.000000 
#    z -0.225380 0.000000 4.407320 
# 
# 
# High freq. dielectric constant tensor:
#      x y z
#    x 1.890080 0.000000 -0.013450 
#    y 0.000000 1.891940 0.000000 
#    z -0.013450 0.000000 1.909850 
# 
# From -- ./inp_files/20128.got.cif
#   From: 2010.06.25/outbox.cif.g09.slc.cpg/sg15_11_cif.got.tgz:20128.got - 2010.06.28 07:06:18.
