data_PCOD8145823
_publ_section_title
;
Structure prediction by ZEFSAII (Michael W. Deem and Ramdas Pophale) SiO2 
 PCOD8145823
Probable space group: C 2/C
;
_chemical_formula_sum "Si O2"
_cell_formula_units_Z 36
_cell_length_a 26.958091
_cell_length_b 5.083611
_cell_length_c 12.438680
_cell_angle_alpha 90.000000
_cell_angle_beta 109.278976
_cell_angle_gamma 90.000000
_cell_volume 1609.058841
_symmetry_space_group_name_H-M "C 2/C"
_symmetry_group_IT_number 15
_symmetry_cell_setting 'monoclinic'
loop_
_space_group_symop_operation_xyz
x,y,z
-x,y,1/2-z
-x,-y,-z
x,-y,1/2+z
1/2+x,1/2+y,z
1/2-x,1/2+y,1/2-z
1/2-x,1/2-y,-z
1/2+x,1/2-y,1/2+z
loop_
_atom_site_type_symbol
_atom_site_label
_atom_site_fract_x
_atom_site_fract_y
_atom_site_fract_z
Si Si1 0.753644 0.793081 0.180537
Si Si2 0.399699 0.668459 0.068277
Si Si3 0.666963 0.161175 0.441147
Si Si4 0.500000 0.535208 0.750000
Si Si5 0.530845 0.750329 0.561262
O O1 0.735308 0.533209 0.230865
O O2 0.806879 0.731107 0.153949
O O3 0.709427 0.881920 0.064883
O O4 0.372728 0.386454 0.051740
O O5 0.456445 0.654980 0.166354
O O6 0.363591 0.887580 0.097880
O O7 0.410901 0.747603 0.950988
O O8 0.531621 0.728658 0.690968
O O9 0.500000 0.500000 0.500000
O O10 0.500000 0.000000 0.500000
#
# Coordination Sequence:
#
# PCOD8145823 Si02
#       5
#     8   8   8   4   8
#     4  11  24  45  70  96 129 169 210 267 336 393
#     4  11  23  41  65  96 133 173 216 267 316 378
#     4  11  25  43  66 100 132 162 218 274 318 386
#     4  10  24  42  66  94 134 180 218 258 320 378
#     4  10  22  40  60  88 127 170 218 266 307 364
#
# _framework density 22.373325999999999
#
# number of rings (size 3 to 8) (size 9 to 14) (size 15 to 20)
#    0.000    1.333    0.000    5.333    0.000   16.889 
#    0.000    2.222    0.000    0.000    0.000    0.000 
#    0.000    0.000    0.000    0.000    0.000    0.000 
#
# Total GULP energy -223210.733088 kJ/mol
# GULP energy per Si atom -12400.596283 kJ/mol
# Density = 2.232240 g / cm^3
# Si number density = 22.373326 Si / 1000 Ang^3
#
#
#
# Elastic Constant Matrix: (Units=GPa)
#
#
# Indices 1 2 3 4 5 6 
#
# 1 109.6999 18.6855 47.5271 0.0000 -14.0664 0.0000
# 2 18.6855 121.6363 24.2239 0.0000 -2.7385 0.0000
# 3 47.5271 24.2239 93.6061 0.0000 -27.4821 0.0000
# 4 0.0000 0.0000 0.0000 30.8114 0.0000 0.7699
# 5 -14.0664 -2.7385 -27.4821 0.0000 42.4899 0.0000
# 6 0.0000 0.0000 0.0000 0.7699 0.0000 48.2837
#
#
#
# Elastic Compliance Matrix: (Units=1/GPa)
#
#
# Indices 1 2 3 4 5 6 
#
# 1 0.011735 -0.000654 -0.005754 0.000000 0.000122 0.000000
# 2 -0.000654 0.008746 -0.002258 0.000000 -0.001113 0.000000
# 3 -0.005754 -0.002258 0.016772 0.000000 0.008797 0.000000
# 4 0.000000 0.000000 0.000000 0.032468 0.000000 -0.000518
# 5 0.000122 -0.001113 0.008797 0.000000 0.029194 0.000000
# 6 0.000000 0.000000 0.000000 -0.000518 0.000000 0.020719
#
#
# Mechanical properties :
#
#
# Convention : Reuss Voigt Hill
#
# Bulk Modulus (GPa) = 50.19667 56.20169 53.19918
# Shear Modulus (GPa) = 34.81723 39.95073 37.38398
#
# Velocity S-wave (km/s) = 3.94914 4.23027 4.09212
# Velocity P-wave (km/s) = 6.57867 7.00248 6.79388
#
# Compressibility (1/GPa) = 0.01992164
#
# Stress axis : x y z
#
# Youngs Moduli (GPa) = 85.21160 114.33306 59.62469
#
# Poissons Ratio (x) = 0.07480 0.34305
# Poissons Ratio (y) = 0.05575 0.13464
# Poissons Ratio (z) = 0.49027 0.25818
#
# Static dielectric constant tensor:
#      x y z
#    x 4.684030 0.000000 -0.780720 
#    y 0.000000 4.163360 0.000000 
#    z -0.780720 0.000000 4.586860 
# 
# 
# High freq. dielectric constant tensor:
#      x y z
#    x 1.894610 0.000000 -0.022020 
#    y 0.000000 1.891970 0.000000 
#    z -0.022020 0.000000 1.877240 
# 
# From -- ./inp_files/120932.got.cif
#   From: 2010.06.25/outbox.cif.g09.slc.cpg/sg15_61_cif.got.tgz:120932.got - 2010.06.28 07:06:18.
