data_PCOD8145460
_publ_section_title
;
Structure prediction by ZEFSAII (Michael W. Deem and Ramdas Pophale) SiO2 
 PCOD8145460
Probable space group: C 2/C
;
_chemical_formula_sum "Si O2"
_cell_formula_units_Z 60
_cell_length_a 26.744260
_cell_length_b 9.425947
_cell_length_c 11.143457
_cell_angle_alpha 90.000000
_cell_angle_beta 87.802881
_cell_angle_gamma 90.000000
_cell_volume 2807.088660
_symmetry_space_group_name_H-M "C 2/C"
_symmetry_group_IT_number 15
_symmetry_cell_setting 'monoclinic'
loop_
_space_group_symop_operation_xyz
x,y,z
-x,y,1/2-z
-x,-y,-z
x,-y,1/2+z
1/2+x,1/2+y,z
1/2-x,1/2+y,1/2-z
1/2-x,1/2-y,-z
1/2+x,1/2-y,1/2+z
loop_
_atom_site_type_symbol
_atom_site_label
_atom_site_fract_x
_atom_site_fract_y
_atom_site_fract_z
Si Si1 0.341035 0.265587 0.277286
Si Si2 0.084414 0.236474 0.079055
Si Si3 0.500000 0.347899 0.750000
Si Si4 0.735546 0.841145 0.887158
Si Si5 0.367204 0.259653 0.539667
Si Si6 0.368148 0.051029 0.090056
Si Si7 0.836878 0.084263 0.266018
Si Si8 0.946022 0.982478 0.558771
O O1 0.286098 0.256838 0.219578
O O2 0.337944 0.228542 0.418699
O O3 0.377123 0.148142 0.208822
O O4 0.360725 0.426779 0.257755
O O5 0.127813 0.190600 0.165140
O O6 0.029898 0.247013 0.149243
O O7 0.098997 0.388127 0.023105
O O8 0.084334 0.125494 0.967206
O O9 0.455985 0.447819 0.698224
O O10 0.691550 0.947624 0.934262
O O11 0.783024 0.927177 0.833901
O O12 0.750000 0.750000 0.000000
O O13 0.332903 0.354702 0.631252
O O14 0.417479 0.347382 0.504499
O O15 0.383140 0.113029 0.604446
O O16 0.000000 0.000000 0.500000
#
# Coordination Sequence:
#
# PCOD8145460 Si02
#       8
#     8   8   4   8   8   8   8   8
#     4  10  26  43  65 100 137 181 241 276 339 420
#     4  11  21  42  70  96 134 177 226 292 344 420
#     4  10  22  38  70 100 130 162 232 286 356 406
#     4  10  24  42  65  99 144 184 233 290 342 410
#     4  12  25  43  70 101 134 188 228 285 362 405
#     4  10  26  42  66  96 145 180 227 281 348 413
#     4  12  23  41  72  96 138 187 236 285 340 414
#     4  10  22  40  67 100 125 169 229 286 337 422
#
# _framework density 21.374459000000002
#
# number of rings (size 3 to 8) (size 9 to 14) (size 15 to 20)
#    0.800    0.533    4.000    0.800    5.600    1.600 
#    0.000    2.667    0.000    1.600    0.000    0.000 
#    0.000    0.000    0.000    0.000    0.000    0.000 
#
# Total GULP energy -371720.855342 kJ/mol
# GULP energy per Si atom -12390.695178 kJ/mol
# Density = 2.132581 g / cm^3
# Si number density = 21.374459 Si / 1000 Ang^3
#
#
#
# Elastic Constant Matrix: (Units=GPa)
#
#
# Indices 1 2 3 4 5 6 
#
# 1 87.5165 19.2619 30.1317 0.0000 -17.2402 0.0000
# 2 19.2619 129.2066 35.6741 0.0000 -18.5081 0.0000
# 3 30.1317 35.6741 120.1612 0.0000 -2.9442 0.0000
# 4 0.0000 0.0000 0.0000 29.8706 0.0000 -6.1547
# 5 -17.2402 -18.5081 -2.9442 0.0000 46.3295 0.0000
# 6 0.0000 0.0000 0.0000 -6.1547 0.0000 24.1416
#
#
#
# Elastic Compliance Matrix: (Units=1/GPa)
#
#
# Indices 1 2 3 4 5 6 
#
# 1 0.013526 -0.000487 -0.003134 0.000000 0.004640 0.000000
# 2 -0.000487 0.008955 -0.002457 0.000000 0.003240 0.000000
# 3 -0.003134 -0.002457 0.009800 0.000000 -0.001525 0.000000
# 4 0.000000 0.000000 0.000000 0.035334 0.000000 0.009008
# 5 0.004640 0.003240 -0.001525 0.000000 0.024509 0.000000
# 6 0.000000 0.000000 0.000000 0.009008 0.000000 0.043719
#
#
# Mechanical properties :
#
#
# Convention : Reuss Voigt Hill
#
# Bulk Modulus (GPa) = 49.68627 56.33550 53.01089
# Shear Modulus (GPa) = 32.31937 36.85612 34.58775
#
# Velocity S-wave (km/s) = 3.89273 4.15698 4.02703
# Velocity P-wave (km/s) = 6.59550 7.03238 6.81744
#
# Compressibility (1/GPa) = 0.02012629
#
# Stress axis : x y z
#
# Youngs Moduli (GPa) = 73.92897 111.67432 102.03997
#
# Poissons Ratio (x) = 0.05434 0.31977
# Poissons Ratio (y) = 0.03598 0.25072
# Poissons Ratio (z) = 0.23167 0.27439
#
# Static dielectric constant tensor:
#      x y z
#    x 3.741620 0.000000 -0.574790 
#    y 0.000000 3.750470 0.000000 
#    z -0.574790 0.000000 -0.071260 
# 
# 
# High freq. dielectric constant tensor:
#      x y z
#    x 1.826370 0.000000 -0.004990 
#    y 0.000000 1.821720 0.000000 
#    z -0.004990 0.000000 1.847730 
# 
# From -- ./inp_files/125582.got.cif
#   From: 2010.06.25/outbox.cif.g09.slc.cpg/sg15_63_cif.got.tgz:125582.got - 2010.06.28 07:06:18.
