data_PCOD8145839
_publ_section_title
;
Structure prediction by ZEFSAII (Michael W. Deem and Ramdas Pophale) SiO2 
 PCOD8145839
Probable space group: C 2/C
;
_chemical_formula_sum "Si O2"
_cell_formula_units_Z 56
_cell_length_a 12.143494
_cell_length_b 31.625633
_cell_length_c 9.252983
_cell_angle_alpha 90.000000
_cell_angle_beta 132.723489
_cell_angle_gamma 90.000000
_cell_volume 2610.580951
_symmetry_space_group_name_H-M "C 2/C"
_symmetry_group_IT_number 15
_symmetry_cell_setting 'monoclinic'
loop_
_space_group_symop_operation_xyz
x,y,z
-x,y,1/2-z
-x,-y,-z
x,-y,1/2+z
1/2+x,1/2+y,z
1/2-x,1/2+y,1/2-z
1/2-x,1/2-y,-z
1/2+x,1/2-y,1/2+z
loop_
_atom_site_type_symbol
_atom_site_label
_atom_site_fract_x
_atom_site_fract_y
_atom_site_fract_z
Si Si1 0.806079 0.621830 0.452842
Si Si2 0.656671 0.466198 0.808325
Si Si3 0.795604 0.806134 0.811888
Si Si4 0.653316 0.543359 0.973532
Si Si5 0.822077 0.133880 0.579691
Si Si6 0.624765 0.851304 0.169344
Si Si7 0.504345 0.764210 0.425899
O O1 0.764480 0.573238 0.426287
O O2 0.682560 0.651151 0.263718
O O3 0.815554 0.641341 0.618646
O O4 0.963473 0.626023 0.506952
O O5 0.500000 0.457884 0.750000
O O6 0.739207 0.506907 0.956554
O O7 0.628891 0.473796 0.613669
O O8 0.668152 0.775403 0.633700
O O9 0.949897 0.779619 0.949722
O O10 0.760665 0.824556 0.940817
O O11 0.500000 0.549343 0.750000
O O12 0.728832 0.589903 0.045325
O O13 0.746745 0.130763 0.668513
O O14 0.000000 0.137694 0.750000
O O15 0.608312 0.801351 0.128715
O O16 0.500000 0.759009 0.250000
#
# Coordination Sequence:
#
# PCOD8145839 Si02
#       7
#     8   8   8   8   8   8   8
#     4  10  22  42  69  95 126 179 223 269 342 397
#     4  11  22  38  68  99 132 173 223 278 332 404
#     4  11  24  44  65  98 135 176 229 273 343 400
#     4  10  22  40  61 100 133 171 217 280 344 383
#     4  11  26  43  67  98 136 177 223 283 341 406
#     4  10  23  44  65  91 136 177 219 280 336 399
#     4  11  23  42  69  98 132 179 226 290 332 394
#
# _framework density 21.451165
#
# number of rings (size 3 to 8) (size 9 to 14) (size 15 to 20)
#    0.000    1.429    4.286    2.143    8.000    3.429 
#    0.000    0.714    0.000    0.000    0.000    0.000 
#    0.000    0.000    0.000    0.000    0.000    0.000 
#
# Total GULP energy -347030.569094 kJ/mol
# GULP energy per Si atom -12393.948896 kJ/mol
# Density = 2.140234 g / cm^3
# Si number density = 21.451165 Si / 1000 Ang^3
#
#
#
# Elastic Constant Matrix: (Units=GPa)
#
#
# Indices 1 2 3 4 5 6 
#
# 1 118.1771 47.6508 27.8591 0.0000 -19.9317 0.0000
# 2 47.6508 136.3096 17.7950 0.0000 5.3981 0.0000
# 3 27.8591 17.7950 62.0950 0.0000 -11.4020 0.0000
# 4 0.0000 0.0000 0.0000 23.9905 0.0000 -16.6285
# 5 -19.9317 5.3981 -11.4020 0.0000 24.8433 0.0000
# 6 0.0000 0.0000 0.0000 -16.6285 0.0000 15.9524
#
#
#
# Elastic Compliance Matrix: (Units=1/GPa)
#
#
# Indices 1 2 3 4 5 6 
#
# 1 0.012503 -0.004429 -0.002535 0.000000 0.009830 0.000000
# 2 -0.004429 0.009387 -0.001889 0.000000 -0.006460 0.000000
# 3 -0.002535 -0.001889 0.019094 0.000000 0.007140 0.000000
# 4 0.000000 0.000000 0.000000 0.150213 0.000000 0.156580
# 5 0.009830 -0.006460 0.007140 0.000000 0.052820 0.000000
# 6 0.000000 0.000000 0.000000 0.156580 0.000000 0.225902
#
#
# Mechanical properties :
#
#
# Convention : Reuss Voigt Hill
#
# Bulk Modulus (GPa) = 42.96029 55.91016 49.43523
# Shear Modulus (GPa) = 10.09312 27.84235 18.96774
#
# Velocity S-wave (km/s) = 2.17149 3.60660 2.97682
# Velocity P-wave (km/s) = 5.13397 6.59272 5.90854
#
# Compressibility (1/GPa) = 0.02327731
#
# Stress axis : x y z
#
# Youngs Moduli (GPa) = 79.97776 106.52947 52.37168
#
# Poissons Ratio (x) = 0.47185 0.13278
# Poissons Ratio (y) = 0.35424 0.09894
# Poissons Ratio (z) = 0.20277 0.20125
#
# Static dielectric constant tensor:
#      x y z
#    x 3.686140 0.000000 -0.048380 
#    y 0.000000 4.540240 0.000000 
#    z -0.048380 0.000000 3.935440 
# 
# 
# High freq. dielectric constant tensor:
#      x y z
#    x 1.815320 0.000000 -0.018690 
#    y 0.000000 1.860670 0.000000 
#    z -0.018690 0.000000 1.842950 
# 
# From -- ./inp_files/35786.got.cif
#   From: 2010.06.25/outbox.cif.g09.slc.cpg/sg15_18_cif.got.tgz:35786.got - 2010.06.28 07:06:18.
