data_PCOD8145329
_publ_section_title
;
Structure prediction by ZEFSAII (Michael W. Deem and Ramdas Pophale) SiO2 
 PCOD8145329
Probable space group: C 2/C
;
_chemical_formula_sum "Si O2"
_cell_formula_units_Z 44
_cell_length_a 12.132998
_cell_length_b 18.170786
_cell_length_c 13.159932
_cell_angle_alpha 90.000000
_cell_angle_beta 127.875218
_cell_angle_gamma 90.000000
_cell_volume 2290.155315
_symmetry_space_group_name_H-M "C 2/C"
_symmetry_group_IT_number 15
_symmetry_cell_setting 'monoclinic'
loop_
_space_group_symop_operation_xyz
x,y,z
-x,y,1/2-z
-x,-y,-z
x,-y,1/2+z
1/2+x,1/2+y,z
1/2-x,1/2+y,1/2-z
1/2-x,1/2-y,-z
1/2+x,1/2-y,1/2+z
loop_
_atom_site_type_symbol
_atom_site_label
_atom_site_fract_x
_atom_site_fract_y
_atom_site_fract_z
Si Si1 0.706655 0.887060 0.266448
Si Si2 0.614376 0.474135 0.985174
Si Si3 0.950095 0.604913 0.494331
Si Si4 0.500000 0.631607 0.250000
Si Si5 0.209413 0.539816 0.569613
Si Si6 0.746575 0.767764 0.616928
O O1 0.752353 0.935271 0.388002
O O2 0.782789 0.921729 0.209118
O O3 0.756250 0.803832 0.313747
O O4 0.538753 0.891737 0.151260
O O5 0.541902 0.418065 0.868282
O O6 0.682057 0.543697 0.962588
O O7 0.500000 0.500000 0.000000
O O8 0.822278 0.547215 0.428502
O O9 0.892489 0.685585 0.436852
O O10 0.058931 0.580023 0.466290
O O11 0.621541 0.683767 0.277713
O O12 0.750000 0.750000 0.500000
#
# Coordination Sequence:
#
# PCOD8145329 Si02
#       6
#     8   8   8   4   8   8
#     4  10  22  38  63  95 121 163 203 262 325 366
#     4  12  24  38  64  92 126 164 205 261 313 370
#     4   9  20  40  61  90 128 158 207 263 314 370
#     4  12  24  38  58  96 126 152 212 258 312 378
#     4   9  20  41  60  91 126 157 209 256 308 378
#     4  12  21  37  62  95 125 163 205 265 316 376
#
# _framework density 19.212672000000001
#
# number of rings (size 3 to 8) (size 9 to 14) (size 15 to 20)
#    1.091    0.364    3.636    2.182    0.000    2.182 
#    0.000    0.000    0.000    6.545    0.000    0.000 
#    0.000    0.000    0.000    0.000    0.000    0.000 
#
# Total GULP energy -272583.061002 kJ/mol
# GULP energy per Si atom -12390.139136 kJ/mol
# Density = 1.916894 g / cm^3
# Si number density = 19.212672 Si / 1000 Ang^3
#
#
#
# Elastic Constant Matrix: (Units=GPa)
#
#
# Indices 1 2 3 4 5 6 
#
# 1 108.1101 54.9052 46.6199 0.0000 -14.1226 0.0000
# 2 54.9052 130.4224 65.1902 0.0000 -8.3306 0.0000
# 3 46.6199 65.1902 118.2576 0.0000 1.9319 0.0000
# 4 0.0000 0.0000 0.0000 39.0622 0.0000 10.5008
# 5 -14.1226 -8.3306 1.9319 0.0000 25.7025 0.0000
# 6 0.0000 0.0000 0.0000 10.5008 0.0000 23.4908
#
#
#
# Elastic Compliance Matrix: (Units=1/GPa)
#
#
# Indices 1 2 3 4 5 6 
#
# 1 0.013351 -0.003484 -0.003448 0.000000 0.006466 0.000000
# 2 -0.003484 0.011892 -0.005220 0.000000 0.002333 0.000000
# 3 -0.003448 -0.005220 0.012768 0.000000 -0.004546 0.000000
# 4 0.000000 0.000000 0.000000 0.029097 0.000000 -0.013007
# 5 0.006466 0.002333 -0.004546 0.000000 0.043557 0.000000
# 6 0.000000 0.000000 0.000000 -0.013007 0.000000 0.048384
#
#
# Mechanical properties :
#
#
# Convention : Reuss Voigt Hill
#
# Bulk Modulus (GPa) = 72.96304 76.69118 74.82711
# Shear Modulus (GPa) = 26.60668 30.32273 28.46471
#
# Velocity S-wave (km/s) = 3.72540 3.97705 3.85328
# Velocity P-wave (km/s) = 7.52089 7.81619 7.66996
#
# Compressibility (1/GPa) = 0.01370557
#
# Stress axis : x y z
#
# Youngs Moduli (GPa) = 74.90198 84.08744 78.32310
#
# Poissons Ratio (x) = 0.29294 0.27009
# Poissons Ratio (y) = 0.26094 0.40888
# Poissons Ratio (z) = 0.25829 0.43898
#
# Static dielectric constant tensor:
#      x y z
#    x 3.424740 0.000000 0.130920 
#    y 0.000000 3.609950 0.000000 
#    z 0.130920 0.000000 3.625500 
# 
# 
# High freq. dielectric constant tensor:
#      x y z
#    x 1.729470 0.000000 0.021550 
#    y 0.000000 1.742940 0.000000 
#    z 0.021550 0.000000 1.746880 
# 
# From -- ./inp_files/87949.got.cif
#   From: 2010.06.25/outbox.cif.g09.slc.cpg/sg15_44_cif.got.tgz:87949.got - 2010.06.28 07:06:18.
