data_PCOD8145140
_publ_section_title
;
Structure prediction by ZEFSAII (Michael W. Deem and Ramdas Pophale) SiO2 
 PCOD8145140
Probable space group: C 2/C
;
_chemical_formula_sum "Si O2"
_cell_formula_units_Z 56
_cell_length_a 14.825212
_cell_length_b 11.865454
_cell_length_c 15.572146
_cell_angle_alpha 90.000000
_cell_angle_beta 111.479325
_cell_angle_gamma 90.000000
_cell_volume 2549.020569
_symmetry_space_group_name_H-M "C 2/C"
_symmetry_group_IT_number 15
_symmetry_cell_setting 'monoclinic'
loop_
_space_group_symop_operation_xyz
x,y,z
-x,y,1/2-z
-x,-y,-z
x,-y,1/2+z
1/2+x,1/2+y,z
1/2-x,1/2+y,1/2-z
1/2-x,1/2-y,-z
1/2+x,1/2-y,1/2+z
loop_
_atom_site_type_symbol
_atom_site_label
_atom_site_fract_x
_atom_site_fract_y
_atom_site_fract_z
Si Si1 0.608603 0.040881 0.138631
Si Si2 0.940327 0.948636 0.382376
Si Si3 0.585601 0.093619 0.941165
Si Si4 0.721971 0.970272 0.340103
Si Si5 0.758749 0.219899 0.405228
Si Si6 0.469405 0.316846 0.934406
Si Si7 0.410639 0.253997 0.264379
O O1 0.616062 0.172690 0.165913
O O2 0.501777 0.989554 0.113500
O O3 0.679075 0.970484 0.227340
O O4 0.635916 0.043082 0.045966
O O5 0.830582 0.924090 0.376660
O O6 0.956386 0.873679 0.305057
O O7 0.013968 0.894602 0.476466
O O8 0.960488 0.079892 0.362442
O O9 0.658421 0.102188 0.885738
O O10 0.548923 0.222747 0.942089
O O11 0.722560 0.093695 0.379659
O O12 0.750000 0.250000 0.500000
O O13 0.866507 0.246385 0.408518
O O14 0.681934 0.291017 0.324088
O O15 0.500000 0.188619 0.250000
#
# Coordination Sequence:
#
# PCOD8145140 Si02
#       7
#     8   8   8   8   8   8   8
#     4  10  22  39  63  96 127 158 220 276 329 377
#     4  10  22  42  62  88 135 171 217 270 323 401
#     4  11  22  38  69  93 130 173 212 275 336 395
#     4  10  23  40  60  97 131 171 215 279 327 390
#     4  10  22  37  64  91 124 167 222 275 328 386
#     4  10  22  41  61  90 128 174 211 262 333 402
#     4  11  21  39  66  92 123 168 223 275 320 383
#
# _framework density 21.969221000000001
#
# number of rings (size 3 to 8) (size 9 to 14) (size 15 to 20)
#    0.000    1.714    1.429    3.000    6.000    0.571 
#    0.000    1.429    0.000    0.000    0.000    0.000 
#    0.000    0.000    0.000    0.000    0.000    0.000 
#
# Total GULP energy -346879.538639 kJ/mol
# GULP energy per Si atom -12388.554951 kJ/mol
# Density = 2.191922 g / cm^3
# Si number density = 21.969221 Si / 1000 Ang^3
#
#
#
# Elastic Constant Matrix: (Units=GPa)
#
#
# Indices 1 2 3 4 5 6 
#
# 1 64.2588 7.9500 21.8250 0.0000 7.8553 0.0000
# 2 7.9500 65.8710 24.0657 0.0000 -9.0578 0.0000
# 3 21.8250 24.0657 123.1135 0.0000 6.4873 0.0000
# 4 0.0000 0.0000 0.0000 28.2679 0.0000 -0.4630
# 5 7.8553 -9.0578 6.4873 0.0000 27.7992 0.0000
# 6 0.0000 0.0000 0.0000 -0.4630 0.0000 25.2640
#
#
#
# Elastic Compliance Matrix: (Units=1/GPa)
#
#
# Indices 1 2 3 4 5 6 
#
# 1 0.017218 -0.001865 -0.002429 0.000000 -0.004906 0.000000
# 2 -0.001865 0.017659 -0.003495 0.000000 0.007097 0.000000
# 3 -0.002429 -0.003495 0.009376 0.000000 -0.002640 0.000000
# 4 0.000000 0.000000 0.000000 0.035386 0.000000 0.000649
# 5 -0.004906 0.007097 -0.002640 0.000000 0.040287 0.000000
# 6 0.000000 0.000000 0.000000 0.000649 0.000000 0.039594
#
#
# Mechanical properties :
#
#
# Convention : Reuss Voigt Hill
#
# Bulk Modulus (GPa) = 34.87574 40.10274 37.48924
# Shear Modulus (GPa) = 27.07732 29.55973 28.31852
#
# Velocity S-wave (km/s) = 3.51452 3.67209 3.59417
# Velocity P-wave (km/s) = 5.69021 6.02268 5.85880
#
# Compressibility (1/GPa) = 0.02867323
#
# Stress axis : x y z
#
# Youngs Moduli (GPa) = 58.08008 56.62801 106.66008
#
# Poissons Ratio (x) = 0.10562 0.25909
# Poissons Ratio (y) = 0.10833 0.37280
# Poissons Ratio (z) = 0.14109 0.19793
#
# Static dielectric constant tensor:
#      x y z
#    x 3.905280 0.000000 0.447810 
#    y 0.000000 4.226260 0.000000 
#    z 0.447810 0.000000 4.596390 
# 
# 
# High freq. dielectric constant tensor:
#      x y z
#    x 1.840880 0.000000 0.014060 
#    y 0.000000 1.866080 0.000000 
#    z 0.014060 0.000000 1.876230 
# 
# From -- ./inp_files/210674.got.cif
#   From: 2010.06.25/outbox.cif.g09.slc.cpg/sg15_106_cif.got.tgz:210674.got - 2010.06.28 07:06:18.
