data_PCOD8145868
_publ_section_title
;
Structure prediction by ZEFSAII (Michael W. Deem and Ramdas Pophale) SiO2 
 PCOD8145868
Probable space group: C 2/C
;
_chemical_formula_sum "Si O2"
_cell_formula_units_Z 40
_cell_length_a 5.125075
_cell_length_b 22.885371
_cell_length_c 14.120968
_cell_angle_alpha 90.000000
_cell_angle_beta 78.910448
_cell_angle_gamma 90.000000
_cell_volume 1625.311968
_symmetry_space_group_name_H-M "C 2/C"
_symmetry_group_IT_number 15
_symmetry_cell_setting 'monoclinic'
loop_
_space_group_symop_operation_xyz
x,y,z
-x,y,1/2-z
-x,-y,-z
x,-y,1/2+z
1/2+x,1/2+y,z
1/2-x,1/2+y,1/2-z
1/2-x,1/2-y,-z
1/2+x,1/2-y,1/2+z
loop_
_atom_site_type_symbol
_atom_site_label
_atom_site_fract_x
_atom_site_fract_y
_atom_site_fract_z
Si Si1 0.563256 0.229042 0.638700
Si Si2 0.562670 0.194961 0.138145
Si Si3 0.387591 0.120002 0.995322
Si Si4 0.455326 0.982710 0.151944
Si Si5 0.480263 0.460794 0.592132
O O1 0.500000 0.211027 0.750000
O O2 0.314744 0.262997 0.611244
O O3 0.636439 0.170072 0.580344
O O4 0.813520 0.270856 0.611974
O O5 0.500000 0.175283 0.250000
O O6 0.587244 0.138936 0.066948
O O7 0.504808 0.061778 0.938402
O O8 0.096168 0.104107 0.060211
O O9 0.500000 0.949697 0.250000
O O10 0.165416 0.011250 0.162061
O O11 0.669913 0.036512 0.141747
O O12 0.500000 0.500000 0.500000
#
# Coordination Sequence:
#
# PCOD8145868 Si02
#       5
#     8   8   8   8   8
#     4  10  22  40  61  92 128 164 207 261 316 378
#     4  10  23  40  60  91 130 165 209 262 317 378
#     4  11  22  40  67  93 122 169 215 258 317 383
#     4  11  24  43  64  93 130 168 213 269 322 380
#     4  10  23  41  62  91 127 164 211 266 320 379
#
# _framework density 24.610661
#
# number of rings (size 3 to 8) (size 9 to 14) (size 15 to 20)
#    0.000    1.600    0.000    4.800    0.000   10.400 
#    0.000   12.000    0.000    0.000    0.000    0.000 
#    0.000    0.000    0.000    0.000    0.000    0.000 
#
# Total GULP energy -247882.433229 kJ/mol
# GULP energy per Si atom -12394.121661 kJ/mol
# Density = 2.455465 g / cm^3
# Si number density = 24.610661 Si / 1000 Ang^3
#
#
#
# Elastic Constant Matrix: (Units=GPa)
#
#
# Indices 1 2 3 4 5 6 
#
# 1 127.8663 36.4617 42.3574 0.0000 11.5795 0.0000
# 2 36.4617 118.9389 66.4008 0.0000 7.5519 0.0000
# 3 42.3574 66.4008 88.6668 0.0000 18.9915 0.0000
# 4 0.0000 0.0000 0.0000 36.7002 0.0000 -4.0249
# 5 11.5795 7.5519 18.9915 0.0000 31.2969 0.0000
# 6 0.0000 0.0000 0.0000 -4.0249 0.0000 14.5684
#
#
#
# Elastic Compliance Matrix: (Units=1/GPa)
#
#
# Indices 1 2 3 4 5 6 
#
# 1 0.009348 -0.000741 -0.003688 0.000000 -0.001042 0.000000
# 2 -0.000741 0.014856 -0.011566 0.000000 0.003708 0.000000
# 3 -0.003688 -0.011566 0.023920 0.000000 -0.010360 0.000000
# 4 0.000000 0.000000 0.000000 0.028099 0.000000 0.007763
# 5 -0.001042 0.003708 -0.010360 0.000000 0.037730 0.000000
# 6 0.000000 0.000000 0.000000 0.007763 0.000000 0.070786
#
#
# Mechanical properties :
#
#
# Convention : Reuss Voigt Hill
#
# Bulk Modulus (GPa) = 61.97363 69.54576 65.75969
# Shear Modulus (GPa) = 22.51168 29.19656 25.85412
#
# Velocity S-wave (km/s) = 3.02770 3.44806 3.24470
# Velocity P-wave (km/s) = 6.12037 6.64620 6.38869
#
# Compressibility (1/GPa) = 0.01613590
#
# Stress axis : x y z
#
# Youngs Moduli (GPa) = 106.97631 67.31149 41.80553
#
# Poissons Ratio (x) = 0.04986 0.15416
# Poissons Ratio (y) = 0.07924 0.48352
# Poissons Ratio (z) = 0.39449 0.77852
#
# Static dielectric constant tensor:
#      x y z
#    x 5.427390 0.000000 -0.390970 
#    y 0.000000 4.556180 0.000000 
#    z -0.390970 0.000000 5.066830 
# 
# 
# High freq. dielectric constant tensor:
#      x y z
#    x 1.986780 0.000000 0.011570 
#    y 0.000000 1.965460 0.000000 
#    z 0.011570 0.000000 1.998260 
# 
# From -- ./inp_files/129122.got.cif
#   From: 2010.06.25/outbox.cif.g09.slc.cpg/sg15_65_cif.got.tgz:129122.got - 2010.06.28 07:06:18.
