data_PCOD8145881
_publ_section_title
;
Structure prediction by ZEFSAII (Michael W. Deem and Ramdas Pophale) SiO2 
 PCOD8145881
Probable space group: C 2/C
;
_chemical_formula_sum "Si O2"
_cell_formula_units_Z 48
_cell_length_a 26.500375
_cell_length_b 8.578325
_cell_length_c 20.482248
_cell_angle_alpha 90.000000
_cell_angle_beta 29.990804
_cell_angle_gamma 90.000000
_cell_volume 2327.455500
_symmetry_space_group_name_H-M "C 2/C"
_symmetry_group_IT_number 15
_symmetry_cell_setting 'monoclinic'
loop_
_space_group_symop_operation_xyz
x,y,z
-x,y,1/2-z
-x,-y,-z
x,-y,1/2+z
1/2+x,1/2+y,z
1/2-x,1/2+y,1/2-z
1/2-x,1/2-y,-z
1/2+x,1/2-y,1/2+z
loop_
_atom_site_type_symbol
_atom_site_label
_atom_site_fract_x
_atom_site_fract_y
_atom_site_fract_z
Si Si1 0.651759 0.670750 0.793926
Si Si2 0.975694 0.330234 0.053321
Si Si3 0.000000 0.034989 0.250000
Si Si4 0.418218 0.204970 0.933143
Si Si5 0.642666 0.715584 0.651876
Si Si6 0.000000 0.457628 0.750000
Si Si7 0.271298 0.326606 0.767303
O O1 0.663706 0.692687 0.704152
O O2 0.685923 0.500150 0.777722
O O3 0.718355 0.801286 0.756578
O O4 0.536101 0.698483 0.944835
O O5 0.858198 0.300674 0.176131
O O6 0.999851 0.320417 0.102471
O O7 0.000000 0.500000 0.000000
O O8 0.945075 0.134882 0.367174
O O9 0.909717 0.936937 0.319167
O O10 0.422674 0.062008 0.877894
O O11 0.305847 0.208839 0.087564
O O12 0.750000 0.750000 0.500000
O O13 0.566203 0.857659 0.726023
#
# Coordination Sequence:
#
# PCOD8145881 Si02
#       7
#     8   8   4   8   8   4   8
#     4  11  24  40  62  93 123 159 205 252 304 361
#     4  11  23  40  64  93 124 159 200 254 308 361
#     4  10  24  42  62  90 124 160 204 252 296 358
#     4  10  22  41  63  90 121 160 203 247 301 358
#     4  11  24  41  63  90 122 162 202 246 304 362
#     4  10  22  40  62  88 124 158 200 252 294 356
#     4  11  23  41  64  90 122 161 204 252 305 363
#
# _framework density 20.623380999999998
#
# number of rings (size 3 to 8) (size 9 to 14) (size 15 to 20)
#    0.000    1.333    0.000    5.500    0.000    9.333 
#    0.000    4.167    0.000    0.000    0.000    0.000 
#    0.000    0.000    0.000    0.000    0.000    0.000 
#
# Total GULP energy -297700.605215 kJ/mol
# GULP energy per Si atom -12404.191884 kJ/mol
# Density = 2.057644 g / cm^3
# Si number density = 20.623381 Si / 1000 Ang^3
#
#
#
# Elastic Constant Matrix: (Units=GPa)
#
#
# Indices 1 2 3 4 5 6 
#
# 1 135.1097 67.6500 67.9515 0.0021 16.4557 0.0034
# 2 67.6500 149.3979 73.5249 -0.0004 5.7970 0.0078
# 3 67.9515 73.5249 133.9973 -0.0027 -9.5086 0.0037
# 4 0.0021 -0.0004 -0.0027 29.5427 0.0025 -3.5046
# 5 16.4557 5.7970 -9.5086 0.0025 39.1425 -0.0025
# 6 0.0034 0.0078 0.0037 -3.5046 -0.0025 32.9318
#
#
#
# Elastic Compliance Matrix: (Units=1/GPa)
#
#
# Indices 1 2 3 4 5 6 
#
# 1 0.012002 -0.002751 -0.004992 -0.000001 -0.005851 -0.000001
# 2 -0.002751 0.010073 -0.004229 0.000000 -0.001363 -0.000002
# 3 -0.004992 -0.004229 0.012728 0.000001 0.005817 0.000001
# 4 -0.000001 0.000000 0.000001 0.034282 -0.000001 0.003648
# 5 -0.005851 -0.001363 0.005817 -0.000001 0.029622 0.000002
# 6 -0.000001 -0.000002 0.000001 0.003648 0.000002 0.030754
#
#
# Mechanical properties :
#
#
# Convention : Reuss Voigt Hill
#
# Bulk Modulus (GPa) = 92.08925 92.97307 92.53116
# Shear Modulus (GPa) = 31.84196 34.28197 33.06196
#
# Velocity S-wave (km/s) = 3.93361 4.08154 4.00825
# Velocity P-wave (km/s) = 8.08584 8.20921 8.14776
#
# Compressibility (1/GPa) = 0.01085903
#
# Stress axis : x y z
#
# Youngs Moduli (GPa) = 83.31822 99.27234 78.56905
#
# Poissons Ratio (x) = 0.27309 0.39223
# Poissons Ratio (y) = 0.22920 0.33226
# Poissons Ratio (z) = 0.41594 0.41982
#
# Static dielectric constant tensor:
#      x y z
#    x 3.994700 0.000110 -0.110230 
#    y 0.000110 4.127860 0.000030 
#    z -0.110230 0.000030 3.642910 
# 
# 
# High freq. dielectric constant tensor:
#      x y z
#    x 1.817850 0.000000 -0.000340 
#    y 0.000000 1.820220 0.000000 
#    z -0.000340 0.000000 1.816170 
# 
# From -- ./inp_files/166175.got.cif
#   From: 2010.06.25/outbox.cif.g09.slc.cpg/sg15_84_cif.got.tgz:166175.got - 2010.06.28 07:06:18.
