data_PCOD8145705
_publ_section_title
;
Structure prediction by ZEFSAII (Michael W. Deem and Ramdas Pophale) SiO2 
 PCOD8145705
Probable space group: C 2/C
;
_chemical_formula_sum "Si O2"
_cell_formula_units_Z 64
_cell_length_a 17.265094
_cell_length_b 9.668690
_cell_length_c 31.894099
_cell_angle_alpha 90.000000
_cell_angle_beta 37.392908
_cell_angle_gamma 90.000000
_cell_volume 3233.211495
_symmetry_space_group_name_H-M "C 2/C"
_symmetry_group_IT_number 15
_symmetry_cell_setting 'monoclinic'
loop_
_space_group_symop_operation_xyz
x,y,z
-x,y,1/2-z
-x,-y,-z
x,-y,1/2+z
1/2+x,1/2+y,z
1/2-x,1/2+y,1/2-z
1/2-x,1/2-y,-z
1/2+x,1/2-y,1/2+z
loop_
_atom_site_type_symbol
_atom_site_label
_atom_site_fract_x
_atom_site_fract_y
_atom_site_fract_z
Si Si1 0.719078 0.163622 0.555336
Si Si2 0.163953 0.346959 0.431598
Si Si3 0.535616 0.863509 0.283139
Si Si4 0.742562 0.352720 0.695919
Si Si5 0.785928 0.655281 0.446728
Si Si6 0.630750 0.155034 0.447025
Si Si7 0.124788 0.875931 0.224285
Si Si8 0.423347 0.858911 0.694535
O O1 0.750000 0.250000 0.500000
O O2 0.574193 0.174690 0.635470
O O3 0.804826 0.222588 0.555397
O O4 0.758135 0.004264 0.530342
O O5 0.218875 0.224665 0.435985
O O6 0.174334 0.503682 0.446143
O O7 0.244816 0.337484 0.354719
O O8 0.018416 0.320180 0.482622
O O9 0.500000 0.831719 0.250000
O O10 0.664016 0.784218 0.240444
O O11 0.573284 0.023876 0.271100
O O12 0.834061 0.330905 0.616795
O O13 0.632085 0.465258 0.735113
O O14 0.830985 0.399942 0.696242
O O15 0.750000 0.750000 0.500000
O O16 0.936489 0.663669 0.382597
O O17 0.122957 0.783917 0.266243
O O18 0.000000 0.850983 0.250000
#
# Coordination Sequence:
#
# PCOD8145705 Si02
#       8
#     8   8   8   8   8   8   8   8
#     4  11  25  41  67  96 132 176 226 275 329 404
#     4  10  22  39  66  88 128 173 211 269 328 391
#     4  11  23  43  68  92 134 178 217 274 339 389
#     4  11  23  39  65  97 129 171 219 274 324 389
#     4  11  23  41  63  90 129 173 216 264 333 392
#     4  10  22  42  63  93 133 172 219 270 334 391
#     4  11  22  39  64  94 125 168 220 265 318 393
#     4  11  24  40  64  96 132 166 220 271 331 384
#
# _framework density 19.794560000000001
#
# number of rings (size 3 to 8) (size 9 to 14) (size 15 to 20)
#    0.000    1.250    2.500    3.000    3.500    7.500 
#    0.000    2.500    0.000    0.000    0.000    0.000 
#    0.000    0.000    0.000    0.000    0.000    0.000 
#
# Total GULP energy -396749.074592 kJ/mol
# GULP energy per Si atom -12398.408581 kJ/mol
# Density = 1.974951 g / cm^3
# Si number density = 19.794560 Si / 1000 Ang^3
#
#
#
# Elastic Constant Matrix: (Units=GPa)
#
#
# Indices 1 2 3 4 5 6 
#
# 1 99.3981 38.7562 36.9304 -0.0019 -2.0739 -0.0067
# 2 38.7562 111.7370 43.0508 -0.0030 -4.6465 -0.0028
# 3 36.9304 43.0508 80.9022 0.0022 -9.7391 -0.0005
# 4 -0.0019 -0.0030 0.0022 35.3532 0.0005 6.8285
# 5 -2.0739 -4.6465 -9.7391 0.0005 33.2381 -0.0016
# 6 -0.0067 -0.0028 -0.0005 6.8285 -0.0016 25.3639
#
#
#
# Elastic Compliance Matrix: (Units=1/GPa)
#
#
# Indices 1 2 3 4 5 6 
#
# 1 0.012776 -0.002742 -0.004481 0.000000 -0.000899 0.000003
# 2 -0.002742 0.011847 -0.005052 0.000001 0.000005 0.000000
# 3 -0.004481 -0.005052 0.017596 -0.000002 0.004170 -0.000001
# 4 0.000000 0.000001 -0.000002 0.029838 -0.000001 -0.008033
# 5 -0.000899 0.000005 0.004170 -0.000001 0.031252 0.000002
# 6 0.000003 0.000000 -0.000001 -0.008033 0.000002 0.041589
#
#
# Mechanical properties :
#
#
# Convention : Reuss Voigt Hill
#
# Bulk Modulus (GPa) = 56.59558 58.83469 57.71513
# Shear Modulus (GPa) = 28.51622 30.34436 29.43029
#
# Velocity S-wave (km/s) = 3.79965 3.91956 3.86007
# Velocity P-wave (km/s) = 6.92123 7.09021 7.00623
#
# Compressibility (1/GPa) = 0.01766922
#
# Stress axis : x y z
#
# Youngs Moduli (GPa) = 78.27247 84.40640 56.82971
#
# Poissons Ratio (x) = 0.23147 0.25465
# Poissons Ratio (y) = 0.21465 0.28711
# Poissons Ratio (z) = 0.35073 0.42643
#
# Static dielectric constant tensor:
#      x y z
#    x 3.407910 -0.000010 -0.058940 
#    y -0.000010 3.923060 0.000000 
#    z -0.058940 0.000000 3.765110 
# 
# 
# High freq. dielectric constant tensor:
#      x y z
#    x 1.768810 0.000000 -0.004170 
#    y 0.000000 1.783300 0.000000 
#    z -0.004170 0.000000 1.783000 
# 
# From -- ./inp_files/315666.got.cif
#   From: 2010.06.25/outbox.cif.g09.slc.cpg/sg15_158_cif.got.tgz:315666.got - 2010.06.28 07:06:18.
