data_PCOD8145691
_publ_section_title
;
Structure prediction by ZEFSAII (Michael W. Deem and Ramdas Pophale) SiO2 
 PCOD8145691
Probable space group: C 2/C
;
_chemical_formula_sum "Si O2"
_cell_formula_units_Z 56
_cell_length_a 26.286887
_cell_length_b 18.112544
_cell_length_c 7.703863
_cell_angle_alpha 90.000000
_cell_angle_beta 42.821745
_cell_angle_gamma 90.000000
_cell_volume 2493.199515
_symmetry_space_group_name_H-M "C 2/C"
_symmetry_group_IT_number 15
_symmetry_cell_setting 'monoclinic'
loop_
_space_group_symop_operation_xyz
x,y,z
-x,y,1/2-z
-x,-y,-z
x,-y,1/2+z
1/2+x,1/2+y,z
1/2-x,1/2+y,1/2-z
1/2-x,1/2-y,-z
1/2+x,1/2-y,1/2+z
loop_
_atom_site_type_symbol
_atom_site_label
_atom_site_fract_x
_atom_site_fract_y
_atom_site_fract_z
Si Si1 0.000000 0.704490 0.750000
Si Si2 0.845791 0.076048 0.711508
Si Si3 0.000000 0.826773 0.250000
Si Si4 0.916299 0.432957 0.937210
Si Si5 0.393890 0.905583 0.373414
Si Si6 0.613413 0.722559 0.725967
Si Si7 0.571526 0.447722 0.835113
Si Si8 0.186890 0.365770 0.590446
O O1 0.962214 0.652426 0.699296
O O2 0.063950 0.755925 0.514029
O O3 0.859898 0.138325 0.821370
O O4 0.904872 0.084133 0.408990
O O5 0.858282 0.994919 0.763792
O O6 0.762033 0.090409 0.850431
O O7 0.060109 0.773496 0.191361
O O8 0.950063 0.877132 0.500119
O O9 0.922097 0.519418 0.888588
O O10 0.879904 0.397043 0.859094
O O11 0.000000 0.401911 0.750000
O O12 0.869048 0.416809 0.233960
O O13 0.327568 0.876089 0.666536
O O14 0.685354 0.778003 0.542274
O O15 0.500000 0.500000 0.000000
#
# Coordination Sequence:
#
# PCOD8145691 Si02
#       8
#     4   8   4   8   8   8   8   8
#     4  10  22  39  65  96 124 184 228 280 352 398
#     4  12  25  46  72  99 146 176 227 299 368 429
#     4  12  24  43  73 110 132 174 248 302 346 418
#     4  12  22  39  66  95 138 180 246 291 330 401
#     4  11  22  39  64  95 136 178 231 291 333 407
#     4  11  24  44  68  98 145 181 228 287 357 430
#     4  12  23  44  76 108 126 176 243 307 359 407
#     4  11  28  44  66 103 146 195 224 275 373 434
#
# _framework density 22.461099000000001
#
# number of rings (size 3 to 8) (size 9 to 14) (size 15 to 20)
#    0.000    0.571    5.000    3.429    5.000    0.000 
#    2.571    0.714    0.000    0.000    0.000    0.000 
#    0.000    0.000    0.000    0.000    0.000    0.000 
#
# Total GULP energy -347072.558458 kJ/mol
# GULP energy per Si atom -12395.448516 kJ/mol
# Density = 2.240998 g / cm^3
# Si number density = 22.461099 Si / 1000 Ang^3
#
#
#
# Elastic Constant Matrix: (Units=GPa)
#
#
# Indices 1 2 3 4 5 6 
#
# 1 91.7681 17.0849 30.7226 0.0000 -1.8218 0.0000
# 2 17.0849 59.3401 11.8930 0.0000 -1.7414 0.0000
# 3 30.7226 11.8930 86.6762 0.0000 2.1701 0.0000
# 4 0.0000 0.0000 0.0000 25.9693 0.0000 -7.2210
# 5 -1.8218 -1.7414 2.1701 0.0000 44.5824 0.0000
# 6 0.0000 0.0000 0.0000 -7.2210 0.0000 39.0683
#
#
#
# Elastic Compliance Matrix: (Units=1/GPa)
#
#
# Indices 1 2 3 4 5 6 
#
# 1 0.012836 -0.002841 -0.004175 0.000000 0.000617 0.000000
# 2 -0.002841 0.017985 -0.001477 0.000000 0.000658 0.000000
# 3 -0.004175 -0.001477 0.013242 0.000000 -0.000873 0.000000
# 4 0.000000 0.000000 0.000000 0.040593 0.000000 0.007503
# 5 0.000617 0.000658 -0.000873 0.000000 0.022524 0.000000
# 6 0.000000 0.000000 0.000000 0.007503 0.000000 0.026983
#
#
# Mechanical properties :
#
#
# Convention : Reuss Voigt Hill
#
# Bulk Modulus (GPa) = 36.93305 39.68726 38.31015
# Shear Modulus (GPa) = 31.21578 33.79627 32.50602
#
# Velocity S-wave (km/s) = 3.73201 3.88320 3.80835
# Velocity P-wave (km/s) = 5.92025 6.14926 6.03584
#
# Compressibility (1/GPa) = 0.02707602
#
# Stress axis : x y z
#
# Youngs Moduli (GPa) = 77.90584 55.60089 75.51875
#
# Poissons Ratio (x) = 0.15795 0.31532
# Poissons Ratio (y) = 0.22131 0.11157
# Poissons Ratio (z) = 0.32529 0.08214
#
# Static dielectric constant tensor:
#      x y z
#    x 4.507290 0.000000 -0.854140 
#    y 0.000000 4.460040 0.000000 
#    z -0.854140 0.000000 5.924040 
# 
# 
# High freq. dielectric constant tensor:
#      x y z
#    x 1.878730 0.000000 0.009860 
#    y 0.000000 1.895600 0.000000 
#    z 0.009860 0.000000 1.870990 
# 
# From -- ./inp_files/70493.got.cif
#   From: 2010.06.25/outbox.cif.g09.slc.cpg/sg15_36_cif.got.tgz:70493.got - 2010.06.28 07:06:18.
