data_PCOD8145887
_publ_section_title
;
Structure prediction by ZEFSAII (Michael W. Deem and Ramdas Pophale) SiO2 
 PCOD8145887
Probable space group: C 2/C
;
_chemical_formula_sum "Si O2"
_cell_formula_units_Z 52
_cell_length_a 14.196159
_cell_length_b 8.779462
_cell_length_c 27.813434
_cell_angle_alpha 90.000000
_cell_angle_beta 134.744233
_cell_angle_gamma 90.000000
_cell_volume 2462.115514
_symmetry_space_group_name_H-M "C 2/C"
_symmetry_group_IT_number 15
_symmetry_cell_setting 'monoclinic'
loop_
_space_group_symop_operation_xyz
x,y,z
-x,y,1/2-z
-x,-y,-z
x,-y,1/2+z
1/2+x,1/2+y,z
1/2-x,1/2+y,1/2-z
1/2-x,1/2-y,-z
1/2+x,1/2-y,1/2+z
loop_
_atom_site_type_symbol
_atom_site_label
_atom_site_fract_x
_atom_site_fract_y
_atom_site_fract_z
Si Si1 0.286400 0.899947 0.645364
Si Si2 0.505287 0.409297 0.931875
Si Si3 0.482641 0.928099 0.046050
Si Si4 0.734651 0.090774 0.470011
Si Si5 0.000000 0.368466 0.250000
Si Si6 0.598577 0.340859 0.706185
Si Si7 0.753326 0.379165 0.305732
O O1 0.331594 0.892233 0.606173
O O2 0.309642 0.731044 0.676007
O O3 0.135774 0.959131 0.596912
O O4 0.371534 0.025189 0.703769
O O5 0.544105 0.250036 0.970346
O O6 0.494085 0.397595 0.870230
O O7 0.617789 0.528204 0.985003
O O8 0.613387 0.956440 0.125296
O O9 0.354881 0.989355 0.027787
O O10 0.500000 0.000000 0.000000
O O11 0.750000 0.250000 0.500000
O O12 0.003368 0.259147 0.205245
O O13 0.655599 0.485991 0.755457
O O14 0.715843 0.232233 0.728230
#
# Coordination Sequence:
#
# PCOD8145887 Si02
#       7
#     8   8   8   8   4   8   8
#     4  10  23  42  62  89 126 164 208 258 308 366
#     4  10  23  42  62  87 124 165 206 254 306 367
#     4  10  22  41  64  91 124 162 206 256 308 369
#     4  12  24  38  62  93 124 162 207 255 308 367
#     4  12  24  38  62  94 124 160 204 256 312 370
#     4  10  22  40  62  90 119 161 206 253 311 369
#     4  10  22  42  63  87 122 163 205 255 310 368
#
# _framework density 21.120048000000001
#
# number of rings (size 3 to 8) (size 9 to 14) (size 15 to 20)
#    0.000    1.846    0.000    6.462    0.000    8.000 
#    0.000    0.000    0.000    0.000    0.000    0.000 
#    0.000    0.000    0.000    0.000    0.000    0.000 
#
# Total GULP energy -322405.288261 kJ/mol
# GULP energy per Si atom -12400.203395 kJ/mol
# Density = 2.107198 g / cm^3
# Si number density = 21.120048 Si / 1000 Ang^3
#
#
#
# Elastic Constant Matrix: (Units=GPa)
#
#
# Indices 1 2 3 4 5 6 
#
# 1 109.7202 45.9497 36.8605 0.0000 -11.0276 0.0000
# 2 45.9497 118.5631 53.6333 0.0000 12.1080 0.0000
# 3 36.8605 53.6333 84.4617 0.0000 -13.5635 0.0000
# 4 0.0000 0.0000 0.0000 35.3405 0.0000 -3.0462
# 5 -11.0276 12.1080 -13.5635 0.0000 33.4020 0.0000
# 6 0.0000 0.0000 0.0000 -3.0462 0.0000 36.0596
#
#
#
# Elastic Compliance Matrix: (Units=1/GPa)
#
#
# Indices 1 2 3 4 5 6 
#
# 1 0.012006 -0.004400 -0.001661 0.000000 0.004884 0.000000
# 2 -0.004400 0.015746 -0.009872 0.000000 -0.011169 0.000000
# 3 -0.001661 -0.009872 0.020668 0.000000 0.011423 0.000000
# 4 0.000000 0.000000 0.000000 0.028504 0.000000 0.002408
# 5 0.004884 -0.011169 0.011423 0.000000 0.040238 0.000000
# 6 0.000000 0.000000 0.000000 0.002408 0.000000 0.027935
#
#
# Mechanical properties :
#
#
# Convention : Reuss Voigt Hill
#
# Bulk Modulus (GPa) = 60.41254 65.07019 62.74137
# Shear Modulus (GPa) = 27.40012 32.71385 30.05698
#
# Velocity S-wave (km/s) = 3.60578 3.93994 3.77656
# Velocity P-wave (km/s) = 6.78248 7.18151 6.98484
#
# Compressibility (1/GPa) = 0.01655285
#
# Stress axis : x y z
#
# Youngs Moduli (GPa) = 83.29291 63.50783 48.38478
#
# Poissons Ratio (x) = 0.27946 0.08036
# Poissons Ratio (y) = 0.36652 0.47766
# Poissons Ratio (z) = 0.13834 0.62695
#
# Static dielectric constant tensor:
#      x y z
#    x 3.790080 0.000000 -0.227340 
#    y 0.000000 3.885650 0.000000 
#    z -0.227340 0.000000 3.818910 
# 
# 
# High freq. dielectric constant tensor:
#      x y z
#    x 1.832490 0.000000 -0.014270 
#    y 0.000000 1.832820 0.000000 
#    z -0.014270 0.000000 1.828660 
# 
# From -- ./inp_files/242382.got.cif
#   From: 2010.06.25/outbox.cif.g09.slc.cpg/sg15_122_cif.got.tgz:242382.got - 2010.06.28 07:06:18.
