data_PCOD8145846
_publ_section_title
;
Structure prediction by ZEFSAII (Michael W. Deem and Ramdas Pophale) SiO2 
 PCOD8145846
Probable space group: C 2/C
;
_chemical_formula_sum "Si O2"
_cell_formula_units_Z 52
_cell_length_a 8.920116
_cell_length_b 10.898771
_cell_length_c 24.825775
_cell_angle_alpha 90.000000
_cell_angle_beta 91.146070
_cell_angle_gamma 90.000000
_cell_volume 2413.036863
_symmetry_space_group_name_H-M "C 2/C"
_symmetry_group_IT_number 15
_symmetry_cell_setting 'monoclinic'
loop_
_space_group_symop_operation_xyz
x,y,z
-x,y,1/2-z
-x,-y,-z
x,-y,1/2+z
1/2+x,1/2+y,z
1/2-x,1/2+y,1/2-z
1/2-x,1/2-y,-z
1/2+x,1/2-y,1/2+z
loop_
_atom_site_type_symbol
_atom_site_label
_atom_site_fract_x
_atom_site_fract_y
_atom_site_fract_z
Si Si1 0.215943 0.969871 0.179768
Si Si2 0.995631 0.676115 0.687038
Si Si3 0.985776 0.097192 0.117167
Si Si4 0.683949 0.230503 0.557819
Si Si5 0.848317 0.499340 0.885175
Si Si6 0.000000 0.148103 0.750000
Si Si7 0.091211 0.686446 0.349987
O O1 0.305242 0.097543 0.185199
O O2 0.089166 0.978844 0.131654
O O3 0.334597 0.866654 0.162581
O O4 0.143060 0.937710 0.237499
O O5 0.012497 0.815826 0.669226
O O6 0.000000 0.664910 0.750000
O O7 0.129847 0.588872 0.666413
O O8 0.816205 0.056870 0.109402
O O9 0.048968 0.170892 0.065514
O O10 0.750000 0.250000 0.500000
O O11 0.812831 0.244117 0.604101
O O12 0.622114 0.090366 0.563319
O O13 0.963974 0.387175 0.882333
O O14 0.979246 0.224116 0.694907
#
# Coordination Sequence:
#
# PCOD8145846 Si02
#       7
#     8   8   8   8   8   4   8
#     4  10  24  35  54  84 121 162 199 242 295 358
#     4  10  23  35  54  83 122 163 203 242 295 366
#     4  10  22  40  61  88 121 160 207 254 309 370
#     4  10  23  44  66  90 121 160 212 267 313 367
#     4  10  22  41  61  86 124 159 205 256 309 369
#     4  12  24  34  62  90 124 160 204 244 294 376
#     4  10  24  41  59  90 125 162 203 251 313 367
#
# _framework density 21.549610000000001
#
# number of rings (size 3 to 8) (size 9 to 14) (size 15 to 20)
#    0.000    1.846    0.000    1.846   14.000    1.231 
#    0.000    0.769    0.000    0.000    0.000    0.000 
#    0.000    0.000    0.000    0.000    0.000    0.000 
#
# Total GULP energy -322205.291330 kJ/mol
# GULP energy per Si atom -12392.511205 kJ/mol
# Density = 2.150056 g / cm^3
# Si number density = 21.549610 Si / 1000 Ang^3
#
#
#
# Elastic Constant Matrix: (Units=GPa)
#
#
# Indices 1 2 3 4 5 6 
#
# 1 134.0642 44.1955 48.1288 0.0000 -31.3826 0.0000
# 2 44.1955 77.0578 47.1428 0.0000 -16.5887 0.0000
# 3 48.1288 47.1428 119.5166 0.0000 -30.6521 0.0000
# 4 0.0000 0.0000 0.0000 26.4035 0.0000 -15.8107
# 5 -31.3826 -16.5887 -30.6521 0.0000 33.2886 0.0000
# 6 0.0000 0.0000 0.0000 -15.8107 0.0000 34.1760
#
#
#
# Elastic Compliance Matrix: (Units=1/GPa)
#
#
# Indices 1 2 3 4 5 6 
#
# 1 0.010852 -0.004110 -0.000851 0.000000 0.007398 0.000000
# 2 -0.004110 0.018898 -0.005731 0.000000 0.000265 0.000000
# 3 -0.000851 -0.005731 0.013134 0.000000 0.008435 0.000000
# 4 0.000000 0.000000 0.000000 0.052386 0.000000 0.024235
# 5 0.007398 0.000265 0.008435 0.000000 0.044914 0.000000
# 6 0.000000 0.000000 0.000000 0.024235 0.000000 0.040472
#
#
# Mechanical properties :
#
#
# Convention : Reuss Voigt Hill
#
# Bulk Modulus (GPa) = 46.51553 67.73032 57.12292
# Shear Modulus (GPa) = 23.89983 31.51837 27.70910
#
# Velocity S-wave (km/s) = 3.33387 3.82854 3.58974
# Velocity P-wave (km/s) = 6.03753 7.14435 6.61414
#
# Compressibility (1/GPa) = 0.02149820
#
# Stress axis : x y z
#
# Youngs Moduli (GPa) = 92.15309 52.91584 76.14021
#
# Poissons Ratio (x) = 0.21750 0.06481
# Poissons Ratio (y) = 0.37878 0.43635
# Poissons Ratio (z) = 0.07844 0.30326
#
# Static dielectric constant tensor:
#      x y z
#    x 4.229300 0.000000 -0.360440 
#    y 0.000000 4.172350 0.000000 
#    z -0.360440 0.000000 3.549860 
# 
# 
# High freq. dielectric constant tensor:
#      x y z
#    x 1.860820 0.000000 -0.032300 
#    y 0.000000 1.860800 0.000000 
#    z -0.032300 0.000000 1.804550 
# 
# From -- ./inp_files/287577.got.cif
#   From: 2010.06.25/outbox.cif.g09.slc.cpg/sg15_144_cif.got.tgz:287577.got - 2010.06.28 07:06:18.
