data_PCOD8145756
_publ_section_title
;
Structure prediction by ZEFSAII (Michael W. Deem and Ramdas Pophale) SiO2 
 PCOD8145756
Probable space group: C 2/C
;
_chemical_formula_sum "Si O2"
_cell_formula_units_Z 52
_cell_length_a 9.855873
_cell_length_b 17.085633
_cell_length_c 20.716879
_cell_angle_alpha 90.000000
_cell_angle_beta 43.449091
_cell_angle_gamma 90.000000
_cell_volume 2399.140636
_symmetry_space_group_name_H-M "C 2/C"
_symmetry_group_IT_number 15
_symmetry_cell_setting 'monoclinic'
loop_
_space_group_symop_operation_xyz
x,y,z
-x,y,1/2-z
-x,-y,-z
x,-y,1/2+z
1/2+x,1/2+y,z
1/2-x,1/2+y,1/2-z
1/2-x,1/2-y,-z
1/2+x,1/2-y,1/2+z
loop_
_atom_site_type_symbol
_atom_site_label
_atom_site_fract_x
_atom_site_fract_y
_atom_site_fract_z
Si Si1 0.215699 0.303031 0.948795
Si Si2 0.813031 0.762035 0.550953
Si Si3 0.675408 0.559717 0.454508
Si Si4 0.000000 0.506767 0.250000
Si Si5 0.500000 0.765329 0.250000
Si Si6 0.671500 0.109277 0.782167
Si Si7 0.500000 0.315211 0.250000
Si Si8 0.124261 0.535507 0.514169
O O1 0.336657 0.284852 0.842694
O O2 0.250000 0.250000 0.000000
O O3 0.268626 0.394239 0.942244
O O4 0.986461 0.296728 0.009600
O O5 0.750000 0.750000 0.500000
O O6 0.896750 0.851049 0.526390
O O7 0.636073 0.742809 0.661173
O O8 0.500000 0.500000 0.500000
O O9 0.871312 0.557973 0.342717
O O10 0.748768 0.535804 0.500586
O O11 0.827203 0.455390 0.274981
O O12 0.397397 0.811314 0.227448
O O13 0.513266 0.078724 0.887142
O O14 0.880384 0.126134 0.743954
O O15 0.000000 0.500000 0.500000
#
# Coordination Sequence:
#
# PCOD8145756 Si02
#       8
#     8   8   8   4   4   8   4   8
#     4  12  23  44  71  98 129 179 229 275 327 401
#     4  12  26  41  68 101 134 174 222 278 335 397
#     4  11  25  42  68  97 133 178 220 272 336 400
#     4   9  23  44  64  94 134 168 230 264 332 404
#     4  11  22  42  72  94 131 172 240 268 327 392
#     4  10  22  39  68  96 129 177 213 282 330 401
#     4  12  23  42  66 100 135 170 228 274 345 384
#     4  11  23  44  64  99 138 172 216 280 339 396
#
# _framework density 21.674427000000001
#
# number of rings (size 3 to 8) (size 9 to 14) (size 15 to 20)
#    0.000    0.923    3.077    3.231    6.462    0.000 
#    0.000    8.462    0.000    0.000    0.000    0.000 
#    0.000    0.000    0.000    0.000    0.000    0.000 
#
# Total GULP energy -322274.370367 kJ/mol
# GULP energy per Si atom -12395.168091 kJ/mol
# Density = 2.162509 g / cm^3
# Si number density = 21.674427 Si / 1000 Ang^3
#
#
#
# Elastic Constant Matrix: (Units=GPa)
#
#
# Indices 1 2 3 4 5 6 
#
# 1 131.5599 6.1788 15.1288 -0.0021 10.4361 -0.0028
# 2 6.1788 78.2029 10.9293 -0.0037 9.6441 -0.0016
# 3 15.1288 10.9293 110.9556 -0.0046 8.3111 0.0009
# 4 -0.0021 -0.0037 -0.0046 12.1752 0.0007 -18.6801
# 5 10.4361 9.6441 8.3111 0.0007 34.9650 0.0035
# 6 -0.0028 -0.0016 0.0009 -18.6801 0.0035 9.0119
#
#
#
# Elastic Compliance Matrix: (Units=1/GPa)
#
#
# Indices 1 2 3 4 5 6 
#
# 1 0.007880 -0.000242 -0.000895 -0.000003 -0.002072 -0.000003
# 2 -0.000242 0.013366 -0.001031 -0.000004 -0.003369 -0.000005
# 3 -0.000895 -0.001031 0.009362 -0.000001 -0.001674 -0.000003
# 4 -0.000003 -0.000004 -0.000001 -0.037671 0.000011 -0.078086
# 5 -0.002072 -0.003369 -0.001674 0.000011 0.030546 0.000009
# 6 -0.000003 -0.000005 -0.000003 -0.078086 0.000009 -0.050894
#
#
# Mechanical properties :
#
#
# Convention : Reuss Voigt Hill
#
# Bulk Modulus (GPa) = 38.06547 42.79912 40.43230
# Shear Modulus (GPa) = -349.18555 30.46254 -159.36150
#
# Velocity S-wave (km/s) = -12.70648 3.75301 -8.58398
# Velocity P-wave (km/s) = 14.05960 6.21043 8.91916
#
# Compressibility (1/GPa) = 0.02627053
#
# Stress axis : x y z
#
# Youngs Moduli (GPa) = 126.90659 74.81676 106.81897
#
# Poissons Ratio (x) = 0.01810 0.09564
# Poissons Ratio (y) = 0.03070 0.11015
# Poissons Ratio (z) = 0.11363 0.07715
#
# Static dielectric constant tensor:
#      x y z
#    x 4.078590 -0.000030 0.149720 
#    y -0.000030 4.028910 -0.000030 
#    z 0.149720 -0.000030 3.943370 
# 
# 
# High freq. dielectric constant tensor:
#      x y z
#    x 1.864250 0.000000 0.013810 
#    y 0.000000 1.850850 0.000000 
#    z 0.013810 0.000000 1.854780 
# 
# From -- ./inp_files/182883.got.cif
#   From: 2010.06.25/outbox.cif.g09.slc.cpg/sg15_92_cif.got.tgz:182883.got - 2010.06.28 07:06:18.
