data_PCOD8145979
_publ_section_title
;
Structure prediction by ZEFSAII (Michael W. Deem and Ramdas Pophale) SiO2 
 PCOD8145979
Probable space group: C 2/C
;
_chemical_formula_sum "Si O2"
_cell_formula_units_Z 64
_cell_length_a 18.254253
_cell_length_b 16.279270
_cell_length_c 16.927904
_cell_angle_alpha 90.000000
_cell_angle_beta 146.847211
_cell_angle_gamma 90.000000
_cell_volume 2750.990569
_symmetry_space_group_name_H-M "C 2/C"
_symmetry_group_IT_number 15
_symmetry_cell_setting 'monoclinic'
loop_
_space_group_symop_operation_xyz
x,y,z
-x,y,1/2-z
-x,-y,-z
x,-y,1/2+z
1/2+x,1/2+y,z
1/2-x,1/2+y,1/2-z
1/2-x,1/2-y,-z
1/2+x,1/2-y,1/2+z
loop_
_atom_site_type_symbol
_atom_site_label
_atom_site_fract_x
_atom_site_fract_y
_atom_site_fract_z
Si Si1 0.556608 0.307765 0.008956
Si Si2 0.194918 0.618971 0.365947
Si Si3 0.209637 0.684518 0.064452
Si Si4 0.352644 0.024017 0.399914
Si Si5 0.217242 0.961814 0.127587
Si Si6 0.293248 0.246270 0.842131
Si Si7 0.395237 0.889712 0.544819
Si Si8 0.361661 0.831745 0.167160
O O1 0.579954 0.245810 0.955808
O O2 0.585505 0.402924 0.009323
O O3 0.666834 0.281303 0.175401
O O4 0.403150 0.302156 0.896571
O O5 0.295021 0.541585 0.440874
O O6 0.245409 0.702227 0.373746
O O7 0.180572 0.639270 0.445268
O O8 0.052964 0.596893 0.198775
O O9 0.184243 0.617880 0.110685
O O10 0.335752 0.746707 0.192432
O O11 0.234157 0.654828 0.996630
O O12 0.500000 0.000000 0.500000
O O13 0.242821 0.995700 0.237950
O O14 0.332567 0.977099 0.464384
O O15 0.342444 0.906201 0.210989
O O16 0.371044 0.168707 0.948076
O O17 0.500000 0.839479 0.250000
#
# Coordination Sequence:
#
# PCOD8145979 Si02
#       8
#     8   8   8   8   8   8   8   8
#     4  11  25  40  70  97 135 172 221 271 335 388
#     4  11  24  40  64  98 129 173 221 269 335 395
#     4  10  23  39  60  98 128 172 216 279 328 394
#     4  12  20  35  64  94 128 166 224 277 325 385
#     4  11  23  39  62  99 131 172 218 278 331 392
#     4  12  23  46  65  99 132 174 224 271 330 396
#     4  11  23  39  66  95 128 172 220 280 323 393
#     4  10  22  40  64  92 133 173 221 269 336 399
#
# _framework density 23.264347999999998
#
# number of rings (size 3 to 8) (size 9 to 14) (size 15 to 20)
#    0.000    1.000    3.750    3.375    5.250    0.500 
#    0.000    0.000    2.750    0.000    0.000    0.000 
#    0.000    0.000    0.000    0.000    0.000    0.000 
#
# Total GULP energy -396429.476642 kJ/mol
# GULP energy per Si atom -12388.421145 kJ/mol
# Density = 2.321140 g / cm^3
# Si number density = 23.264348 Si / 1000 Ang^3
#
#
#
# Elastic Constant Matrix: (Units=GPa)
#
#
# Indices 1 2 3 4 5 6 
#
# 1 81.8692 11.0575 14.2765 -0.0012 -7.5873 0.0051
# 2 11.0575 96.4083 7.1538 -0.0012 -10.4275 0.0044
# 3 14.2765 7.1538 39.7809 -0.0013 -1.1252 0.0085
# 4 -0.0012 -0.0012 -0.0013 4.6513 -0.0011 9.8308
# 5 -7.5873 -10.4275 -1.1252 -0.0011 25.1427 0.0073
# 6 0.0051 0.0044 0.0085 9.8308 0.0073 -22.2354
#
#
#
# Elastic Compliance Matrix: (Units=1/GPa)
#
#
# Indices 1 2 3 4 5 6 
#
# 1 0.013450 -0.000823 -0.004580 -0.000001 0.003513 0.000002
# 2 -0.000823 0.011044 -0.001570 -0.000001 0.004262 0.000002
# 3 -0.004580 -0.001570 0.027040 -0.000006 -0.000823 0.000006
# 4 -0.000001 -0.000001 -0.000006 0.111139 -0.000010 0.049137
# 5 0.003513 0.004262 -0.000823 -0.000010 0.042564 0.000011
# 6 0.000002 0.000002 0.000006 0.049137 0.000011 -0.023249
#
#
# Mechanical properties :
#
#
# Convention : Reuss Voigt Hill
#
# Bulk Modulus (GPa) = 26.60336 31.44823 29.02579
# Shear Modulus (GPa) = 23.98502 13.88310 18.93406
#
# Velocity S-wave (km/s) = 3.21437 2.44551 2.85593
# Velocity P-wave (km/s) = 5.02357 4.63909 4.83515
#
# Compressibility (1/GPa) = 0.03758923
#
# Stress axis : x y z
#
# Youngs Moduli (GPa) = 74.35023 90.54344 36.98183
#
# Poissons Ratio (x) = 0.07451 0.16936
# Poissons Ratio (y) = 0.06118 0.05807
# Poissons Ratio (z) = 0.34049 0.14218
#
# Static dielectric constant tensor:
#      x y z
#    x 0.000000 0.000000 0.000000 
#    y 0.000000 0.000000 0.000000 
#    z 0.000000 0.000000 0.000000 
# 
# 
# High freq. dielectric constant tensor:
#      x y z
#    x 1.935480 0.000000 -0.018700 
#    y 0.000000 1.928240 0.000000 
#    z -0.018700 0.000000 1.893860 
# 
# From -- ./inp_files/211406.got.cif
#   From: 2010.06.25/outbox.cif.g09.slc.cpg/sg15_106_cif.got.tgz:211406.got - 2010.06.28 07:06:18.
