data_PCOD8145313
_publ_section_title
;
Structure prediction by ZEFSAII (Michael W. Deem and Ramdas Pophale) SiO2 
 PCOD8145313
Probable space group: C 2/C
;
_chemical_formula_sum "Si O2"
_cell_formula_units_Z 40
_cell_length_a 13.063280
_cell_length_b 12.210480
_cell_length_c 11.098136
_cell_angle_alpha 90.000000
_cell_angle_beta 63.514194
_cell_angle_gamma 90.000000
_cell_volume 1584.454686
_symmetry_space_group_name_H-M "C 2/C"
_symmetry_group_IT_number 15
_symmetry_cell_setting 'monoclinic'
loop_
_space_group_symop_operation_xyz
x,y,z
-x,y,1/2-z
-x,-y,-z
x,-y,1/2+z
1/2+x,1/2+y,z
1/2-x,1/2+y,1/2-z
1/2-x,1/2-y,-z
1/2+x,1/2-y,1/2+z
loop_
_atom_site_type_symbol
_atom_site_label
_atom_site_fract_x
_atom_site_fract_y
_atom_site_fract_z
Si Si1 0.579203 0.805788 0.924048
Si Si2 0.389925 0.581727 0.730375
Si Si3 0.750732 0.424215 0.834167
Si Si4 0.627143 0.872460 0.156250
Si Si5 0.324122 0.194072 0.608471
O O1 0.585456 0.684414 0.868580
O O2 0.646896 0.895777 0.812219
O O3 0.630164 0.801234 0.032625
O O4 0.445391 0.843314 0.990965
O O5 0.500000 0.553710 0.750000
O O6 0.362567 0.471731 0.670926
O O7 0.277218 0.608804 0.871432
O O8 0.797704 0.517289 0.899325
O O9 0.711904 0.313969 0.923260
O O10 0.500000 0.912384 0.250000
O O11 0.673011 0.799933 0.245213
#
# Coordination Sequence:
#
# PCOD8145313 Si02
#       5
#     8   8   8   8   8
#     4  10  22  42  65  86 123 162 197 255 306 348
#     4  10  23  39  58  91 127 158 200 248 300 360
#     4  10  22  38  62  95 121 154 208 252 293 358
#     4   9  20  39  63  89 116 157 207 243 292 363
#     4   9  21  40  62  90 123 161 202 243 298 363
#
# _framework density 25.245277999999999
#
# number of rings (size 3 to 8) (size 9 to 14) (size 15 to 20)
#    0.000    2.400    0.000    0.000    0.000   23.200 
#    0.000    0.000    0.000    0.000    0.000    0.000 
#    0.000    0.000    0.000    0.000    0.000    0.000 
#
# Total GULP energy -247939.417081 kJ/mol
# GULP energy per Si atom -12396.970854 kJ/mol
# Density = 2.518782 g / cm^3
# Si number density = 25.245278 Si / 1000 Ang^3
#
#
#
# Elastic Constant Matrix: (Units=GPa)
#
#
# Indices 1 2 3 4 5 6 
#
# 1 106.7239 -6.1221 6.3091 0.0000 -35.0321 0.0000
# 2 -6.1221 60.4020 -16.1977 0.0000 -4.6824 0.0000
# 3 6.3091 -16.1977 61.1608 0.0000 -13.3600 0.0000
# 4 0.0000 0.0000 0.0000 17.5898 0.0000 -1.1312
# 5 -35.0321 -4.6824 -13.3600 0.0000 17.8824 0.0000
# 6 0.0000 0.0000 0.0000 -1.1312 0.0000 41.6537
#
#
#
# Elastic Compliance Matrix: (Units=1/GPa)
#
#
# Indices 1 2 3 4 5 6 
#
# 1 0.049537 0.022024 0.027701 0.000000 0.123506 0.000000
# 2 0.022024 0.029173 0.019775 0.000000 0.065557 0.000000
# 3 0.027701 0.019775 0.037900 0.000000 0.087761 0.000000
# 4 0.000000 0.000000 0.000000 0.056951 0.000000 0.001547
# 5 0.123506 0.065557 0.087761 0.000000 0.380606 0.000000
# 6 0.000000 0.000000 0.000000 0.001547 0.000000 0.024049
#
#
# Mechanical properties :
#
#
# Convention : Reuss Voigt Hill
#
# Bulk Modulus (GPa) = 3.91222 21.80727 12.85974
# Shear Modulus (GPa) = 9.53435 31.71167 20.62301
#
# Velocity S-wave (km/s) = 1.94548 3.54806 2.86126
# Velocity P-wave (km/s) = 2.56896 5.04399 4.00259
#
# Compressibility (1/GPa) = 0.25560947
#
# Stress axis : x y z
#
# Youngs Moduli (GPa) = 20.18709 34.27841 26.38489
#
# Poissons Ratio (x) = -0.75494 -0.73090
# Poissons Ratio (y) = -0.44459 -0.52175
# Poissons Ratio (z) = -0.55921 -0.67784
#
# Static dielectric constant tensor:
#      x y z
#    x 5.108030 0.000000 -0.149220 
#    y 0.000000 4.209990 0.000000 
#    z -0.149220 0.000000 4.406070 
# 
# 
# High freq. dielectric constant tensor:
#      x y z
#    x 2.030280 0.000000 -0.006270 
#    y 0.000000 1.995990 0.000000 
#    z -0.006270 0.000000 1.995330 
# 
# From -- ./inp_files/94870.got.cif
#   From: 2010.06.25/outbox.cif.g09.slc.cpg/sg15_48_cif.got.tgz:94870.got - 2010.06.28 07:06:18.
