data_PCOD8145244
_publ_section_title
;
Structure prediction by ZEFSAII (Michael W. Deem and Ramdas Pophale) SiO2 
 PCOD8145244
Probable space group: C 2/C
;
_chemical_formula_sum "Si O2"
_cell_formula_units_Z 52
_cell_length_a 18.048936
_cell_length_b 13.477778
_cell_length_c 20.780667
_cell_angle_alpha 90.000000
_cell_angle_beta 149.694917
_cell_angle_gamma 90.000000
_cell_volume 2550.822641
_symmetry_space_group_name_H-M "C 2/C"
_symmetry_group_IT_number 15
_symmetry_cell_setting 'monoclinic'
loop_
_space_group_symop_operation_xyz
x,y,z
-x,y,1/2-z
-x,-y,-z
x,-y,1/2+z
1/2+x,1/2+y,z
1/2-x,1/2+y,1/2-z
1/2-x,1/2-y,-z
1/2+x,1/2-y,1/2+z
loop_
_atom_site_type_symbol
_atom_site_label
_atom_site_fract_x
_atom_site_fract_y
_atom_site_fract_z
Si Si1 0.918929 0.535136 0.841225
Si Si2 0.088130 0.359052 0.575817
Si Si3 0.500000 0.770748 0.250000
Si Si4 0.423577 0.500843 0.048215
Si Si5 0.902488 0.873898 0.415654
Si Si6 0.826200 0.565118 0.559911
Si Si7 0.860749 0.902686 0.706783
O O1 0.950905 0.423331 0.890495
O O2 0.749753 0.564480 0.705198
O O3 0.012149 0.532794 0.844368
O O4 0.976393 0.618851 0.933938
O O5 0.104493 0.242900 0.601445
O O6 0.245142 0.402615 0.676487
O O7 0.642045 0.831865 0.380038
O O8 0.555725 0.702599 0.233008
O O9 0.473496 0.407201 0.043065
O O10 0.525133 0.511315 0.187903
O O11 0.450871 0.599591 0.024552
O O12 0.254352 0.492910 0.947769
O O13 0.712157 0.577002 0.416556
#
# Coordination Sequence:
#
# PCOD8145244 Si02
#       7
#     8   8   4   8   8   8   8
#     4  10  22  40  60  88 121 159 202 251 296 359
#     4  10  22  38  60  88 116 160 209 242 298 359
#     4  12  22  34  58  94 118 156 194 240 330 364
#     4  11  23  39  55  91 121 156 200 247 308 352
#     4  11  24  39  63  85 124 164 199 255 296 359
#     4  11  22  37  58  87 124 153 196 252 300 362
#     4  11  21  35  57  84 124 151 192 250 301 364
#
# _framework density 20.385580999999998
#
# number of rings (size 3 to 8) (size 9 to 14) (size 15 to 20)
#    0.000    1.231    3.077    3.231    6.462    0.000 
#    0.000    0.769    0.000    0.000    8.000    0.000 
#    0.000    0.000    0.000    0.000    0.000    0.000 
#
# Total GULP energy -322089.759949 kJ/mol
# GULP energy per Si atom -12388.067690 kJ/mol
# Density = 2.033918 g / cm^3
# Si number density = 20.385581 Si / 1000 Ang^3
#
#
#
# Elastic Constant Matrix: (Units=GPa)
#
#
# Indices 1 2 3 4 5 6 
#
# 1 119.3367 28.7376 16.5826 0.0006 23.3407 0.0004
# 2 28.7376 73.6979 7.6962 -0.0003 1.4140 -0.0002
# 3 16.5826 7.6962 74.6145 -0.0007 2.8885 -0.0004
# 4 0.0006 -0.0003 -0.0007 21.1833 -0.0005 2.6082
# 5 23.3407 1.4140 2.8885 -0.0005 31.1307 -0.0003
# 6 0.0004 -0.0002 -0.0004 2.6082 -0.0003 24.6724
#
#
#
# Elastic Compliance Matrix: (Units=1/GPa)
#
#
# Indices 1 2 3 4 5 6 
#
# 1 0.011159 -0.004014 -0.001755 -0.000001 -0.008021 0.000000
# 2 -0.004014 0.015168 -0.000765 0.000000 0.002392 0.000000
# 3 -0.001755 -0.000765 0.013869 0.000000 0.000064 0.000000
# 4 -0.000001 0.000000 0.000000 0.047829 0.000001 -0.005056
# 5 -0.008021 0.002392 0.000064 0.000001 0.038022 0.000001
# 6 0.000000 0.000000 0.000000 -0.005056 0.000001 0.041066
#
#
# Mechanical properties :
#
#
# Convention : Reuss Voigt Hill
#
# Bulk Modulus (GPa) = 36.86385 41.52022 39.19203
# Shear Modulus (GPa) = 26.42359 29.70615 28.06487
#
# Velocity S-wave (km/s) = 3.60417 3.82149 3.71442
# Velocity P-wave (km/s) = 5.95337 6.31533 6.13702
#
# Compressibility (1/GPa) = 0.02712684
#
# Stress axis : x y z
#
# Youngs Moduli (GPa) = 89.61270 65.92757 72.10437
#
# Poissons Ratio (x) = 0.26464 0.12658
# Poissons Ratio (y) = 0.35972 0.05516
# Poissons Ratio (z) = 0.15731 0.05043
#
# Static dielectric constant tensor:
#      x y z
#    x 4.081370 0.000000 0.125830 
#    y 0.000000 3.336920 0.000000 
#    z 0.125830 0.000000 3.962010 
# 
# 
# High freq. dielectric constant tensor:
#      x y z
#    x 1.809810 0.000000 0.005740 
#    y 0.000000 1.749840 0.000000 
#    z 0.005740 0.000000 1.816110 
# 
# From -- ./inp_files/249130.got.cif
#   From: 2010.06.25/outbox.cif.g09.slc.cpg/sg15_125_cif.got.tgz:249130.got - 2010.06.28 07:06:18.
