data_PCOD8145516
_publ_section_title
;
Structure prediction by ZEFSAII (Michael W. Deem and Ramdas Pophale) SiO2 
 PCOD8145516
Probable space group: C 2/C
;
_chemical_formula_sum "Si O2"
_cell_formula_units_Z 56
_cell_length_a 7.800104
_cell_length_b 12.412792
_cell_length_c 27.691854
_cell_angle_alpha 90.000000
_cell_angle_beta 105.394608
_cell_angle_gamma 90.000000
_cell_volume 2584.956105
_symmetry_space_group_name_H-M "C 2/C"
_symmetry_group_IT_number 15
_symmetry_cell_setting 'monoclinic'
loop_
_space_group_symop_operation_xyz
x,y,z
-x,y,1/2-z
-x,-y,-z
x,-y,1/2+z
1/2+x,1/2+y,z
1/2-x,1/2+y,1/2-z
1/2-x,1/2-y,-z
1/2+x,1/2-y,1/2+z
loop_
_atom_site_type_symbol
_atom_site_label
_atom_site_fract_x
_atom_site_fract_y
_atom_site_fract_z
Si Si1 0.811903 0.263213 0.558689
Si Si2 0.007011 0.743163 0.694431
Si Si3 0.458081 0.828843 0.800891
Si Si4 0.362826 0.674829 0.871444
Si Si5 0.163948 0.387679 0.128132
Si Si6 0.674330 0.027268 0.383776
Si Si7 0.106629 0.039714 0.300458
O O1 0.750000 0.250000 0.500000
O O2 0.699111 0.181574 0.583394
O O3 0.771563 0.386017 0.571508
O O4 0.022785 0.232853 0.577537
O O5 0.835813 0.717749 0.648548
O O6 0.000000 0.702043 0.750000
O O7 0.163697 0.682261 0.677883
O O8 0.037049 0.871187 0.692417
O O9 0.500000 0.798170 0.750000
O O10 0.464806 0.713815 0.830089
O O11 0.606358 0.910723 0.831421
O O12 0.267873 0.887125 0.791204
O O13 0.344072 0.546379 0.880479
O O14 0.330976 0.467437 0.150081
O O15 0.983604 0.454132 0.105936
O O16 0.000000 0.975364 0.250000
#
# Coordination Sequence:
#
# PCOD8145516 Si02
#       7
#     8   8   8   8   8   8   8
#     4  11  25  42  62  89 114 146 204 262 304 350
#     4   9  19  37  60  89 126 159 191 231 280 353
#     4   9  18  34  57  87 123 158 193 234 282 347
#     4   9  20  38  59  84 119 157 195 240 294 351
#     4  10  22  39  60  85 118 158 194 240 298 350
#     4   9  21  42  60  81 118 155 190 242 298 350
#     4   9  19  34  55  86 119 156 197 233 281 349
#
# _framework density 21.663810000000002
#
# number of rings (size 3 to 8) (size 9 to 14) (size 15 to 20)
#    0.000    2.571    0.000    0.857    0.000   16.571 
#    0.000    3.571    0.000    0.857    0.000    0.000 
#    0.000    0.000    0.000    0.000    0.000    0.000 
#
# Total GULP energy -346879.087086 kJ/mol
# GULP energy per Si atom -12388.538825 kJ/mol
# Density = 2.161450 g / cm^3
# Si number density = 21.663810 Si / 1000 Ang^3
#
#
#
# Elastic Constant Matrix: (Units=GPa)
#
#
# Indices 1 2 3 4 5 6 
#
# 1 58.8290 46.0505 48.3209 0.0000 2.1570 0.0000
# 2 46.0505 137.6001 72.7096 0.0000 -12.8172 0.0000
# 3 48.3209 72.7096 171.4252 0.0000 0.7528 0.0000
# 4 0.0000 0.0000 0.0000 22.8505 0.0000 -2.6012
# 5 2.1570 -12.8172 0.7528 0.0000 28.9980 0.0000
# 6 0.0000 0.0000 0.0000 -2.6012 0.0000 35.2873
#
#
#
# Elastic Compliance Matrix: (Units=1/GPa)
#
#
# Indices 1 2 3 4 5 6 
#
# 1 0.026216 -0.006875 -0.004452 0.000000 -0.004873 0.000000
# 2 -0.006875 0.011723 -0.003060 0.000000 0.005772 0.000000
# 3 -0.004452 -0.003060 0.008392 0.000000 -0.001239 0.000000
# 4 0.000000 0.000000 0.000000 0.044133 0.000000 0.003253
# 5 -0.004873 0.005772 -0.001239 0.000000 0.037431 0.000000
# 6 0.000000 0.000000 0.000000 0.003253 0.000000 0.028579
#
#
# Mechanical properties :
#
#
# Convention : Reuss Voigt Hill
#
# Bulk Modulus (GPa) = 56.95911 78.00179 67.48045
# Shear Modulus (GPa) = 26.16454 30.81205 28.48830
#
# Velocity S-wave (km/s) = 3.47905 3.77541 3.63025
# Velocity P-wave (km/s) = 6.51826 7.42217 6.98485
#
# Compressibility (1/GPa) = 0.01755645
#
# Stress axis : x y z
#
# Youngs Moduli (GPa) = 38.14515 85.30497 119.16667
#
# Poissons Ratio (x) = 0.58646 0.53056
# Poissons Ratio (y) = 0.26224 0.36460
# Poissons Ratio (z) = 0.16983 0.26100
#
# Static dielectric constant tensor:
#      x y z
#    x 4.195210 0.000000 0.181430 
#    y 0.000000 4.285110 0.000000 
#    z 0.181430 0.000000 3.533160 
# 
# 
# High freq. dielectric constant tensor:
#      x y z
#    x 1.854020 0.000000 0.017840 
#    y 0.000000 1.863840 0.000000 
#    z 0.017840 0.000000 1.812220 
# 
# From -- ./inp_files/288077.got.cif
#   From: 2010.06.25/outbox.cif.g09.slc.cpg/sg15_145_cif.got.tgz:288077.got - 2010.06.28 07:06:18.
