data_PCOD8145843
_publ_section_title
;
Structure prediction by ZEFSAII (Michael W. Deem and Ramdas Pophale) SiO2 
 PCOD8145843
Probable space group: C 2/C
;
_chemical_formula_sum "Si O2"
_cell_formula_units_Z 56
_cell_length_a 8.261762
_cell_length_b 27.348097
_cell_length_c 17.351312
_cell_angle_alpha 90.000000
_cell_angle_beta 136.916258
_cell_angle_gamma 90.000000
_cell_volume 2677.904804
_symmetry_space_group_name_H-M "C 2/C"
_symmetry_group_IT_number 15
_symmetry_cell_setting 'monoclinic'
loop_
_space_group_symop_operation_xyz
x,y,z
-x,y,1/2-z
-x,-y,-z
x,-y,1/2+z
1/2+x,1/2+y,z
1/2-x,1/2+y,1/2-z
1/2-x,1/2-y,-z
1/2+x,1/2-y,1/2+z
loop_
_atom_site_type_symbol
_atom_site_label
_atom_site_fract_x
_atom_site_fract_y
_atom_site_fract_z
Si Si1 0.017209 0.881448 0.436988
Si Si2 0.675092 0.065009 0.080652
Si Si3 0.972281 0.618335 0.326308
Si Si4 0.348865 0.538702 0.626426
Si Si5 0.666864 0.814194 0.233944
Si Si6 0.887457 0.205190 0.294681
Si Si7 0.743128 0.646655 0.504690
O O1 0.279618 0.864205 0.550732
O O2 0.036106 0.936657 0.409597
O O3 0.908105 0.843982 0.335520
O O4 0.851329 0.882741 0.453955
O O5 0.649975 0.076482 0.163216
O O6 0.853574 0.020280 0.125734
O O7 0.421254 0.054804 0.954097
O O8 0.787105 0.112150 0.079616
O O9 0.821801 0.667086 0.268229
O O10 0.000000 0.595783 0.250000
O O11 0.500000 0.558520 0.750000
O O12 0.500000 0.813484 0.250000
O O13 0.725477 0.758660 0.230305
O O14 0.517426 0.839004 0.112820
O O15 0.000000 0.201280 0.250000
O O16 0.085985 0.194471 0.429753
#
# Coordination Sequence:
#
# PCOD8145843 Si02
#       7
#     8   8   8   8   8   8   8
#     4  10  22  40  61  87 125 162 199 265 307 364
#     4  10  23  39  62  91 118 166 206 254 310 373
#     4  11  22  39  59  88 125 161 207 258 311 360
#     4  10  22  40  61  87 122 156 208 254 311 371
#     4   9  21  38  60  91 126 165 207 251 308 371
#     4  11  21  37  62  92 121 166 212 251 305 371
#     4  11  20  38  65  88 124 163 206 253 310 364
#
# _framework density 20.911871000000001
#
# number of rings (size 3 to 8) (size 9 to 14) (size 15 to 20)
#    0.000    1.714    2.857    1.286    2.000    1.143 
#    0.000    6.429    0.000    0.857    0.000    0.000 
#    0.000    0.000    0.000    0.000    0.000    0.000 
#
# Total GULP energy -347176.076559 kJ/mol
# GULP energy per Si atom -12399.145591 kJ/mol
# Density = 2.086428 g / cm^3
# Si number density = 20.911871 Si / 1000 Ang^3
#
#
#
# Elastic Constant Matrix: (Units=GPa)
#
#
# Indices 1 2 3 4 5 6 
#
# 1 72.8057 46.6895 33.5159 0.0000 -19.0937 0.0000
# 2 46.6895 129.1189 52.0331 0.0000 -10.5079 0.0000
# 3 33.5159 52.0331 146.7642 0.0000 0.1501 0.0000
# 4 0.0000 0.0000 0.0000 26.2800 0.0000 -0.1926
# 5 -19.0937 -10.5079 0.1501 0.0000 28.7261 0.0000
# 6 0.0000 0.0000 0.0000 -0.1926 0.0000 24.3272
#
#
#
# Elastic Compliance Matrix: (Units=1/GPa)
#
#
# Indices 1 2 3 4 5 6 
#
# 1 0.022128 -0.005755 -0.003026 0.000000 0.012619 0.000000
# 2 -0.005755 0.010861 -0.002537 0.000000 0.000161 0.000000
# 3 -0.003026 -0.002537 0.008407 0.000000 -0.002983 0.000000
# 4 0.000000 0.000000 0.000000 0.038054 0.000000 0.000301
# 5 0.012619 0.000161 -0.002983 0.000000 0.043273 0.000000
# 6 0.000000 0.000000 0.000000 0.000301 0.000000 0.041109
#
#
# Mechanical properties :
#
#
# Convention : Reuss Voigt Hill
#
# Bulk Modulus (GPa) = 53.30153 68.12954 60.71553
# Shear Modulus (GPa) = 25.94416 30.29667 28.12041
#
# Velocity S-wave (km/s) = 3.52610 3.81041 3.67101
# Velocity P-wave (km/s) = 6.49013 7.21173 6.86042
#
# Compressibility (1/GPa) = 0.01876119
#
# Stress axis : x y z
#
# Youngs Moduli (GPa) = 45.19103 92.07089 118.94881
#
# Poissons Ratio (x) = 0.52990 0.35991
# Poissons Ratio (y) = 0.26009 0.30172
# Poissons Ratio (z) = 0.13674 0.23354
#
# Static dielectric constant tensor:
#      x y z
#    x 3.615290 0.000000 -0.044810 
#    y 0.000000 3.823580 0.000000 
#    z -0.044810 0.000000 4.174520 
# 
# 
# High freq. dielectric constant tensor:
#      x y z
#    x 1.798500 0.000000 0.001340 
#    y 0.000000 1.809850 0.000000 
#    z 0.001340 0.000000 1.840510 
# 
# From -- ./inp_files/81403.got.cif
#   From: 2010.06.25/outbox.cif.g09.slc.cpg/sg15_41_cif.got.tgz:81403.got - 2010.06.28 07:06:18.
