data_PCOD8145075
_publ_section_title
;
Structure prediction by ZEFSAII (Michael W. Deem and Ramdas Pophale) SiO2 
 PCOD8145075
Probable space group: C 2/C
;
_chemical_formula_sum "Si O2"
_cell_formula_units_Z 56
_cell_length_a 26.219389
_cell_length_b 13.214999
_cell_length_c 9.762589
_cell_angle_alpha 90.000000
_cell_angle_beta 63.707719
_cell_angle_gamma 90.000000
_cell_volume 3032.685257
_symmetry_space_group_name_H-M "C 2/C"
_symmetry_group_IT_number 15
_symmetry_cell_setting 'monoclinic'
loop_
_space_group_symop_operation_xyz
x,y,z
-x,y,1/2-z
-x,-y,-z
x,-y,1/2+z
1/2+x,1/2+y,z
1/2-x,1/2+y,1/2-z
1/2-x,1/2-y,-z
1/2+x,1/2-y,1/2+z
loop_
_atom_site_type_symbol
_atom_site_label
_atom_site_fract_x
_atom_site_fract_y
_atom_site_fract_z
Si Si1 0.372554 0.639599 0.294547
Si Si2 0.005474 0.098621 0.401836
Si Si3 0.891340 0.208646 0.564599
Si Si4 0.171752 0.074333 0.646427
Si Si5 0.327385 0.893537 0.727147
Si Si6 0.299259 0.933086 0.057442
Si Si7 0.295195 0.704026 0.144822
O O1 0.433344 0.651128 0.146156
O O2 0.370388 0.707555 0.432623
O O3 0.365669 0.522746 0.348331
O O4 0.321901 0.673303 0.256865
O O5 0.957794 0.181021 0.498479
O O6 0.000000 0.065631 0.250000
O O7 0.000000 0.000000 0.500000
O O8 0.854562 0.127646 0.690953
O O9 0.881333 0.321935 0.632045
O O10 0.234370 0.034599 0.609395
O O11 0.171607 0.149952 0.518241
O O12 0.270787 0.825601 0.780028
O O13 0.328688 0.987782 0.623313
O O14 0.333232 0.935187 0.874087
O O15 0.301185 0.823278 0.122841
#
# Coordination Sequence:
#
# PCOD8145075 Si02
#       7
#     8   8   8   8   8   8   8
#     4  11  23  34  59  89 117 155 193 237 290 357
#     4  10  22  37  57  87 116 153 191 237 294 347
#     4  11  22  38  56  83 123 154 191 239 300 336
#     4  11  19  36  56  86 125 156 185 235 293 351
#     4  11  23  39  59  84 120 158 190 249 287 348
#     4  11  23  37  57  86 120 157 197 228 294 352
#     4  11  22  37  56  89 122 153 196 234 291 354
#
# _framework density 18.465484
#
# number of rings (size 3 to 8) (size 9 to 14) (size 15 to 20)
#    0.000    1.143    5.714    1.714    6.000    0.571 
#    0.000    0.000    0.000    0.857    0.000    0.000 
#    0.000    0.000    0.000    0.000    0.000    0.000 
#
# Total GULP energy -347321.093299 kJ/mol
# GULP energy per Si atom -12404.324761 kJ/mol
# Density = 1.842346 g / cm^3
# Si number density = 18.465484 Si / 1000 Ang^3
#
#
#
# Elastic Constant Matrix: (Units=GPa)
#
#
# Indices 1 2 3 4 5 6 
#
# 1 47.0296 32.3077 26.5857 0.0000 -8.2061 0.0000
# 2 32.3077 119.8417 55.3512 0.0000 -2.0958 0.0000
# 3 26.5857 55.3512 108.9034 0.0000 -7.9951 0.0000
# 4 0.0000 0.0000 0.0000 30.7958 0.0000 -1.2777
# 5 -8.2061 -2.0958 -7.9951 0.0000 22.2679 0.0000
# 6 0.0000 0.0000 0.0000 -1.2777 0.0000 25.0730
#
#
#
# Elastic Compliance Matrix: (Units=1/GPa)
#
#
# Indices 1 2 3 4 5 6 
#
# 1 0.028869 -0.006107 -0.003291 0.000000 0.008882 0.000000
# 2 -0.006107 0.012217 -0.004929 0.000000 -0.002871 0.000000
# 3 -0.003291 -0.004929 0.012703 0.000000 0.002884 0.000000
# 4 0.000000 0.000000 0.000000 0.032541 0.000000 0.001658
# 5 0.008882 -0.002871 0.002884 0.000000 0.048946 0.000000
# 6 0.000000 0.000000 0.000000 0.001658 0.000000 0.039968
#
#
# Mechanical properties :
#
#
# Convention : Reuss Voigt Hill
#
# Bulk Modulus (GPa) = 39.78768 56.02931 47.90849
# Shear Modulus (GPa) = 23.55399 26.39602 24.97501
#
# Velocity S-wave (km/s) = 3.57539 3.78495 3.68166
# Velocity P-wave (km/s) = 6.21597 7.03631 6.63883
#
# Compressibility (1/GPa) = 0.02513341
#
# Stress axis : x y z
#
# Youngs Moduli (GPa) = 34.63918 81.85129 78.72084
#
# Poissons Ratio (x) = 0.49988 0.25911
# Poissons Ratio (y) = 0.21155 0.38805
# Poissons Ratio (z) = 0.11401 0.40348
#
# Static dielectric constant tensor:
#      x y z
#    x 3.326380 0.000000 -0.040510 
#    y 0.000000 3.318270 0.000000 
#    z -0.040510 0.000000 3.607710 
# 
# 
# High freq. dielectric constant tensor:
#      x y z
#    x 1.695460 0.000000 0.005560 
#    y 0.000000 1.707180 0.000000 
#    z 0.005560 0.000000 1.732310 
# 
# From -- ./inp_files/61614.got.cif
#   From: 2010.06.25/outbox.cif.g09.slc.cpg/sg15_31_cif.got.tgz:61614.got - 2010.06.28 07:06:18.
