data_PCOD8145249
_publ_section_title
;
Structure prediction by ZEFSAII (Michael W. Deem and Ramdas Pophale) SiO2 
 PCOD8145249
Probable space group: C 2/C
;
_chemical_formula_sum "Si O2"
_cell_formula_units_Z 56
_cell_length_a 29.251890
_cell_length_b 17.152830
_cell_length_c 9.061619
_cell_angle_alpha 90.000000
_cell_angle_beta 142.608216
_cell_angle_gamma 90.000000
_cell_volume 2761.032760
_symmetry_space_group_name_H-M "C 2/C"
_symmetry_group_IT_number 15
_symmetry_cell_setting 'monoclinic'
loop_
_space_group_symop_operation_xyz
x,y,z
-x,y,1/2-z
-x,-y,-z
x,-y,1/2+z
1/2+x,1/2+y,z
1/2-x,1/2+y,1/2-z
1/2-x,1/2-y,-z
1/2+x,1/2-y,1/2+z
loop_
_atom_site_type_symbol
_atom_site_label
_atom_site_fract_x
_atom_site_fract_y
_atom_site_fract_z
Si Si1 0.545170 0.940930 0.511611
Si Si2 0.547039 0.764017 0.586939
Si Si3 0.892715 0.778134 0.569311
Si Si4 0.163583 0.264663 0.120016
Si Si5 0.733126 0.604278 0.717788
Si Si6 0.697968 0.835413 0.502868
Si Si7 0.292476 0.007442 0.593748
O O1 0.552462 0.857724 0.609594
O O2 0.500000 0.000000 0.500000
O O3 0.624945 0.974450 0.661891
O O4 0.500000 0.922899 0.250000
O O5 0.586846 0.723662 0.549276
O O6 0.462031 0.732367 0.360625
O O7 0.588098 0.735814 0.842711
O O8 0.850519 0.858508 0.506159
O O9 0.838598 0.702608 0.446815
O O10 0.207544 0.325081 0.126681
O O11 0.215012 0.190050 0.290688
O O12 0.147230 0.307536 0.232568
O O13 0.751248 0.546175 0.628265
O O14 0.739520 0.559425 0.889696
O O15 0.696406 0.928367 0.507552
#
# Coordination Sequence:
#
# PCOD8145249 Si02
#       7
#     8   8   8   8   8   8   8
#     4  12  24  38  59  95 130 162 196 248 321 388
#     4  11  22  39  61  86 121 163 205 252 312 360
#     4  10  22  40  59  87 124 161 212 251 296 369
#     4   9  19  38  57  87 114 158 205 245 306 360
#     4  10  22  38  60  89 122 158 205 255 299 367
#     4   9  20  36  58  83 122 153 199 255 293 369
#     4  11  22  37  61  88 124 159 199 251 315 357
#
# _framework density 20.282267000000001
#
# number of rings (size 3 to 8) (size 9 to 14) (size 15 to 20)
#    0.000    1.714    2.857    2.571    4.000    4.000 
#    0.000    0.000    0.000    7.714    0.000    0.000 
#    0.000    0.000    0.000    0.000    0.000    0.000 
#
# Total GULP energy -347057.047300 kJ/mol
# GULP energy per Si atom -12394.894546 kJ/mol
# Density = 2.023610 g / cm^3
# Si number density = 20.282267 Si / 1000 Ang^3
#
#
#
# Elastic Constant Matrix: (Units=GPa)
#
#
# Indices 1 2 3 4 5 6 
#
# 1 62.5480 26.2327 13.9225 0.0000 16.3310 0.0000
# 2 26.2327 77.5943 42.6419 0.0000 15.8995 0.0000
# 3 13.9225 42.6419 110.4209 0.0000 7.3626 0.0000
# 4 0.0000 0.0000 0.0000 31.1058 0.0000 3.5248
# 5 16.3310 15.8995 7.3626 0.0000 24.3042 0.0000
# 6 0.0000 0.0000 0.0000 3.5248 0.0000 32.8265
#
#
#
# Elastic Compliance Matrix: (Units=1/GPa)
#
#
# Indices 1 2 3 4 5 6 
#
# 1 0.020844 -0.004793 -0.000053 0.000000 -0.010854 0.000000
# 2 -0.004793 0.019632 -0.006466 0.000000 -0.007663 0.000000
# 3 -0.000053 -0.006466 0.011508 0.000000 0.000780 0.000000
# 4 0.000000 0.000000 0.000000 0.032544 0.000000 -0.003495
# 5 -0.010854 -0.007663 0.000780 0.000000 0.053215 0.000000
# 6 0.000000 0.000000 0.000000 -0.003495 0.000000 0.030838
#
#
# Mechanical properties :
#
#
# Convention : Reuss Voigt Hill
#
# Bulk Modulus (GPa) = 34.06212 46.23971 40.15091
# Shear Modulus (GPa) = 24.87649 28.83171 26.85410
#
# Velocity S-wave (km/s) = 3.50596 3.77440 3.64265
# Velocity P-wave (km/s) = 5.76364 6.46857 6.12625
#
# Compressibility (1/GPa) = 0.02935813
#
# Stress axis : x y z
#
# Youngs Moduli (GPa) = 47.97572 50.93816 86.89624
#
# Poissons Ratio (x) = 0.24417 0.00463
# Poissons Ratio (y) = 0.22997 0.56186
# Poissons Ratio (z) = 0.00256 0.32936
#
# Static dielectric constant tensor:
#      x y z
#    x 3.628840 0.000000 0.008660 
#    y 0.000000 3.693150 0.000000 
#    z 0.008660 0.000000 3.755180 
# 
# 
# High freq. dielectric constant tensor:
#      x y z
#    x 1.784310 0.000000 -0.005350 
#    y 0.000000 1.778290 0.000000 
#    z -0.005350 0.000000 1.790380 
# 
# From -- ./inp_files/70520.got.cif
#   From: 2010.06.25/outbox.cif.g09.slc.cpg/sg15_36_cif.got.tgz:70520.got - 2010.06.28 07:06:18.
