data_PCOD8145406
_publ_section_title
;
Structure prediction by ZEFSAII (Michael W. Deem and Ramdas Pophale) SiO2 
 PCOD8145406
Probable space group: C 2/C
;
_chemical_formula_sum "Si O2"
_cell_formula_units_Z 48
_cell_length_a 18.078443
_cell_length_b 26.312368
_cell_length_c 5.331858
_cell_angle_alpha 90.000000
_cell_angle_beta 122.938591
_cell_angle_gamma 90.000000
_cell_volume 2128.594141
_symmetry_space_group_name_H-M "C 2/C"
_symmetry_group_IT_number 15
_symmetry_cell_setting 'monoclinic'
loop_
_space_group_symop_operation_xyz
x,y,z
-x,y,1/2-z
-x,-y,-z
x,-y,1/2+z
1/2+x,1/2+y,z
1/2-x,1/2+y,1/2-z
1/2-x,1/2-y,-z
1/2+x,1/2-y,1/2+z
loop_
_atom_site_type_symbol
_atom_site_label
_atom_site_fract_x
_atom_site_fract_y
_atom_site_fract_z
Si Si1 0.319314 0.684998 0.500328
Si Si2 0.868564 0.295634 0.678695
Si Si3 0.636910 0.110084 0.664872
Si Si4 0.000000 0.466369 0.750000
Si Si5 0.000000 0.652089 0.750000
Si Si6 0.901857 0.020005 0.272450
Si Si7 0.668364 0.377120 0.966533
O O1 0.214774 0.696393 0.289031
O O2 0.374319 0.737009 0.613426
O O3 0.348631 0.661209 0.292232
O O4 0.341894 0.649965 0.782850
O O5 0.854690 0.332229 0.417764
O O6 0.962058 0.310826 0.968679
O O7 0.587029 0.069759 0.393146
O O8 0.578024 0.114358 0.806412
O O9 0.737486 0.093525 0.896542
O O10 0.000000 0.500000 0.500000
O O11 0.904213 0.078965 0.196441
O O12 0.854129 0.010835 0.454507
O O13 0.000000 0.000000 0.500000
#
# Coordination Sequence:
#
# PCOD8145406 Si02
#       7
#     8   8   8   4   4   8   8
#     4  10  23  39  64 102 131 169 220 278 312 393
#     4  10  22  38  66  91 135 178 220 257 334 395
#     4  11  24  40  66  92 132 180 220 265 334 404
#     4  12  27  42  60  92 130 166 220 287 324 374
#     4  12  19  40  64  90 128 188 220 259 324 396
#     4  10  22  43  71  94 124 173 215 272 337 393
#     4  11  23  42  68  99 131 170 223 275 328 392
#
# _framework density 22.550094999999999
#
# number of rings (size 3 to 8) (size 9 to 14) (size 15 to 20)
#    0.000    1.333    3.333    1.500    2.333    3.333 
#    0.000    5.000    0.000    0.000    0.000    0.000 
#    0.000    0.000    0.000    0.000    0.000    0.000 
#
# Total GULP energy -297479.809161 kJ/mol
# GULP energy per Si atom -12394.992048 kJ/mol
# Density = 2.249877 g / cm^3
# Si number density = 22.550095 Si / 1000 Ang^3
#
#
#
# Elastic Constant Matrix: (Units=GPa)
#
#
# Indices 1 2 3 4 5 6 
#
# 1 50.8297 20.8108 25.2244 0.0000 -1.2033 0.0000
# 2 20.8108 135.0787 52.4089 0.0000 2.7051 0.0000
# 3 25.2244 52.4089 118.8734 0.0000 -22.4743 0.0000
# 4 0.0000 0.0000 0.0000 37.3804 0.0000 -5.9042
# 5 -1.2033 2.7051 -22.4743 0.0000 39.7161 0.0000
# 6 0.0000 0.0000 0.0000 -5.9042 0.0000 32.3678
#
#
#
# Elastic Compliance Matrix: (Units=1/GPa)
#
#
# Indices 1 2 3 4 5 6 
#
# 1 0.022493 -0.001762 -0.004305 0.000000 -0.001635 0.000000
# 2 -0.001762 0.009442 -0.004390 0.000000 -0.003181 0.000000
# 3 -0.004305 -0.004390 0.012646 0.000000 0.007325 0.000000
# 4 0.000000 0.000000 0.000000 0.027546 0.000000 0.005025
# 5 -0.001635 -0.003181 0.007325 0.000000 0.029491 0.000000
# 6 0.000000 0.000000 0.000000 0.005025 0.000000 0.031811
#
#
# Mechanical properties :
#
#
# Convention : Reuss Voigt Hill
#
# Bulk Modulus (GPa) = 42.25487 55.74108 48.99797
# Shear Modulus (GPa) = 30.82025 35.64871 33.23448
#
# Velocity S-wave (km/s) = 3.70096 3.98033 3.84318
# Velocity P-wave (km/s) = 6.08619 6.77469 6.43965
#
# Compressibility (1/GPa) = 0.02366591
#
# Stress axis : x y z
#
# Youngs Moduli (GPa) = 44.45889 105.91475 79.07617
#
# Poissons Ratio (x) = 0.18666 0.34041
# Poissons Ratio (y) = 0.07835 0.34714
# Poissons Ratio (z) = 0.19139 0.46496
#
# Static dielectric constant tensor:
#      x y z
#    x 3.638020 0.000000 0.580170 
#    y 0.000000 4.102820 0.000000 
#    z 0.580170 0.000000 3.487180 
# 
# 
# High freq. dielectric constant tensor:
#      x y z
#    x 1.875510 0.000000 -0.011780 
#    y 0.000000 1.887930 0.000000 
#    z -0.011780 0.000000 1.894770 
# 
# From -- ./inp_files/13982.got.cif
#   From: 2010.06.25/outbox.cif.g09.slc.cpg/sg15_7_cif.got.tgz:13982.got - 2010.06.28 07:06:18.
