data_PCOD8145678
_publ_section_title
;
Structure prediction by ZEFSAII (Michael W. Deem and Ramdas Pophale) SiO2 
 PCOD8145678
Probable space group: C 2/C
;
_chemical_formula_sum "Si O2"
_cell_formula_units_Z 48
_cell_length_a 15.311133
_cell_length_b 18.379770
_cell_length_c 11.672012
_cell_angle_alpha 90.000000
_cell_angle_beta 40.920872
_cell_angle_gamma 90.000000
_cell_volume 2151.518638
_symmetry_space_group_name_H-M "C 2/C"
_symmetry_group_IT_number 15
_symmetry_cell_setting 'monoclinic'
loop_
_space_group_symop_operation_xyz
x,y,z
-x,y,1/2-z
-x,-y,-z
x,-y,1/2+z
1/2+x,1/2+y,z
1/2-x,1/2+y,1/2-z
1/2-x,1/2-y,-z
1/2+x,1/2-y,1/2+z
loop_
_atom_site_type_symbol
_atom_site_label
_atom_site_fract_x
_atom_site_fract_y
_atom_site_fract_z
Si Si1 0.751628 0.338361 0.729673
Si Si2 0.122893 0.265349 0.199184
Si Si3 0.118484 0.249775 0.707534
Si Si4 0.412442 0.545378 0.430653
Si Si5 0.496209 0.602949 0.578549
Si Si6 0.857920 0.417203 0.396959
O O1 0.644543 0.276293 0.796691
O O2 0.863632 0.298927 0.696272
O O3 0.822546 0.383684 0.557686
O O4 0.655501 0.388947 0.899455
O O5 0.112631 0.352241 0.223524
O O6 0.000000 0.232757 0.250000
O O7 0.250000 0.250000 0.000000
O O8 0.250000 0.250000 0.500000
O O9 0.074912 0.167145 0.781100
O O10 0.000000 0.285210 0.750000
O O11 0.500000 0.590306 0.250000
O O12 0.410154 0.592575 0.548275
O O13 0.501564 0.472221 0.354348
O O14 0.261652 0.533412 0.533172
O O15 0.000000 0.461337 0.250000
#
# Coordination Sequence:
#
# PCOD8145678 Si02
#       6
#     8   8   8   8   8   8
#     4  11  23  39  65  99 135 180 229 282 353 419
#     4   9  20  31  57  94 131 163 200 275 350 407
#     4  12  26  44  66  95 141 183 230 290 345 423
#     4  11  23  43  72  97 136 187 236 299 329 419
#     4  11  25  42  70 102 134 187 246 272 352 427
#     4  10  22  39  65 103 140 170 227 294 361 406
#
# _framework density 22.309823000000002
#
# number of rings (size 3 to 8) (size 9 to 14) (size 15 to 20)
#    0.000    1.333    3.333    1.500   11.667    1.333 
#    0.000    1.667    0.000    0.000    0.000    0.000 
#    0.000    0.000    0.000    0.000    0.000    0.000 
#
# Total GULP energy -297361.839245 kJ/mol
# GULP energy per Si atom -12390.076635 kJ/mol
# Density = 2.225904 g / cm^3
# Si number density = 22.309823 Si / 1000 Ang^3
#
#
#
# Elastic Constant Matrix: (Units=GPa)
#
#
# Indices 1 2 3 4 5 6 
#
# 1 187.6986 33.6847 54.3681 0.0003 -17.8571 -0.0002
# 2 33.6847 51.1241 20.5329 0.0001 3.9552 -0.0002
# 3 54.3681 20.5329 124.9376 0.0003 -20.8454 -0.0002
# 4 0.0003 0.0001 0.0003 28.3133 -0.0003 -10.3593
# 5 -17.8571 3.9552 -20.8454 -0.0003 46.9425 0.0002
# 6 -0.0002 -0.0002 -0.0002 -10.3593 0.0002 4.7590
#
#
#
# Elastic Compliance Matrix: (Units=1/GPa)
#
#
# Indices 1 2 3 4 5 6 
#
# 1 0.006782 -0.003828 -0.001985 0.000000 0.002021 0.000000
# 2 -0.003828 0.023667 -0.003024 0.000001 -0.004793 0.000002
# 3 -0.001985 -0.003024 0.010024 0.000000 0.003951 0.000000
# 4 0.000000 0.000001 0.000000 0.173499 0.000000 0.377665
# 5 0.002021 -0.004793 0.003951 0.000000 0.024230 -0.000002
# 6 0.000000 0.000002 0.000000 0.377665 -0.000002 1.032213
#
#
# Mechanical properties :
#
#
# Convention : Reuss Voigt Hill
#
# Bulk Modulus (GPa) = 43.85840 64.54796 54.20318
# Shear Modulus (GPa) = 3.85896 33.01462 18.43679
#
# Velocity S-wave (km/s) = 1.31661 3.85102 2.87783
# Velocity P-wave (km/s) = 4.69177 6.98349 5.94903
#
# Compressibility (1/GPa) = 0.02280065
#
# Stress axis : x y z
#
# Youngs Moduli (GPa) = 147.45351 42.25238 99.76147
#
# Poissons Ratio (x) = 0.16172 0.19802
# Poissons Ratio (y) = 0.56438 0.30165
# Poissons Ratio (z) = 0.29269 0.12776
#
# Static dielectric constant tensor:
#      x y z
#    x -2.816610 0.000070 -0.750770 
#    y 0.000070 7.647790 0.000010 
#    z -0.750770 0.000010 3.921870 
# 
# 
# High freq. dielectric constant tensor:
#      x y z
#    x 1.890130 0.000000 -0.002430 
#    y 0.000000 1.847830 0.000000 
#    z -0.002430 0.000000 1.885480 
# 
# From -- ./inp_files/99970.got.cif
#   From: 2010.06.25/outbox.cif.g09.slc.cpg/sg15_50_cif.got.tgz:99970.got - 2010.06.28 07:06:18.
