data_PCOD8145373
_publ_section_title
;
Structure prediction by ZEFSAII (Michael W. Deem and Ramdas Pophale) SiO2 
 PCOD8145373
Probable space group: C 2/C
;
_chemical_formula_sum "Si O2"
_cell_formula_units_Z 56
_cell_length_a 24.269780
_cell_length_b 9.117856
_cell_length_c 11.933653
_cell_angle_alpha 90.000000
_cell_angle_beta 117.171269
_cell_angle_gamma 90.000000
_cell_volume 2349.356631
_symmetry_space_group_name_H-M "C 2/C"
_symmetry_group_IT_number 15
_symmetry_cell_setting 'monoclinic'
loop_
_space_group_symop_operation_xyz
x,y,z
-x,y,1/2-z
-x,-y,-z
x,-y,1/2+z
1/2+x,1/2+y,z
1/2-x,1/2+y,1/2-z
1/2-x,1/2-y,-z
1/2+x,1/2-y,1/2+z
loop_
_atom_site_type_symbol
_atom_site_label
_atom_site_fract_x
_atom_site_fract_y
_atom_site_fract_z
Si Si1 0.986375 0.745092 0.559166
Si Si2 0.144333 0.344245 0.644637
Si Si3 0.565755 0.250495 0.409094
Si Si4 0.500000 0.006056 0.750000
Si Si5 0.500000 0.507902 0.250000
Si Si6 0.332953 0.162573 0.843157
Si Si7 0.730376 0.654388 0.380278
Si Si8 0.216478 0.836591 0.372289
O O1 0.911836 0.729989 0.476484
O O2 0.016165 0.749424 0.464615
O O3 0.012876 0.606521 0.653270
O O4 0.005923 0.892176 0.644549
O O5 0.129199 0.515687 0.656826
O O6 0.207514 0.356779 0.634632
O O7 0.156458 0.252005 0.770687
O O8 0.557901 0.396340 0.325385
O O9 0.634474 0.247565 0.522991
O O10 0.557722 0.103682 0.326315
O O11 0.329175 0.271739 0.734691
O O12 0.262082 0.134639 0.810106
O O13 0.750000 0.750000 0.500000
O O14 0.702003 0.501058 0.399559
O O15 0.250000 0.750000 0.500000
#
# Coordination Sequence:
#
# PCOD8145373 Si02
#       8
#     8   8   8   4   4   8   8   8
#     4  11  23  44  65  93 131 168 209 264 318 374
#     4  10  22  41  64  90 126 158 206 261 307 374
#     4  11  23  44  65  93 131 168 209 264 318 374
#     4  10  22  38  64  98 120 164 212 256 302 386
#     4  10  26  42  60  90 132 168 224 248 310 382
#     4  10  22  41  64  90 126 158 206 261 307 374
#     4  10  22  41  63  93 123 162 206 253 314 372
#     4  10  22  41  63  93 123 162 206 253 314 372
#
# _framework density 23.836313000000001
#
# number of rings (size 3 to 8) (size 9 to 14) (size 15 to 20)
#    0.000    1.714    1.429    1.714    2.000    5.714 
#    5.143    0.000    0.000    0.000    0.000    0.000 
#    0.000    0.000    0.000    0.000    0.000    0.000 
#
# Total GULP energy -346992.495766 kJ/mol
# GULP energy per Si atom -12392.589135 kJ/mol
# Density = 2.378206 g / cm^3
# Si number density = 23.836313 Si / 1000 Ang^3
#
#
#
# Elastic Constant Matrix: (Units=GPa)
#
#
# Indices 1 2 3 4 5 6 
#
# 1 43.5059 14.8628 9.7299 0.0000 16.5578 0.0000
# 2 14.8628 205.5737 93.5911 0.0000 14.5430 0.0000
# 3 9.7299 93.5911 175.0004 0.0000 32.2421 0.0000
# 4 0.0000 0.0000 0.0000 58.0966 0.0000 4.1421
# 5 16.5578 14.5430 32.2421 0.0000 27.4708 0.0000
# 6 0.0000 0.0000 0.0000 4.1421 0.0000 15.6774
#
#
#
# Elastic Compliance Matrix: (Units=1/GPa)
#
#
# Indices 1 2 3 4 5 6 
#
# 1 0.031264 -0.002319 0.003506 0.000000 -0.021731 0.000000
# 2 -0.002319 0.006616 -0.003855 0.000000 0.002420 0.000000
# 3 0.003506 -0.003855 0.009690 0.000000 -0.011445 0.000000
# 4 0.000000 0.000000 0.000000 0.017543 0.000000 -0.004635
# 5 -0.021731 0.002420 -0.011445 0.000000 0.061652 0.000000
# 6 0.000000 0.000000 0.000000 -0.004635 0.000000 0.065011
#
#
# Mechanical properties :
#
#
# Convention : Reuss Voigt Hill
#
# Bulk Modulus (GPa) = 23.67826 73.38305 48.53066
# Shear Modulus (GPa) = 23.67532 40.64206 32.15869
#
# Velocity S-wave (km/s) = 3.15500 4.13370 3.67706
# Velocity P-wave (km/s) = 4.81947 7.32369 6.19934
#
# Compressibility (1/GPa) = 0.04223283
#
# Stress axis : x y z
#
# Youngs Moduli (GPa) = 31.98548 151.14720 103.20180
#
# Poissons Ratio (x) = 0.35052 -0.36180
# Poissons Ratio (y) = 0.07418 0.39787
# Poissons Ratio (z) = -0.11213 0.58271
#
# Static dielectric constant tensor:
#      x y z
#    x 4.013750 0.000000 0.034260 
#    y 0.000000 4.800770 0.000000 
#    z 0.034260 0.000000 4.565560 
# 
# 
# High freq. dielectric constant tensor:
#      x y z
#    x 1.911810 0.000000 0.010000 
#    y 0.000000 1.962870 0.000000 
#    z 0.010000 0.000000 1.960890 
# 
# From -- ./inp_files/126010.got.cif
#   From: 2010.06.25/outbox.cif.g09.slc.cpg/sg15_64_cif.got.tgz:126010.got - 2010.06.28 07:06:18.
