data_PCOD8145900
_publ_section_title
;
Structure prediction by ZEFSAII (Michael W. Deem and Ramdas Pophale) SiO2 
 PCOD8145900
Probable space group: C 2/C
;
_chemical_formula_sum "Si O2"
_cell_formula_units_Z 44
_cell_length_a 11.341756
_cell_length_b 20.058972
_cell_length_c 9.974190
_cell_angle_alpha 90.000000
_cell_angle_beta 65.987106
_cell_angle_gamma 90.000000
_cell_volume 2072.780164
_symmetry_space_group_name_H-M "C 2/C"
_symmetry_group_IT_number 15
_symmetry_cell_setting 'monoclinic'
loop_
_space_group_symop_operation_xyz
x,y,z
-x,y,1/2-z
-x,-y,-z
x,-y,1/2+z
1/2+x,1/2+y,z
1/2-x,1/2+y,1/2-z
1/2-x,1/2-y,-z
1/2+x,1/2-y,1/2+z
loop_
_atom_site_type_symbol
_atom_site_label
_atom_site_fract_x
_atom_site_fract_y
_atom_site_fract_z
Si Si1 0.280578 0.944881 0.204675
Si Si2 0.014395 0.349991 0.090061
Si Si3 0.645742 0.679267 0.669317
Si Si4 0.362238 0.270916 0.610927
Si Si5 0.500000 0.635250 0.250000
Si Si6 0.258587 0.432599 0.969837
O O1 0.418887 0.912193 0.107073
O O2 0.165680 0.895851 0.211402
O O3 0.264572 0.960997 0.370011
O O4 0.270634 0.012554 0.127854
O O5 0.000000 0.327087 0.250000
O O6 0.974160 0.284036 0.024219
O O7 0.160180 0.371320 0.987967
O O8 0.500000 0.701908 0.750000
O O9 0.680423 0.685171 0.496522
O O10 0.736661 0.728308 0.715405
O O11 0.404697 0.320801 0.705891
O O12 0.592922 0.590904 0.112760
#
# Coordination Sequence:
#
# PCOD8145900 Si02
#       6
#     8   8   8   8   4   8
#     4  10  23  43  65  92 126 169 218 266 315 380
#     4   9  19  42  65  93 125 166 212 272 318 369
#     4  10  22  40  64  87 128 169 205 268 324 367
#     4  10  22  40  62  95 127 161 219 258 318 392
#     4  12  26  38  64 100 130 172 212 258 322 394
#     4  11  25  40  66  92 132 171 214 263 317 377
#
# _framework density 21.227526999999998
#
# number of rings (size 3 to 8) (size 9 to 14) (size 15 to 20)
#    0.000    1.818    0.909    1.636    6.364    1.455 
#    0.000    0.000    0.000    0.000    0.000    0.000 
#    0.000    0.000    0.000    0.000    0.000    0.000 
#
# Total GULP energy -272785.925257 kJ/mol
# GULP energy per Si atom -12399.360239 kJ/mol
# Density = 2.117921 g / cm^3
# Si number density = 21.227527 Si / 1000 Ang^3
#
#
#
# Elastic Constant Matrix: (Units=GPa)
#
#
# Indices 1 2 3 4 5 6 
#
# 1 102.7030 20.0626 29.5003 0.0000 -1.7512 0.0000
# 2 20.0626 59.2270 31.9877 0.0000 9.0965 0.0000
# 3 29.5003 31.9877 76.5906 0.0000 4.2174 0.0000
# 4 0.0000 0.0000 0.0000 25.6718 0.0000 15.7701
# 5 -1.7512 9.0965 4.2174 0.0000 42.1302 0.0000
# 6 0.0000 0.0000 0.0000 15.7701 0.0000 28.7611
#
#
#
# Elastic Compliance Matrix: (Units=1/GPa)
#
#
# Indices 1 2 3 4 5 6 
#
# 1 0.011172 -0.002088 -0.003501 0.000000 0.001266 0.000000
# 2 -0.002088 0.022820 -0.008497 0.000000 -0.004163 0.000000
# 3 -0.003501 -0.008497 0.017960 0.000000 -0.000109 0.000000
# 4 0.000000 0.000000 0.000000 0.058738 0.000000 -0.032207
# 5 0.001266 -0.004163 -0.000109 0.000000 0.024698 0.000000
# 6 0.000000 0.000000 0.000000 -0.032207 0.000000 0.052429
#
#
# Mechanical properties :
#
#
# Convention : Reuss Voigt Hill
#
# Bulk Modulus (GPa) = 42.05271 44.62463 43.33867
# Shear Modulus (GPa) = 22.32994 29.77729 26.05361
#
# Velocity S-wave (km/s) = 3.24687 3.74942 3.50716
# Velocity P-wave (km/s) = 5.82320 6.30966 6.07131
#
# Compressibility (1/GPa) = 0.02377968
#
# Stress axis : x y z
#
# Youngs Moduli (GPa) = 89.51096 43.82092 55.68059
#
# Poissons Ratio (x) = 0.09150 0.19492
# Poissons Ratio (y) = 0.18691 0.47313
# Poissons Ratio (z) = 0.31335 0.37236
#
# Static dielectric constant tensor:
#      x y z
#    x 4.116590 0.000000 0.109740 
#    y 0.000000 3.686780 0.000000 
#    z 0.109740 0.000000 3.629340 
# 
# 
# High freq. dielectric constant tensor:
#      x y z
#    x 1.851770 0.000000 0.009040 
#    y 0.000000 1.825380 0.000000 
#    z 0.009040 0.000000 1.811510 
# 
# From -- ./inp_files/30727.got.cif
#   From: 2010.06.25/outbox.cif.g09.slc.cpg/sg15_16_cif.got.tgz:30727.got - 2010.06.28 07:06:18.
