data_PCOD8145377
_publ_section_title
;
Structure prediction by ZEFSAII (Michael W. Deem and Ramdas Pophale) SiO2 
 PCOD8145377
Probable space group: C 2/C
;
_chemical_formula_sum "Si O2"
_cell_formula_units_Z 60
_cell_length_a 20.720207
_cell_length_b 11.229669
_cell_length_c 13.759737
_cell_angle_alpha 90.000000
_cell_angle_beta 119.380794
_cell_angle_gamma 90.000000
_cell_volume 2789.831202
_symmetry_space_group_name_H-M "C 2/C"
_symmetry_group_IT_number 15
_symmetry_cell_setting 'monoclinic'
loop_
_space_group_symop_operation_xyz
x,y,z
-x,y,1/2-z
-x,-y,-z
x,-y,1/2+z
1/2+x,1/2+y,z
1/2-x,1/2+y,1/2-z
1/2-x,1/2-y,-z
1/2+x,1/2-y,1/2+z
loop_
_atom_site_type_symbol
_atom_site_label
_atom_site_fract_x
_atom_site_fract_y
_atom_site_fract_z
Si Si1 0.256618 0.873958 0.449700
Si Si2 0.069242 0.828363 0.528052
Si Si3 0.119862 0.612124 0.193403
Si Si4 0.016044 0.014265 0.153455
Si Si5 0.583028 0.058644 0.493103
Si Si6 0.500000 0.938554 0.750000
Si Si7 0.653088 0.367375 0.197193
Si Si8 0.715898 0.551783 0.112252
O O1 0.250000 0.750000 0.500000
O O2 0.336285 0.926901 0.489495
O O3 0.219980 0.854913 0.320140
O O4 0.218345 0.964110 0.497452
O O5 0.022332 0.869469 0.588453
O O6 0.049319 0.691051 0.489809
O O7 0.158972 0.842398 0.604738
O O8 0.046836 0.920111 0.425601
O O9 0.081185 0.520211 0.089454
O O10 0.121802 0.739661 0.142385
O O11 0.202724 0.572424 0.282360
O O12 0.070090 0.631839 0.254301
O O13 0.000000 0.059733 0.250000
O O14 0.093645 0.947343 0.207648
O O15 0.535056 0.994614 0.370559
O O16 0.683039 0.426514 0.121787
#
# Coordination Sequence:
#
# PCOD8145377 Si02
#       8
#     8   8   8   8   8   4   8   8
#     4  12  20  37  68  97 124 172 228 273 326 399
#     4  10  22  39  64 100 134 172 224 283 326 395
#     4  12  25  43  67  99 134 178 223 274 338 397
#     4  10  22  38  64  98 135 177 222 275 341 390
#     4  12  24  42  68  95 134 172 225 276 333 397
#     4  12  26  44  68  96 126 182 224 270 322 406
#     4  11  23  40  67  97 137 171 222 283 328 398
#     4  11  22  39  65 101 131 167 223 279 335 382
#
# _framework density 21.506677
#
# number of rings (size 3 to 8) (size 9 to 14) (size 15 to 20)
#    0.000    0.800    5.333    2.000    3.733    0.000 
#    1.200    0.667    5.867    0.000    0.000    0.000 
#    0.000    0.000    0.000    0.000    0.000    0.000 
#
# Total GULP energy -371693.684848 kJ/mol
# GULP energy per Si atom -12389.789495 kJ/mol
# Density = 2.145773 g / cm^3
# Si number density = 21.506677 Si / 1000 Ang^3
#
#
#
# Elastic Constant Matrix: (Units=GPa)
#
#
# Indices 1 2 3 4 5 6 
#
# 1 123.9528 40.4078 32.8858 0.0000 -20.7691 0.0000
# 2 40.4078 81.4082 33.2402 0.0000 -23.4853 0.0000
# 3 32.8858 33.2402 118.6418 0.0000 -11.2279 0.0000
# 4 0.0000 0.0000 0.0000 25.3147 0.0000 -1.9424
# 5 -20.7691 -23.4853 -11.2279 0.0000 41.0181 0.0000
# 6 0.0000 0.0000 0.0000 -1.9424 0.0000 18.5747
#
#
#
# Elastic Compliance Matrix: (Units=1/GPa)
#
#
# Indices 1 2 3 4 5 6 
#
# 1 0.010096 -0.003631 -0.001534 0.000000 0.002613 0.000000
# 2 -0.003631 0.017503 -0.003206 0.000000 0.007305 0.000000
# 3 -0.001534 -0.003206 0.009758 0.000000 0.000059 0.000000
# 4 0.000000 0.000000 0.000000 0.039822 0.000000 0.004164
# 5 0.002613 0.007305 0.000059 0.000000 0.029901 0.000000
# 6 0.000000 0.000000 0.000000 0.004164 0.000000 0.054272
#
#
# Mechanical properties :
#
#
# Convention : Reuss Voigt Hill
#
# Bulk Modulus (GPa) = 48.50943 59.67449 54.09196
# Shear Modulus (GPa) = 27.03210 31.47944 29.25577
#
# Velocity S-wave (km/s) = 3.54915 3.82999 3.69224
# Velocity P-wave (km/s) = 6.27692 6.88227 6.58655
#
# Compressibility (1/GPa) = 0.02061455
#
# Stress axis : x y z
#
# Youngs Moduli (GPa) = 99.04799 57.13434 102.48359
#
# Poissons Ratio (x) = 0.20746 0.15719
# Poissons Ratio (y) = 0.35966 0.32855
# Poissons Ratio (z) = 0.15192 0.18317
#
# Static dielectric constant tensor:
#      x y z
#    x 4.342130 0.000000 -0.067460 
#    y 0.000000 3.729630 0.000000 
#    z -0.067460 0.000000 4.405830 
# 
# 
# High freq. dielectric constant tensor:
#      x y z
#    x 1.873090 0.000000 0.013420 
#    y 0.000000 1.807100 0.000000 
#    z 0.013420 0.000000 1.853090 
# 
# From -- ./inp_files/167680.got.cif
#   From: 2010.06.25/outbox.cif.g09.slc.cpg/sg15_84_cif.got.tgz:167680.got - 2010.06.28 07:06:18.
