data_PCOD8145287
_publ_section_title
;
Structure prediction by ZEFSAII (Michael W. Deem and Ramdas Pophale) SiO2 
 PCOD8145287
Probable space group: C 2/C
;
_chemical_formula_sum "Si O2"
_cell_formula_units_Z 40
_cell_length_a 12.221131
_cell_length_b 11.889380
_cell_length_c 14.119577
_cell_angle_alpha 90.000000
_cell_angle_beta 88.164107
_cell_angle_gamma 90.000000
_cell_volume 2050.545013
_symmetry_space_group_name_H-M "C 2/C"
_symmetry_group_IT_number 15
_symmetry_cell_setting 'monoclinic'
loop_
_space_group_symop_operation_xyz
x,y,z
-x,y,1/2-z
-x,-y,-z
x,-y,1/2+z
1/2+x,1/2+y,z
1/2-x,1/2+y,1/2-z
1/2-x,1/2-y,-z
1/2+x,1/2-y,1/2+z
loop_
_atom_site_type_symbol
_atom_site_label
_atom_site_fract_x
_atom_site_fract_y
_atom_site_fract_z
Si Si1 0.321594 0.907584 0.047077
Si Si2 0.777886 0.973613 0.631049
Si Si3 0.601207 0.322128 0.002838
Si Si4 0.884870 0.579449 0.204907
Si Si5 0.072944 0.172783 0.840720
O O1 0.205745 0.843116 0.070343
O O2 0.361807 0.980100 0.132838
O O3 0.409923 0.810067 0.022001
O O4 0.305970 0.987906 0.955225
O O5 0.821061 0.093637 0.665144
O O6 0.880573 0.894904 0.594149
O O7 0.713185 0.913610 0.717195
O O8 0.493288 0.359110 0.062111
O O9 0.887428 0.699086 0.152879
O O10 0.000000 0.551522 0.250000
O O11 0.000000 0.153044 0.750000
#
# Coordination Sequence:
#
# PCOD8145287 Si02
#       5
#     8   8   8   8   8
#     4   9  20  39  63  82 123 149 194 239 291 341
#     4  10  22  38  62  85 119 151 201 236 292 343
#     4   9  20  40  64  83 115 158 191 236 298 341
#     4  11  24  37  60  90 116 158 196 240 292 344
#     4  11  22  37  63  87 119 154 198 236 294 351
#
# _framework density 19.507007999999999
#
# number of rings (size 3 to 8) (size 9 to 14) (size 15 to 20)
#    1.200    0.800    0.000    4.200    2.800    4.000 
#    0.000    1.000    0.000    0.000    0.000    0.000 
#    0.000    0.000    0.000    0.000    0.000    0.000 
#
# Total GULP energy -247882.854523 kJ/mol
# GULP energy per Si atom -12394.142726 kJ/mol
# Density = 1.946261 g / cm^3
# Si number density = 19.507008 Si / 1000 Ang^3
#
#
#
# Elastic Constant Matrix: (Units=GPa)
#
#
# Indices 1 2 3 4 5 6 
#
# 1 49.3883 44.3182 31.0175 0.0000 -13.5595 0.0000
# 2 44.3182 117.7192 55.7187 0.0000 11.1480 0.0000
# 3 31.0175 55.7187 90.2722 0.0000 -9.5396 0.0000
# 4 0.0000 0.0000 0.0000 35.5195 0.0000 3.1483
# 5 -13.5595 11.1480 -9.5396 0.0000 33.6399 0.0000
# 6 0.0000 0.0000 0.0000 3.1483 0.0000 33.2822
#
#
#
# Elastic Compliance Matrix: (Units=1/GPa)
#
#
# Indices 1 2 3 4 5 6 
#
# 1 0.043554 -0.017871 -0.001499 0.000000 0.023053 0.000000
# 2 -0.017871 0.020767 -0.008419 0.000000 -0.016473 0.000000
# 3 -0.001499 -0.008419 0.017546 0.000000 0.007161 0.000000
# 4 0.000000 0.000000 0.000000 0.028392 0.000000 -0.002686
# 5 0.023053 -0.016473 0.007161 0.000000 0.046508 0.000000
# 6 0.000000 0.000000 0.000000 -0.002686 0.000000 0.030300
#
#
# Mechanical properties :
#
#
# Convention : Reuss Voigt Hill
#
# Bulk Modulus (GPa) = 38.03579 57.72093 47.87836
# Shear Modulus (GPa) = 19.88803 28.91000 24.39901
#
# Velocity S-wave (km/s) = 3.19648 3.85389 3.54048
# Velocity P-wave (km/s) = 5.75883 7.03260 6.42735
#
# Compressibility (1/GPa) = 0.02629102
#
# Stress axis : x y z
#
# Youngs Moduli (GPa) = 22.95978 48.15248 56.99447
#
# Poissons Ratio (x) = 0.86053 0.08542
# Poissons Ratio (y) = 0.41031 0.47981
# Poissons Ratio (z) = 0.03441 0.40538
#
# Static dielectric constant tensor:
#      x y z
#    x 3.315750 0.000000 -0.186450 
#    y 0.000000 3.412290 0.000000 
#    z -0.186450 0.000000 3.480000 
# 
# 
# High freq. dielectric constant tensor:
#      x y z
#    x 1.736130 0.000000 -0.021130 
#    y 0.000000 1.759970 0.000000 
#    z -0.021130 0.000000 1.757800 
# 
# From -- ./inp_files/141732.got.cif
#   From: 2010.06.25/outbox.cif.g09.slc.cpg/sg15_71_cif.got.tgz:141732.got - 2010.06.28 07:06:18.
