data_PCOD8145307
_publ_section_title
;
Structure prediction by ZEFSAII (Michael W. Deem and Ramdas Pophale) SiO2 
 PCOD8145307
Probable space group: C 2/C
;
_chemical_formula_sum "Si O2"
_cell_formula_units_Z 56
_cell_length_a 12.927602
_cell_length_b 18.532434
_cell_length_c 20.111116
_cell_angle_alpha 90.000000
_cell_angle_beta 147.187476
_cell_angle_gamma 90.000000
_cell_volume 2610.954429
_symmetry_space_group_name_H-M "C 2/C"
_symmetry_group_IT_number 15
_symmetry_cell_setting 'monoclinic'
loop_
_space_group_symop_operation_xyz
x,y,z
-x,y,1/2-z
-x,-y,-z
x,-y,1/2+z
1/2+x,1/2+y,z
1/2-x,1/2+y,1/2-z
1/2-x,1/2-y,-z
1/2+x,1/2-y,1/2+z
loop_
_atom_site_type_symbol
_atom_site_label
_atom_site_fract_x
_atom_site_fract_y
_atom_site_fract_z
Si Si1 0.114365 0.895694 0.421829
Si Si2 0.218959 0.172261 0.246148
Si Si3 0.509064 0.454456 0.599077
Si Si4 0.708327 0.163906 0.728265
Si Si5 0.393554 0.165885 0.972731
Si Si6 0.696144 0.040173 0.823585
Si Si7 0.216635 0.684325 0.370252
O O1 0.226286 0.882920 0.413916
O O2 0.250237 0.879785 0.558992
O O3 0.930364 0.844108 0.328662
O O4 0.058943 0.979285 0.392300
O O5 0.053330 0.113198 0.172767
O O6 0.168263 0.255279 0.234617
O O7 0.406976 0.146687 0.385750
O O8 0.228227 0.158503 0.172452
O O9 0.702959 0.477886 0.664764
O O10 0.343862 0.431260 0.458673
O O11 0.588669 0.150674 0.596208
O O12 0.640940 0.108391 0.747667
O O13 0.345878 0.248709 0.963032
O O14 0.500000 0.010416 0.750000
O O15 0.000000 0.710760 0.250000
#
# Coordination Sequence:
#
# PCOD8145307 Si02
#       7
#     8   8   8   8   8   8   8
#     4  11  20  38  56  94 130 166 203 262 316 389
#     4  11  21  36  59  92 130 163 208 257 307 372
#     4  10  24  38  66  95 126 160 220 263 311 378
#     4  10  22  38  62  92 127 161 210 260 317 379
#     4  11  21  33  61  91 133 170 194 256 331 379
#     4  10  22  44  69  90 119 168 216 272 312 365
#     4  11  19  30  56  96 124 161 210 254 314 382
#
# _framework density 21.448096
#
# number of rings (size 3 to 8) (size 9 to 14) (size 15 to 20)
#    0.000    1.429    2.857    5.143    4.000    1.143 
#    0.000    3.571    9.429    0.000    0.000    0.000 
#    0.000    0.000    0.000    0.000    0.000    0.000 
#
# Total GULP energy -347179.557980 kJ/mol
# GULP energy per Si atom -12399.269928 kJ/mol
# Density = 2.139928 g / cm^3
# Si number density = 21.448096 Si / 1000 Ang^3
#
#
#
# Elastic Constant Matrix: (Units=GPa)
#
#
# Indices 1 2 3 4 5 6 
#
# 1 55.1114 25.0807 19.1449 -0.0004 5.0387 -0.0002
# 2 25.0807 121.2896 42.5805 -0.0017 -4.1672 -0.0006
# 3 19.1449 42.5805 98.4788 -0.0042 4.7816 -0.0007
# 4 -0.0004 -0.0017 -0.0042 34.9949 -0.0002 0.9188
# 5 5.0387 -4.1672 4.7816 -0.0002 13.4914 0.0001
# 6 -0.0002 -0.0006 -0.0007 0.9188 0.0001 17.9544
#
#
#
# Elastic Compliance Matrix: (Units=1/GPa)
#
#
# Indices 1 2 3 4 5 6 
#
# 1 0.021457 -0.004022 -0.002018 0.000000 -0.008541 0.000000
# 2 -0.004022 0.010759 -0.004176 0.000000 0.006306 0.000000
# 3 -0.002018 -0.004176 0.012595 0.000001 -0.005000 0.000000
# 4 0.000000 0.000000 0.000001 0.028614 0.000000 -0.001464
# 5 -0.008541 0.006306 -0.005000 0.000000 0.081031 -0.000001
# 6 0.000000 0.000000 0.000000 -0.001464 -0.000001 0.055772
#
#
# Mechanical properties :
#
#
# Convention : Reuss Voigt Hill
#
# Bulk Modulus (GPa) = 41.01790 49.83244 45.42517
# Shear Modulus (GPa) = 20.93911 25.82637 23.38274
#
# Velocity S-wave (km/s) = 3.12792 3.47383 3.30540
# Velocity P-wave (km/s) = 5.67547 6.27490 5.98270
#
# Compressibility (1/GPa) = 0.02437960
#
# Stress axis : x y z
#
# Youngs Moduli (GPa) = 46.60414 92.94317 79.39477
#
# Poissons Ratio (x) = 0.37383 0.16019
# Poissons Ratio (y) = 0.18745 0.33158
# Poissons Ratio (z) = 0.09403 0.38816
#
# Static dielectric constant tensor:
#      x y z
#    x 3.484100 0.000000 -0.077650 
#    y 0.000000 3.850060 0.000000 
#    z -0.077650 0.000000 3.952160 
# 
# 
# High freq. dielectric constant tensor:
#      x y z
#    x 1.796280 0.000000 -0.008640 
#    y 0.000000 1.845450 0.000000 
#    z -0.008640 0.000000 1.852750 
# 
# From -- ./inp_files/245186.got.cif
#   From: 2010.06.25/outbox.cif.g09.slc.cpg/sg15_123_cif.got.tgz:245186.got - 2010.06.28 07:06:18.
