data_PCOD8145599
_publ_section_title
;
Structure prediction by ZEFSAII (Michael W. Deem and Ramdas Pophale) SiO2 
 PCOD8145599
Probable space group: C 2/C
;
_chemical_formula_sum "Si O2"
_cell_formula_units_Z 60
_cell_length_a 13.396951
_cell_length_b 13.363715
_cell_length_c 16.934886
_cell_angle_alpha 90.000000
_cell_angle_beta 102.579521
_cell_angle_gamma 90.000000
_cell_volume 2959.122181
_symmetry_space_group_name_H-M "C 2/C"
_symmetry_group_IT_number 15
_symmetry_cell_setting 'monoclinic'
loop_
_space_group_symop_operation_xyz
x,y,z
-x,y,1/2-z
-x,-y,-z
x,-y,1/2+z
1/2+x,1/2+y,z
1/2-x,1/2+y,1/2-z
1/2-x,1/2-y,-z
1/2+x,1/2-y,1/2+z
loop_
_atom_site_type_symbol
_atom_site_label
_atom_site_fract_x
_atom_site_fract_y
_atom_site_fract_z
Si Si1 0.837460 0.804584 0.323446
Si Si2 0.316102 0.144018 0.121499
Si Si3 0.618047 0.974298 0.018943
Si Si4 0.409342 0.513020 0.093418
Si Si5 0.000000 0.290020 0.750000
Si Si6 0.867809 0.007104 0.406234
Si Si7 0.252820 0.833889 0.935203
Si Si8 0.235701 0.861173 0.353472
O O1 0.950956 0.780175 0.309729
O O2 0.794335 0.706149 0.358918
O O3 0.762344 0.837374 0.239359
O O4 0.839955 0.891209 0.389178
O O5 0.409537 0.141097 0.199945
O O6 0.222757 0.078464 0.140503
O O7 0.278225 0.257511 0.101214
O O8 0.356969 0.099392 0.047752
O O9 0.658501 0.916636 0.104401
O O10 0.676940 0.077801 0.018299
O O11 0.500000 0.000000 0.000000
O O12 0.530122 0.528360 0.127299
O O13 0.359999 0.621957 0.099059
O O14 0.361508 0.432336 0.145145
O O15 0.386239 0.471667 0.001509
O O16 0.250000 0.750000 0.000000
#
# Coordination Sequence:
#
# PCOD8145599 Si02
#       8
#     8   8   8   8   4   8   8   8
#     4  11  22  41  64  89 127 171 210 264 317 389
#     4  11  21  40  62  93 125 167 215 267 316 387
#     4  11  23  38  62  91 127 166 210 267 322 384
#     4  10  22  39  62  95 124 161 215 263 312 383
#     4  10  24  40  64  96 126 174 216 264 328 384
#     4  11  21  37  65  93 122 165 208 266 315 374
#     4  11  21  41  61  92 124 166 207 256 324 384
#     4  10  23  41  62  90 127 165 219 259 317 383
#
# _framework density 20.276284
#
# number of rings (size 3 to 8) (size 9 to 14) (size 15 to 20)
#    0.000    1.333    4.000    2.800    0.000    6.400 
#    0.000    0.000    0.000    6.400    0.000    0.000 
#    0.000    0.000    0.000    0.000    0.000    0.000 
#
# Total GULP energy -371998.016552 kJ/mol
# GULP energy per Si atom -12399.933885 kJ/mol
# Density = 2.023013 g / cm^3
# Si number density = 20.276284 Si / 1000 Ang^3
#
#
#
# Elastic Constant Matrix: (Units=GPa)
#
#
# Indices 1 2 3 4 5 6 
#
# 1 125.4860 41.4031 22.6533 0.0000 22.0413 0.0000
# 2 41.4031 113.0216 24.1599 0.0000 2.4435 0.0000
# 3 22.6533 24.1599 70.0942 0.0000 6.7550 0.0000
# 4 0.0000 0.0000 0.0000 35.0233 0.0000 -1.0113
# 5 22.0413 2.4435 6.7550 0.0000 38.1214 0.0000
# 6 0.0000 0.0000 0.0000 -1.0113 0.0000 33.9099
#
#
#
# Elastic Compliance Matrix: (Units=1/GPa)
#
#
# Indices 1 2 3 4 5 6 
#
# 1 0.010320 -0.003306 -0.001670 0.000000 -0.005459 0.000000
# 2 -0.003306 0.010610 -0.002755 0.000000 0.001719 0.000000
# 3 -0.001670 -0.002755 0.015917 0.000000 -0.001679 0.000000
# 4 0.000000 0.000000 0.000000 0.028577 0.000000 0.000852
# 5 -0.005459 0.001719 -0.001679 0.000000 0.029576 0.000000
# 6 0.000000 0.000000 0.000000 0.000852 0.000000 0.029515
#
#
# Mechanical properties :
#
#
# Convention : Reuss Voigt Hill
#
# Bulk Modulus (GPa) = 46.75528 53.89271 50.32400
# Shear Modulus (GPa) = 33.98937 36.10329 35.04633
#
# Velocity S-wave (km/s) = 4.09872 4.22425 4.16196
# Velocity P-wave (km/s) = 6.74600 7.10136 6.92596
#
# Compressibility (1/GPa) = 0.02138796
#
# Stress axis : x y z
#
# Youngs Moduli (GPa) = 96.89953 94.24685 62.82446
#
# Poissons Ratio (x) = 0.31154 0.10490
# Poissons Ratio (y) = 0.32030 0.17305
# Poissons Ratio (z) = 0.16180 0.25961
#
# Static dielectric constant tensor:
#      x y z
#    x 4.072870 0.000000 0.008040 
#    y 0.000000 3.860690 0.000000 
#    z 0.008040 0.000000 3.570740 
# 
# 
# High freq. dielectric constant tensor:
#      x y z
#    x 1.792560 0.000000 -0.000360 
#    y 0.000000 1.799380 0.000000 
#    z -0.000360 0.000000 1.782970 
# 
# From -- ./inp_files/204504.got.cif
#   From: 2010.06.25/outbox.cif.g09.slc.cpg/sg15_103_cif.got.tgz:204504.got - 2010.06.28 07:06:18.
