data_PCOD8145399
_publ_section_title
;
Structure prediction by ZEFSAII (Michael W. Deem and Ramdas Pophale) SiO2 
 PCOD8145399
Probable space group: C 2/C
;
_chemical_formula_sum "Si O2"
_cell_formula_units_Z 60
_cell_length_a 19.596979
_cell_length_b 17.716009
_cell_length_c 11.601887
_cell_angle_alpha 90.000000
_cell_angle_beta 40.633039
_cell_angle_gamma 90.000000
_cell_volume 2623.046575
_symmetry_space_group_name_H-M "C 2/C"
_symmetry_group_IT_number 15
_symmetry_cell_setting 'monoclinic'
loop_
_space_group_symop_operation_xyz
x,y,z
-x,y,1/2-z
-x,-y,-z
x,-y,1/2+z
1/2+x,1/2+y,z
1/2-x,1/2+y,1/2-z
1/2-x,1/2-y,-z
1/2+x,1/2-y,1/2+z
loop_
_atom_site_type_symbol
_atom_site_label
_atom_site_fract_x
_atom_site_fract_y
_atom_site_fract_z
Si Si1 0.368732 0.648293 0.534359
Si Si2 0.678022 0.371457 0.776957
Si Si3 0.339477 0.964276 0.693903
Si Si4 0.000000 0.727329 0.750000
Si Si5 0.659295 0.476724 0.582541
Si Si6 0.141754 0.300569 0.273290
Si Si7 0.532117 0.425787 0.390205
Si Si8 0.038596 0.407922 0.570737
O O1 0.434418 0.722528 0.422983
O O2 0.411400 0.574583 0.411964
O O3 0.250160 0.654306 0.640643
O O4 0.386003 0.628805 0.646146
O O5 0.783450 0.390656 0.711147
O O6 0.679524 0.430525 0.671986
O O7 0.673838 0.286977 0.734200
O O8 0.577084 0.381734 0.989825
O O9 0.443250 0.933786 0.616301
O O10 0.369679 0.028451 0.559428
O O11 0.267979 0.000980 0.883587
O O12 0.079017 0.680053 0.733000
O O13 0.591916 0.552129 0.696100
O O14 0.076490 0.327774 0.468746
O O15 0.500000 0.500000 0.500000
O O16 0.000000 0.395629 0.750000
#
# Coordination Sequence:
#
# PCOD8145399 Si02
#       8
#     8   8   8   4   8   8   8   8
#     4  12  23  42  68 107 141 185 235 299 366 415
#     4  11  24  42  68 108 142 185 241 296 367 435
#     4  11  25  45  75 103 133 192 253 297 364 428
#     4  12  24  46  68 104 146 188 246 294 354 438
#     4  11  21  40  71 101 140 183 233 306 356 427
#     4  12  27  45  72 105 147 195 240 300 363 432
#     4  10  22  38  66 100 145 177 226 297 361 419
#     4  11  27  52  70  99 146 194 242 306 360 440
#
# _framework density 22.874164
#
# number of rings (size 3 to 8) (size 9 to 14) (size 15 to 20)
#    0.000    0.800    4.000    3.600    3.733    2.667 
#    7.200    0.667    0.000    0.000    0.000    0.000 
#    0.000    0.000    0.000    0.000    0.000    0.000 
#
# Total GULP energy -371777.272887 kJ/mol
# GULP energy per Si atom -12392.575763 kJ/mol
# Density = 2.282210 g / cm^3
# Si number density = 22.874164 Si / 1000 Ang^3
#
#
#
# Elastic Constant Matrix: (Units=GPa)
#
#
# Indices 1 2 3 4 5 6 
#
# 1 118.6561 41.0123 37.7608 0.0000 -11.4992 0.0000
# 2 41.0123 59.3361 26.3496 0.0000 0.4360 0.0000
# 3 37.7608 26.3496 119.5663 0.0000 5.4511 0.0000
# 4 0.0000 0.0000 0.0000 32.7579 0.0000 -1.6826
# 5 -11.4992 0.4360 5.4511 0.0000 33.8372 0.0000
# 6 0.0000 0.0000 0.0000 -1.6826 0.0000 26.3992
#
#
#
# Elastic Compliance Matrix: (Units=1/GPa)
#
#
# Indices 1 2 3 4 5 6 
#
# 1 0.012207 -0.007388 -0.002438 0.000000 0.004636 0.000000
# 2 -0.007388 0.023160 -0.002662 0.000000 -0.002380 0.000000
# 3 -0.002438 -0.002662 0.009829 0.000000 -0.002378 0.000000
# 4 0.000000 0.000000 0.000000 0.030627 0.000000 0.001952
# 5 0.004636 -0.002380 -0.002378 0.000000 0.031543 0.000000
# 6 0.000000 0.000000 0.000000 0.001952 0.000000 0.038004
#
#
# Mechanical properties :
#
#
# Convention : Reuss Voigt Hill
#
# Bulk Modulus (GPa) = 49.46152 56.42267 52.94209
# Shear Modulus (GPa) = 28.23499 31.42792 29.83145
#
# Velocity S-wave (km/s) = 3.51716 3.71070 3.61523
# Velocity P-wave (km/s) = 6.17771 6.56347 6.37351
#
# Compressibility (1/GPa) = 0.02021774
#
# Stress axis : x y z
#
# Youngs Moduli (GPa) = 81.92219 43.17877 101.74384
#
# Poissons Ratio (x) = 0.31902 0.24807
# Poissons Ratio (y) = 0.60528 0.27083
# Poissons Ratio (z) = 0.19974 0.11494
#
# Static dielectric constant tensor:
#      x y z
#    x 4.536060 0.000000 -0.163160 
#    y 0.000000 4.264840 0.000000 
#    z -0.163160 0.000000 4.794890 
# 
# 
# High freq. dielectric constant tensor:
#      x y z
#    x 1.906810 0.000000 -0.017910 
#    y 0.000000 1.887790 0.000000 
#    z -0.017910 0.000000 1.908830 
# 
# From -- ./inp_files/113804.got.cif
#   From: 2010.06.25/outbox.cif.g09.slc.cpg/sg15_57_cif.got.tgz:113804.got - 2010.06.28 07:06:18.
