data_PCOD8145883
_publ_section_title
;
Structure prediction by ZEFSAII (Michael W. Deem and Ramdas Pophale) SiO2 
 PCOD8145883
Probable space group: C 2/C
;
_chemical_formula_sum "Si O2"
_cell_formula_units_Z 48
_cell_length_a 23.212536
_cell_length_b 5.047674
_cell_length_c 17.397999
_cell_angle_alpha 90.000000
_cell_angle_beta 80.726817
_cell_angle_gamma 90.000000
_cell_volume 2011.870809
_symmetry_space_group_name_H-M "C 2/C"
_symmetry_group_IT_number 15
_symmetry_cell_setting 'monoclinic'
loop_
_space_group_symop_operation_xyz
x,y,z
-x,y,1/2-z
-x,-y,-z
x,-y,1/2+z
1/2+x,1/2+y,z
1/2-x,1/2+y,1/2-z
1/2-x,1/2-y,-z
1/2+x,1/2-y,1/2+z
loop_
_atom_site_type_symbol
_atom_site_label
_atom_site_fract_x
_atom_site_fract_y
_atom_site_fract_z
Si Si1 0.921395 0.769186 0.703563
Si Si2 0.450644 0.821730 0.363587
Si Si3 0.111145 0.803438 0.071120
Si Si4 0.263937 0.724332 0.665511
Si Si5 0.673403 0.206277 0.899391
Si Si6 0.667213 0.393996 0.207865
O O1 0.930526 0.606668 0.780801
O O2 0.875397 0.646344 0.654466
O O3 0.983356 0.788218 0.647302
O O4 0.895314 0.055941 0.735658
O O5 0.411734 0.598862 0.412023
O O6 0.441707 0.090177 0.414532
O O7 0.157245 0.739963 0.129908
O O8 0.143742 0.792683 0.984037
O O9 0.278888 0.428861 0.634522
O O10 0.290598 0.776635 0.745820
O O11 0.292447 0.931403 0.598835
O O12 0.196002 0.810724 0.686147
#
# Coordination Sequence:
#
# PCOD8145883 Si02
#       6
#     8   8   8   8   8   8
#     4   9  21  39  63  88 121 159 208 255 302 361
#     4  10  22  40  62  89 119 163 206 251 304 364
#     4  11  24  40  61  90 126 159 202 253 310 366
#     4  11  23  40  64  89 120 161 208 249 305 366
#     4  11  24  40  60  92 125 161 202 253 307 367
#     4  10  22  42  66  92 123 163 210 260 306 367
#
# _framework density 23.858391000000001
#
# number of rings (size 3 to 8) (size 9 to 14) (size 15 to 20)
#    0.000    1.667    0.000    4.000    0.000   14.667 
#    0.000    0.000    0.000    0.000    0.000    0.000 
#    0.000    0.000    0.000    0.000    0.000    0.000 
#
# Total GULP energy -297445.674361 kJ/mol
# GULP energy per Si atom -12393.569765 kJ/mol
# Density = 2.380409 g / cm^3
# Si number density = 23.858391 Si / 1000 Ang^3
#
#
#
# Elastic Constant Matrix: (Units=GPa)
#
#
# Indices 1 2 3 4 5 6 
#
# 1 93.9979 21.2706 28.7337 0.0000 -17.1181 0.0000
# 2 21.2706 83.1055 21.9296 0.0000 -7.0341 0.0000
# 3 28.7337 21.9296 111.1138 0.0000 -25.5716 0.0000
# 4 0.0000 0.0000 0.0000 29.7115 0.0000 -0.7759
# 5 -17.1181 -7.0341 -25.5716 0.0000 26.3355 0.0000
# 6 0.0000 0.0000 0.0000 -0.7759 0.0000 22.6062
#
#
#
# Elastic Compliance Matrix: (Units=1/GPa)
#
#
# Indices 1 2 3 4 5 6 
#
# 1 0.012744 -0.002364 -0.001375 0.000000 0.006317 0.000000
# 2 -0.002364 0.013164 -0.001972 0.000000 0.000065 0.000000
# 3 -0.001375 -0.001972 0.012128 0.000000 0.010355 0.000000
# 4 0.000000 0.000000 0.000000 0.033687 0.000000 0.001156
# 5 0.006317 0.000065 0.010355 0.000000 0.052150 0.000000
# 6 0.000000 0.000000 0.000000 0.001156 0.000000 0.044275
#
#
# Mechanical properties :
#
#
# Convention : Reuss Voigt Hill
#
# Bulk Modulus (GPa) = 37.57516 48.00942 42.79229
# Shear Modulus (GPa) = 26.53337 30.14954 28.34145
#
# Velocity S-wave (km/s) = 3.33846 3.55869 3.45034
# Velocity P-wave (km/s) = 5.53569 6.08704 5.81790
#
# Compressibility (1/GPa) = 0.02661333
#
# Stress axis : x y z
#
# Youngs Moduli (GPa) = 78.46624 75.96590 82.45555
#
# Poissons Ratio (x) = 0.17961 0.11340
# Poissons Ratio (y) = 0.18552 0.16258
# Poissons Ratio (z) = 0.10791 0.14979
#
# Static dielectric constant tensor:
#      x y z
#    x 4.443890 0.000000 -0.056860 
#    y 0.000000 3.934030 0.000000 
#    z -0.056860 0.000000 4.244490 
# 
# 
# High freq. dielectric constant tensor:
#      x y z
#    x 1.946650 0.000000 -0.017420 
#    y 0.000000 1.936100 0.000000 
#    z -0.017420 0.000000 1.940430 
# 
# From -- ./inp_files/217768.got.cif
#   From: 2010.06.25/outbox.cif.g09.slc.cpg/sg15_109_cif.got.tgz:217768.got - 2010.06.28 07:06:18.
