data_PCOD8145211
_publ_section_title
;
Structure prediction by ZEFSAII (Michael W. Deem and Ramdas Pophale) SiO2 
 PCOD8145211
Probable space group: C 2/C
;
_chemical_formula_sum "Si O2"
_cell_formula_units_Z 44
_cell_length_a 23.204763
_cell_length_b 19.577395
_cell_length_c 5.129642
_cell_angle_alpha 90.000000
_cell_angle_beta 65.401458
_cell_angle_gamma 90.000000
_cell_volume 2118.853019
_symmetry_space_group_name_H-M "C 2/C"
_symmetry_group_IT_number 15
_symmetry_cell_setting 'monoclinic'
loop_
_space_group_symop_operation_xyz
x,y,z
-x,y,1/2-z
-x,-y,-z
x,-y,1/2+z
1/2+x,1/2+y,z
1/2-x,1/2+y,1/2-z
1/2-x,1/2-y,-z
1/2+x,1/2-y,1/2+z
loop_
_atom_site_type_symbol
_atom_site_label
_atom_site_fract_x
_atom_site_fract_y
_atom_site_fract_z
Si Si1 0.000000 0.775236 0.750000
Si Si2 0.301144 0.309426 0.353686
Si Si3 0.881480 0.215033 0.194396
Si Si4 0.763178 0.963681 0.435305
Si Si5 0.116092 0.465071 0.747483
Si Si6 0.935672 0.325753 0.760217
O O1 0.049379 0.817456 0.843938
O O2 0.048483 0.731213 0.484494
O O3 0.250000 0.250000 0.500000
O O4 0.350603 0.320579 0.499018
O O5 0.269666 0.382989 0.375879
O O6 0.333540 0.286725 0.024355
O O7 0.896166 0.292768 0.074469
O O8 0.689848 0.981911 0.597419
O O9 0.795149 0.993349 0.638546
O O10 0.083823 0.495912 0.549675
O O11 0.105820 0.384232 0.793968
O O12 0.000000 0.358534 0.750000
#
# Coordination Sequence:
#
# PCOD8145211 Si02
#       6
#     4   8   8   8   8   8
#     4  10  22  42  60  88 126 164 202 258 338 370
#     4  12  24  39  65 100 128 161 214 269 312 375
#     4  11  23  39  62  91 124 160 200 259 326 367
#     4  10  22  41  60  86 127 170 202 245 316 384
#     4  10  23  37  55  79 115 167 213 249 293 361
#     4  10  22  38  59  83 124 160 206 263 314 357
#
# _framework density 20.765953
#
# number of rings (size 3 to 8) (size 9 to 14) (size 15 to 20)
#    0.000    1.455    1.818    2.727    5.091    3.636 
#    0.000    0.000    0.000    0.000    0.000   12.727 
#    0.000    0.000    0.000    0.000    0.000    0.000 
#
# Total GULP energy -272575.121677 kJ/mol
# GULP energy per Si atom -12389.778258 kJ/mol
# Density = 2.071869 g / cm^3
# Si number density = 20.765953 Si / 1000 Ang^3
#
#
#
# Elastic Constant Matrix: (Units=GPa)
#
#
# Indices 1 2 3 4 5 6 
#
# 1 56.8384 11.7110 27.3680 0.0000 25.0783 0.0000
# 2 11.7110 91.3902 42.5807 0.0000 1.1662 0.0000
# 3 27.3680 42.5807 149.8748 0.0000 26.1886 0.0000
# 4 0.0000 0.0000 0.0000 24.7518 0.0000 3.6303
# 5 25.0783 1.1662 26.1886 0.0000 25.6792 0.0000
# 6 0.0000 0.0000 0.0000 3.6303 0.0000 30.4577
#
#
#
# Elastic Compliance Matrix: (Units=1/GPa)
#
#
# Indices 1 2 3 4 5 6 
#
# 1 0.032220 -0.004149 0.000925 0.000000 -0.032221 0.000000
# 2 -0.004149 0.013450 -0.004459 0.000000 0.007989 0.000000
# 3 0.000925 -0.004459 0.009604 0.000000 -0.010496 0.000000
# 4 0.000000 0.000000 0.000000 0.041120 0.000000 -0.004901
# 5 -0.032221 0.007989 -0.010496 0.000000 0.080750 0.000000
# 6 0.000000 0.000000 0.000000 -0.004901 0.000000 0.033417
#
#
# Mechanical properties :
#
#
# Convention : Reuss Voigt Hill
#
# Bulk Modulus (GPa) = 25.05778 51.26920 38.16349
# Shear Modulus (GPa) = 20.90053 30.60732 25.75393
#
# Velocity S-wave (km/s) = 3.17595 3.84333 3.52547
# Velocity P-wave (km/s) = 5.05389 6.66615 5.91521
#
# Compressibility (1/GPa) = 0.03990776
#
# Stress axis : x y z
#
# Youngs Moduli (GPa) = 31.03708 74.35199 104.12044
#
# Poissons Ratio (x) = 0.30846 -0.09635
# Poissons Ratio (y) = 0.12876 0.46432
# Poissons Ratio (z) = -0.02872 0.33157
#
# Static dielectric constant tensor:
#      x y z
#    x 4.112150 0.000000 0.341350 
#    y 0.000000 3.308740 0.000000 
#    z 0.341350 0.000000 4.155510 
# 
# 
# High freq. dielectric constant tensor:
#      x y z
#    x 1.814980 0.000000 0.020780 
#    y 0.000000 1.768890 0.000000 
#    z 0.020780 0.000000 1.832160 
# 
# From -- ./inp_files/15378.got.cif
#   From: 2010.06.25/outbox.cif.g09.slc.cpg/sg15_8_cif.got.tgz:15378.got - 2010.06.28 07:06:18.
