data_PCOD8145037
_publ_section_title
;
Structure prediction by ZEFSAII (Michael W. Deem and Ramdas Pophale) SiO2 
 PCOD8145037
Probable space group: C 2/C
;
_chemical_formula_sum "Si O2"
_cell_formula_units_Z 36
_cell_length_a 21.081918
_cell_length_b 9.211320
_cell_length_c 13.820987
_cell_angle_alpha 90.000000
_cell_angle_beta 142.545510
_cell_angle_gamma 90.000000
_cell_volume 1632.180728
_symmetry_space_group_name_H-M "C 2/C"
_symmetry_group_IT_number 15
_symmetry_cell_setting 'monoclinic'
loop_
_space_group_symop_operation_xyz
x,y,z
-x,y,1/2-z
-x,-y,-z
x,-y,1/2+z
1/2+x,1/2+y,z
1/2-x,1/2+y,1/2-z
1/2-x,1/2-y,-z
1/2+x,1/2-y,1/2+z
loop_
_atom_site_type_symbol
_atom_site_label
_atom_site_fract_x
_atom_site_fract_y
_atom_site_fract_z
Si Si1 0.387544 0.831084 0.428312
Si Si2 0.046804 0.797920 0.989658
Si Si3 0.391510 0.526071 0.748858
Si Si4 0.500000 0.736069 0.750000
Si Si5 0.227622 0.608185 0.162125
O O1 0.472741 0.826816 0.445847
O O2 0.446238 0.833851 0.602985
O O3 0.317821 0.684719 0.335306
O O4 0.317853 0.973969 0.331054
O O5 0.134410 0.721892 0.028839
O O6 0.099521 0.889745 0.138745
O O7 0.981548 0.906204 0.843282
O O8 0.404897 0.638417 0.677662
O O9 0.277482 0.448539 0.620093
#
# Coordination Sequence:
#
# PCOD8145037 Si02
#       5
#     8   8   8   4   8
#     4  10  22  36  64  87 120 153 201 246 292 346
#     4   9  18  36  60  85 117 154 203 243 283 349
#     4   9  19  36  59  86 121 156 192 243 299 349
#     4  10  22  40  56  88 130 158 182 250 312 338
#     4  11  19  37  63  91 109 160 209 236 280 367
#
# _framework density 22.056380000000001
#
# number of rings (size 3 to 8) (size 9 to 14) (size 15 to 20)
#    0.000    2.222    2.222    2.000    0.000    0.889 
#    0.000    2.222    0.000    0.000    0.000    0.000 
#    0.000    0.000    0.000    0.000    0.000    0.000 
#
# Total GULP energy -223084.269682 kJ/mol
# GULP energy per Si atom -12393.570538 kJ/mol
# Density = 2.200618 g / cm^3
# Si number density = 22.056380 Si / 1000 Ang^3
#
#
#
# Elastic Constant Matrix: (Units=GPa)
#
#
# Indices 1 2 3 4 5 6 
#
# 1 70.8802 14.2085 17.9218 0.0000 35.3626 0.0000
# 2 14.2085 68.1106 8.2649 0.0000 21.7446 0.0000
# 3 17.9218 8.2649 43.2557 0.0000 19.1895 0.0000
# 4 0.0000 0.0000 0.0000 25.1988 0.0000 16.5337
# 5 35.3626 21.7446 19.1895 0.0000 36.5269 0.0000
# 6 0.0000 0.0000 0.0000 16.5337 0.0000 37.8635
#
#
#
# Elastic Compliance Matrix: (Units=1/GPa)
#
#
# Indices 1 2 3 4 5 6 
#
# 1 0.027962 0.003519 0.000888 0.000000 -0.029632 0.000000
# 2 0.003519 0.018669 0.001847 0.000000 -0.015491 0.000000
# 3 0.000888 0.001847 0.030337 0.000000 -0.017897 0.000000
# 4 0.000000 0.000000 0.000000 0.055620 0.000000 -0.024287
# 5 -0.029632 -0.015491 -0.017897 0.000000 0.074689 0.000000
# 6 0.000000 0.000000 0.000000 -0.024287 0.000000 0.037016
#
#
# Mechanical properties :
#
#
# Convention : Reuss Voigt Hill
#
# Bulk Modulus (GPa) = 11.17601 29.22635 20.20118
# Shear Modulus (GPa) = 19.11234 29.37458 24.24346
#
# Velocity S-wave (km/s) = 2.94687 3.65334 3.31895
# Velocity P-wave (km/s) = 4.08127 5.57453 4.88529
#
# Compressibility (1/GPa) = 0.08947740
#
# Stress axis : x y z
#
# Youngs Moduli (GPa) = 35.76272 53.56356 32.96300
#
# Poissons Ratio (x) = -0.18851 -0.02927
# Poissons Ratio (y) = -0.12586 -0.06089
# Poissons Ratio (z) = -0.03176 -0.09894
#
# Static dielectric constant tensor:
#      x y z
#    x 4.067460 0.000000 0.546500 
#    y 0.000000 4.011710 0.000000 
#    z 0.546500 0.000000 3.576190 
# 
# 
# High freq. dielectric constant tensor:
#      x y z
#    x 1.863030 0.000000 0.043110 
#    y 0.000000 1.874110 0.000000 
#    z 0.043110 0.000000 1.825570 
# 
# From -- ./inp_files/94427.got.cif
#   From: 2010.06.25/outbox.cif.g09.slc.cpg/sg15_48_cif.got.tgz:94427.got - 2010.06.28 07:06:18.
