data_PCOD8145897
_publ_section_title
;
Structure prediction by ZEFSAII (Michael W. Deem and Ramdas Pophale) SiO2 
 PCOD8145897
Probable space group: C 2/C
;
_chemical_formula_sum "Si O2"
_cell_formula_units_Z 52
_cell_length_a 10.751834
_cell_length_b 8.518824
_cell_length_c 25.559542
_cell_angle_alpha 90.000000
_cell_angle_beta 100.993460
_cell_angle_gamma 90.000000
_cell_volume 2298.113496
_symmetry_space_group_name_H-M "C 2/C"
_symmetry_group_IT_number 15
_symmetry_cell_setting 'monoclinic'
loop_
_space_group_symop_operation_xyz
x,y,z
-x,y,1/2-z
-x,-y,-z
x,-y,1/2+z
1/2+x,1/2+y,z
1/2-x,1/2+y,1/2-z
1/2-x,1/2-y,-z
1/2+x,1/2-y,1/2+z
loop_
_atom_site_type_symbol
_atom_site_label
_atom_site_fract_x
_atom_site_fract_y
_atom_site_fract_z
Si Si1 0.398960 0.425348 0.030740
Si Si2 0.500000 0.409815 0.750000
Si Si3 0.409206 0.599208 0.649494
Si Si4 0.725157 0.170142 0.787006
Si Si5 0.178545 0.522425 0.184347
Si Si6 0.401526 0.963574 0.640612
Si Si7 0.375558 0.936304 0.517936
O O1 0.454182 0.437260 0.094015
O O2 0.382617 0.248403 0.010990
O O3 0.500000 0.500000 0.000000
O O4 0.257527 0.502505 0.016258
O O5 0.508003 0.521020 0.698566
O O6 0.619355 0.297928 0.764115
O O7 0.269522 0.519773 0.643363
O O8 0.392963 0.784142 0.658226
O O9 0.841305 0.287549 0.810166
O O10 0.748370 0.057878 0.739677
O O11 0.699023 0.064153 0.835223
O O12 0.037916 0.458302 0.164588
O O13 0.374424 0.987405 0.577980
O O14 0.500000 0.000000 0.500000
#
# Coordination Sequence:
#
# PCOD8145897 Si02
#       7
#     8   4   8   8   8   8   8
#     4  10  23  46  67  98 133 173 222 279 333 397
#     4  10  22  40  62  94 126 172 218 260 332 390
#     4  10  24  41  63  95 129 170 217 267 328 397
#     4  11  23  39  61  93 129 170 219 261 330 395
#     4  11  23  39  60  91 128 172 213 266 325 395
#     4  11  23  41  64  93 133 168 214 276 327 398
#     4  10  23  43  69  99 129 173 223 276 339 394
#
# _framework density 22.627254000000001
#
# number of rings (size 3 to 8) (size 9 to 14) (size 15 to 20)
#    0.000    1.538    1.538    1.846    6.462    5.538 
#    8.308    0.000    0.000    0.000    0.000    0.000 
#    0.000    0.000    0.000    0.000    0.000    0.000 
#
# Total GULP energy -322352.619200 kJ/mol
# GULP energy per Si atom -12398.177662 kJ/mol
# Density = 2.257575 g / cm^3
# Si number density = 22.627254 Si / 1000 Ang^3
#
#
#
# Elastic Constant Matrix: (Units=GPa)
#
#
# Indices 1 2 3 4 5 6 
#
# 1 80.1758 18.4599 38.5413 0.0000 -6.1181 0.0000
# 2 18.4599 96.0276 57.3906 0.0000 -15.7546 0.0000
# 3 38.5413 57.3906 121.0492 0.0000 -7.4573 0.0000
# 4 0.0000 0.0000 0.0000 33.8819 0.0000 -6.4594
# 5 -6.1181 -15.7546 -7.4573 0.0000 38.3274 0.0000
# 6 0.0000 0.0000 0.0000 -6.4594 0.0000 27.4904
#
#
#
# Elastic Compliance Matrix: (Units=1/GPa)
#
#
# Indices 1 2 3 4 5 6 
#
# 1 0.014811 0.000233 -0.004731 0.000000 0.001539 0.000000
# 2 0.000233 0.015418 -0.007076 0.000000 0.004998 0.000000
# 3 -0.004731 -0.007076 0.013053 0.000000 -0.001124 0.000000
# 4 0.000000 0.000000 0.000000 0.030898 0.000000 0.007260
# 5 0.001539 0.004998 -0.001124 0.000000 0.028172 0.000000
# 6 0.000000 0.000000 0.000000 0.007260 0.000000 0.038082
#
#
# Mechanical properties :
#
#
# Convention : Reuss Voigt Hill
#
# Bulk Modulus (GPa) = 49.66941 58.44847 54.05894
# Shear Modulus (GPa) = 29.36090 32.13065 30.74578
#
# Velocity S-wave (km/s) = 3.60612 3.77237 3.69018
# Velocity P-wave (km/s) = 6.27197 6.69787 6.48841
#
# Compressibility (1/GPa) = 0.02013312
#
# Stress axis : x y z
#
# Youngs Moduli (GPa) = 67.51832 64.85998 76.61013
#
# Poissons Ratio (x) = -0.01512 0.36247
# Poissons Ratio (y) = -0.01574 0.54210
# Poissons Ratio (z) = 0.31945 0.45895
#
# Static dielectric constant tensor:
#      x y z
#    x 4.370590 0.000000 0.357070 
#    y 0.000000 4.300410 0.000000 
#    z 0.357070 0.000000 4.400250 
# 
# 
# High freq. dielectric constant tensor:
#      x y z
#    x 1.902580 0.000000 0.001870 
#    y 0.000000 1.897270 0.000000 
#    z 0.001870 0.000000 1.891190 
# 
# From -- ./inp_files/291226.got.cif
#   From: 2010.06.25/outbox.cif.g09.slc.cpg/sg15_146_cif.got.tgz:291226.got - 2010.06.28 07:06:18.
