data_PCOD8145200
_publ_section_title
;
Structure prediction by ZEFSAII (Michael W. Deem and Ramdas Pophale) SiO2 
 PCOD8145200
Probable space group: C 2/C
;
_chemical_formula_sum "Si O2"
_cell_formula_units_Z 44
_cell_length_a 32.608724
_cell_length_b 7.423182
_cell_length_c 8.393332
_cell_angle_alpha 90.000000
_cell_angle_beta 77.684105
_cell_angle_gamma 90.000000
_cell_volume 1984.937564
_symmetry_space_group_name_H-M "C 2/C"
_symmetry_group_IT_number 15
_symmetry_cell_setting 'monoclinic'
loop_
_space_group_symop_operation_xyz
x,y,z
-x,y,1/2-z
-x,-y,-z
x,-y,1/2+z
1/2+x,1/2+y,z
1/2-x,1/2+y,1/2-z
1/2-x,1/2-y,-z
1/2+x,1/2-y,1/2+z
loop_
_atom_site_type_symbol
_atom_site_label
_atom_site_fract_x
_atom_site_fract_y
_atom_site_fract_z
Si Si1 0.881861 0.244943 0.082515
Si Si2 0.207922 0.398788 0.884134
Si Si3 0.939323 0.097090 0.547484
Si Si4 0.203339 0.241713 0.240762
Si Si5 0.625946 0.865236 0.775613
Si Si6 0.000000 0.007076 0.250000
O O1 0.839991 0.136285 0.182522
O O2 0.885589 0.423562 0.190581
O O3 0.920002 0.106005 0.070615
O O4 0.878762 0.308944 0.902950
O O5 0.202550 0.612398 0.883752
O O6 0.254814 0.373181 0.775842
O O7 0.172816 0.314014 0.797164
O O8 0.201825 0.332028 0.068009
O O9 0.904898 0.250013 0.588532
O O10 0.963866 0.128110 0.361709
O O11 0.975530 0.122089 0.648638
#
# Coordination Sequence:
#
# PCOD8145200 Si02
#       6
#     8   8   8   8   8   4
#     4  11  24  41  67  97 129 174 217 262 323 386
#     4  10  22  38  58  89 127 166 215 262 308 373
#     4  11  24  46  70  96 134 170 208 274 330 389
#     4  10  22  38  58  89 127 166 215 262 308 373
#     4  11  24  41  67  97 129 174 217 262 323 386
#     4  10  24  46  70  98 130 162 220 270 326 400
#
# _framework density 22.166944999999998
#
# number of rings (size 3 to 8) (size 9 to 14) (size 15 to 20)
#    0.000    1.455    1.818    4.364    7.636    2.909 
#    0.000    5.455    0.000    0.000    0.000    0.000 
#    0.000    0.000    0.000    0.000    0.000    0.000 
#
# Total GULP energy -272590.006571 kJ/mol
# GULP energy per Si atom -12390.454844 kJ/mol
# Density = 2.211649 g / cm^3
# Si number density = 22.166945 Si / 1000 Ang^3
#
#
#
# Elastic Constant Matrix: (Units=GPa)
#
#
# Indices 1 2 3 4 5 6 
#
# 1 124.4998 42.0753 42.9695 0.0000 -22.1198 0.0000
# 2 42.0753 56.9829 13.5165 0.0000 -8.5117 0.0000
# 3 42.9695 13.5165 85.5102 0.0000 -26.7832 0.0000
# 4 0.0000 0.0000 0.0000 26.3664 0.0000 -9.0419
# 5 -22.1198 -8.5117 -26.7832 0.0000 48.8449 0.0000
# 6 0.0000 0.0000 0.0000 -9.0419 0.0000 12.1583
#
#
#
# Elastic Compliance Matrix: (Units=1/GPa)
#
#
# Indices 1 2 3 4 5 6 
#
# 1 0.012604 -0.007964 -0.004493 0.000000 0.001856 0.000000
# 2 -0.007964 0.023416 0.000542 0.000000 0.000771 0.000000
# 3 -0.004493 0.000542 0.016008 0.000000 0.006837 0.000000
# 4 0.000000 0.000000 0.000000 0.050911 0.000000 0.037861
# 5 0.001856 0.000771 0.006837 0.000000 0.025197 0.000000
# 6 0.000000 0.000000 0.000000 0.037861 0.000000 0.110405
#
#
# Mechanical properties :
#
#
# Convention : Reuss Voigt Hill
#
# Bulk Modulus (GPa) = 35.46294 51.56838 43.51566
# Shear Modulus (GPa) = 18.39784 28.70270 23.55027
#
# Velocity S-wave (km/s) = 2.88404 3.60230 3.26299
# Velocity P-wave (km/s) = 5.20798 6.37308 5.81976
#
# Compressibility (1/GPa) = 0.02819845
#
# Stress axis : x y z
#
# Youngs Moduli (GPa) = 79.33912 42.70595 62.46700
#
# Poissons Ratio (x) = 0.34009 0.28069
# Poissons Ratio (y) = 0.63182 -0.03386
# Poissons Ratio (z) = 0.35651 -0.02315
#
# Static dielectric constant tensor:
#      x y z
#    x 4.480720 0.000000 -0.325790 
#    y 0.000000 3.708770 0.000000 
#    z -0.325790 0.000000 4.275720 
# 
# 
# High freq. dielectric constant tensor:
#      x y z
#    x 1.892050 0.000000 -0.011800 
#    y 0.000000 1.833960 0.000000 
#    z -0.011800 0.000000 1.894250 
# 
# From -- ./inp_files/68299.got.cif
#   From: 2010.06.25/outbox.cif.g09.slc.cpg/sg15_35_cif.got.tgz:68299.got - 2010.06.28 07:06:18.
