data_PCOD8145552
_publ_section_title
;
Structure prediction by ZEFSAII (Michael W. Deem and Ramdas Pophale) SiO2 
 PCOD8145552
Probable space group: C 2/C
;
_chemical_formula_sum "Si O2"
_cell_formula_units_Z 32
_cell_length_a 22.047596
_cell_length_b 7.480695
_cell_length_c 12.895936
_cell_angle_alpha 90.000000
_cell_angle_beta 54.943297
_cell_angle_gamma 90.000000
_cell_volume 1741.082346
_symmetry_space_group_name_H-M "C 2/C"
_symmetry_group_IT_number 15
_symmetry_cell_setting 'monoclinic'
loop_
_space_group_symop_operation_xyz
x,y,z
-x,y,1/2-z
-x,-y,-z
x,-y,1/2+z
1/2+x,1/2+y,z
1/2-x,1/2+y,1/2-z
1/2-x,1/2-y,-z
1/2+x,1/2-y,1/2+z
loop_
_atom_site_type_symbol
_atom_site_label
_atom_site_fract_x
_atom_site_fract_y
_atom_site_fract_z
Si Si1 0.833158 0.141595 0.117917
Si Si2 0.581676 0.264389 0.151924
Si Si3 0.166599 0.235655 0.780174
Si Si4 0.579745 0.973375 0.470353
O O1 0.749667 0.202197 0.180736
O O2 0.878661 0.305030 0.126902
O O3 0.837575 0.972053 0.187631
O O4 0.870107 0.101272 0.968355
O O5 0.500000 0.347463 0.250000
O O6 0.621644 0.227947 0.220131
O O7 0.573309 0.073758 0.099209
O O8 0.128823 0.349025 0.909097
O O9 0.500000 0.000000 0.500000
#
# Coordination Sequence:
#
# PCOD8145552 Si02
#       4
#     8   8   8   8
#     4  10  23  38  65  93 119 170 200 255 308 362
#     4  10  22  39  61  91 124 161 202 256 300 369
#     4  12  20  44  63  88 133 153 211 257 302 366
#     4  10  22  40  63  91 121 165 204 249 311 361
#
# _framework density 18.379373999999999
#
# number of rings (size 3 to 8) (size 9 to 14) (size 15 to 20)
#    1.500    0.000    5.000    0.750    0.000    4.000 
#    4.500    3.750    0.000    0.000    0.000    0.000 
#    0.000    0.000    0.000    0.000    0.000    0.000 
#
# Total GULP energy -198271.676325 kJ/mol
# GULP energy per Si atom -12391.979770 kJ/mol
# Density = 1.833754 g / cm^3
# Si number density = 18.379374 Si / 1000 Ang^3
#
#
#
# Elastic Constant Matrix: (Units=GPa)
#
#
# Indices 1 2 3 4 5 6 
#
# 1 145.5349 59.7877 61.3605 0.0000 -15.0457 0.0000
# 2 59.7877 99.9685 29.0465 0.0000 -5.6016 0.0001
# 3 61.3605 29.0465 99.3627 0.0000 -20.4476 0.0000
# 4 0.0000 0.0000 0.0000 22.8307 0.0000 -3.9119
# 5 -15.0457 -5.6016 -20.4476 0.0000 44.8735 0.0000
# 6 0.0000 0.0001 0.0000 -3.9119 0.0000 27.3863
#
#
#
# Elastic Compliance Matrix: (Units=1/GPa)
#
#
# Indices 1 2 3 4 5 6 
#
# 1 0.011321 -0.005182 -0.005328 0.000000 0.000721 0.000000
# 2 -0.005182 0.013304 -0.000778 0.000000 -0.000431 0.000000
# 3 -0.005328 -0.000778 0.014559 0.000000 0.004751 0.000000
# 4 0.000000 0.000000 0.000000 0.044900 0.000000 0.006414
# 5 0.000721 -0.000431 0.004751 0.000000 0.024638 0.000000
# 6 0.000000 0.000000 0.000000 0.006414 0.000000 0.037431
#
#
# Mechanical properties :
#
#
# Convention : Reuss Voigt Hill
#
# Bulk Modulus (GPa) = 60.20835 71.69506 65.95170
# Shear Modulus (GPa) = 28.69199 31.99619 30.34409
#
# Velocity S-wave (km/s) = 3.95536 4.17691 4.06764
# Velocity P-wave (km/s) = 7.32732 7.89653 7.61724
#
# Compressibility (1/GPa) = 0.01660899
#
# Stress axis : x y z
#
# Youngs Moduli (GPa) = 88.33100 75.16371 68.68455
#
# Poissons Ratio (x) = 0.38952 0.36594
# Poissons Ratio (y) = 0.45776 0.05341
# Poissons Ratio (z) = 0.47062 0.05845
#
# Static dielectric constant tensor:
#      x y z
#    x 3.268600 0.000000 -0.260210 
#    y 0.000000 3.266950 0.000000 
#    z -0.260210 0.000000 3.577280 
# 
# 
# High freq. dielectric constant tensor:
#      x y z
#    x 1.717490 0.000000 -0.024010 
#    y 0.000000 1.691510 0.000000 
#    z -0.024010 0.000000 1.720860 
# 
# From -- ./inp_files/109281.got.cif
#   From: 2010.06.25/outbox.cif.g09.slc.cpg/sg15_55_cif.got.tgz:109281.got - 2010.06.28 07:06:18.
