data_PCOD8145246
_publ_section_title
;
Structure prediction by ZEFSAII (Michael W. Deem and Ramdas Pophale) SiO2 
 PCOD8145246
Probable space group: C 2/C
;
_chemical_formula_sum "Si O2"
_cell_formula_units_Z 60
_cell_length_a 25.971651
_cell_length_b 12.246819
_cell_length_c 10.235607
_cell_angle_alpha 90.000000
_cell_angle_beta 111.522383
_cell_angle_gamma 90.000000
_cell_volume 3028.638879
_symmetry_space_group_name_H-M "C 2/C"
_symmetry_group_IT_number 15
_symmetry_cell_setting 'monoclinic'
loop_
_space_group_symop_operation_xyz
x,y,z
-x,y,1/2-z
-x,-y,-z
x,-y,1/2+z
1/2+x,1/2+y,z
1/2-x,1/2+y,1/2-z
1/2-x,1/2-y,-z
1/2+x,1/2-y,1/2+z
loop_
_atom_site_type_symbol
_atom_site_label
_atom_site_fract_x
_atom_site_fract_y
_atom_site_fract_z
Si Si1 0.000000 0.117109 0.750000
Si Si2 0.062392 0.315577 0.152078
Si Si3 0.906087 0.858808 0.336640
Si Si4 0.935390 0.679651 0.543754
Si Si5 0.678270 0.661873 0.947051
Si Si6 0.081661 0.914739 0.537048
Si Si7 0.142361 0.503748 0.152396
Si Si8 0.201272 0.411036 0.968762
O O1 0.951749 0.188431 0.774723
O O2 0.968761 0.049616 0.606725
O O3 0.078336 0.324062 0.317731
O O4 0.068087 0.193871 0.104111
O O5 0.104555 0.395620 0.119087
O O6 0.998864 0.350889 0.072078
O O7 0.917547 0.801485 0.484555
O O8 0.845383 0.835753 0.222863
O O9 0.911907 0.988954 0.353324
O O10 0.897685 0.600480 0.425028
O O11 0.685301 0.787699 0.992812
O O12 0.637827 0.600491 0.008609
O O13 0.733759 0.589898 0.002484
O O14 0.169400 0.536821 0.315503
O O15 0.188981 0.485098 0.084785
#
# Coordination Sequence:
#
# PCOD8145246 Si02
#       8
#     4   8   8   8   8   8   8   8
#     4  10  22  38  60  88 118 184 208 254 314 380
#     4  11  24  40  62  96 133 169 209 263 326 395
#     4  11  23  39  63  93 131 166 217 261 323 383
#     4  11  24  40  62  96 133 169 209 263 326 395
#     4  10  24  44  65  93 120 178 213 270 312 396
#     4  11  23  39  63  93 131 166 217 261 323 383
#     4  12  23  46  66  96 126 175 214 274 324 388
#     4  11  24  44  71  88 131 166 229 263 330 373
#
# _framework density 19.810880000000001
#
# number of rings (size 3 to 8) (size 9 to 14) (size 15 to 20)
#    0.000    1.067    5.333    0.800    5.600    0.000 
#    0.000    0.000    0.000    4.800    0.000    0.000 
#    0.000    0.000    0.000    0.000    0.000    0.000 
#
# Total GULP energy -371898.884066 kJ/mol
# GULP energy per Si atom -12396.629469 kJ/mol
# Density = 1.976579 g / cm^3
# Si number density = 19.810880 Si / 1000 Ang^3
#
#
#
# Elastic Constant Matrix: (Units=GPa)
#
#
# Indices 1 2 3 4 5 6 
#
# 1 102.1476 29.9566 37.3021 0.0000 6.4621 0.0000
# 2 29.9566 77.9538 18.3337 0.0000 -0.5657 0.0000
# 3 37.3021 18.3337 91.7288 0.0000 3.7323 0.0000
# 4 0.0000 0.0000 0.0000 26.9959 0.0000 -0.3963
# 5 6.4621 -0.5657 3.7323 0.0000 27.2983 0.0000
# 6 0.0000 0.0000 0.0000 -0.3963 0.0000 24.4739
#
#
#
# Elastic Compliance Matrix: (Units=1/GPa)
#
#
# Indices 1 2 3 4 5 6 
#
# 1 0.012640 -0.003873 -0.004265 0.000000 -0.002489 0.000000
# 2 -0.003873 0.014659 -0.001413 0.000000 0.001414 0.000000
# 3 -0.004265 -0.001413 0.012951 0.000000 -0.000790 0.000000
# 4 0.000000 0.000000 0.000000 0.037051 0.000000 0.000600
# 5 -0.002489 0.001414 -0.000790 0.000000 0.037359 0.000000
# 6 0.000000 0.000000 0.000000 0.000600 0.000000 0.040870
#
#
# Mechanical properties :
#
#
# Convention : Reuss Voigt Hill
#
# Bulk Modulus (GPa) = 47.28236 49.22389 48.25313
# Shear Modulus (GPa) = 27.52095 28.16948 27.84521
#
# Velocity S-wave (km/s) = 3.73122 3.77493 3.75314
# Velocity P-wave (km/s) = 6.51777 6.62578 6.57200
#
# Compressibility (1/GPa) = 0.02114953
#
# Stress axis : x y z
#
# Youngs Moduli (GPa) = 79.11123 68.21865 77.21669
#
# Poissons Ratio (x) = 0.26418 0.32933
# Poissons Ratio (y) = 0.30636 0.10907
# Poissons Ratio (z) = 0.33741 0.09636
#
# Static dielectric constant tensor:
#      x y z
#    x 3.695150 0.000000 0.059180 
#    y 0.000000 3.421870 0.000000 
#    z 0.059180 0.000000 3.741030 
# 
# 
# High freq. dielectric constant tensor:
#      x y z
#    x 1.778570 0.000000 0.001410 
#    y 0.000000 1.761190 0.000000 
#    z 0.001410 0.000000 1.784510 
# 
# From -- ./inp_files/122681.got.cif
#   From: 2010.06.25/outbox.cif.g09.slc.cpg/sg15_62_cif.got.tgz:122681.got - 2010.06.28 07:06:18.
