data_PCOD8145762
_publ_section_title
;
Structure prediction by ZEFSAII (Michael W. Deem and Ramdas Pophale) SiO2 
 PCOD8145762
Probable space group: C 2/C
;
_chemical_formula_sum "Si O2"
_cell_formula_units_Z 56
_cell_length_a 19.165643
_cell_length_b 8.478421
_cell_length_c 17.598764
_cell_angle_alpha 90.000000
_cell_angle_beta 114.875206
_cell_angle_gamma 90.000000
_cell_volume 2594.394939
_symmetry_space_group_name_H-M "C 2/C"
_symmetry_group_IT_number 15
_symmetry_cell_setting 'monoclinic'
loop_
_space_group_symop_operation_xyz
x,y,z
-x,y,1/2-z
-x,-y,-z
x,-y,1/2+z
1/2+x,1/2+y,z
1/2-x,1/2+y,1/2-z
1/2-x,1/2-y,-z
1/2+x,1/2-y,1/2+z
loop_
_atom_site_type_symbol
_atom_site_label
_atom_site_fract_x
_atom_site_fract_y
_atom_site_fract_z
Si Si1 0.989396 0.879893 0.331766
Si Si2 0.583934 0.884294 0.470725
Si Si3 0.129298 0.964306 0.970450
Si Si4 0.065300 0.439736 0.634837
Si Si5 0.228889 0.591380 0.535475
Si Si6 0.790156 0.357481 0.296850
Si Si7 0.844929 0.984479 0.842150
O O1 0.961125 0.698811 0.321160
O O2 0.000000 0.931450 0.250000
O O3 0.927559 0.990899 0.343259
O O4 0.069128 0.905410 0.412788
O O5 0.599587 0.712064 0.445285
O O6 0.581071 0.864050 0.559973
O O7 0.501603 0.931159 0.400071
O O8 0.646581 0.016024 0.474506
O O9 0.205930 0.965539 0.955069
O O10 0.148498 0.015996 0.064511
O O11 0.142410 0.524280 0.699981
O O12 0.250000 0.750000 0.500000
O O13 0.231603 0.620146 0.625825
O O14 0.815723 0.179696 0.295416
O O15 0.715140 0.381061 0.210593
#
# Coordination Sequence:
#
# PCOD8145762 Si02
#       7
#     8   8   8   8   8   8   8
#     4  12  26  46  68  99 136 176 226 282 342 403
#     4  10  22  39  69  98 131 170 226 275 329 402
#     4  12  24  43  70 101 136 177 226 277 342 402
#     4  10  22  43  69  95 130 177 223 274 336 402
#     4  11  22  42  66  99 134 177 223 275 337 402
#     4  11  25  44  67  98 137 179 226 277 337 403
#     4  12  25  44  70  98 137 181 225 279 340 402
#
# _framework density 21.584994999999999
#
# number of rings (size 3 to 8) (size 9 to 14) (size 15 to 20)
#    0.000    0.857    2.857    4.286    6.000    0.000 
#    5.143    1.429    0.000    0.000    0.000    0.000 
#    0.000    0.000    0.000    0.000    0.000    0.000 
#
# Total GULP energy -347360.560677 kJ/mol
# GULP energy per Si atom -12405.734310 kJ/mol
# Density = 2.153587 g / cm^3
# Si number density = 21.584995 Si / 1000 Ang^3
#
#
#
# Elastic Constant Matrix: (Units=GPa)
#
#
# Indices 1 2 3 4 5 6 
#
# 1 104.3280 1.7852 23.4117 0.0000 2.5354 0.0000
# 2 1.7852 78.6625 6.1638 0.0000 -9.9088 0.0000
# 3 23.4117 6.1638 89.4612 0.0000 12.8507 0.0000
# 4 0.0000 0.0000 0.0000 24.4190 0.0000 -1.0527
# 5 2.5354 -9.9088 12.8507 0.0000 23.6223 0.0000
# 6 0.0000 0.0000 0.0000 -1.0527 0.0000 36.6098
#
#
#
# Elastic Compliance Matrix: (Units=1/GPa)
#
#
# Indices 1 2 3 4 5 6 
#
# 1 0.010187 0.000033 -0.002726 0.000000 0.000404 0.000000
# 2 0.000033 0.013720 -0.001931 0.000000 0.006802 0.000000
# 3 -0.002726 -0.001931 0.013124 0.000000 -0.007657 0.000000
# 4 0.000000 0.000000 0.000000 0.041002 0.000000 0.001179
# 5 0.000404 0.006802 -0.007657 0.000000 0.049308 0.000000
# 6 0.000000 0.000000 0.000000 0.001179 0.000000 0.027349
#
#
# Mechanical properties :
#
#
# Convention : Reuss Voigt Hill
#
# Bulk Modulus (GPa) = 35.99307 37.24146 36.61726
# Shear Modulus (GPa) = 28.86846 33.00296 30.93571
#
# Velocity S-wave (km/s) = 3.66106 3.91446 3.78988
# Velocity P-wave (km/s) = 5.88068 6.14178 6.01265
#
# Compressibility (1/GPa) = 0.02778313
#
# Stress axis : x y z
#
# Youngs Moduli (GPa) = 98.16903 72.88681 76.19401
#
# Poissons Ratio (x) = -0.00242 0.20771
# Poissons Ratio (y) = -0.00327 0.14714
# Poissons Ratio (z) = 0.26761 0.14075
#
# Static dielectric constant tensor:
#      x y z
#    x 4.266670 0.000000 0.067320 
#    y 0.000000 3.907710 0.000000 
#    z 0.067320 0.000000 3.648930 
# 
# 
# High freq. dielectric constant tensor:
#      x y z
#    x 1.869020 0.000000 0.009420 
#    y 0.000000 1.858900 0.000000 
#    z 0.009420 0.000000 1.831740 
# 
# From -- ./inp_files/209619.got.cif
#   From: 2010.06.25/outbox.cif.g09.slc.cpg/sg15_105_cif.got.tgz:209619.got - 2010.06.28 07:06:18.
