data_PCOD8145451
_publ_section_title
;
Structure prediction by ZEFSAII (Michael W. Deem and Ramdas Pophale) SiO2 
 PCOD8145451
Probable space group: C 2/C
;
_chemical_formula_sum "Si O2"
_cell_formula_units_Z 40
_cell_length_a 12.663718
_cell_length_b 8.712554
_cell_length_c 15.889753
_cell_angle_alpha 90.000000
_cell_angle_beta 91.627503
_cell_angle_gamma 90.000000
_cell_volume 1752.462079
_symmetry_space_group_name_H-M "C 2/C"
_symmetry_group_IT_number 15
_symmetry_cell_setting 'monoclinic'
loop_
_space_group_symop_operation_xyz
x,y,z
-x,y,1/2-z
-x,-y,-z
x,-y,1/2+z
1/2+x,1/2+y,z
1/2-x,1/2+y,1/2-z
1/2-x,1/2-y,-z
1/2+x,1/2-y,1/2+z
loop_
_atom_site_type_symbol
_atom_site_label
_atom_site_fract_x
_atom_site_fract_y
_atom_site_fract_z
Si Si1 0.004131 0.580230 0.617612
Si Si2 0.000000 0.678963 0.250000
Si Si3 0.000000 0.821058 0.750000
Si Si4 0.671062 0.568110 0.773616
Si Si5 0.289157 0.028338 0.433905
Si Si6 0.764841 0.630110 0.603127
O O1 0.048583 0.715540 0.678032
O O2 0.890071 0.639891 0.584849
O O3 0.998360 0.420842 0.666742
O O4 0.092360 0.543491 0.548134
O O5 0.895080 0.780097 0.243671
O O6 0.902965 0.921237 0.714860
O O7 0.737392 0.579384 0.861094
O O8 0.744899 0.547406 0.692168
O O9 0.290696 0.204097 0.400146
O O10 0.225260 0.027037 0.521784
#
# Coordination Sequence:
#
# PCOD8145451 Si02
#       6
#     8   4   4   8   8   8
#     4  11  21  40  66  97 129 174 219 281 324 411
#     4  10  22  38  68  96 128 174 226 266 344 394
#     4  10  22  38  68  96 128 174 226 266 344 394
#     4  11  22  43  64  94 134 175 216 285 328 406
#     4  11  24  42  67  98 133 176 225 279 337 399
#     4  11  24  42  67  98 133 176 225 279 337 399
#
# _framework density 22.825030000000002
#
# number of rings (size 3 to 8) (size 9 to 14) (size 15 to 20)
#    0.000    1.200    4.000    3.000    0.000    0.000 
#    0.000   10.000    0.000    0.000    0.000    0.000 
#    0.000    0.000    0.000    0.000    0.000    0.000 
#
# Total GULP energy -247839.574154 kJ/mol
# GULP energy per Si atom -12391.978708 kJ/mol
# Density = 2.277308 g / cm^3
# Si number density = 22.825030 Si / 1000 Ang^3
#
#
#
# Elastic Constant Matrix: (Units=GPa)
#
#
# Indices 1 2 3 4 5 6 
#
# 1 100.1582 22.2531 4.4882 0.0000 5.8777 0.0000
# 2 22.2531 79.6166 3.4970 0.0000 -3.5854 0.0000
# 3 4.4882 3.4970 92.9910 0.0000 4.4695 0.0000
# 4 0.0000 0.0000 0.0000 15.6979 0.0000 -2.3737
# 5 5.8777 -3.5854 4.4695 0.0000 21.2919 0.0000
# 6 0.0000 0.0000 0.0000 -2.3737 0.0000 17.0609
#
#
#
# Elastic Compliance Matrix: (Units=1/GPa)
#
#
# Indices 1 2 3 4 5 6 
#
# 1 0.010911 -0.003197 -0.000238 0.000000 -0.003500 0.000000
# 2 -0.003197 0.013624 -0.000516 0.000000 0.003285 0.000000
# 3 -0.000238 -0.000516 0.010896 0.000000 -0.002308 0.000000
# 4 0.000000 0.000000 0.000000 0.065072 0.000000 0.009054
# 5 -0.003500 0.003285 -0.002308 0.000000 0.048970 0.000000
# 6 0.000000 0.000000 0.000000 0.009054 0.000000 0.059873
#
#
# Mechanical properties :
#
#
# Convention : Reuss Voigt Hill
#
# Bulk Modulus (GPa) = 36.32562 37.02694 36.67628
# Shear Modulus (GPa) = 22.08251 26.97863 24.53057
#
# Velocity S-wave (km/s) = 3.11379 3.44172 3.28185
# Velocity P-wave (km/s) = 5.37373 5.66138 5.51943
#
# Compressibility (1/GPa) = 0.02752878
#
# Stress axis : x y z
#
# Youngs Moduli (GPa) = 91.65473 73.39847 91.78042
#
# Poissons Ratio (x) = 0.23463 0.02186
# Poissons Ratio (y) = 0.29299 0.04735
# Poissons Ratio (z) = 0.02183 0.03787
#
# Static dielectric constant tensor:
#      x y z
#    x 4.269400 0.000000 0.057840 
#    y 0.000000 3.942470 0.000000 
#    z 0.057840 0.000000 4.622260 
# 
# 
# High freq. dielectric constant tensor:
#      x y z
#    x 1.898990 0.000000 0.005300 
#    y 0.000000 1.891870 0.000000 
#    z 0.005300 0.000000 1.904770 
# 
# From -- ./inp_files/187860.got.cif
#   From: 2010.06.25/outbox.cif.g09.slc.cpg/sg15_94_cif.got.tgz:187860.got - 2010.06.28 07:06:18.
