data_PCOD8145905
_publ_section_title
;
Structure prediction by ZEFSAII (Michael W. Deem and Ramdas Pophale) SiO2 
 PCOD8145905
Probable space group: C 2/C
;
_chemical_formula_sum "Si O2"
_cell_formula_units_Z 60
_cell_length_a 26.315570
_cell_length_b 8.539499
_cell_length_c 11.923859
_cell_angle_alpha 90.000000
_cell_angle_beta 93.492654
_cell_angle_gamma 90.000000
_cell_volume 2674.573912
_symmetry_space_group_name_H-M "C 2/C"
_symmetry_group_IT_number 15
_symmetry_cell_setting 'monoclinic'
loop_
_space_group_symop_operation_xyz
x,y,z
-x,y,1/2-z
-x,-y,-z
x,-y,1/2+z
1/2+x,1/2+y,z
1/2-x,1/2+y,1/2-z
1/2-x,1/2-y,-z
1/2+x,1/2-y,1/2+z
loop_
_atom_site_type_symbol
_atom_site_label
_atom_site_fract_x
_atom_site_fract_y
_atom_site_fract_z
Si Si1 0.055123 0.619812 0.206540
Si Si2 0.792280 0.810636 0.361117
Si Si3 0.347834 0.209514 0.149131
Si Si4 0.000000 0.907703 0.750000
Si Si5 0.455249 0.406336 0.432736
Si Si6 0.359884 0.578746 0.442228
Si Si7 0.906982 0.717973 0.751384
Si Si8 0.818799 0.367252 0.083392
O O1 0.094331 0.708512 0.295866
O O2 0.046547 0.717487 0.088216
O O3 0.079307 0.449274 0.190472
O O4 0.000000 0.599368 0.250000
O O5 0.808768 0.751304 0.242086
O O6 0.814507 0.687566 0.454384
O O7 0.731513 0.817271 0.355740
O O8 0.811859 0.986897 0.385340
O O9 0.329514 0.050945 0.088129
O O10 0.342480 0.338781 0.052946
O O11 0.043174 0.790664 0.806535
O O12 0.037159 0.021691 0.688450
O O13 0.500000 0.500000 0.500000
O O14 0.402200 0.450685 0.482449
O O15 0.385489 0.692155 0.355785
O O16 0.865319 0.718311 0.649556
#
# Coordination Sequence:
#
# PCOD8145905 Si02
#       8
#     8   8   8   4   8   8   8   8
#     4  11  21  43  69  98 140 184 238 293 351 424
#     4  11  26  48  73 105 138 189 240 301 360 431
#     4  11  26  45  71 102 142 187 237 292 362 432
#     4  10  22  40  62  96 136 176 230 280 344 416
#     4  11  23  38  65  98 135 180 234 285 347 414
#     4  11  26  41  66 104 141 184 238 291 358 425
#     4  10  24  45  68 101 145 185 235 297 356 432
#     4  10  27  46  74 101 139 184 243 296 364 422
#
# _framework density 22.433479999999999
#
# number of rings (size 3 to 8) (size 9 to 14) (size 15 to 20)
#    0.000    1.333    2.667    0.800    9.333    1.600 
#    2.400    2.000    0.000    0.000    0.000    0.000 
#    0.000    0.000    0.000    0.000    0.000    0.000 
#
# Total GULP energy -371708.678392 kJ/mol
# GULP energy per Si atom -12390.289280 kJ/mol
# Density = 2.238242 g / cm^3
# Si number density = 22.433480 Si / 1000 Ang^3
#
#
#
# Elastic Constant Matrix: (Units=GPa)
#
#
# Indices 1 2 3 4 5 6 
#
# 1 113.3547 36.3374 20.1610 0.0000 -1.7764 0.0000
# 2 36.3374 100.4301 25.2053 0.0000 -1.9667 0.0000
# 3 20.1610 25.2053 62.1693 0.0000 -17.3361 0.0000
# 4 0.0000 0.0000 0.0000 18.2948 0.0000 0.5677
# 5 -1.7764 -1.9667 -17.3361 0.0000 33.9614 0.0000
# 6 0.0000 0.0000 0.0000 0.5677 0.0000 25.8078
#
#
#
# Elastic Compliance Matrix: (Units=1/GPa)
#
#
# Indices 1 2 3 4 5 6 
#
# 1 0.010220 -0.003146 -0.002263 0.000000 -0.000803 0.000000
# 2 -0.003146 0.012162 -0.004385 0.000000 -0.001698 0.000000
# 3 -0.002263 -0.004385 0.021562 0.000000 0.010634 0.000000
# 4 0.000000 0.000000 0.000000 0.054698 0.000000 -0.001203
# 5 -0.000803 -0.001698 0.010634 0.000000 0.034733 0.000000
# 6 0.000000 0.000000 0.000000 -0.001203 0.000000 0.038774
#
#
# Mechanical properties :
#
#
# Convention : Reuss Voigt Hill
#
# Bulk Modulus (GPa) = 41.05316 48.81794 44.93555
# Shear Modulus (GPa) = 25.01807 28.56281 26.79044
#
# Velocity S-wave (km/s) = 3.34310 3.57210 3.45949
# Velocity P-wave (km/s) = 5.76554 6.23070 6.00263
#
# Compressibility (1/GPa) = 0.02435866
#
# Stress axis : x y z
#
# Youngs Moduli (GPa) = 97.84612 82.22020 46.37795
#
# Poissons Ratio (x) = 0.25864 0.10494
# Poissons Ratio (y) = 0.30779 0.20334
# Poissons Ratio (z) = 0.22141 0.36049
#
# Static dielectric constant tensor:
#      x y z
#    x 4.084290 0.000000 0.308010 
#    y 0.000000 4.142890 0.000000 
#    z 0.308010 0.000000 3.373280 
# 
# 
# High freq. dielectric constant tensor:
#      x y z
#    x 1.901550 0.000000 -0.004710 
#    y 0.000000 1.897820 0.000000 
#    z -0.004710 0.000000 1.867990 
# 
# From -- ./inp_files/121983.got.cif
#   From: 2010.06.25/outbox.cif.g09.slc.cpg/sg15_61_cif.got.tgz:121983.got - 2010.06.28 07:06:18.
