data_PCOD8145403
_publ_section_title
;
Structure prediction by ZEFSAII (Michael W. Deem and Ramdas Pophale) SiO2 
 PCOD8145403
Probable space group: C 2/C
;
_chemical_formula_sum "Si O2"
_cell_formula_units_Z 64
_cell_length_a 17.581159
_cell_length_b 11.602334
_cell_length_c 28.924377
_cell_angle_alpha 90.000000
_cell_angle_beta 31.805801
_cell_angle_gamma 90.000000
_cell_volume 3109.581712
_symmetry_space_group_name_H-M "C 2/C"
_symmetry_group_IT_number 15
_symmetry_cell_setting 'monoclinic'
loop_
_space_group_symop_operation_xyz
x,y,z
-x,y,1/2-z
-x,-y,-z
x,-y,1/2+z
1/2+x,1/2+y,z
1/2-x,1/2+y,1/2-z
1/2-x,1/2-y,-z
1/2+x,1/2-y,1/2+z
loop_
_atom_site_type_symbol
_atom_site_label
_atom_site_fract_x
_atom_site_fract_y
_atom_site_fract_z
Si Si1 0.212701 0.486227 0.473762
Si Si2 0.857138 0.570668 0.891637
Si Si3 0.866282 0.812390 0.854737
Si Si4 0.677809 0.200976 0.371056
Si Si5 0.110228 0.453662 0.381059
Si Si6 0.166821 0.966555 0.911581
Si Si7 0.354463 0.787614 0.051451
Si Si8 0.673098 0.914406 0.244976
O O1 0.206900 0.498999 0.532132
O O2 0.349863 0.563434 0.387676
O O3 0.234596 0.354647 0.443525
O O4 0.061904 0.527031 0.528712
O O5 0.867677 0.710563 0.892508
O O6 0.761798 0.547167 0.895894
O O7 0.024605 0.537913 0.799130
O O8 0.717915 0.791988 0.903958
O O9 0.000000 0.811198 0.750000
O O10 0.513274 0.240081 0.450024
O O11 0.787130 0.282761 0.287023
O O12 0.698606 0.070671 0.343357
O O13 0.148922 0.363611 0.400695
O O14 0.166163 0.409413 0.303455
O O15 0.210830 0.836407 0.902224
O O16 0.209973 0.996644 0.836434
O O17 0.000000 0.000000 0.000000
#
# Coordination Sequence:
#
# PCOD8145403 Si02
#       8
#     8   8   8   8   8   8   8   8
#     4  10  22  40  62  91 120 163 206 254 317 368
#     4  11  23  41  63  89 124 167 212 255 309 370
#     4  12  19  36  60  90 125 157 202 263 309 362
#     4  11  19  40  64  89 123 159 206 256 310 363
#     4  10  22  38  66  91 121 161 205 257 312 373
#     4  12  24  41  62  90 125 165 207 259 309 372
#     4  11  21  41  65  86 125 166 204 254 314 375
#     4  11  23  41  63  92 123 165 211 258 310 366
#
# _framework density 20.581545999999999
#
# number of rings (size 3 to 8) (size 9 to 14) (size 15 to 20)
#    0.000    1.000    6.250    1.500    1.750    0.500 
#    2.250    1.250    0.000    0.000    0.000    0.000 
#    0.000    0.000    0.000    0.000    0.000    0.000 
#
# Total GULP energy -396554.048443 kJ/mol
# GULP energy per Si atom -12392.314014 kJ/mol
# Density = 2.053470 g / cm^3
# Si number density = 20.581546 Si / 1000 Ang^3
#
#
#
# Elastic Constant Matrix: (Units=GPa)
#
#
# Indices 1 2 3 4 5 6 
#
# 1 59.8718 15.1261 33.4496 0.0000 8.9279 0.0000
# 2 15.1261 123.1695 42.7965 0.0000 14.0642 0.0000
# 3 33.4496 42.7965 92.6365 -0.0005 16.7830 -0.0002
# 4 0.0000 0.0000 -0.0005 27.5630 0.0000 -1.7943
# 5 8.9279 14.0642 16.7830 0.0000 21.3027 0.0001
# 6 0.0000 0.0000 -0.0002 -1.7943 0.0001 26.0337
#
#
#
# Elastic Compliance Matrix: (Units=1/GPa)
#
#
# Indices 1 2 3 4 5 6 
#
# 1 0.021130 0.000275 -0.007138 0.000000 -0.003413 0.000000
# 2 0.000275 0.009883 -0.004039 0.000000 -0.003459 0.000000
# 3 -0.007138 -0.004039 0.016580 0.000000 -0.007404 0.000000
# 4 0.000000 0.000000 0.000000 0.036444 0.000000 0.002512
# 5 -0.003413 -0.003459 -0.007404 0.000000 0.056489 0.000000
# 6 0.000000 0.000000 0.000000 0.002512 0.000000 0.038585
#
#
# Mechanical properties :
#
#
# Convention : Reuss Voigt Hill
#
# Bulk Modulus (GPa) = 38.77627 50.93577 44.85602
# Shear Modulus (GPa) = 23.86506 27.26693 25.56600
#
# Velocity S-wave (km/s) = 3.40889 3.64376 3.52828
# Velocity P-wave (km/s) = 5.86304 6.51956 6.20000
#
# Compressibility (1/GPa) = 0.02578897
#
# Stress axis : x y z
#
# Youngs Moduli (GPa) = 47.32613 101.18078 60.31494
#
# Poissons Ratio (x) = -0.02784 0.43055
# Poissons Ratio (y) = -0.01302 0.24359
# Poissons Ratio (z) = 0.33783 0.40864
#
# Static dielectric constant tensor:
#      x y z
#    x 3.662030 0.000000 0.014330 
#    y 0.000000 3.934320 0.000000 
#    z 0.014330 0.000000 3.687690 
# 
# 
# High freq. dielectric constant tensor:
#      x y z
#    x 1.791660 0.000000 0.008190 
#    y 0.000000 1.807290 0.000000 
#    z 0.008190 0.000000 1.800290 
# 
# From -- ./inp_files/316195.got.cif
#   From: 2010.06.25/outbox.cif.g09.slc.cpg/sg15_159_cif.got.tgz:316195.got - 2010.06.28 07:06:18.
