data_PCOD8145386
_publ_section_title
;
Structure prediction by ZEFSAII (Michael W. Deem and Ramdas Pophale) SiO2 
 PCOD8145386
Probable space group: C 2/C
;
_chemical_formula_sum "Si O2"
_cell_formula_units_Z 56
_cell_length_a 17.470331
_cell_length_b 13.621396
_cell_length_c 14.511174
_cell_angle_alpha 90.000000
_cell_angle_beta 49.451633
_cell_angle_gamma 90.000000
_cell_volume 2623.961329
_symmetry_space_group_name_H-M "C 2/C"
_symmetry_group_IT_number 15
_symmetry_cell_setting 'monoclinic'
loop_
_space_group_symop_operation_xyz
x,y,z
-x,y,1/2-z
-x,-y,-z
x,-y,1/2+z
1/2+x,1/2+y,z
1/2-x,1/2+y,1/2-z
1/2-x,1/2-y,-z
1/2+x,1/2-y,1/2+z
loop_
_atom_site_type_symbol
_atom_site_label
_atom_site_fract_x
_atom_site_fract_y
_atom_site_fract_z
Si Si1 0.769908 0.392748 0.593846
Si Si2 0.339647 0.391495 0.512315
Si Si3 0.533187 0.200833 0.618329
Si Si4 0.087457 0.909349 0.611436
Si Si5 0.756982 0.616294 0.605430
Si Si6 0.956349 0.709931 0.484994
Si Si7 0.684098 0.200285 0.259364
O O1 0.875274 0.375480 0.459886
O O2 0.680568 0.366274 0.595805
O O3 0.755958 0.504395 0.639002
O O4 0.763317 0.320156 0.684629
O O5 0.380084 0.503390 0.483206
O O6 0.313625 0.365480 0.427477
O O7 0.426431 0.323301 0.488433
O O8 0.233892 0.376172 0.648511
O O9 0.500000 0.190591 0.750000
O O10 0.556600 0.314962 0.575984
O O11 0.454718 0.180139 0.595757
O O12 0.000000 0.945908 0.750000
O O13 0.873402 0.645009 0.496667
O O14 0.710514 0.686646 0.719347
O O15 0.064337 0.684439 0.356399
#
# Coordination Sequence:
#
# PCOD8145386 Si02
#       7
#     8   8   8   8   8   8   8
#     4  10  23  44  62  94 127 164 213 258 312 372
#     4  10  23  40  62  97 126 163 212 255 315 369
#     4  10  23  42  65  92 125 170 206 259 315 370
#     4  10  23  40  64  92 125 162 205 260 313 376
#     4  10  23  42  61  95 130 161 213 259 306 376
#     4  10  22  40  65  92 127 166 211 257 311 376
#     4  10  22  38  65  91 126 169 202 262 312 364
#
# _framework density 21.341777
#
# number of rings (size 3 to 8) (size 9 to 14) (size 15 to 20)
#    0.000    2.000    0.000    2.143   12.000    6.857 
#   10.286    0.000    0.000    0.000    0.000    0.000 
#    0.000    0.000    0.000    0.000    0.000    0.000 
#
# Total GULP energy -347008.268931 kJ/mol
# GULP energy per Si atom -12393.152462 kJ/mol
# Density = 2.129320 g / cm^3
# Si number density = 21.341777 Si / 1000 Ang^3
#
#
#
# Elastic Constant Matrix: (Units=GPa)
#
#
# Indices 1 2 3 4 5 6 
#
# 1 88.6238 7.2563 24.9810 0.0000 -2.1365 0.0000
# 2 7.2563 49.7970 29.3965 0.0000 10.0133 0.0000
# 3 24.9810 29.3965 84.2121 0.0000 6.9282 0.0000
# 4 0.0000 0.0000 0.0000 30.0589 0.0000 -0.9345
# 5 -2.1365 10.0133 6.9282 0.0000 29.8997 0.0000
# 6 0.0000 0.0000 0.0000 -0.9345 0.0000 25.6877
#
#
#
# Elastic Compliance Matrix: (Units=1/GPa)
#
#
# Indices 1 2 3 4 5 6 
#
# 1 0.012405 0.000125 -0.003867 0.000000 0.001741 0.000000
# 2 0.000125 0.026619 -0.008764 0.000000 -0.006875 0.000000
# 3 -0.003867 -0.008764 0.016171 0.000000 -0.001088 0.000000
# 4 0.000000 0.000000 0.000000 0.033306 0.000000 0.001212
# 5 0.001741 -0.006875 -0.001088 0.000000 0.036124 0.000000
# 6 0.000000 0.000000 0.000000 0.001212 0.000000 0.038973
#
#
# Mechanical properties :
#
#
# Convention : Reuss Voigt Hill
#
# Bulk Modulus (GPa) = 33.12981 38.43337 35.78159
# Shear Modulus (GPa) = 25.16731 27.86252 26.51491
#
# Velocity S-wave (km/s) = 3.43775 3.61714 3.52859
# Velocity P-wave (km/s) = 5.59595 5.95757 5.77959
#
# Compressibility (1/GPa) = 0.03018429
#
# Stress axis : x y z
#
# Youngs Moduli (GPa) = 80.61040 37.56692 61.84080
#
# Poissons Ratio (x) = -0.00470 0.23913
# Poissons Ratio (y) = -0.01008 0.54195
# Poissons Ratio (z) = 0.31171 0.32922
#
# Static dielectric constant tensor:
#      x y z
#    x 3.957140 0.000000 -0.076500 
#    y 0.000000 3.871890 0.000000 
#    z -0.076500 0.000000 3.844690 
# 
# 
# High freq. dielectric constant tensor:
#      x y z
#    x 1.850340 0.000000 -0.005070 
#    y 0.000000 1.833400 0.000000 
#    z -0.005070 0.000000 1.826830 
# 
# From -- ./inp_files/162203.got.cif
#   From: 2010.06.25/outbox.cif.g09.slc.cpg/sg15_82_cif.got.tgz:162203.got - 2010.06.28 07:06:18.
