data_PCOD8145872
_publ_section_title
;
Structure prediction by ZEFSAII (Michael W. Deem and Ramdas Pophale) SiO2 
 PCOD8145872
Probable space group: C 2/C
;
_chemical_formula_sum "Si O2"
_cell_formula_units_Z 64
_cell_length_a 17.405649
_cell_length_b 24.751579
_cell_length_c 15.220589
_cell_angle_alpha 90.000000
_cell_angle_beta 29.687316
_cell_angle_gamma 90.000000
_cell_volume 3247.606641
_symmetry_space_group_name_H-M "C 2/C"
_symmetry_group_IT_number 15
_symmetry_cell_setting 'monoclinic'
loop_
_space_group_symop_operation_xyz
x,y,z
-x,y,1/2-z
-x,-y,-z
x,-y,1/2+z
1/2+x,1/2+y,z
1/2-x,1/2+y,1/2-z
1/2-x,1/2-y,-z
1/2+x,1/2-y,1/2+z
loop_
_atom_site_type_symbol
_atom_site_label
_atom_site_fract_x
_atom_site_fract_y
_atom_site_fract_z
Si Si1 0.818381 0.868066 0.429309
Si Si2 0.312463 0.889225 0.248665
Si Si3 0.817894 0.391121 0.609316
Si Si4 0.318537 0.590721 0.435225
Si Si5 0.176022 0.493858 0.800380
Si Si6 0.825382 0.521951 0.397726
Si Si7 0.311046 0.687316 0.117812
Si Si8 0.676670 0.305700 0.249089
O O1 0.727677 0.923684 0.500924
O O2 0.761652 0.841168 0.576074
O O3 0.773267 0.828092 0.395515
O O4 0.000000 0.881033 0.250000
O O5 0.247409 0.882077 0.411241
O O6 0.256961 0.840007 0.245397
O O7 0.247214 0.946245 0.273038
O O8 0.497288 0.890675 0.069300
O O9 0.762333 0.379123 0.566107
O O10 0.749254 0.450140 0.707317
O O11 0.749901 0.345564 0.739130
O O12 0.500000 0.600767 0.250000
O O13 0.282853 0.527126 0.464926
O O14 0.190830 0.468202 0.689456
O O15 0.000000 0.500000 0.000000
O O16 0.000000 0.506692 0.250000
O O17 0.232936 0.745141 0.199855
O O18 0.494148 0.692553 0.943172
#
# Coordination Sequence:
#
# PCOD8145872 Si02
#       8
#     8   8   8   8   8   8   8   8
#     4  10  23  39  58  90 128 162 205 254 306 361
#     4  10  22  40  61  95 119 160 208 252 309 363
#     4  11  21  39  65  88 125 159 204 258 303 368
#     4  11  23  40  60  89 127 163 200 251 310 367
#     4   9  19  34  56  88 122 154 201 246 299 361
#     4  11  21  35  58  90 126 163 208 246 300 371
#     4  11  23  43  60  93 121 167 210 252 311 358
#     4  11  24  40  65  86 127 163 208 260 301 367
#
# _framework density 19.70682
#
# number of rings (size 3 to 8) (size 9 to 14) (size 15 to 20)
#    0.000    1.500    1.250    4.875    5.250    1.000 
#    0.000    2.500    0.000    0.000    0.000    0.000 
#    0.000    0.000    0.000    0.000    0.000    0.000 
#
# Total GULP energy -396859.015719 kJ/mol
# GULP energy per Si atom -12401.844241 kJ/mol
# Density = 1.966197 g / cm^3
# Si number density = 19.706820 Si / 1000 Ang^3
#
#
#
# Elastic Constant Matrix: (Units=GPa)
#
#
# Indices 1 2 3 4 5 6 
#
# 1 107.5093 42.3141 45.6595 0.1236 14.7220 -0.0608
# 2 42.3141 101.8175 45.3690 0.0988 11.3948 -0.0427
# 3 45.6595 45.3690 99.7744 0.0507 17.1140 -0.0738
# 4 0.1236 0.0988 0.0507 32.4163 -0.0544 -1.9063
# 5 14.7220 11.3948 17.1140 -0.0544 36.1373 0.0348
# 6 -0.0608 -0.0427 -0.0738 -1.9063 0.0348 19.9640
#
#
#
# Elastic Compliance Matrix: (Units=1/GPa)
#
#
# Indices 1 2 3 4 5 6 
#
# 1 0.012527 -0.003225 -0.003880 -0.000035 -0.002249 0.000018
# 2 -0.003225 0.013208 -0.004398 -0.000022 -0.000768 0.000001
# 3 -0.003880 -0.004398 0.014464 0.000001 -0.003882 0.000039
# 4 -0.000035 -0.000022 0.000001 0.031023 0.000064 0.002962
# 5 -0.002249 -0.000768 -0.003882 0.000064 0.030669 -0.000070
# 6 0.000018 0.000001 0.000039 0.002962 -0.000070 0.050373
#
#
# Mechanical properties :
#
#
# Convention : Reuss Voigt Hill
#
# Bulk Modulus (GPa) = 58.16846 63.97626 61.07236
# Shear Modulus (GPa) = 27.62399 29.42076 28.52237
#
# Velocity S-wave (km/s) = 3.74805 3.86803 3.80851
# Velocity P-wave (km/s) = 6.95065 7.24454 7.09912
#
# Compressibility (1/GPa) = 0.01719145
#
# Stress axis : x y z
#
# Youngs Moduli (GPa) = 79.82812 75.71434 69.13647
#
# Poissons Ratio (x) = 0.24420 0.26827
# Poissons Ratio (y) = 0.25747 0.30406
# Poissons Ratio (z) = 0.30976 0.33299
#
# Static dielectric constant tensor:
#      x y z
#    x 3.595900 -0.000110 0.192220 
#    y -0.000110 3.629850 0.000150 
#    z 0.192220 0.000150 3.757220 
# 
# 
# High freq. dielectric constant tensor:
#      x y z
#    x 1.767590 -0.000010 0.012730 
#    y -0.000010 1.763890 0.000020 
#    z 0.012730 0.000020 1.778610 
# 
# From -- ./inp_files/164240.got.cif
#   From: 2010.06.25/outbox.cif.g09.slc.cpg/sg15_83_cif.got.tgz:164240.got - 2010.06.28 07:06:18.
