data_PCOD8145064
_publ_section_title
;
Structure prediction by ZEFSAII (Michael W. Deem and Ramdas Pophale) SiO2 
 PCOD8145064
Probable space group: C 2/C
;
_chemical_formula_sum "Si O2"
_cell_formula_units_Z 64
_cell_length_a 16.071294
_cell_length_b 9.516220
_cell_length_c 20.401072
_cell_angle_alpha 90.000000
_cell_angle_beta 84.949545
_cell_angle_gamma 90.000000
_cell_volume 3107.984936
_symmetry_space_group_name_H-M "C 2/C"
_symmetry_group_IT_number 15
_symmetry_cell_setting 'monoclinic'
loop_
_space_group_symop_operation_xyz
x,y,z
-x,y,1/2-z
-x,-y,-z
x,-y,1/2+z
1/2+x,1/2+y,z
1/2-x,1/2+y,1/2-z
1/2-x,1/2-y,-z
1/2+x,1/2-y,1/2+z
loop_
_atom_site_type_symbol
_atom_site_label
_atom_site_fract_x
_atom_site_fract_y
_atom_site_fract_z
Si Si1 0.084961 0.593371 0.500983
Si Si2 0.645265 0.315159 0.395190
Si Si3 0.658722 0.813346 0.502804
Si Si4 0.665897 0.857345 0.640466
Si Si5 0.905059 0.821541 0.244205
Si Si6 0.141491 0.132994 0.389892
Si Si7 0.339513 0.166789 0.871334
Si Si8 0.594643 0.349253 0.749679
O O1 0.092707 0.714220 0.446179
O O2 0.160143 0.480264 0.485342
O O3 0.098031 0.673153 0.570232
O O4 0.000000 0.500000 0.500000
O O5 0.625867 0.264622 0.323097
O O6 0.608874 0.474173 0.402904
O O7 0.744308 0.310822 0.402625
O O8 0.750000 0.750000 0.500000
O O9 0.615605 0.804723 0.578552
O O10 0.604236 0.729294 0.451745
O O11 0.654404 0.752704 0.700143
O O12 0.760169 0.861423 0.610057
O O13 0.643613 0.015708 0.663696
O O14 0.000000 0.776205 0.250000
O O15 0.890569 0.985319 0.255844
O O16 0.120426 0.200038 0.320620
O O17 0.355670 0.281395 0.814039
O O18 0.500000 0.303873 0.750000
#
# Coordination Sequence:
#
# PCOD8145064 Si02
#       8
#     8   8   8   8   8   8   8   8
#     4  11  25  40  63  95 129 159 213 266 317 372
#     4  10  22  41  63  88 123 166 208 256 318 382
#     4   9  20  38  61  88 121 158 201 250 305 374
#     4   9  19  36  58  87 114 154 200 247 303 372
#     4  10  22  37  58  87 123 159 203 259 316 368
#     4   9  19  38  61  85 118 155 205 250 304 373
#     4  10  22  39  61  87 122 163 205 255 311 378
#     4  10  22  37  55  85 122 156 204 255 306 366
#
# _framework density 20.592120000000001
#
# number of rings (size 3 to 8) (size 9 to 14) (size 15 to 20)
#    0.000    2.250    0.000    1.875    5.250    4.500 
#    0.000    0.625    0.000    0.000    0.000    0.000 
#    0.000    0.000    0.000    0.000    0.000    0.000 
#
# Total GULP energy -396499.011862 kJ/mol
# GULP energy per Si atom -12390.594121 kJ/mol
# Density = 2.054525 g / cm^3
# Si number density = 20.592120 Si / 1000 Ang^3
#
#
#
# Elastic Constant Matrix: (Units=GPa)
#
#
# Indices 1 2 3 4 5 6 
#
# 1 56.1601 21.4287 30.8069 0.0000 13.4002 0.0000
# 2 21.4287 83.7266 73.7864 0.0000 -3.2245 0.0000
# 3 30.8069 73.7864 164.2415 0.0000 18.1477 0.0000
# 4 0.0000 0.0000 0.0000 47.1076 0.0000 -0.3672
# 5 13.4002 -3.2245 18.1477 0.0000 26.9427 0.0000
# 6 0.0000 0.0000 0.0000 -0.3672 0.0000 14.0328
#
#
#
# Elastic Compliance Matrix: (Units=1/GPa)
#
#
# Indices 1 2 3 4 5 6 
#
# 1 0.023190 -0.006207 -0.000221 0.000000 -0.012128 0.000000
# 2 -0.006207 0.023694 -0.010950 0.000000 0.013299 0.000000
# 3 -0.000221 -0.010950 0.012081 0.000000 -0.009338 0.000000
# 4 0.000000 0.000000 0.000000 0.021232 0.000000 0.000556
# 5 -0.012128 0.013299 -0.009338 0.000000 0.051029 0.000000
# 6 0.000000 0.000000 0.000000 0.000556 0.000000 0.071276
#
#
# Mechanical properties :
#
#
# Convention : Reuss Voigt Hill
#
# Bulk Modulus (GPa) = 41.30751 61.79691 51.55221
# Shear Modulus (GPa) = 20.38078 29.49037 24.93557
#
# Velocity S-wave (km/s) = 3.14942 3.78844 3.48361
# Velocity P-wave (km/s) = 5.77309 7.01509 6.42418
#
# Compressibility (1/GPa) = 0.02420867
#
# Stress axis : x y z
#
# Youngs Moduli (GPa) = 43.12249 42.20395 82.77348
#
# Poissons Ratio (x) = 0.26198 0.01829
# Poissons Ratio (y) = 0.26768 0.90637
# Poissons Ratio (z) = 0.00953 0.46213
#
# Static dielectric constant tensor:
#      x y z
#    x 3.315600 0.000000 -0.116920 
#    y 0.000000 3.602620 0.000000 
#    z -0.116920 0.000000 3.234720 
# 
# 
# High freq. dielectric constant tensor:
#      x y z
#    x 1.788620 0.000000 0.024020 
#    y 0.000000 1.802380 0.000000 
#    z 0.024020 0.000000 1.818980 
# 
# From -- ./inp_files/247477.got.cif
#   From: 2010.06.25/outbox.cif.g09.slc.cpg/sg15_124_cif.got.tgz:247477.got - 2010.06.28 07:06:18.
