data_PCOD8145796
_publ_section_title
;
Structure prediction by ZEFSAII (Michael W. Deem and Ramdas Pophale) SiO2 
 PCOD8145796
Probable space group: C 2/C
;
_chemical_formula_sum "Si O2"
_cell_formula_units_Z 56
_cell_length_a 29.670055
_cell_length_b 13.780095
_cell_length_c 9.468686
_cell_angle_alpha 90.000000
_cell_angle_beta 129.662610
_cell_angle_gamma 90.000000
_cell_volume 2980.213276
_symmetry_space_group_name_H-M "C 2/C"
_symmetry_group_IT_number 15
_symmetry_cell_setting 'monoclinic'
loop_
_space_group_symop_operation_xyz
x,y,z
-x,y,1/2-z
-x,-y,-z
x,-y,1/2+z
1/2+x,1/2+y,z
1/2-x,1/2+y,1/2-z
1/2-x,1/2-y,-z
1/2+x,1/2-y,1/2+z
loop_
_atom_site_type_symbol
_atom_site_label
_atom_site_fract_x
_atom_site_fract_y
_atom_site_fract_z
Si Si1 0.621130 0.696196 0.827115
Si Si2 0.378870 0.696196 0.342593
Si Si3 0.847866 0.587685 0.103907
Si Si4 0.774662 0.161442 0.637666
Si Si5 0.725338 0.338559 0.039018
Si Si6 0.000000 0.097691 0.587165
Si Si7 0.152134 0.412315 0.212443
O O1 0.627935 0.808545 0.793449
O O2 0.665652 0.629321 0.823340
O O3 0.556020 0.662413 0.661217
O O4 0.637098 0.684175 0.024196
O O5 0.443980 0.662414 0.437137
O O6 0.372065 0.808545 0.281709
O O7 0.334348 0.629321 0.160733
O O8 0.874189 0.500000 0.248378
O O9 0.776747 0.581471 0.967002
O O10 0.870524 0.571173 0.991048
O O11 0.750000 0.250000 0.500000
O O12 0.789175 0.190986 0.828349
O O13 0.776747 0.418529 0.139985
O O14 0.750000 0.250000 0.000000
O O15 0.000000 0.067512 0.750000
O O16 0.000000 0.000000 0.500000
#
# Coordination Sequence:
#
# PCOD8145796 Si02
#       7
#     8   8   8   8   8   8   8
#     4   9  19  36  54  74 103 139 174 213 261 309
#     4   9  19  36  54  74 103 139 174 213 261 309
#     4   9  18  31  49  75 105 136 169 203 250 306
#     4   9  17  30  49  74 103 135 169 207 251 301
#     4   9  17  30  49  74 103 135 169 207 251 301
#     4  10  22  40  59  76 100 134 175 222 267 312
#     4   9  18  31  49  75 105 136 169 203 250 306
#
# _framework density 18.790600999999999
#
# number of rings (size 3 to 8) (size 9 to 14) (size 15 to 20)
#    0.000    2.857    0.000    2.571    0.000    8.000 
#    0.000    6.429    0.000    0.000    0.000    0.000 
#    0.000    0.000    0.000    0.000    0.000    0.000 
#
# Total GULP energy -346986.523701 kJ/mol
# GULP energy per Si atom -12392.375846 kJ/mol
# Density = 1.874783 g / cm^3
# Si number density = 18.790601 Si / 1000 Ang^3
#
#
#
# Elastic Constant Matrix: (Units=GPa)
#
#
# Indices 1 2 3 4 5 6 
#
# 1 108.3859 41.9280 48.4067 0.0000 9.2858 0.0000
# 2 41.9280 87.7080 41.8921 0.0000 0.0761 0.0000
# 3 48.4067 41.8921 100.0605 0.0000 8.3366 0.0000
# 4 0.0000 0.0000 0.0000 25.8492 0.0000 -6.7394
# 5 9.2858 0.0761 8.3366 0.0000 29.8047 0.0000
# 6 0.0000 0.0000 0.0000 -6.7394 0.0000 22.6653
#
#
#
# Elastic Compliance Matrix: (Units=1/GPa)
#
#
# Indices 1 2 3 4 5 6 
#
# 1 0.013003 -0.004152 -0.004316 0.000000 -0.002833 0.000000
# 2 -0.004152 0.015659 -0.004763 0.000000 0.002586 0.000000
# 3 -0.004316 -0.004763 0.014296 0.000000 -0.002642 0.000000
# 4 0.000000 0.000000 0.000000 0.041937 0.000000 0.012470
# 5 -0.002833 0.002586 -0.002642 0.000000 0.035167 0.000000
# 6 0.000000 0.000000 0.000000 0.012470 0.000000 0.047828
#
#
# Mechanical properties :
#
#
# Convention : Reuss Voigt Hill
#
# Bulk Modulus (GPa) = 60.61967 62.28977 61.45472
# Shear Modulus (GPa) = 25.01878 26.59233 25.80556
#
# Velocity S-wave (km/s) = 3.65287 3.76599 3.70986
# Velocity P-wave (km/s) = 7.07968 7.22022 7.15030
#
# Compressibility (1/GPa) = 0.01649630
#
# Stress axis : x y z
#
# Youngs Moduli (GPa) = 76.90663 63.86174 69.94930
#
# Poissons Ratio (x) = 0.26515 0.30191
# Poissons Ratio (y) = 0.31931 0.33315
# Poissons Ratio (z) = 0.33194 0.30415
#
# Static dielectric constant tensor:
#      x y z
#    x 3.771490 0.000000 0.066480 
#    y 0.000000 3.206860 0.000000 
#    z 0.066480 0.000000 3.740060 
# 
# 
# High freq. dielectric constant tensor:
#      x y z
#    x 1.722870 0.000000 -0.008670 
#    y 0.000000 1.707150 0.000000 
#    z -0.008670 0.000000 1.726970 
# 
# From -- ./inp_files/69983.got.cif
#   From: 2010.06.25/outbox.cif.g09.slc.cpg/sg15_35_cif.got.tgz:69983.got - 2010.06.28 07:06:18.
