data_PCOD8145669
_publ_section_title
;
Structure prediction by ZEFSAII (Michael W. Deem and Ramdas Pophale) SiO2 
 PCOD8145669
Probable space group: C 2/C
;
_chemical_formula_sum "Si O2"
_cell_formula_units_Z 44
_cell_length_a 23.258674
_cell_length_b 8.081701
_cell_length_c 31.173884
_cell_angle_alpha 90.000000
_cell_angle_beta 160.187273
_cell_angle_gamma 90.000000
_cell_volume 1986.142120
_symmetry_space_group_name_H-M "C 2/C"
_symmetry_group_IT_number 15
_symmetry_cell_setting 'monoclinic'
loop_
_space_group_symop_operation_xyz
x,y,z
-x,y,1/2-z
-x,-y,-z
x,-y,1/2+z
1/2+x,1/2+y,z
1/2-x,1/2+y,1/2-z
1/2-x,1/2-y,-z
1/2+x,1/2-y,1/2+z
loop_
_atom_site_type_symbol
_atom_site_label
_atom_site_fract_x
_atom_site_fract_y
_atom_site_fract_z
Si Si1 0.843951 0.022772 0.921122
Si Si2 0.500000 0.558010 0.750000
Si Si3 0.886732 0.892288 0.586155
Si Si4 0.372866 0.914887 0.802564
Si Si5 0.686565 0.303394 0.520520
Si Si6 0.956906 0.754055 0.886479
O O1 0.676740 0.019906 0.774849
O O2 0.837062 0.870777 0.948566
O O3 0.875026 0.192707 0.968865
O O4 0.000000 0.000000 0.000000
O O5 0.495908 0.440382 0.705092
O O6 0.337404 0.673565 0.629513
O O7 0.750000 0.750000 0.500000
O O8 0.022406 0.823664 0.647134
O O9 0.785683 0.052600 0.495587
O O10 0.216138 0.828100 0.715841
O O11 0.453958 0.056127 0.889548
O O12 0.510697 0.783544 0.884428
#
# Coordination Sequence:
#
# PCOD8145669 Si02
#       6
#     8   4   8   8   8   8
#     4   9  20  39  62  91 124 161 202 255 321 379
#     4  12  26  44  66  92 126 178 222 264 324 380
#     4  11  25  44  64  95 130 169 219 267 316 382
#     4  11  21  41  66  94 130 164 206 267 325 381
#     4  11  24  43  65  93 126 167 215 266 320 386
#     4  10  22  39  64  95 128 165 210 262 320 384
#
# _framework density 22.153499
#
# number of rings (size 3 to 8) (size 9 to 14) (size 15 to 20)
#    0.000    1.455    0.000    6.000    0.000    8.000 
#    0.000    5.455    0.000    0.000    0.000    0.000 
#    0.000    0.000    0.000    0.000    0.000    0.000 
#
# Total GULP energy -272663.933450 kJ/mol
# GULP energy per Si atom -12393.815157 kJ/mol
# Density = 2.210308 g / cm^3
# Si number density = 22.153499 Si / 1000 Ang^3
#
#
#
# Elastic Constant Matrix: (Units=GPa)
#
#
# Indices 1 2 3 4 5 6 
#
# 1 111.7790 39.1388 50.9554 -0.0301 -9.3923 -0.0040
# 2 39.1388 128.1975 44.4138 0.0265 5.3597 -0.0325
# 3 50.9554 44.4138 103.3952 0.0374 7.6509 -0.0848
# 4 -0.0301 0.0265 0.0374 41.6229 -0.0094 5.2114
# 5 -9.3923 5.3597 7.6509 -0.0094 29.5656 -0.0184
# 6 -0.0040 -0.0325 -0.0848 5.2114 -0.0184 29.7646
#
#
#
# Elastic Compliance Matrix: (Units=1/GPa)
#
#
# Indices 1 2 3 4 5 6 
#
# 1 0.012877 -0.002150 -0.005867 0.000019 0.005999 -0.000017
# 2 -0.002150 0.009536 -0.002914 -0.000006 -0.001658 0.000002
# 3 -0.005867 -0.002914 0.014185 -0.000021 -0.005006 0.000037
# 4 0.000019 -0.000006 -0.000021 0.024564 0.000018 -0.004301
# 5 0.005999 -0.001658 -0.005006 0.000018 0.037325 0.000005
# 6 -0.000017 0.000002 0.000037 -0.004301 0.000005 0.034350
#
#
# Mechanical properties :
#
#
# Convention : Reuss Voigt Hill
#
# Bulk Modulus (GPa) = 67.85561 68.04310 67.94935
# Shear Modulus (GPa) = 31.32635 34.11485 32.72060
#
# Velocity S-wave (km/s) = 3.76448 3.92845 3.84734
# Velocity P-wave (km/s) = 7.04211 7.16645 7.10455
#
# Compressibility (1/GPa) = 0.01473718
#
# Stress axis : x y z
#
# Youngs Moduli (GPa) = 77.65539 104.86989 70.49664
#
# Poissons Ratio (x) = 0.22545 0.41359
# Poissons Ratio (y) = 0.16694 0.20542
# Poissons Ratio (z) = 0.45558 0.30559
#
# Static dielectric constant tensor:
#      x y z
#    x 4.375070 0.000100 -0.434610 
#    y 0.000100 4.327590 -0.000250 
#    z -0.434610 -0.000250 4.253300 
# 
# 
# High freq. dielectric constant tensor:
#      x y z
#    x 1.882770 0.000000 -0.007960 
#    y 0.000000 1.882970 -0.000010 
#    z -0.007960 -0.000010 1.867320 
# 
# From -- ./inp_files/116666.got.cif
#   From: 2010.06.25/outbox.cif.g09.slc.cpg/sg15_59_cif.got.tgz:116666.got - 2010.06.28 07:06:18.
