data_PCOD8145381
_publ_section_title
;
Structure prediction by ZEFSAII (Michael W. Deem and Ramdas Pophale) SiO2 
 PCOD8145381
Probable space group: C 2/C
;
_chemical_formula_sum "Si O2"
_cell_formula_units_Z 48
_cell_length_a 13.338200
_cell_length_b 21.124306
_cell_length_c 11.624107
_cell_angle_alpha 90.000000
_cell_angle_beta 50.095453
_cell_angle_gamma 90.000000
_cell_volume 2512.460953
_symmetry_space_group_name_H-M "C 2/C"
_symmetry_group_IT_number 15
_symmetry_cell_setting 'monoclinic'
loop_
_space_group_symop_operation_xyz
x,y,z
-x,y,1/2-z
-x,-y,-z
x,-y,1/2+z
1/2+x,1/2+y,z
1/2-x,1/2+y,1/2-z
1/2-x,1/2-y,-z
1/2+x,1/2-y,1/2+z
loop_
_atom_site_type_symbol
_atom_site_label
_atom_site_fract_x
_atom_site_fract_y
_atom_site_fract_z
Si Si1 0.566407 0.749344 0.874788
Si Si2 0.500000 0.652497 0.750000
Si Si3 0.754344 0.586787 0.579168
Si Si4 0.880832 0.461266 0.541641
Si Si5 0.147823 0.311819 0.323744
Si Si6 0.378493 0.117672 0.266313
Si Si7 0.000000 0.616851 0.750000
O O1 0.474107 0.699376 0.876324
O O2 0.711587 0.721784 0.796710
O O3 0.595131 0.808759 0.771944
O O4 0.475097 0.766736 0.051168
O O5 0.609899 0.606466 0.717707
O O6 0.768570 0.512321 0.594753
O O7 0.853103 0.631305 0.580538
O O8 0.759747 0.604765 0.440187
O O9 0.839579 0.414047 0.673823
O O10 0.917860 0.424789 0.399291
O O11 0.000000 0.500000 0.500000
O O12 0.110553 0.340785 0.228656
O O13 0.500000 0.086722 0.250000
#
# Coordination Sequence:
#
# PCOD8145381 Si02
#       7
#     8   4   8   8   8   8   4
#     4  11  20  39  60  94 121 156 202 251 305 367
#     4  10  22  38  65  87 124 158 192 256 314 350
#     4  11  22  38  60  93 119 153 203 252 305 356
#     4  12  21  35  60  87 115 153 202 252 293 351
#     4  11  23  37  63  90 124 158 201 247 308 357
#     4  12  19  34  61  90 115 149 198 256 300 337
#     4  12  22  40  59  89 118 164 202 246 298 362
#
# _framework density 19.104773999999999
#
# number of rings (size 3 to 8) (size 9 to 14) (size 15 to 20)
#    0.000    0.667    7.500    2.000    0.000    3.333 
#    0.000    0.833    3.667    0.000    0.000    0.000 
#    0.000    0.000    0.000    0.000    0.000    0.000 
#
# Total GULP energy -297382.729556 kJ/mol
# GULP energy per Si atom -12390.947065 kJ/mol
# Density = 1.906129 g / cm^3
# Si number density = 19.104774 Si / 1000 Ang^3
#
#
#
# Elastic Constant Matrix: (Units=GPa)
#
#
# Indices 1 2 3 4 5 6 
#
# 1 98.7777 67.9540 50.7997 0.0000 10.7827 0.0000
# 2 67.9540 105.6935 43.4974 0.0000 3.9103 0.0000
# 3 50.7997 43.4974 86.4312 0.0000 18.3603 0.0000
# 4 0.0000 0.0000 0.0000 27.2414 0.0000 1.3594
# 5 10.7827 3.9103 18.3603 0.0000 31.5640 0.0000
# 6 0.0000 0.0000 0.0000 1.3594 0.0000 28.8009
#
#
#
# Elastic Compliance Matrix: (Units=1/GPa)
#
#
# Indices 1 2 3 4 5 6 
#
# 1 0.021180 -0.010845 -0.006548 0.000000 -0.002083 0.000000
# 2 -0.010845 0.017634 -0.003221 0.000000 0.003394 0.000000
# 3 -0.006548 -0.003221 0.018803 0.000000 -0.008301 0.000000
# 4 0.000000 0.000000 0.000000 0.036795 0.000000 -0.001737
# 5 -0.002083 0.003394 -0.008301 0.000000 0.036802 0.000000
# 6 0.000000 0.000000 0.000000 -0.001737 0.000000 0.034803
#
#
# Mechanical properties :
#
#
# Convention : Reuss Voigt Hill
#
# Bulk Modulus (GPa) = 61.02020 68.37828 64.69924
# Shear Modulus (GPa) = 23.50638 26.09803 24.80220
#
# Velocity S-wave (km/s) = 3.51150 3.70002 3.60699
# Velocity P-wave (km/s) = 6.96060 7.35679 7.16144
#
# Compressibility (1/GPa) = 0.01638802
#
# Stress axis : x y z
#
# Youngs Moduli (GPa) = 47.21538 56.70770 53.18322
#
# Poissons Ratio (x) = 0.61501 0.34823
# Poissons Ratio (y) = 0.51207 0.17132
# Poissons Ratio (z) = 0.30915 0.18267
#
# Static dielectric constant tensor:
#      x y z
#    x 3.755110 0.000000 0.408250 
#    y 0.000000 4.248500 0.000000 
#    z 0.408250 0.000000 3.686110 
# 
# 
# High freq. dielectric constant tensor:
#      x y z
#    x 1.730810 0.000000 0.009530 
#    y 0.000000 1.748220 0.000000 
#    z 0.009530 0.000000 1.732930 
# 
# From -- ./inp_files/88794.got.cif
#   From: 2010.06.25/outbox.cif.g09.slc.cpg/sg15_45_cif.got.tgz:88794.got - 2010.06.28 07:06:18.
