data_PCOD8145542
_publ_section_title
;
Structure prediction by ZEFSAII (Michael W. Deem and Ramdas Pophale) SiO2 
 PCOD8145542
Probable space group: C 2/C
;
_chemical_formula_sum "Si O2"
_cell_formula_units_Z 56
_cell_length_a 11.380840
_cell_length_b 8.336207
_cell_length_c 23.009783
_cell_angle_alpha 90.000000
_cell_angle_beta 88.192858
_cell_angle_gamma 90.000000
_cell_volume 2181.922272
_symmetry_space_group_name_H-M "C 2/C"
_symmetry_group_IT_number 15
_symmetry_cell_setting 'monoclinic'
loop_
_space_group_symop_operation_xyz
x,y,z
-x,y,1/2-z
-x,-y,-z
x,-y,1/2+z
1/2+x,1/2+y,z
1/2-x,1/2+y,1/2-z
1/2-x,1/2-y,-z
1/2+x,1/2-y,1/2+z
loop_
_atom_site_type_symbol
_atom_site_label
_atom_site_fract_x
_atom_site_fract_y
_atom_site_fract_z
Si Si1 0.653863 0.514171 0.044862
Si Si2 0.412568 0.652942 0.066642
Si Si3 0.104423 0.501154 0.420740
Si Si4 0.888686 0.809199 0.213169
Si Si5 0.438391 0.223907 0.384755
Si Si6 0.772548 0.127212 0.184488
Si Si7 0.883364 0.444541 0.215358
O O1 0.552904 0.636255 0.064016
O O2 0.777431 0.594878 0.061134
O O3 0.642917 0.355650 0.084704
O O4 0.648268 0.471158 0.976800
O O5 0.390573 0.833732 0.045166
O O6 0.367748 0.621209 0.131704
O O7 0.089834 0.466382 0.352492
O O8 0.989404 0.609434 0.435883
O O9 0.791539 0.954258 0.217374
O O10 0.837456 0.628770 0.235448
O O11 0.000000 0.861751 0.250000
O O12 0.942445 0.792482 0.147541
O O13 0.359145 0.128961 0.339729
O O14 0.793876 0.291961 0.221945
O O15 0.000000 0.401719 0.250000
#
# Coordination Sequence:
#
# PCOD8145542 Si02
#       7
#     8   8   8   8   8   8   8
#     4  11  21  42  63  89 131 168 207 268 319 376
#     4  10  22  39  64  93 123 171 213 254 330 380
#     4  10  22  39  61  88 127 163 210 266 313 379
#     4  10  22  43  62  93 131 162 218 265 318 393
#     4  11  23  40  63  92 125 166 216 260 318 388
#     4  11  21  41  66  95 129 169 213 267 322 384
#     4   9  19  38  64  87 125 163 208 265 314 375
#
# _framework density 25.66544
#
# number of rings (size 3 to 8) (size 9 to 14) (size 15 to 20)
#    0.000    1.714    4.286    0.857    0.000    2.857 
#    7.714    1.429    0.000    0.000    0.000    0.000 
#    0.000    0.000    0.000    0.000    0.000    0.000 
#
# Total GULP energy -347079.017890 kJ/mol
# GULP energy per Si atom -12395.679210 kJ/mol
# Density = 2.560702 g / cm^3
# Si number density = 25.665440 Si / 1000 Ang^3
#
#
#
# Elastic Constant Matrix: (Units=GPa)
#
#
# Indices 1 2 3 4 5 6 
#
# 1 121.3220 72.3114 43.0340 0.0000 46.8253 0.0000
# 2 72.3114 123.9141 26.5254 0.0000 3.4388 0.0000
# 3 43.0340 26.5254 81.6688 0.0000 13.2464 0.0000
# 4 0.0000 0.0000 0.0000 24.9225 0.0000 12.8573
# 5 46.8253 3.4388 13.2464 0.0000 50.9041 0.0000
# 6 0.0000 0.0000 0.0000 12.8573 0.0000 48.7049
#
#
#
# Elastic Compliance Matrix: (Units=1/GPa)
#
#
# Indices 1 2 3 4 5 6 
#
# 1 0.027897 -0.014287 -0.006321 0.000000 -0.023052 0.000000
# 2 -0.014287 0.015991 0.000395 0.000000 0.011959 0.000000
# 3 -0.006321 0.000395 0.015148 0.000000 0.001846 0.000000
# 4 0.000000 0.000000 0.000000 0.046450 0.000000 -0.012262
# 5 -0.023052 0.011959 0.001846 0.000000 0.039561 0.000000
# 6 0.000000 0.000000 0.000000 -0.012262 0.000000 0.023769
#
#
# Mechanical properties :
#
#
# Convention : Reuss Voigt Hill
#
# Bulk Modulus (GPa) = 53.73471 67.84960 60.79215
# Shear Modulus (GPa) = 23.20790 37.24192 30.22491
#
# Velocity S-wave (km/s) = 3.01033 3.81340 3.43541
# Velocity P-wave (km/s) = 5.75020 6.77369 6.28283
#
# Compressibility (1/GPa) = 0.01860995
#
# Stress axis : x y z
#
# Youngs Moduli (GPa) = 35.84648 62.53553 66.01729
#
# Poissons Ratio (x) = 0.89343 0.41727
# Poissons Ratio (y) = 0.51213 -0.02606
# Poissons Ratio (z) = 0.22657 -0.02468
#
# Static dielectric constant tensor:
#      x y z
#    x 4.727410 0.000000 -0.091950 
#    y 0.000000 5.311310 0.000000 
#    z -0.091950 0.000000 4.651510 
# 
# 
# High freq. dielectric constant tensor:
#      x y z
#    x 2.044550 0.000000 -0.014560 
#    y 0.000000 2.032220 0.000000 
#    z -0.014560 0.000000 2.036810 
# 
# From -- ./inp_files/310053.got.cif
#   From: 2010.06.25/outbox.cif.g09.slc.cpg/sg15_156_cif.got.tgz:310053.got - 2010.06.28 07:06:18.
