data_PCOD8145248
_publ_section_title
;
Structure prediction by ZEFSAII (Michael W. Deem and Ramdas Pophale) SiO2 
 PCOD8145248
Probable space group: C 2/C
;
_chemical_formula_sum "Si O2"
_cell_formula_units_Z 44
_cell_length_a 10.940197
_cell_length_b 13.075753
_cell_length_c 16.680439
_cell_angle_alpha 90.000000
_cell_angle_beta 121.465998
_cell_angle_gamma 90.000000
_cell_volume 2035.274287
_symmetry_space_group_name_H-M "C 2/C"
_symmetry_group_IT_number 15
_symmetry_cell_setting 'monoclinic'
loop_
_space_group_symop_operation_xyz
x,y,z
-x,y,1/2-z
-x,-y,-z
x,-y,1/2+z
1/2+x,1/2+y,z
1/2-x,1/2+y,1/2-z
1/2-x,1/2-y,-z
1/2+x,1/2-y,1/2+z
loop_
_atom_site_type_symbol
_atom_site_label
_atom_site_fract_x
_atom_site_fract_y
_atom_site_fract_z
Si Si1 0.532358 0.850823 0.673938
Si Si2 0.500000 0.276087 0.750000
Si Si3 0.170915 0.923921 0.702162
Si Si4 0.745253 0.830206 0.427320
Si Si5 0.466309 0.369855 0.373961
Si Si6 0.749918 0.060818 0.453852
O O1 0.500000 0.897750 0.750000
O O2 0.682996 0.900787 0.697432
O O3 0.542454 0.728648 0.685228
O O4 0.397229 0.880835 0.571860
O O5 0.549538 0.346802 0.692538
O O6 0.373158 0.202330 0.678011
O O7 0.194343 0.907173 0.615432
O O8 0.122911 0.040652 0.700686
O O9 0.750000 0.750000 0.500000
O O10 0.899047 0.838183 0.436635
O O11 0.710945 0.941884 0.449996
O O12 0.628698 0.407661 0.441523
#
# Coordination Sequence:
#
# PCOD8145248 Si02
#       6
#     8   4   8   8   8   8
#     4  10  22  39  61  90 121 161 205 249 309 376
#     4  12  22  38  64  88 128 160 218 262 306 366
#     4  10  22  38  60  89 119 162 204 252 304 371
#     4  11  23  39  64  95 123 166 210 256 311 374
#     4  11  21  41  62  89 122 163 203 258 317 365
#     4  10  22  40  64  85 127 160 202 255 321 370
#
# _framework density 21.618707000000001
#
# number of rings (size 3 to 8) (size 9 to 14) (size 15 to 20)
#    0.000    1.455    1.818    4.909    7.636    0.000 
#    0.000    0.909    0.000    0.000    0.000    0.000 
#    0.000    0.000    0.000    0.000    0.000    0.000 
#
# Total GULP energy -272797.322019 kJ/mol
# GULP energy per Si atom -12399.878274 kJ/mol
# Density = 2.156950 g / cm^3
# Si number density = 21.618707 Si / 1000 Ang^3
#
#
#
# Elastic Constant Matrix: (Units=GPa)
#
#
# Indices 1 2 3 4 5 6 
#
# 1 79.1385 47.0535 29.2426 0.0000 36.3094 0.0000
# 2 47.0535 146.7190 48.0055 0.0000 33.1722 0.0000
# 3 29.2426 48.0055 76.8871 0.0000 31.4628 0.0000
# 4 0.0000 0.0000 0.0000 37.9356 0.0000 2.5335
# 5 36.3094 33.1722 31.4628 0.0000 36.7881 0.0000
# 6 0.0000 0.0000 0.0000 2.5335 0.0000 34.7866
#
#
#
# Elastic Compliance Matrix: (Units=1/GPa)
#
#
# Indices 1 2 3 4 5 6 
#
# 1 0.024291 -0.003345 0.002194 0.000000 -0.022836 0.000000
# 2 -0.003345 0.009627 -0.003903 0.000000 -0.002041 0.000000
# 3 0.002194 -0.003903 0.021622 0.000000 -0.017138 0.000000
# 4 0.000000 0.000000 0.000000 0.026489 0.000000 -0.001929
# 5 -0.022836 -0.002041 -0.017138 0.000000 0.066218 0.000000
# 6 0.000000 0.000000 0.000000 -0.001929 0.000000 0.028887
#
#
# Mechanical properties :
#
#
# Convention : Reuss Voigt Hill
#
# Bulk Modulus (GPa) = 22.01122 61.26085 41.63604
# Shear Modulus (GPa) = 24.70506 33.79825 29.25166
#
# Velocity S-wave (km/s) = 3.38415 3.95825 3.68240
# Velocity P-wave (km/s) = 5.04714 7.02060 6.11402
#
# Compressibility (1/GPa) = 0.04543138
#
# Stress axis : x y z
#
# Youngs Moduli (GPa) = 41.16677 103.87227 46.25007
#
# Poissons Ratio (x) = 0.34750 -0.10149
# Poissons Ratio (y) = 0.13772 0.18054
# Poissons Ratio (z) = -0.09034 0.40546
#
# Static dielectric constant tensor:
#      x y z
#    x 4.097540 0.000000 0.394430 
#    y 0.000000 3.956640 0.000000 
#    z 0.394430 0.000000 3.620220 
# 
# 
# High freq. dielectric constant tensor:
#      x y z
#    x 1.850660 0.000000 0.026270 
#    y 0.000000 1.858970 0.000000 
#    z 0.026270 0.000000 1.825180 
# 
# From -- ./inp_files/182376.got.cif
#   From: 2010.06.25/outbox.cif.g09.slc.cpg/sg15_92_cif.got.tgz:182376.got - 2010.06.28 07:06:18.
