data_PCOD8145271
_publ_section_title
;
Structure prediction by ZEFSAII (Michael W. Deem and Ramdas Pophale) SiO2 
 PCOD8145271
Probable space group: C 2/C
;
_chemical_formula_sum "Si O2"
_cell_formula_units_Z 56
_cell_length_a 13.068125
_cell_length_b 27.021855
_cell_length_c 7.990157
_cell_angle_alpha 90.000000
_cell_angle_beta 112.795810
_cell_angle_gamma 90.000000
_cell_volume 2601.138979
_symmetry_space_group_name_H-M "C 2/C"
_symmetry_group_IT_number 15
_symmetry_cell_setting 'monoclinic'
loop_
_space_group_symop_operation_xyz
x,y,z
-x,y,1/2-z
-x,-y,-z
x,-y,1/2+z
1/2+x,1/2+y,z
1/2-x,1/2+y,1/2-z
1/2-x,1/2-y,-z
1/2+x,1/2-y,1/2+z
loop_
_atom_site_type_symbol
_atom_site_label
_atom_site_fract_x
_atom_site_fract_y
_atom_site_fract_z
Si Si1 0.023558 0.292189 0.458079
Si Si2 0.309404 0.870559 0.813755
Si Si3 0.420204 0.312230 0.351325
Si Si4 0.387492 0.029327 0.462046
Si Si5 0.395368 0.602781 0.087531
Si Si6 0.193583 0.344529 0.065974
Si Si7 0.282527 0.945097 0.229895
O O1 0.917281 0.312987 0.486921
O O2 0.000000 0.281897 0.250000
O O3 0.124152 0.330599 0.535455
O O4 0.056538 0.242213 0.569821
O O5 0.380894 0.921320 0.844359
O O6 0.195362 0.879959 0.836826
O O7 0.281240 0.851030 0.613044
O O8 0.500000 0.327171 0.250000
O O9 0.441593 0.350545 0.514476
O O10 0.293104 0.314053 0.211472
O O11 0.375526 0.045378 0.646769
O O12 0.500000 0.000000 0.500000
O O13 0.283771 0.992906 0.351211
O O14 0.500000 0.578432 0.250000
O O15 0.340029 0.562778 0.926232
O O16 0.177711 0.397122 0.144641
#
# Coordination Sequence:
#
# PCOD8145271 Si02
#       7
#     8   8   8   8   8   8   8
#     4  12  25  41  62  92 130 167 209 264 323 382
#     4  11  24  42  66  94 128 168 211 262 321 383
#     4  11  24  41  66  94 123 167 217 264 315 382
#     4  11  21  37  62  93 126 164 207 254 317 383
#     4  10  22  42  65  92 126 169 217 265 316 375
#     4  11  24  43  63  92 130 166 212 266 324 379
#     4  10  22  38  61  92 126 164 209 257 313 379
#
# _framework density 21.529029000000001
#
# number of rings (size 3 to 8) (size 9 to 14) (size 15 to 20)
#    0.000    1.143    0.000    7.286    0.000    8.000 
#    0.000    2.857    0.000    8.571    0.000    0.000 
#    0.000    0.000    0.000    0.000    0.000    0.000 
#
# Total GULP energy -347322.281055 kJ/mol
# GULP energy per Si atom -12404.367181 kJ/mol
# Density = 2.148003 g / cm^3
# Si number density = 21.529029 Si / 1000 Ang^3
#
#
#
# Elastic Constant Matrix: (Units=GPa)
#
#
# Indices 1 2 3 4 5 6 
#
# 1 88.6041 12.8556 30.3260 0.0000 -4.4292 0.0000
# 2 12.8556 94.1289 37.8214 0.0000 -4.5306 0.0000
# 3 30.3260 37.8214 116.2289 0.0000 -3.1569 0.0000
# 4 0.0000 0.0000 0.0000 33.6925 0.0000 2.5427
# 5 -4.4292 -4.5306 -3.1569 0.0000 37.9710 0.0000
# 6 0.0000 0.0000 0.0000 2.5427 0.0000 24.4716
#
#
#
# Elastic Compliance Matrix: (Units=1/GPa)
#
#
# Indices 1 2 3 4 5 6 
#
# 1 0.012459 -0.000406 -0.003088 0.000000 0.001148 0.000000
# 2 -0.000406 0.012284 -0.003861 0.000000 0.001097 0.000000
# 3 -0.003088 -0.003861 0.010668 0.000000 0.000066 0.000000
# 4 0.000000 0.000000 0.000000 0.029915 0.000000 -0.003108
# 5 0.001148 0.001097 0.000066 0.000000 0.026606 0.000000
# 6 0.000000 0.000000 0.000000 -0.003108 0.000000 0.041187
#
#
# Mechanical properties :
#
#
# Convention : Reuss Voigt Hill
#
# Bulk Modulus (GPa) = 48.30732 51.21868 49.76300
# Shear Modulus (GPa) = 32.31478 33.75758 33.03618
#
# Velocity S-wave (km/s) = 3.87846 3.96410 3.92151
# Velocity P-wave (km/s) = 6.52254 6.69285 6.60824
#
# Compressibility (1/GPa) = 0.02070080
#
# Stress axis : x y z
#
# Youngs Moduli (GPa) = 80.26194 81.40998 93.74142
#
# Poissons Ratio (x) = 0.03303 0.28944
# Poissons Ratio (y) = 0.03257 0.36198
# Poissons Ratio (z) = 0.24782 0.31436
#
# Static dielectric constant tensor:
#      x y z
#    x 3.785270 0.000000 0.042190 
#    y 0.000000 4.103500 0.000000 
#    z 0.042190 0.000000 4.246220 
# 
# 
# High freq. dielectric constant tensor:
#      x y z
#    x 1.838770 0.000000 -0.000590 
#    y 0.000000 1.847930 0.000000 
#    z -0.000590 0.000000 1.868970 
# 
# From -- ./inp_files/34330.got.cif
#   From: 2010.06.25/outbox.cif.g09.slc.cpg/sg15_18_cif.got.tgz:34330.got - 2010.06.28 07:06:18.
