data_PCOD8145738
_publ_section_title
;
Structure prediction by ZEFSAII (Michael W. Deem and Ramdas Pophale) SiO2 
 PCOD8145738
Probable space group: C 2/C
;
_chemical_formula_sum "Si O2"
_cell_formula_units_Z 56
_cell_length_a 18.172464
_cell_length_b 28.277130
_cell_length_c 5.096438
_cell_angle_alpha 90.000000
_cell_angle_beta 76.581079
_cell_angle_gamma 90.000000
_cell_volume 2547.384439
_symmetry_space_group_name_H-M "C 2/C"
_symmetry_group_IT_number 15
_symmetry_cell_setting 'monoclinic'
loop_
_space_group_symop_operation_xyz
x,y,z
-x,y,1/2-z
-x,-y,-z
x,-y,1/2+z
1/2+x,1/2+y,z
1/2-x,1/2+y,1/2-z
1/2-x,1/2-y,-z
1/2+x,1/2-y,1/2+z
loop_
_atom_site_type_symbol
_atom_site_label
_atom_site_fract_x
_atom_site_fract_y
_atom_site_fract_z
Si Si1 0.703279 0.765442 0.786727
Si Si2 0.865407 0.114085 0.184927
Si Si3 0.694093 0.529285 0.950702
Si Si4 0.000000 0.532432 0.750000
Si Si5 0.500000 0.626681 0.750000
Si Si6 0.792677 0.629498 0.392403
Si Si7 0.657195 0.080186 0.643908
Si Si8 0.076662 0.802063 0.556437
O O1 0.750000 0.750000 0.500000
O O2 0.688502 0.820391 0.754579
O O3 0.621844 0.740264 0.880709
O O4 0.750000 0.750000 0.000000
O O5 0.847253 0.078666 0.441517
O O6 0.796458 0.115988 0.034522
O O7 0.873627 0.168664 0.273404
O O8 0.944627 0.096360 0.986175
O O9 0.669872 0.510233 0.685534
O O10 0.784634 0.536963 0.858544
O O11 0.928670 0.565577 0.759841
O O12 0.000000 0.500000 0.500000
O O13 0.442107 0.659133 0.642685
O O14 0.823598 0.622528 0.663140
O O15 0.834863 0.594050 0.164959
O O16 0.000000 0.781055 0.750000
#
# Coordination Sequence:
#
# PCOD8145738 Si02
#       8
#     8   8   8   4   4   8   8   8
#     4  12  24  41  70 102 134 174 236 284 334 407
#     4  10  22  39  67  90 134 172 229 277 345 404
#     4  11  23  39  64  97 126 165 218 277 333 396
#     4  12  24  44  74 101 136 182 237 288 334 418
#     4  10  22  40  66  93 124 180 223 274 334 414
#     4  11  23  41  67 100 134 178 219 282 342 405
#     4  11  24  43  67  97 137 176 223 274 349 407
#     4  10  23  42  65  97 132 180 231 281 342 411
#
# _framework density 21.983335
#
# number of rings (size 3 to 8) (size 9 to 14) (size 15 to 20)
#    0.000    1.143    1.429    5.143   10.000    0.000 
#    1.286    0.714    0.000    0.000    0.000    0.000 
#    0.000    0.000    0.000    0.000    0.000    0.000 
#
# Total GULP energy -347068.883185 kJ/mol
# GULP energy per Si atom -12395.317257 kJ/mol
# Density = 2.193330 g / cm^3
# Si number density = 21.983335 Si / 1000 Ang^3
#
#
#
# Elastic Constant Matrix: (Units=GPa)
#
#
# Indices 1 2 3 4 5 6 
#
# 1 116.6836 39.7671 51.5713 0.0000 -22.6224 0.0000
# 2 39.7671 78.1648 25.4227 0.0000 -19.5846 0.0000
# 3 51.5713 25.4227 121.9858 0.0000 -11.6934 0.0000
# 4 0.0000 0.0000 0.0000 61.0030 0.0000 20.5284
# 5 -22.6224 -19.5846 -11.6934 0.0000 45.5909 0.0000
# 6 0.0000 0.0000 0.0000 20.5284 0.0000 61.4895
#
#
#
# Elastic Compliance Matrix: (Units=1/GPa)
#
#
# Indices 1 2 3 4 5 6 
#
# 1 0.012436 -0.004167 -0.004069 0.000000 0.003337 0.000000
# 2 -0.004167 0.016490 -0.001224 0.000000 0.004702 0.000000
# 3 -0.004069 -0.001224 0.010179 0.000000 0.000066 0.000000
# 4 0.000000 0.000000 0.000000 0.018467 0.000000 -0.006165
# 5 0.003337 0.004702 0.000066 0.000000 0.025627 0.000000
# 6 0.000000 0.000000 0.000000 -0.006165 0.000000 0.018321
#
#
# Mechanical properties :
#
#
# Convention : Reuss Voigt Hill
#
# Bulk Modulus (GPa) = 49.54404 61.15071 55.34737
# Shear Modulus (GPa) = 39.31767 46.95489 43.13628
#
# Velocity S-wave (km/s) = 4.23368 4.62663 4.43451
# Velocity P-wave (km/s) = 6.81797 7.51120 7.17297
#
# Compressibility (1/GPa) = 0.02018406
#
# Stress axis : x y z
#
# Youngs Moduli (GPa) = 80.41274 60.64340 98.23799
#
# Poissons Ratio (x) = 0.25272 0.39974
# Poissons Ratio (y) = 0.33511 0.12025
# Poissons Ratio (z) = 0.32720 0.07423
#
# Static dielectric constant tensor:
#      x y z
#    x 3.829440 0.000000 -0.117060 
#    y 0.000000 4.289950 0.000000 
#    z -0.117060 0.000000 4.225700 
# 
# 
# High freq. dielectric constant tensor:
#      x y z
#    x 1.856990 0.000000 -0.003640 
#    y 0.000000 1.847030 0.000000 
#    z -0.003640 0.000000 1.890180 
# 
# From -- ./inp_files/11520.got.cif
#   From: 2010.06.25/outbox.cif.g09.slc.cpg/sg15_6_cif.got.tgz:11520.got - 2010.06.28 07:06:18.
