data_PCOD8145012
_publ_section_title
;
Structure prediction by ZEFSAII (Michael W. Deem and Ramdas Pophale) SiO2 
 PCOD8145012
Probable space group: C 2/C
;
_chemical_formula_sum "Si O2"
_cell_formula_units_Z 48
_cell_length_a 26.075616
_cell_length_b 15.366180
_cell_length_c 10.767741
_cell_angle_alpha 90.000000
_cell_angle_beta 34.233854
_cell_angle_gamma 90.000000
_cell_volume 2427.186707
_symmetry_space_group_name_H-M "C 2/C"
_symmetry_group_IT_number 15
_symmetry_cell_setting 'monoclinic'
loop_
_space_group_symop_operation_xyz
x,y,z
-x,y,1/2-z
-x,-y,-z
x,-y,1/2+z
1/2+x,1/2+y,z
1/2-x,1/2+y,1/2-z
1/2-x,1/2-y,-z
1/2+x,1/2-y,1/2+z
loop_
_atom_site_type_symbol
_atom_site_label
_atom_site_fract_x
_atom_site_fract_y
_atom_site_fract_z
Si Si1 0.962096 0.915227 0.700925
Si Si2 0.895268 0.239809 0.938791
Si Si3 0.392721 0.065139 0.447670
Si Si4 0.695533 0.001845 0.620939
Si Si5 0.810335 0.831696 0.847997
Si Si6 0.376551 0.583963 0.807850
O O1 0.894018 0.845563 0.775206
O O2 0.000000 0.872364 0.750000
O O3 0.054507 0.933021 0.441751
O O4 0.907242 0.005903 0.840842
O O5 0.851193 0.336355 0.023676
O O6 0.884308 0.183423 0.836449
O O7 0.000000 0.256675 0.750000
O O8 0.852197 0.179151 0.129072
O O9 0.500000 0.064316 0.250000
O O10 0.350835 0.014975 0.650892
O O11 0.373676 0.021431 0.351851
O O12 0.743153 0.088328 0.478795
O O13 0.771510 0.926833 0.479033
O O14 0.750000 0.750000 0.000000
#
# Coordination Sequence:
#
# PCOD8145012 Si02
#       6
#     8   8   8   8   8   8
#     4  10  22  36  60  98 134 163 199 259 324 382
#     4  11  21  40  64  90 123 169 209 254 319 381
#     4  11  25  44  67  86 126 170 222 263 319 381
#     4  11  24  42  65  96 122 168 215 269 319 385
#     4  11  22  40  65  91 130 165 209 257 318 383
#     4  10  22  36  65  95 128 162 207 259 323 388
#
# _framework density 19.775981000000002
#
# number of rings (size 3 to 8) (size 9 to 14) (size 15 to 20)
#    0.000    1.333    3.333    2.000    9.333    0.667 
#    0.000    2.500    0.000    0.000    0.000    0.000 
#    0.000    0.000    0.000    0.000    0.000    0.000 
#
# Total GULP energy -297438.695198 kJ/mol
# GULP energy per Si atom -12393.278967 kJ/mol
# Density = 1.973097 g / cm^3
# Si number density = 19.775981 Si / 1000 Ang^3
#
#
#
# Elastic Constant Matrix: (Units=GPa)
#
#
# Indices 1 2 3 4 5 6 
#
# 1 114.5581 47.6738 37.4415 0.0000 -0.6345 0.0000
# 2 47.6738 91.8107 29.2795 0.0000 -2.0291 0.0000
# 3 37.4415 29.2795 90.8026 0.0000 -3.4426 0.0000
# 4 0.0000 0.0000 0.0000 36.4329 0.0000 -1.0767
# 5 -0.6345 -2.0291 -3.4426 0.0000 32.2291 0.0000
# 6 0.0000 0.0000 0.0000 -1.0767 0.0000 30.1887
#
#
#
# Elastic Compliance Matrix: (Units=1/GPa)
#
#
# Indices 1 2 3 4 5 6 
#
# 1 0.011949 -0.005169 -0.003277 0.000000 -0.000440 0.000000
# 2 -0.005169 0.014381 -0.002485 0.000000 0.000538 0.000000
# 3 -0.003277 -0.002485 0.013211 0.000000 0.001190 0.000000
# 4 0.000000 0.000000 0.000000 0.027477 0.000000 0.000980
# 5 -0.000440 0.000538 0.001190 0.000000 0.031180 0.000000
# 6 0.000000 0.000000 0.000000 0.000980 0.000000 0.033160
#
#
# Mechanical properties :
#
#
# Convention : Reuss Voigt Hill
#
# Bulk Modulus (GPa) = 56.56915 58.44009 57.50462
# Shear Modulus (GPa) = 31.42436 31.95525 31.68980
#
# Velocity S-wave (km/s) = 3.99057 4.02414 4.00739
# Velocity P-wave (km/s) = 7.06399 7.15589 7.11009
#
# Compressibility (1/GPa) = 0.01767748
#
# Stress axis : x y z
#
# Youngs Moduli (GPa) = 83.68899 69.53778 75.69710
#
# Poissons Ratio (x) = 0.35947 0.24805
# Poissons Ratio (y) = 0.43262 0.18812
# Poissons Ratio (z) = 0.27424 0.17281
#
# Static dielectric constant tensor:
#      x y z
#    x 3.538450 0.000000 -0.025990 
#    y 0.000000 3.298520 0.000000 
#    z -0.025990 0.000000 3.752410 
# 
# 
# High freq. dielectric constant tensor:
#      x y z
#    x 1.763080 0.000000 -0.001350 
#    y 0.000000 1.766450 0.000000 
#    z -0.001350 0.000000 1.785030 
# 
# From -- ./inp_files/123422.got.cif
#   From: 2010.06.25/outbox.cif.g09.slc.cpg/sg15_62_cif.got.tgz:123422.got - 2010.06.28 07:06:18.
