data_PCOD8145473
_publ_section_title
;
Structure prediction by ZEFSAII (Michael W. Deem and Ramdas Pophale) SiO2 
 PCOD8145473
Probable space group: C 2/C
;
_chemical_formula_sum "Si O2"
_cell_formula_units_Z 52
_cell_length_a 14.169642
_cell_length_b 9.209784
_cell_length_c 20.456975
_cell_angle_alpha 90.000000
_cell_angle_beta 64.165693
_cell_angle_gamma 90.000000
_cell_volume 2402.814458
_symmetry_space_group_name_H-M "C 2/C"
_symmetry_group_IT_number 15
_symmetry_cell_setting 'monoclinic'
loop_
_space_group_symop_operation_xyz
x,y,z
-x,y,1/2-z
-x,-y,-z
x,-y,1/2+z
1/2+x,1/2+y,z
1/2-x,1/2+y,1/2-z
1/2-x,1/2-y,-z
1/2+x,1/2-y,1/2+z
loop_
_atom_site_type_symbol
_atom_site_label
_atom_site_fract_x
_atom_site_fract_y
_atom_site_fract_z
Si Si1 0.139287 0.530655 0.773478
Si Si2 0.263359 0.409057 0.523448
Si Si3 0.839362 0.789858 0.201741
Si Si4 0.000000 0.914969 0.250000
Si Si5 0.415714 0.516866 0.081388
Si Si6 0.405875 0.920719 0.361438
Si Si7 0.407354 0.596620 0.384445
O O1 0.175390 0.382490 0.798060
O O2 0.230706 0.645118 0.761716
O O3 0.124018 0.516591 0.700261
O O4 0.029834 0.581157 0.837854
O O5 0.250000 0.250000 0.500000
O O6 0.318621 0.397683 0.578209
O O7 0.148708 0.478733 0.567548
O O8 0.329095 0.510599 0.455155
O O9 0.936141 0.811411 0.221438
O O10 0.871122 0.863183 0.122626
O O11 0.915874 0.014640 0.313070
O O12 0.473619 0.604152 0.121984
O O13 0.500000 0.500000 0.000000
O O14 0.363480 0.756609 0.383156
#
# Coordination Sequence:
#
# PCOD8145473 Si02
#       7
#     8   8   8   4   8   8   8
#     4  11  26  40  69  96 136 176 226 279 341 397
#     4  11  24  42  71  98 136 183 228 279 337 405
#     4  11  24  42  66  99 132 177 222 284 340 408
#     4  10  22  38  72  96 132 170 236 266 342 406
#     4   9  21  42  69  93 133 175 228 272 342 401
#     4  11  24  44  63  97 139 173 227 279 334 401
#     4  10  23  42  69  97 135 183 222 280 340 400
#
# _framework density 21.641287999999999
#
# number of rings (size 3 to 8) (size 9 to 14) (size 15 to 20)
#    0.000    1.538    1.538    2.308   15.077    0.000 
#    0.000    0.769    0.000    0.000    0.000    0.000 
#    0.000    0.000    0.000    0.000    0.000    0.000 
#
# Total GULP energy -322357.383693 kJ/mol
# GULP energy per Si atom -12398.360911 kJ/mol
# Density = 2.159203 g / cm^3
# Si number density = 21.641288 Si / 1000 Ang^3
#
#
#
# Elastic Constant Matrix: (Units=GPa)
#
#
# Indices 1 2 3 4 5 6 
#
# 1 76.5672 22.3656 27.5141 0.0000 -17.2463 0.0000
# 2 22.3656 125.4617 35.8608 0.0000 -10.7213 0.0000
# 3 27.5141 35.8608 101.7812 0.0000 -22.7395 0.0000
# 4 0.0000 0.0000 0.0000 36.6895 0.0000 -4.7522
# 5 -17.2463 -10.7213 -22.7395 0.0000 41.2133 0.0000
# 6 0.0000 0.0000 0.0000 -4.7522 0.0000 29.7695
#
#
#
# Elastic Compliance Matrix: (Units=1/GPa)
#
#
# Indices 1 2 3 4 5 6 
#
# 1 0.015510 -0.001630 -0.002581 0.000000 0.004642 0.000000
# 2 -0.001630 0.009051 -0.002708 0.000000 0.000178 0.000000
# 3 -0.002581 -0.002708 0.012636 0.000000 0.005187 0.000000
# 4 0.000000 0.000000 0.000000 0.027831 0.000000 0.004443
# 5 0.004642 0.000178 0.005187 0.000000 0.029115 0.000000
# 6 0.000000 0.000000 0.000000 0.004443 0.000000 0.034301
#
#
# Mechanical properties :
#
#
# Convention : Reuss Voigt Hill
#
# Bulk Modulus (GPa) = 42.81481 52.81012 47.81246
# Shear Modulus (GPa) = 33.31821 36.07243 34.69532
#
# Velocity S-wave (km/s) = 3.92799 4.08712 4.00834
# Velocity P-wave (km/s) = 6.35601 6.83580 6.60027
#
# Compressibility (1/GPa) = 0.02335640
#
# Stress axis : x y z
#
# Youngs Moduli (GPa) = 64.47548 110.49086 79.13981
#
# Poissons Ratio (x) = 0.18015 0.20427
# Poissons Ratio (y) = 0.10512 0.21434
# Poissons Ratio (z) = 0.16642 0.29924
#
# Static dielectric constant tensor:
#      x y z
#    x 4.304010 0.000000 -0.107310 
#    y 0.000000 3.699540 0.000000 
#    z -0.107310 0.000000 4.012670 
# 
# 
# High freq. dielectric constant tensor:
#      x y z
#    x 1.855460 0.000000 -0.014270 
#    y 0.000000 1.839970 0.000000 
#    z -0.014270 0.000000 1.852960 
# 
# From -- ./inp_files/272586.got.cif
#   From: 2010.06.25/outbox.cif.g09.slc.cpg/sg15_137_cif.got.tgz:272586.got - 2010.06.28 07:06:18.
