data_PCOD8145008
_publ_section_title
;
Structure prediction by ZEFSAII (Michael W. Deem and Ramdas Pophale) SiO2 
 PCOD8145008
Probable space group: C 2/C
;
_chemical_formula_sum "Si O2"
_cell_formula_units_Z 64
_cell_length_a 16.395633
_cell_length_b 15.585075
_cell_length_c 20.588566
_cell_angle_alpha 90.000000
_cell_angle_beta 32.172008
_cell_angle_gamma 90.000000
_cell_volume 2801.253794
_symmetry_space_group_name_H-M "C 2/C"
_symmetry_group_IT_number 15
_symmetry_cell_setting 'monoclinic'
loop_
_space_group_symop_operation_xyz
x,y,z
-x,y,1/2-z
-x,-y,-z
x,-y,1/2+z
1/2+x,1/2+y,z
1/2-x,1/2+y,1/2-z
1/2-x,1/2-y,-z
1/2+x,1/2-y,1/2+z
loop_
_atom_site_type_symbol
_atom_site_label
_atom_site_fract_x
_atom_site_fract_y
_atom_site_fract_z
Si Si1 0.336893 0.447526 0.979098
Si Si2 0.959453 0.514614 0.347506
Si Si3 0.381505 0.099341 0.656869
Si Si4 0.326377 0.670177 0.370262
Si Si5 0.810130 0.830072 0.104814
Si Si6 0.190387 0.942242 0.738446
Si Si7 0.868175 0.674657 0.217379
Si Si8 0.082751 0.259408 0.464817
O O1 0.298865 0.363154 0.961546
O O2 0.513756 0.471225 0.863784
O O3 0.227567 0.525444 0.027991
O O4 0.285232 0.421199 0.086825
O O5 0.000000 0.474522 0.250000
O O6 0.994904 0.446359 0.380500
O O7 0.048632 0.603416 0.295051
O O8 0.283833 0.168270 0.764658
O O9 0.459355 0.154183 0.547309
O O10 0.281486 0.028972 0.687893
O O11 0.500000 0.701288 0.250000
O O12 0.226871 0.751397 0.417712
O O13 0.288729 0.590280 0.348558
O O14 0.990328 0.821367 0.998688
O O15 0.247872 0.867575 0.748145
O O16 0.765086 0.735881 0.335333
O O17 0.009255 0.723895 0.086126
#
# Coordination Sequence:
#
# PCOD8145008 Si02
#       8
#     8   8   8   8   8   8   8   8
#     4  11  23  39  64  94 138 176 220 271 345 408
#     4  11  25  44  64 100 138 182 223 287 342 411
#     4  11  25  39  68  96 135 175 232 273 339 404
#     4  10  22  36  60  93 139 168 212 275 343 407
#     4  12  22  38  63  99 133 173 217 272 339 409
#     4  10  22  42  62  99 129 180 221 280 332 406
#     4  11  25  44  73  98 138 179 234 285 340 401
#     4  12  23  45  70 103 133 178 233 285 334 406
#
# _framework density 22.846913000000001
#
# number of rings (size 3 to 8) (size 9 to 14) (size 15 to 20)
#    0.000    1.000    5.000    1.125    5.250    2.500 
#    0.000    0.625    0.000    0.000    0.000    0.000 
#    0.000    0.000    0.000    0.000    0.000    0.000 
#
# Total GULP energy -396498.751037 kJ/mol
# GULP energy per Si atom -12390.585970 kJ/mol
# Density = 2.279491 g / cm^3
# Si number density = 22.846913 Si / 1000 Ang^3
#
#
#
# Elastic Constant Matrix: (Units=GPa)
#
#
# Indices 1 2 3 4 5 6 
#
# 1 57.0498 16.8751 25.4506 -0.0040 -14.7262 0.0024
# 2 16.8751 62.3873 23.3631 0.0013 -13.2464 0.0021
# 3 25.4506 23.3631 115.3302 -0.0006 -11.4912 0.0053
# 4 -0.0040 0.0013 -0.0006 15.5282 0.0026 -2.3025
# 5 -14.7262 -13.2464 -11.4912 0.0026 25.3942 -0.0038
# 6 0.0024 0.0021 0.0053 -2.3025 -0.0038 25.3466
#
#
#
# Elastic Compliance Matrix: (Units=1/GPa)
#
#
# Indices 1 2 3 4 5 6 
#
# 1 0.022437 -0.002651 -0.003409 0.000004 0.010086 0.000001
# 2 -0.002651 0.019275 -0.002588 -0.000004 0.007346 0.000000
# 3 -0.003409 -0.002588 0.010070 -0.000001 0.001230 -0.000001
# 4 0.000004 -0.000004 -0.000001 0.065278 -0.000006 0.005930
# 5 0.010086 0.007346 0.001230 -0.000006 0.049616 0.000005
# 6 0.000001 0.000000 -0.000001 0.005930 0.000005 0.039992
#
#
# Mechanical properties :
#
#
# Convention : Reuss Voigt Hill
#
# Bulk Modulus (GPa) = 28.99730 40.68278 34.84004
# Shear Modulus (GPa) = 21.23511 24.52569 22.88040
#
# Velocity S-wave (km/s) = 3.05200 3.27995 3.16803
# Velocity P-wave (km/s) = 5.01390 5.67358 5.35391
#
# Compressibility (1/GPa) = 0.03448596
#
# Stress axis : x y z
#
# Youngs Moduli (GPa) = 44.56906 51.88145 99.30615
#
# Poissons Ratio (x) = 0.13752 0.33858
# Poissons Ratio (y) = 0.11814 0.25697
# Poissons Ratio (z) = 0.15195 0.13425
#
# Static dielectric constant tensor:
#      x y z
#    x 4.143910 -0.000010 -0.051180 
#    y -0.000010 3.735560 0.000020 
#    z -0.051180 0.000020 4.232980 
# 
# 
# High freq. dielectric constant tensor:
#      x y z
#    x 1.894970 0.000000 -0.003010 
#    y 0.000000 1.873320 0.000000 
#    z -0.003010 0.000000 1.916060 
# 
# From -- ./inp_files/277636.got.cif
#   From: 2010.06.25/outbox.cif.g09.slc.cpg/sg15_139_cif.got.tgz:277636.got - 2010.06.28 07:06:18.
