data_PCOD8145709
_publ_section_title
;
Structure prediction by ZEFSAII (Michael W. Deem and Ramdas Pophale) SiO2 
 PCOD8145709
Probable space group: C 2/C
;
_chemical_formula_sum "Si O2"
_cell_formula_units_Z 32
_cell_length_a 15.865514
_cell_length_b 11.687051
_cell_length_c 11.928814
_cell_angle_alpha 90.000000
_cell_angle_beta 137.776138
_cell_angle_gamma 90.000000
_cell_volume 1486.429796
_symmetry_space_group_name_H-M "C 2/C"
_symmetry_group_IT_number 15
_symmetry_cell_setting 'monoclinic'
loop_
_space_group_symop_operation_xyz
x,y,z
-x,y,1/2-z
-x,-y,-z
x,-y,1/2+z
1/2+x,1/2+y,z
1/2-x,1/2+y,1/2-z
1/2-x,1/2-y,-z
1/2+x,1/2-y,1/2+z
loop_
_atom_site_type_symbol
_atom_site_label
_atom_site_fract_x
_atom_site_fract_y
_atom_site_fract_z
Si Si1 0.887840 0.587021 0.402523
Si Si2 0.650524 0.499980 0.781692
Si Si3 0.296528 0.350680 0.966757
Si Si4 0.492961 0.671852 0.004028
O O1 0.792637 0.540638 0.402036
O O2 0.821174 0.599886 0.216586
O O3 0.000000 0.500000 0.500000
O O4 0.939223 0.709082 0.495696
O O5 0.620092 0.597874 0.659786
O O6 0.553993 0.395053 0.669308
O O7 0.641164 0.547884 0.898494
O O8 0.402111 0.303938 0.987196
O O9 0.250000 0.250000 0.000000
#
# Coordination Sequence:
#
# PCOD8145709 Si02
#       4
#     8   8   8   8
#     4  11  24  38  65  96 130 162 217 266 315 374
#     4  10  22  39  66  92 128 164 213 262 326 362
#     4  11  21  39  70  95 117 166 225 255 303 384
#     4  10  22  41  65  94 130 165 209 270 320 377
#
# _framework density 21.528092999999998
#
# number of rings (size 3 to 8) (size 9 to 14) (size 15 to 20)
#    0.000    1.500    2.500    2.250    3.500    3.000 
#    0.000    1.250   16.500    0.000    0.000    0.000 
#    0.000    0.000    0.000    0.000    0.000    0.000 
#
# Total GULP energy -198475.536351 kJ/mol
# GULP energy per Si atom -12404.721022 kJ/mol
# Density = 2.147909 g / cm^3
# Si number density = 21.528093 Si / 1000 Ang^3
#
#
#
# Elastic Constant Matrix: (Units=GPa)
#
#
# Indices 1 2 3 4 5 6 
#
# 1 56.2052 16.8260 18.1391 0.0000 14.3556 0.0000
# 2 16.8260 121.0661 33.1169 0.0000 20.2847 0.0000
# 3 18.1391 33.1169 97.8796 0.0000 10.6942 0.0000
# 4 0.0000 0.0000 0.0000 39.8612 0.0000 5.5153
# 5 14.3556 20.2847 10.6942 0.0000 38.2277 0.0000
# 6 0.0000 0.0000 0.0000 5.5153 0.0000 39.2128
#
#
#
# Elastic Compliance Matrix: (Units=1/GPa)
#
#
# Indices 1 2 3 4 5 6 
#
# 1 0.020637 -0.001033 -0.002773 0.000000 -0.006426 0.000000
# 2 -0.001033 0.009821 -0.002686 0.000000 -0.004072 0.000000
# 3 -0.002773 -0.002686 0.011728 0.000000 -0.000814 0.000000
# 4 0.000000 0.000000 0.000000 0.025585 0.000000 -0.003599
# 5 -0.006426 -0.004072 -0.000814 0.000000 0.030960 0.000000
# 6 0.000000 0.000000 0.000000 -0.003599 0.000000 0.026008
#
#
# Mechanical properties :
#
#
# Convention : Reuss Voigt Hill
#
# Bulk Modulus (GPa) = 34.24461 45.70165 39.97313
# Shear Modulus (GPa) = 33.90786 37.26494 35.58640
#
# Velocity S-wave (km/s) = 3.97300 4.16503 4.07015
# Velocity P-wave (km/s) = 6.08176 6.66370 6.37937
#
# Compressibility (1/GPa) = 0.02920167
#
# Stress axis : x y z
#
# Youngs Moduli (GPa) = 48.45571 101.82694 85.26310
#
# Poissons Ratio (x) = 0.10519 0.23643
# Poissons Ratio (y) = 0.05006 0.22905
# Poissons Ratio (z) = 0.13436 0.27355
#
# Static dielectric constant tensor:
#      x y z
#    x 3.764350 0.000000 0.133320 
#    y 0.000000 4.386970 0.000000 
#    z 0.133320 0.000000 4.095410 
# 
# 
# High freq. dielectric constant tensor:
#      x y z
#    x 1.834700 0.000000 0.020260 
#    y 0.000000 1.849640 0.000000 
#    z 0.020260 0.000000 1.850680 
# 
# From -- ./inp_files/93963.got.cif
#   From: 2010.06.25/outbox.cif.g09.slc.cpg/sg15_47_cif.got.tgz:93963.got - 2010.06.28 07:06:18.
