data_PCOD8145944
_publ_section_title
;
Structure prediction by ZEFSAII (Michael W. Deem and Ramdas Pophale) SiO2 
 PCOD8145944
Probable space group: C 2/C
;
_chemical_formula_sum "Si O2"
_cell_formula_units_Z 48
_cell_length_a 33.510929
_cell_length_b 13.455965
_cell_length_c 9.547910
_cell_angle_alpha 90.000000
_cell_angle_beta 149.380984
_cell_angle_gamma 90.000000
_cell_volume 2192.837171
_symmetry_space_group_name_H-M "C 2/C"
_symmetry_group_IT_number 15
_symmetry_cell_setting 'monoclinic'
loop_
_space_group_symop_operation_xyz
x,y,z
-x,y,1/2-z
-x,-y,-z
x,-y,1/2+z
1/2+x,1/2+y,z
1/2-x,1/2+y,1/2-z
1/2-x,1/2-y,-z
1/2+x,1/2-y,1/2+z
loop_
_atom_site_type_symbol
_atom_site_label
_atom_site_fract_x
_atom_site_fract_y
_atom_site_fract_z
Si Si1 0.472508 0.234744 0.011444
Si Si2 0.163430 0.452754 0.697801
Si Si3 0.306222 0.198493 0.434910
Si Si4 0.692203 0.557281 0.236063
Si Si5 0.867490 0.899069 0.649111
Si Si6 0.572584 0.070303 0.198010
O O1 0.500000 0.251269 0.250000
O O2 0.542650 0.182211 0.138744
O O3 0.390212 0.171018 0.764488
O O4 0.451293 0.342766 0.877146
O O5 0.188244 0.349293 0.701827
O O6 0.140407 0.534484 0.510036
O O7 0.095670 0.432615 0.605232
O O8 0.238630 0.487080 0.007738
O O9 0.230407 0.157453 0.288175
O O10 0.298541 0.318723 0.401217
O O11 0.641045 0.499716 0.964180
O O12 0.635955 0.581159 0.194985
O O13 0.500000 0.000000 0.000000
#
# Coordination Sequence:
#
# PCOD8145944 Si02
#       6
#     8   8   8   8   8   8
#     4  10  22  41  60  93 129 167 223 255 320 394
#     4  12  22  36  65 102 130 171 201 282 337 379
#     4  10  22  40  63  97 129 169 218 264 325 391
#     4  12  20  45  64  94 136 166 221 262 330 394
#     4  10  25  40  68  93 127 177 213 271 327 383
#     4  12  20  34  61  92 137 165 203 260 330 395
#
# _framework density 21.889451000000001
#
# number of rings (size 3 to 8) (size 9 to 14) (size 15 to 20)
#    1.000    0.000    5.000    3.000    0.000    0.667 
#    0.000    0.833    0.000    0.000    0.000    0.000 
#    0.000    0.000    0.000    0.000    0.000    0.000 
#
# Total GULP energy -297400.683619 kJ/mol
# GULP energy per Si atom -12391.695151 kJ/mol
# Density = 2.183963 g / cm^3
# Si number density = 21.889451 Si / 1000 Ang^3
#
#
#
# Elastic Constant Matrix: (Units=GPa)
#
#
# Indices 1 2 3 4 5 6 
#
# 1 104.5768 33.8271 8.7610 0.0000 -14.4899 0.0000
# 2 33.8271 76.9231 2.4372 0.0000 -3.4624 0.0000
# 3 8.7610 2.4372 36.8952 0.0000 -4.8731 0.0000
# 4 0.0000 0.0000 0.0000 27.8848 0.0000 -0.2830
# 5 -14.4899 -3.4624 -4.8731 0.0000 15.8552 0.0000
# 6 0.0000 0.0000 0.0000 -0.2830 0.0000 31.1582
#
#
#
# Elastic Compliance Matrix: (Units=1/GPa)
#
#
# Indices 1 2 3 4 5 6 
#
# 1 0.012724 -0.005098 -0.001351 0.000000 0.010100 0.000000
# 2 -0.005098 0.015181 0.000032 0.000000 -0.001334 0.000000
# 3 -0.001351 0.000032 0.028414 0.000000 0.007506 0.000000
# 4 0.000000 0.000000 0.000000 0.035865 0.000000 0.000326
# 5 0.010100 -0.001334 0.007506 0.000000 0.074317 0.000000
# 6 0.000000 0.000000 0.000000 0.000326 0.000000 0.032097
#
#
# Mechanical properties :
#
#
# Convention : Reuss Voigt Hill
#
# Bulk Modulus (GPa) = 22.99681 34.27174 28.63428
# Shear Modulus (GPa) = 22.13111 26.53763 24.33437
#
# Velocity S-wave (km/s) = 3.18314 3.48566 3.33782
# Velocity P-wave (km/s) = 4.90291 5.64716 5.28814
#
# Compressibility (1/GPa) = 0.04348429
#
# Stress axis : x y z
#
# Youngs Moduli (GPa) = 78.59203 65.87271 35.19426
#
# Poissons Ratio (x) = 0.33582 0.04753
# Poissons Ratio (y) = 0.40066 -0.00111
# Poissons Ratio (z) = 0.10615 -0.00208
#
# Static dielectric constant tensor:
#      x y z
#    x 4.082890 0.000000 -0.117870 
#    y 0.000000 4.067090 0.000000 
#    z -0.117870 0.000000 3.925630 
# 
# 
# High freq. dielectric constant tensor:
#      x y z
#    x 1.849430 0.000000 -0.011010 
#    y 0.000000 1.850760 0.000000 
#    z -0.011010 0.000000 1.849790 
# 
# From -- ./inp_files/70017.got.cif
#   From: 2010.06.25/outbox.cif.g09.slc.cpg/sg15_36_cif.got.tgz:70017.got - 2010.06.28 07:06:18.
