data_PCOD8145264
_publ_section_title
;
Structure prediction by ZEFSAII (Michael W. Deem and Ramdas Pophale) SiO2 
 PCOD8145264
Probable space group: C 2/C
;
_chemical_formula_sum "Si O2"
_cell_formula_units_Z 40
_cell_length_a 13.856513
_cell_length_b 23.435403
_cell_length_c 5.650225
_cell_angle_alpha 90.000000
_cell_angle_beta 53.516958
_cell_angle_gamma 90.000000
_cell_volume 1475.251040
_symmetry_space_group_name_H-M "C 2/C"
_symmetry_group_IT_number 15
_symmetry_cell_setting 'monoclinic'
loop_
_space_group_symop_operation_xyz
x,y,z
-x,y,1/2-z
-x,-y,-z
x,-y,1/2+z
1/2+x,1/2+y,z
1/2-x,1/2+y,1/2-z
1/2-x,1/2-y,-z
1/2+x,1/2-y,1/2+z
loop_
_atom_site_type_symbol
_atom_site_label
_atom_site_fract_x
_atom_site_fract_y
_atom_site_fract_z
Si Si1 0.932610 0.788657 0.606968
Si Si2 0.119037 0.331123 0.429678
Si Si3 0.279268 0.368925 0.565324
Si Si4 0.632151 0.057874 0.598946
Si Si5 0.864958 0.018349 0.815941
O O1 0.879532 0.725397 0.737981
O O2 0.828623 0.836003 0.725218
O O3 0.000000 0.807127 0.750000
O O4 0.000000 0.792270 0.250000
O O5 0.232571 0.323980 0.440372
O O6 0.122380 0.392081 0.303897
O O7 0.000000 0.326125 0.750000
O O8 0.369948 0.412792 0.302976
O O9 0.171618 0.410513 0.802346
O O10 0.500000 0.029403 0.750000
O O11 0.730650 0.010925 0.537008
O O12 0.928224 0.002960 0.979422
#
# Coordination Sequence:
#
# PCOD8145264 Si02
#       5
#     8   8   8   8   8
#     4  11  28  47  69  96 132 177 234 286 325 377
#     4  11  22  41  65 103 135 175 216 270 334 414
#     4  11  24  42  68  96 135 182 221 269 336 397
#     4  11  22  37  65  99 145 171 211 265 340 413
#     4  10  22  38  60  95 133 173 212 259 321 398
#
# _framework density 27.114031000000001
#
# number of rings (size 3 to 8) (size 9 to 14) (size 15 to 20)
#    0.000    1.200    4.000    1.200    5.600    4.800 
#    0.000    0.000    0.000   14.400    0.000    0.000 
#    0.000    0.000    0.000    0.000    0.000    0.000 
#
# Total GULP energy -247788.115500 kJ/mol
# GULP energy per Si atom -12389.405775 kJ/mol
# Density = 2.705232 g / cm^3
# Si number density = 27.114031 Si / 1000 Ang^3
#
#
#
# Elastic Constant Matrix: (Units=GPa)
#
#
# Indices 1 2 3 4 5 6 
#
# 1 162.6777 49.1500 52.5656 0.0000 32.7564 0.0000
# 2 49.1500 133.6872 29.1026 0.0000 6.9950 0.0000
# 3 52.5656 29.1026 101.0275 0.0000 19.6425 0.0000
# 4 0.0000 0.0000 0.0000 36.7444 0.0000 11.6806
# 5 32.7564 6.9950 19.6425 0.0000 39.1127 0.0000
# 6 0.0000 0.0000 0.0000 11.6806 0.0000 39.0505
#
#
#
# Elastic Compliance Matrix: (Units=1/GPa)
#
#
# Indices 1 2 3 4 5 6 
#
# 1 0.008916 -0.002360 -0.002870 0.000000 -0.005604 0.000000
# 2 -0.002360 0.008609 -0.001482 0.000000 0.001181 0.000000
# 3 -0.002870 -0.001482 0.012522 0.000000 -0.003620 0.000000
# 4 0.000000 0.000000 0.000000 0.030075 0.000000 -0.008996
# 5 -0.005604 0.001181 -0.003620 0.000000 0.031867 0.000000
# 6 0.000000 0.000000 0.000000 -0.008996 0.000000 0.028299
#
#
# Mechanical properties :
#
#
# Convention : Reuss Voigt Hill
#
# Bulk Modulus (GPa) = 60.15355 73.22543 66.68949
# Shear Modulus (GPa) = 35.90654 40.75312 38.32983
#
# Velocity S-wave (km/s) = 3.64301 3.88110 3.76394
# Velocity P-wave (km/s) = 6.31894 6.86651 6.59841
#
# Compressibility (1/GPa) = 0.01662412
#
# Stress axis : x y z
#
# Youngs Moduli (GPa) = 112.16136 116.16415 79.85898
#
# Poissons Ratio (x) = 0.27414 0.22916
# Poissons Ratio (y) = 0.26470 0.11831
# Poissons Ratio (z) = 0.32186 0.17210
#
# Static dielectric constant tensor:
#      x y z
#    x 5.295010 0.000000 0.015920 
#    y 0.000000 5.455780 0.000000 
#    z 0.015920 0.000000 5.026420 
# 
# 
# High freq. dielectric constant tensor:
#      x y z
#    x 2.105230 0.000000 0.005690 
#    y 0.000000 2.096560 0.000000 
#    z 0.005690 0.000000 2.104150 
# 
# From -- ./inp_files/5072.got.cif
#   From: 2010.06.25/outbox.cif.g09.slc.cpg/sg15_3_cif.got.tgz:5072.got - 2010.06.28 07:06:18.
