data_PCOD8145283
_publ_section_title
;
Structure prediction by ZEFSAII (Michael W. Deem and Ramdas Pophale) SiO2 
 PCOD8145283
Probable space group: C 2/C
;
_chemical_formula_sum "Si O2"
_cell_formula_units_Z 48
_cell_length_a 19.909156
_cell_length_b 20.466231
_cell_length_c 10.279387
_cell_angle_alpha 90.000000
_cell_angle_beta 144.589814
_cell_angle_gamma 90.000000
_cell_volume 2426.922868
_symmetry_space_group_name_H-M "C 2/C"
_symmetry_group_IT_number 15
_symmetry_cell_setting 'monoclinic'
loop_
_space_group_symop_operation_xyz
x,y,z
-x,y,1/2-z
-x,-y,-z
x,-y,1/2+z
1/2+x,1/2+y,z
1/2-x,1/2+y,1/2-z
1/2-x,1/2-y,-z
1/2+x,1/2-y,1/2+z
loop_
_atom_site_type_symbol
_atom_site_label
_atom_site_fract_x
_atom_site_fract_y
_atom_site_fract_z
Si Si1 0.200622 0.632048 0.630089
Si Si2 0.500000 0.768824 0.750000
Si Si3 0.367884 0.989903 0.044637
Si Si4 0.794685 0.919575 0.537920
Si Si5 0.831057 0.188808 0.613494
Si Si6 0.184765 0.905241 0.650537
Si Si7 0.500000 0.503247 0.750000
O O1 0.136190 0.567003 0.484001
O O2 0.253038 0.627759 0.857034
O O3 0.310873 0.643598 0.707746
O O4 0.105973 0.689427 0.474056
O O5 0.459629 0.719670 0.802845
O O6 0.500000 0.965587 0.250000
O O7 0.308316 0.971296 0.089241
O O8 0.296394 0.953818 0.816067
O O9 0.818940 0.876356 0.707105
O O10 0.911183 0.958453 0.688445
O O11 0.750000 0.250000 0.500000
O O12 0.800473 0.150444 0.432881
O O13 0.069211 0.948811 0.455224
#
# Coordination Sequence:
#
# PCOD8145283 Si02
#       7
#     8   4   8   8   8   8   4
#     4  11  21  41  65  98 131 165 222 267 328 396
#     4  10  23  42  68  90 122 187 226 266 304 392
#     4  10  22  38  62 102 139 167 203 270 350 394
#     4  10  23  37  61 102 132 169 203 274 346 383
#     4  10  23  42  64  87 124 179 232 257 303 387
#     4  10  23  39  64  97 133 173 214 269 329 395
#     4  12  19  38  62  98 142 165 212 254 340 414
#
# _framework density 19.778131999999999
#
# number of rings (size 3 to 8) (size 9 to 14) (size 15 to 20)
#    1.000    0.667    2.500    2.000    0.000    6.000 
#    0.000    3.333    0.000    6.000    0.000    0.000 
#    0.000    0.000    0.000    0.000    0.000    0.000 
#
# Total GULP energy -297315.811154 kJ/mol
# GULP energy per Si atom -12388.158798 kJ/mol
# Density = 1.973312 g / cm^3
# Si number density = 19.778132 Si / 1000 Ang^3
#
#
#
# Elastic Constant Matrix: (Units=GPa)
#
#
# Indices 1 2 3 4 5 6 
#
# 1 157.7637 58.9587 71.1139 0.0000 -4.3833 0.0000
# 2 58.9587 88.2968 48.0409 0.0000 -1.8648 0.0000
# 3 71.1139 48.0409 128.2556 0.0000 4.5539 0.0000
# 4 0.0000 0.0000 0.0000 21.5457 0.0000 3.5312
# 5 -4.3833 -1.8648 4.5539 0.0000 48.4009 0.0000
# 6 0.0000 0.0000 0.0000 3.5312 0.0000 19.5253
#
#
#
# Elastic Compliance Matrix: (Units=1/GPa)
#
#
# Indices 1 2 3 4 5 6 
#
# 1 0.009719 -0.004414 -0.003773 0.000000 0.001065 0.000000
# 2 -0.004414 0.016283 -0.003672 0.000000 0.000573 0.000000
# 3 -0.003773 -0.003672 0.011319 0.000000 -0.001548 0.000000
# 4 0.000000 0.000000 0.000000 0.047831 0.000000 -0.008650
# 5 0.001065 0.000573 -0.001548 0.000000 0.020925 0.000000
# 6 0.000000 0.000000 0.000000 -0.008650 0.000000 0.052780
#
#
# Mechanical properties :
#
#
# Convention : Reuss Voigt Hill
#
# Bulk Modulus (GPa) = 73.51566 81.17147 77.34356
# Shear Modulus (GPa) = 26.72241 30.97455 28.84848
#
# Velocity S-wave (km/s) = 3.67973 3.96169 3.82331
# Velocity P-wave (km/s) = 7.43672 7.87761 7.66034
#
# Compressibility (1/GPa) = 0.01360254
#
# Stress axis : x y z
#
# Youngs Moduli (GPa) = 102.89614 61.41453 88.34401
#
# Poissons Ratio (x) = 0.27108 0.33333
# Poissons Ratio (y) = 0.45419 0.32440
# Poissons Ratio (z) = 0.38824 0.22551
#
# Static dielectric constant tensor:
#      x y z
#    x 4.875270 0.000000 0.869970 
#    y 0.000000 3.560340 0.000000 
#    z 0.869970 0.000000 4.179330 
# 
# 
# High freq. dielectric constant tensor:
#      x y z
#    x 1.782400 0.000000 0.013440 
#    y 0.000000 1.760150 0.000000 
#    z 0.013440 0.000000 1.761640 
# 
# From -- ./inp_files/114325.got.cif
#   From: 2010.06.25/outbox.cif.g09.slc.cpg/sg15_58_cif.got.tgz:114325.got - 2010.06.28 07:06:18.
