data_PCOD8145471
_publ_section_title
;
Structure prediction by ZEFSAII (Michael W. Deem and Ramdas Pophale) SiO2 
 PCOD8145471
Probable space group: C 2/C
;
_chemical_formula_sum "Si O2"
_cell_formula_units_Z 52
_cell_length_a 16.596285
_cell_length_b 9.360784
_cell_length_c 27.732114
_cell_angle_alpha 90.000000
_cell_angle_beta 38.090166
_cell_angle_gamma 90.000000
_cell_volume 2657.794622
_symmetry_space_group_name_H-M "C 2/C"
_symmetry_group_IT_number 15
_symmetry_cell_setting 'monoclinic'
loop_
_space_group_symop_operation_xyz
x,y,z
-x,y,1/2-z
-x,-y,-z
x,-y,1/2+z
1/2+x,1/2+y,z
1/2-x,1/2+y,1/2-z
1/2-x,1/2-y,-z
1/2+x,1/2-y,1/2+z
loop_
_atom_site_type_symbol
_atom_site_label
_atom_site_fract_x
_atom_site_fract_y
_atom_site_fract_z
Si Si1 0.500000 0.928037 0.750000
Si Si2 0.766261 0.712404 0.315835
Si Si3 0.964177 0.000519 0.572321
Si Si4 0.435992 0.050279 0.579400
Si Si5 0.050276 0.296628 0.275729
Si Si6 0.839091 0.734867 0.172164
Si Si7 0.899912 0.768049 0.938881
O O1 0.626132 0.825716 0.694119
O O2 0.491711 0.033999 0.707012
O O3 0.671562 0.578588 0.352991
O O4 0.686587 0.847002 0.373923
O O5 0.829448 0.749864 0.234338
O O6 0.082377 0.918121 0.542416
O O7 0.951594 0.159375 0.599515
O O8 0.000000 0.000000 0.500000
O O9 0.547331 0.134931 0.555562
O O10 0.500000 0.000000 0.500000
O O11 0.383094 0.923102 0.637318
O O12 0.204827 0.277133 0.208778
O O13 0.000000 0.221734 0.250000
O O14 0.978817 0.218411 0.352452
O O15 0.750000 0.750000 0.000000
#
# Coordination Sequence:
#
# PCOD8145471 Si02
#       7
#     4   8   8   8   8   8   8
#     4  10  22  40  66 100 122 166 224 268 328 384
#     4  11  22  42  67  91 129 170 219 273 318 395
#     4  11  23  41  70  94 126 179 219 258 332 403
#     4  11  25  42  63  94 136 170 209 274 339 380
#     4  10  22  38  72  94 125 170 224 274 314 389
#     4  12  21  44  67  96 127 175 223 271 331 390
#     4  11  25  44  64  97 131 170 221 269 325 394
#
# _framework density 19.565093000000001
#
# number of rings (size 3 to 8) (size 9 to 14) (size 15 to 20)
#    0.462    0.615    4.615    3.692    6.462    0.000 
#    4.154    0.769    0.000    0.000    0.000    0.000 
#    0.000    0.000    0.000    0.000    0.000    0.000 
#
# Total GULP energy -322370.208685 kJ/mol
# GULP energy per Si atom -12398.854180 kJ/mol
# Density = 1.952056 g / cm^3
# Si number density = 19.565093 Si / 1000 Ang^3
#
#
#
# Elastic Constant Matrix: (Units=GPa)
#
#
# Indices 1 2 3 4 5 6 
#
# 1 127.5479 44.1064 35.3792 0.0000 -14.6400 -0.0001
# 2 44.1064 108.1479 29.6531 0.0000 -9.3698 -0.0001
# 3 35.3792 29.6531 99.1920 0.0000 14.7893 0.0000
# 4 0.0000 0.0000 0.0000 32.2010 0.0000 2.8106
# 5 -14.6400 -9.3698 14.7893 0.0000 43.8047 0.0000
# 6 -0.0001 -0.0001 0.0000 2.8106 0.0000 33.5352
#
#
#
# Elastic Compliance Matrix: (Units=1/GPa)
#
#
# Indices 1 2 3 4 5 6 
#
# 1 0.010231 -0.002909 -0.003366 0.000000 0.003934 0.000000
# 2 -0.002909 0.011385 -0.002721 0.000000 0.002382 0.000000
# 3 -0.003366 -0.002721 0.013005 0.000000 -0.006098 0.000000
# 4 0.000000 0.000000 0.000000 0.031284 0.000000 -0.002622
# 5 0.003934 0.002382 -0.006098 0.000000 0.026711 0.000000
# 6 0.000000 0.000000 0.000000 -0.002622 0.000000 0.030039
#
#
# Mechanical properties :
#
#
# Convention : Reuss Voigt Hill
#
# Bulk Modulus (GPa) = 60.13620 61.46279 60.79949
# Shear Modulus (GPa) = 34.20172 36.95811 35.57992
#
# Velocity S-wave (km/s) = 4.18556 4.35096 4.26906
# Velocity P-wave (km/s) = 7.35947 7.53152 7.44599
#
# Compressibility (1/GPa) = 0.01662892
#
# Stress axis : x y z
#
# Youngs Moduli (GPa) = 97.73919 87.83143 76.89512
#
# Poissons Ratio (x) = 0.25549 0.25884
# Poissons Ratio (y) = 0.28431 0.20925
# Poissons Ratio (z) = 0.32900 0.23901
#
# Static dielectric constant tensor:
#      x y z
#    x 3.492980 0.000000 0.058580 
#    y 0.000000 4.151650 0.000000 
#    z 0.058580 0.000000 3.606000 
# 
# 
# High freq. dielectric constant tensor:
#      x y z
#    x 1.761330 0.000000 0.002430 
#    y 0.000000 1.765260 0.000000 
#    z 0.002430 0.000000 1.762850 
# 
# From -- ./inp_files/298345.got.cif
#   From: 2010.06.25/outbox.cif.g09.slc.cpg/sg15_150_cif.got.tgz:298345.got - 2010.06.28 07:06:18.
