data_PCOD8145265
_publ_section_title
;
Structure prediction by ZEFSAII (Michael W. Deem and Ramdas Pophale) SiO2 
 PCOD8145265
Probable space group: C 2/C
;
_chemical_formula_sum "Si O2"
_cell_formula_units_Z 52
_cell_length_a 9.994494
_cell_length_b 21.589080
_cell_length_c 11.963525
_cell_angle_alpha 90.000000
_cell_angle_beta 118.786259
_cell_angle_gamma 90.000000
_cell_volume 2262.390010
_symmetry_space_group_name_H-M "C 2/C"
_symmetry_group_IT_number 15
_symmetry_cell_setting 'monoclinic'
loop_
_space_group_symop_operation_xyz
x,y,z
-x,y,1/2-z
-x,-y,-z
x,-y,1/2+z
1/2+x,1/2+y,z
1/2-x,1/2+y,1/2-z
1/2-x,1/2-y,-z
1/2+x,1/2-y,1/2+z
loop_
_atom_site_type_symbol
_atom_site_label
_atom_site_fract_x
_atom_site_fract_y
_atom_site_fract_z
Si Si1 0.181100 0.631883 0.339047
Si Si2 0.426029 0.728778 0.475528
Si Si3 0.310578 0.926176 0.884190
Si Si4 0.812271 0.660429 0.800367
Si Si5 0.500000 0.711890 0.750000
Si Si6 0.227725 0.179750 0.525550
Si Si7 0.657203 0.945878 0.037211
O O1 0.259002 0.699530 0.383868
O O2 0.252091 0.595618 0.260993
O O3 0.233976 0.593769 0.468987
O O4 0.000000 0.644074 0.250000
O O5 0.432926 0.792784 0.408355
O O6 0.458488 0.748943 0.617827
O O7 0.547310 0.676989 0.481992
O O8 0.243300 0.990489 0.908032
O O9 0.279770 0.869076 0.954035
O O10 0.481440 0.951183 0.929739
O O11 0.642459 0.669336 0.777828
O O12 0.829906 0.666387 0.675093
O O13 0.850536 0.590331 0.848352
O O14 0.250000 0.250000 0.500000
#
# Coordination Sequence:
#
# PCOD8145265 Si02
#       7
#     8   8   8   8   4   8   8
#     4  10  22  40  67  97 127 170 221 267 323 382
#     4  11  23  41  67  96 132 170 212 274 331 387
#     4  10  23  41  64  94 132 171 223 265 319 395
#     4  11  23  39  65  93 132 168 214 265 329 391
#     4  10  22  38  60  98 132 166 212 266 330 394
#     4  11  25  43  63  97 133 171 216 268 335 394
#     4  10  22  41  64  94 125 177 218 267 319 378
#
# _framework density 22.984542000000001
#
# number of rings (size 3 to 8) (size 9 to 14) (size 15 to 20)
#    0.000    1.538    1.538    2.308    3.231    6.769 
#    0.000    2.308    0.000    0.000    0.000    0.000 
#    0.000    0.000    0.000    0.000    0.000    0.000 
#
# Total GULP energy -322181.713436 kJ/mol
# GULP energy per Si atom -12391.604363 kJ/mol
# Density = 2.293223 g / cm^3
# Si number density = 22.984542 Si / 1000 Ang^3
#
#
#
# Elastic Constant Matrix: (Units=GPa)
#
#
# Indices 1 2 3 4 5 6 
#
# 1 38.2119 13.0829 18.7164 0.0000 -10.2259 0.0000
# 2 13.0829 165.2500 64.7524 0.0000 -18.9038 0.0000
# 3 18.7164 64.7524 161.8542 0.0000 -26.5326 0.0000
# 4 0.0000 0.0000 0.0000 19.5527 0.0000 -3.3927
# 5 -10.2259 -18.9038 -26.5326 0.0000 39.3876 0.0000
# 6 0.0000 0.0000 0.0000 -3.3927 0.0000 23.5945
#
#
#
# Elastic Compliance Matrix: (Units=1/GPa)
#
#
# Indices 1 2 3 4 5 6 
#
# 1 0.029007 -0.000824 -0.002085 0.000000 0.005731 0.000000
# 2 -0.000824 0.007302 -0.002571 0.000000 0.001559 0.000000
# 3 -0.002085 -0.002571 0.008045 0.000000 0.003644 0.000000
# 4 0.000000 0.000000 0.000000 0.052452 0.000000 0.007542
# 5 0.005731 0.001559 0.003644 0.000000 0.030080 0.000000
# 6 0.000000 0.000000 0.000000 0.007542 0.000000 0.043467
#
#
# Mechanical properties :
#
#
# Convention : Reuss Voigt Hill
#
# Bulk Modulus (GPa) = 29.94434 62.04662 45.99548
# Shear Modulus (GPa) = 25.98143 34.42459 30.20301
#
# Velocity S-wave (km/s) = 3.36577 3.87425 3.62893
# Velocity P-wave (km/s) = 5.30668 6.86051 6.13300
#
# Compressibility (1/GPa) = 0.03339530
#
# Stress axis : x y z
#
# Youngs Moduli (GPa) = 34.47456 136.94359 124.29533
#
# Poissons Ratio (x) = 0.11282 0.25919
# Poissons Ratio (y) = 0.02840 0.31951
# Poissons Ratio (z) = 0.07189 0.35202
#
# Static dielectric constant tensor:
#      x y z
#    x 4.386760 0.000000 0.170690 
#    y 0.000000 4.324840 0.000000 
#    z 0.170690 0.000000 5.394150 
# 
# 
# High freq. dielectric constant tensor:
#      x y z
#    x 1.900710 0.000000 -0.011620 
#    y 0.000000 1.899370 0.000000 
#    z -0.011620 0.000000 1.916390 
# 
# From -- ./inp_files/89727.got.cif
#   From: 2010.06.25/outbox.cif.g09.slc.cpg/sg15_45_cif.got.tgz:89727.got - 2010.06.28 07:06:18.
