data_PCOD8145891
_publ_section_title
;
Structure prediction by ZEFSAII (Michael W. Deem and Ramdas Pophale) SiO2 
 PCOD8145891
Probable space group: C 2/C
;
_chemical_formula_sum "Si O2"
_cell_formula_units_Z 48
_cell_length_a 7.796484
_cell_length_b 32.593266
_cell_length_c 13.887554
_cell_angle_alpha 90.000000
_cell_angle_beta 140.340835
_cell_angle_gamma 90.000000
_cell_volume 2252.279931
_symmetry_space_group_name_H-M "C 2/C"
_symmetry_group_IT_number 15
_symmetry_cell_setting 'monoclinic'
loop_
_space_group_symop_operation_xyz
x,y,z
-x,y,1/2-z
-x,-y,-z
x,-y,1/2+z
1/2+x,1/2+y,z
1/2-x,1/2+y,1/2-z
1/2-x,1/2-y,-z
1/2+x,1/2-y,1/2+z
loop_
_atom_site_type_symbol
_atom_site_label
_atom_site_fract_x
_atom_site_fract_y
_atom_site_fract_z
Si Si1 0.902267 0.592930 0.572860
Si Si2 0.988735 0.925941 0.357261
Si Si3 0.581381 0.366157 0.550948
Si Si4 0.847727 0.708569 0.088356
Si Si5 0.699558 0.142622 0.153850
Si Si6 0.788231 0.988695 0.579272
O O1 0.728187 0.626887 0.553116
O O2 0.939456 0.609281 0.478054
O O3 0.740765 0.549783 0.504239
O O4 0.177223 0.583424 0.748426
O O5 0.000000 0.915558 0.250000
O O6 0.169546 0.896611 0.502127
O O7 0.084110 0.972229 0.420089
O O8 0.601874 0.320388 0.517060
O O9 0.781655 0.374331 0.727809
O O10 0.000000 0.721778 0.250000
O O11 0.026453 0.684383 0.085922
O O12 0.750000 0.750000 0.000000
O O13 0.000000 0.153942 0.250000
O O14 0.000000 0.973955 0.750000
O O15 0.500000 0.000000 0.500000
#
# Coordination Sequence:
#
# PCOD8145891 Si02
#       6
#     8   8   8   8   8   8
#     4  11  21  41  64  90 126 169 217 269 319 378
#     4  11  22  38  61  89 128 168 221 269 318 371
#     4  10  22  40  62  92 122 163 212 257 318 390
#     4  10  22  41  63  93 127 158 205 258 322 395
#     4   9  20  41  67  89 124 167 208 259 323 385
#     4  11  21  38  61  90 129 173 225 271 324 376
#
# _framework density 21.311737000000001
#
# number of rings (size 3 to 8) (size 9 to 14) (size 15 to 20)
#    0.000    1.667    3.333    3.000    0.000    2.667 
#    3.000    9.167    0.000    0.000    0.000    0.000 
#    0.000    0.000    0.000    0.000    0.000    0.000 
#
# Total GULP energy -297456.159424 kJ/mol
# GULP energy per Si atom -12394.006643 kJ/mol
# Density = 2.126323 g / cm^3
# Si number density = 21.311737 Si / 1000 Ang^3
#
#
#
# Elastic Constant Matrix: (Units=GPa)
#
#
# Indices 1 2 3 4 5 6 
#
# 1 80.4192 53.2452 24.9495 0.0000 -0.6642 0.0000
# 2 53.2452 171.5909 79.5905 0.0000 -7.9607 0.0000
# 3 24.9495 79.5905 99.0453 0.0000 2.0242 0.0000
# 4 0.0000 0.0000 0.0000 34.9667 0.0000 6.7350
# 5 -0.6642 -7.9607 2.0242 0.0000 39.2443 0.0000
# 6 0.0000 0.0000 0.0000 6.7350 0.0000 31.6531
#
#
#
# Elastic Compliance Matrix: (Units=1/GPa)
#
#
# Indices 1 2 3 4 5 6 
#
# 1 0.015671 -0.004898 0.000003 0.000000 -0.000729 0.000000
# 2 -0.004898 0.011029 -0.007681 0.000000 0.002550 0.000000
# 3 0.000003 -0.007681 0.016317 0.000000 -0.002400 0.000000
# 4 0.000000 0.000000 0.000000 0.029821 0.000000 -0.006345
# 5 -0.000729 0.002550 -0.002400 0.000000 0.026110 0.000000
# 6 0.000000 0.000000 0.000000 -0.006345 0.000000 0.032943
#
#
# Mechanical properties :
#
#
# Convention : Reuss Voigt Hill
#
# Bulk Modulus (GPa) = 55.97435 74.06953 65.02194
# Shear Modulus (GPa) = 30.67576 34.05749 32.36663
#
# Velocity S-wave (km/s) = 3.79804 4.00191 3.90131
# Velocity P-wave (km/s) = 6.74945 7.49563 7.13230
#
# Compressibility (1/GPa) = 0.01786533
#
# Stress axis : x y z
#
# Youngs Moduli (GPa) = 63.81311 90.67334 61.28743
#
# Poissons Ratio (x) = 0.44412 -0.00021
# Poissons Ratio (y) = 0.31256 0.47073
# Poissons Ratio (z) = -0.00022 0.69643
#
# Static dielectric constant tensor:
#      x y z
#    x 4.176210 0.000000 0.031390 
#    y 0.000000 3.694540 0.000000 
#    z 0.031390 0.000000 4.091500 
# 
# 
# High freq. dielectric constant tensor:
#      x y z
#    x 1.845560 0.000000 -0.000740 
#    y 0.000000 1.814800 0.000000 
#    z -0.000740 0.000000 1.845170 
# 
# From -- ./inp_files/139642.got.cif
#   From: 2010.06.25/outbox.cif.g09.slc.cpg/sg15_70_cif.got.tgz:139642.got - 2010.06.28 07:06:18.
