data_PCOD8145703
_publ_section_title
;
Structure prediction by ZEFSAII (Michael W. Deem and Ramdas Pophale) SiO2 
 PCOD8145703
Probable space group: C 2/C
;
_chemical_formula_sum "Si O2"
_cell_formula_units_Z 60
_cell_length_a 19.222894
_cell_length_b 17.070592
_cell_length_c 18.287674
_cell_angle_alpha 90.000000
_cell_angle_beta 27.777803
_cell_angle_gamma 90.000000
_cell_volume 2796.743655
_symmetry_space_group_name_H-M "C 2/C"
_symmetry_group_IT_number 15
_symmetry_cell_setting 'monoclinic'
loop_
_space_group_symop_operation_xyz
x,y,z
-x,y,1/2-z
-x,-y,-z
x,-y,1/2+z
1/2+x,1/2+y,z
1/2-x,1/2+y,1/2-z
1/2-x,1/2-y,-z
1/2+x,1/2-y,1/2+z
loop_
_atom_site_type_symbol
_atom_site_label
_atom_site_fract_x
_atom_site_fract_y
_atom_site_fract_z
Si Si1 0.839090 0.853308 0.283287
Si Si2 0.159395 0.688941 0.632635
Si Si3 0.609648 0.430275 0.536753
Si Si4 0.573598 0.749189 0.491208
Si Si5 0.143355 0.190545 0.266490
Si Si6 0.081207 0.617179 0.442455
Si Si7 0.220838 0.540752 0.764190
Si Si8 0.000000 0.057355 0.750000
O O1 0.714878 0.785197 0.402802
O O2 0.786510 0.921445 0.276769
O O3 0.868461 0.890149 0.336099
O O4 0.996011 0.815965 0.112927
O O5 0.250000 0.750000 0.500000
O O6 0.251670 0.609272 0.551627
O O7 0.134637 0.725774 0.735764
O O8 0.000000 0.666049 0.750000
O O9 0.474222 0.369060 0.659145
O O10 0.653310 0.455596 0.414555
O O11 0.567628 0.506084 0.621860
O O12 0.619993 0.706164 0.373461
O O13 0.457168 0.819096 0.583719
O O14 0.310450 0.156393 0.097924
O O15 0.178540 0.548995 0.315076
O O16 0.929705 0.586135 0.621029
#
# Coordination Sequence:
#
# PCOD8145703 Si02
#       8
#     8   8   8   8   8   8   8   4
#     4  11  24  46  70 102 136 178 229 290 344 408
#     4  12  25  41  61  93 137 178 216 272 344 413
#     4  12  25  45  67  99 133 189 227 277 340 418
#     4  11  22  42  73 102 126 174 234 294 337 392
#     4  12  22  40  71 101 132 169 231 294 339 401
#     4  10  22  39  66 106 134 163 224 302 333 398
#     4  10  23  43  69 100 134 178 231 281 345 397
#     4  12  30  46  64  98 152 184 230 270 352 418
#
# _framework density 21.453520999999999
#
# number of rings (size 3 to 8) (size 9 to 14) (size 15 to 20)
#    0.000    0.800    4.000    4.000    3.733    1.600 
#    4.800    0.000    0.000    0.000    0.000    0.000 
#    0.000    0.000    0.000    0.000    0.000    0.000 
#
# Total GULP energy -372086.678074 kJ/mol
# GULP energy per Si atom -12402.889269 kJ/mol
# Density = 2.140469 g / cm^3
# Si number density = 21.453521 Si / 1000 Ang^3
#
#
#
# Elastic Constant Matrix: (Units=GPa)
#
#
# Indices 1 2 3 4 5 6 
#
# 1 112.4765 40.6780 42.3309 0.0037 -34.0186 0.0013
# 2 40.6780 85.7749 25.2162 0.0063 -11.2131 -0.0042
# 3 42.3309 25.2162 77.9011 0.0052 -19.0120 -0.0047
# 4 0.0037 0.0063 0.0052 36.5122 -0.0022 -2.9341
# 5 -34.0186 -11.2131 -19.0120 -0.0022 36.6889 0.0035
# 6 0.0013 -0.0042 -0.0047 -2.9341 0.0035 30.8624
#
#
#
# Elastic Compliance Matrix: (Units=1/GPa)
#
#
# Indices 1 2 3 4 5 6 
#
# 1 0.015399 -0.004658 -0.004262 0.000000 0.010646 -0.000003
# 2 -0.004658 0.014428 -0.002423 -0.000002 -0.001166 0.000002
# 3 -0.004262 -0.002423 0.016933 -0.000001 0.004083 0.000002
# 4 0.000000 -0.000002 -0.000001 0.027599 0.000001 0.002624
# 5 0.010646 -0.001166 0.004083 0.000001 0.038887 -0.000004
# 6 -0.000003 0.000002 0.000002 0.002624 -0.000004 0.032651
#
#
# Mechanical properties :
#
#
# Convention : Reuss Voigt Hill
#
# Bulk Modulus (GPa) = 41.53925 54.73362 48.13644
# Shear Modulus (GPa) = 28.31108 32.00787 30.15948
#
# Velocity S-wave (km/s) = 3.63664 3.86678 3.75347
# Velocity P-wave (km/s) = 6.08588 6.74567 6.42425
#
# Compressibility (1/GPa) = 0.02407362
#
# Stress axis : x y z
#
# Youngs Moduli (GPa) = 64.93741 69.31132 59.05498
#
# Poissons Ratio (x) = 0.32288 0.25168
# Poissons Ratio (y) = 0.30250 0.14311
# Poissons Ratio (z) = 0.27675 0.16796
#
# Static dielectric constant tensor:
#      x y z
#    x 3.807010 -0.000010 -0.277930 
#    y -0.000010 4.038110 0.000000 
#    z -0.277930 0.000000 3.980720 
# 
# 
# High freq. dielectric constant tensor:
#      x y z
#    x 1.830160 0.000000 -0.022010 
#    y 0.000000 1.852380 0.000000 
#    z -0.022010 0.000000 1.846850 
# 
# From -- ./inp_files/211741.got.cif
#   From: 2010.06.25/outbox.cif.g09.slc.cpg/sg15_106_cif.got.tgz:211741.got - 2010.06.28 07:06:18.
