data_PCOD8145714
_publ_section_title
;
Structure prediction by ZEFSAII (Michael W. Deem and Ramdas Pophale) SiO2 
 PCOD8145714
Probable space group: C 2/C
;
_chemical_formula_sum "Si O2"
_cell_formula_units_Z 60
_cell_length_a 16.410707
_cell_length_b 12.829074
_cell_length_c 24.615506
_cell_angle_alpha 90.000000
_cell_angle_beta 32.406298
_cell_angle_gamma 90.000000
_cell_volume 2777.352546
_symmetry_space_group_name_H-M "C 2/C"
_symmetry_group_IT_number 15
_symmetry_cell_setting 'monoclinic'
loop_
_space_group_symop_operation_xyz
x,y,z
-x,y,1/2-z
-x,-y,-z
x,-y,1/2+z
1/2+x,1/2+y,z
1/2-x,1/2+y,1/2-z
1/2-x,1/2-y,-z
1/2+x,1/2-y,1/2+z
loop_
_atom_site_type_symbol
_atom_site_label
_atom_site_fract_x
_atom_site_fract_y
_atom_site_fract_z
Si Si1 0.000000 0.291024 0.250000
Si Si2 0.904385 0.959885 0.430162
Si Si3 0.061351 0.805079 0.999345
Si Si4 0.247559 0.197294 0.182373
Si Si5 0.794420 0.972170 0.297345
Si Si6 0.408696 0.211786 0.629581
Si Si7 0.850087 0.831658 0.360469
Si Si8 0.337244 0.142711 0.944818
O O1 0.852716 0.222955 0.314804
O O2 0.943506 0.362729 0.331429
O O3 0.916470 0.919953 0.486343
O O4 0.871652 0.858009 0.411632
O O5 0.062212 0.006713 0.320091
O O6 0.773459 0.044753 0.496542
O O7 0.896547 0.764806 0.109840
O O8 0.059804 0.798326 0.934803
O O9 0.199685 0.735796 0.942404
O O10 0.137039 0.216159 0.294945
O O11 0.305554 0.077426 0.145291
O O12 0.718348 0.870899 0.314562
O O13 0.836537 0.940921 0.335118
O O14 0.555577 0.140859 0.561950
O O15 0.000000 0.773489 0.250000
O O16 0.250000 0.250000 0.000000
#
# Coordination Sequence:
#
# PCOD8145714 Si02
#       8
#     4   8   8   8   8   8   8   8
#     4  10  24  44  62  96 132 166 216 276 324 382
#     4  11  22  42  64  97 130 179 221 263 338 404
#     4  11  23  41  67  95 134 175 218 269 339 404
#     4  11  23  41  68  94 129 169 217 276 332 388
#     4  10  22  39  66  95 125 171 219 276 329 389
#     4  10  23  44  60  99 134 166 219 280 326 395
#     4   9  22  39  63  94 132 169 226 276 325 392
#     4  11  24  43  67  93 133 175 222 268 326 396
#
# _framework density 21.603307999999998
#
# number of rings (size 3 to 8) (size 9 to 14) (size 15 to 20)
#    0.000    1.600    1.333    2.800    8.400    1.067 
#    6.000    2.000    0.000    0.000    0.000    0.000 
#    0.000    0.000    0.000    0.000    0.000    0.000 
#
# Total GULP energy -371784.636259 kJ/mol
# GULP energy per Si atom -12392.821209 kJ/mol
# Density = 2.155414 g / cm^3
# Si number density = 21.603308 Si / 1000 Ang^3
#
#
#
# Elastic Constant Matrix: (Units=GPa)
#
#
# Indices 1 2 3 4 5 6 
#
# 1 109.2893 24.8949 31.3858 -0.0002 -1.2954 -0.0002
# 2 24.8949 65.6275 18.9091 0.0001 -4.5223 -0.0001
# 3 31.3858 18.9091 91.6608 0.0001 -7.9442 -0.0012
# 4 -0.0002 0.0001 0.0001 20.0310 0.0004 -13.3635
# 5 -1.2954 -4.5223 -7.9442 0.0004 36.1864 0.0003
# 6 -0.0002 -0.0001 -0.0012 -13.3635 0.0003 31.4905
#
#
#
# Elastic Compliance Matrix: (Units=1/GPa)
#
#
# Indices 1 2 3 4 5 6 
#
# 1 0.010765 -0.003245 -0.003077 0.000000 -0.000696 0.000000
# 2 -0.003245 0.017240 -0.002313 0.000000 0.001531 0.000000
# 3 -0.003077 -0.002313 0.012646 0.000000 0.002377 0.000001
# 4 0.000000 0.000000 0.000000 0.069638 -0.000001 0.029552
# 5 -0.000696 0.001531 0.002377 -0.000001 0.028323 -0.000001
# 6 0.000000 0.000000 0.000001 0.029552 -0.000001 0.044296
#
#
# Mechanical properties :
#
#
# Convention : Reuss Voigt Hill
#
# Bulk Modulus (GPa) = 42.76732 46.32859 44.54796
# Shear Modulus (GPa) = 24.04171 30.30078 27.17124
#
# Velocity S-wave (km/s) = 3.33959 3.74919 3.55030
# Velocity P-wave (km/s) = 5.89153 6.34300 6.12143
#
# Compressibility (1/GPa) = 0.02338234
#
# Stress axis : x y z
#
# Youngs Moduli (GPa) = 92.89788 58.00382 79.07335
#
# Poissons Ratio (x) = 0.18821 0.24329
# Poissons Ratio (y) = 0.30143 0.18288
# Poissons Ratio (z) = 0.28583 0.13415
#
# Static dielectric constant tensor:
#      x y z
#    x 4.235700 0.000000 0.035480 
#    y 0.000000 3.534670 0.000000 
#    z 0.035480 0.000000 3.996380 
# 
# 
# High freq. dielectric constant tensor:
#      x y z
#    x 1.864770 0.000000 -0.003130 
#    y 0.000000 1.818280 0.000000 
#    z -0.003130 0.000000 1.860630 
# 
# From -- ./inp_files/298946.got.cif
#   From: 2010.06.25/outbox.cif.g09.slc.cpg/sg15_150_cif.got.tgz:298946.got - 2010.06.28 07:06:18.
