data_PCOD8145362
_publ_section_title
;
Structure prediction by ZEFSAII (Michael W. Deem and Ramdas Pophale) SiO2 
 PCOD8145362
Probable space group: C 2/C
;
_chemical_formula_sum "Si O2"
_cell_formula_units_Z 52
_cell_length_a 17.949849
_cell_length_b 9.253155
_cell_length_c 13.900765
_cell_angle_alpha 90.000000
_cell_angle_beta 98.117044
_cell_angle_gamma 90.000000
_cell_volume 2285.685664
_symmetry_space_group_name_H-M "C 2/C"
_symmetry_group_IT_number 15
_symmetry_cell_setting 'monoclinic'
loop_
_space_group_symop_operation_xyz
x,y,z
-x,y,1/2-z
-x,-y,-z
x,-y,1/2+z
1/2+x,1/2+y,z
1/2-x,1/2+y,1/2-z
1/2-x,1/2-y,-z
1/2+x,1/2-y,1/2+z
loop_
_atom_site_type_symbol
_atom_site_label
_atom_site_fract_x
_atom_site_fract_y
_atom_site_fract_z
Si Si1 0.073299 0.917077 0.984780
Si Si2 0.840616 0.417446 0.177234
Si Si3 0.558234 0.898569 0.560644
Si Si4 0.000000 0.531049 0.250000
Si Si5 0.197967 0.087069 0.117129
Si Si6 0.333084 0.596590 0.165140
Si Si7 0.804303 0.414341 0.392131
O O1 0.059853 0.752635 0.009223
O O2 0.146206 0.974904 0.052712
O O3 0.086591 0.936050 0.871837
O O4 0.000000 0.000000 0.000000
O O5 0.786280 0.540966 0.120893
O O6 0.815617 0.262220 0.130818
O O7 0.820139 0.415210 0.283684
O O8 0.931541 0.441505 0.186118
O O9 0.539491 0.877055 0.671502
O O10 0.500000 0.000000 0.500000
O O11 0.635690 0.979642 0.548358
O O12 0.166855 0.079969 0.220611
O O13 0.191455 0.248108 0.071114
O O14 0.276617 0.484533 0.103223
#
# Coordination Sequence:
#
# PCOD8145362 Si02
#       7
#     8   8   8   4   8   8   8
#     4  12  27  41  60  93 124 162 213 255 305 369
#     4   9  19  38  65  94 122 163 205 242 305 371
#     4  11  23  40  62  91 127 164 208 254 306 373
#     4  10  22  38  64  94 128 164 200 256 310 356
#     4  10  22  41  65  93 125 159 205 255 303 370
#     4  10  22  41  64  87 124 164 200 255 310 359
#     4   9  20  39  63  92 122 159 208 252 302 368
#
# _framework density 22.750283
#
# number of rings (size 3 to 8) (size 9 to 14) (size 15 to 20)
#    0.000    1.846    0.000    2.769    0.000   13.538 
#    0.000    0.000    0.000    0.923    0.000    0.000 
#    0.000    0.000    0.000    0.000    0.000    0.000 
#
# Total GULP energy -322148.112740 kJ/mol
# GULP energy per Si atom -12390.312028 kJ/mol
# Density = 2.269850 g / cm^3
# Si number density = 22.750283 Si / 1000 Ang^3
#
#
#
# Elastic Constant Matrix: (Units=GPa)
#
#
# Indices 1 2 3 4 5 6 
#
# 1 137.7826 57.9645 39.0833 0.0000 -12.6021 0.0000
# 2 57.9645 148.4019 20.4783 0.0000 7.6075 0.0000
# 3 39.0833 20.4783 49.5905 0.0000 -14.6424 0.0000
# 4 0.0000 0.0000 0.0000 23.4397 0.0000 13.1531
# 5 -12.6021 7.6075 -14.6424 0.0000 45.5800 0.0000
# 6 0.0000 0.0000 0.0000 13.1531 0.0000 35.1937
#
#
#
# Elastic Compliance Matrix: (Units=1/GPa)
#
#
# Indices 1 2 3 4 5 6 
#
# 1 0.010659 -0.003320 -0.006624 0.000000 0.001373 0.000000
# 2 -0.003320 0.008418 -0.001708 0.000000 -0.002871 0.000000
# 3 -0.006624 -0.001708 0.028321 0.000000 0.007551 0.000000
# 4 0.000000 0.000000 0.000000 0.053984 0.000000 -0.020176
# 5 0.001373 -0.002871 0.007551 0.000000 0.025224 0.000000
# 6 0.000000 0.000000 0.000000 -0.020176 0.000000 0.035955
#
#
# Mechanical properties :
#
#
# Convention : Reuss Voigt Hill
#
# Bulk Modulus (GPa) = 41.50349 63.42522 52.46436
# Shear Modulus (GPa) = 25.78709 35.39260 30.58984
#
# Velocity S-wave (km/s) = 3.37038 3.94851 3.67085
# Velocity P-wave (km/s) = 5.78175 6.98048 6.40920
#
# Compressibility (1/GPa) = 0.02409436
#
# Stress axis : x y z
#
# Youngs Moduli (GPa) = 93.81764 118.79428 35.30975
#
# Poissons Ratio (x) = 0.39435 0.23390
# Poissons Ratio (y) = 0.31144 0.06030
# Poissons Ratio (z) = 0.62148 0.20287
#
# Static dielectric constant tensor:
#      x y z
#    x 5.143020 0.000000 0.002090 
#    y 0.000000 4.596990 0.000000 
#    z 0.002090 0.000000 4.479990 
# 
# 
# High freq. dielectric constant tensor:
#      x y z
#    x 1.906530 0.000000 -0.023540 
#    y 0.000000 1.896280 0.000000 
#    z -0.023540 0.000000 1.905450 
# 
# From -- ./inp_files/166318.got.cif
#   From: 2010.06.25/outbox.cif.g09.slc.cpg/sg15_84_cif.got.tgz:166318.got - 2010.06.28 07:06:18.
