data_PCOD8145560
_publ_section_title
;
Structure prediction by ZEFSAII (Michael W. Deem and Ramdas Pophale) SiO2 
 PCOD8145560
Probable space group: C 2/C
;
_chemical_formula_sum "Si O2"
_cell_formula_units_Z 40
_cell_length_a 30.301245
_cell_length_b 13.056299
_cell_length_c 5.341666
_cell_angle_alpha 90.000000
_cell_angle_beta 123.478489
_cell_angle_gamma 90.000000
_cell_volume 1762.673016
_symmetry_space_group_name_H-M "C 2/C"
_symmetry_group_IT_number 15
_symmetry_cell_setting 'monoclinic'
loop_
_space_group_symop_operation_xyz
x,y,z
-x,y,1/2-z
-x,-y,-z
x,-y,1/2+z
1/2+x,1/2+y,z
1/2-x,1/2+y,1/2-z
1/2-x,1/2-y,-z
1/2+x,1/2-y,1/2+z
loop_
_atom_site_type_symbol
_atom_site_label
_atom_site_fract_x
_atom_site_fract_y
_atom_site_fract_z
Si Si1 0.332036 0.438364 0.839551
Si Si2 0.558641 0.054820 0.186142
Si Si3 0.876992 0.722420 0.884526
Si Si4 0.476918 0.781274 0.427666
Si Si5 0.208671 0.438653 0.449505
O O1 0.347439 0.500219 0.637714
O O2 0.365437 0.334895 0.949331
O O3 0.270250 0.411188 0.646330
O O4 0.589133 0.164426 0.293858
O O5 0.495594 0.094266 0.984793
O O6 0.578638 0.997237 0.496451
O O7 0.822388 0.668128 0.640159
O O8 0.913665 0.724957 0.746403
O O9 0.500000 0.727367 0.750000
O O10 0.500000 0.728262 0.250000
O O11 0.192802 0.503488 0.644373
#
# Coordination Sequence:
#
# PCOD8145560 Si02
#       5
#     8   8   8   8   8
#     4  10  24  44  63  86 119 158 205 258 301 339
#     4  11  23  37  56  88 126 156 185 233 297 362
#     4  11  23  39  65  89 120 163 204 240 296 365
#     4  10  23  37  55  85 124 161 194 234 289 355
#     4  10  22  39  61  94 126 153 194 246 302 365
#
# _framework density 22.692809
#
# number of rings (size 3 to 8) (size 9 to 14) (size 15 to 20)
#    0.000    1.600    0.000    4.200    0.000   21.600 
#    0.000    6.000    0.000   15.600    0.000    0.000 
#    0.000    0.000    0.000    0.000    0.000    0.000 
#
# Total GULP energy -247932.754203 kJ/mol
# GULP energy per Si atom -12396.637710 kJ/mol
# Density = 2.264116 g / cm^3
# Si number density = 22.692809 Si / 1000 Ang^3
#
#
#
# Elastic Constant Matrix: (Units=GPa)
#
#
# Indices 1 2 3 4 5 6 
#
# 1 123.1247 78.8086 63.8246 0.0000 -26.1874 0.0000
# 2 78.8086 130.9706 53.4495 0.0000 -7.5057 0.0000
# 3 63.8246 53.4495 136.4482 0.0000 -51.1958 0.0000
# 4 0.0000 0.0000 0.0000 20.2668 0.0000 3.9321
# 5 -26.1874 -7.5057 -51.1958 0.0000 31.2224 0.0000
# 6 0.0000 0.0000 0.0000 3.9321 0.0000 32.3599
#
#
#
# Elastic Compliance Matrix: (Units=1/GPa)
#
#
# Indices 1 2 3 4 5 6 
#
# 1 0.016576 -0.009602 0.000931 0.000000 0.013121 0.000000
# 2 -0.009602 0.015880 -0.008624 0.000000 -0.018378 0.000000
# 3 0.000931 -0.008624 0.025435 0.000000 0.040414 0.000000
# 4 0.000000 0.000000 0.000000 0.050533 0.000000 -0.006140
# 5 0.013121 -0.018378 0.040414 0.000000 0.104882 0.000000
# 6 0.000000 0.000000 0.000000 -0.006140 0.000000 0.031649
#
#
# Mechanical properties :
#
#
# Convention : Reuss Voigt Hill
#
# Bulk Modulus (GPa) = 42.91933 86.96764 64.94349
# Shear Modulus (GPa) = 17.40268 29.73390 23.56829
#
# Velocity S-wave (km/s) = 2.77227 3.62370 3.22620
# Velocity P-wave (km/s) = 5.40384 7.47766 6.52368
#
# Compressibility (1/GPa) = 0.02329953
#
# Stress axis : x y z
#
# Youngs Moduli (GPa) = 60.32751 62.97381 39.31601
#
# Poissons Ratio (x) = 0.60469 -0.03660
# Poissons Ratio (y) = 0.57928 0.33907
# Poissons Ratio (z) = -0.05615 0.54310
#
# Static dielectric constant tensor:
#      x y z
#    x 4.420860 0.000000 -0.073860 
#    y 0.000000 3.695390 0.000000 
#    z -0.073860 0.000000 4.298900 
# 
# 
# High freq. dielectric constant tensor:
#      x y z
#    x 1.913290 0.000000 -0.009440 
#    y 0.000000 1.851670 0.000000 
#    z -0.009440 0.000000 1.908680 
# 
# From -- ./inp_files/18044.got.cif
#   From: 2010.06.25/outbox.cif.g09.slc.cpg/sg15_10_cif.got.tgz:18044.got - 2010.06.28 07:06:18.
