data_PCOD8145233
_publ_section_title
;
Structure prediction by ZEFSAII (Michael W. Deem and Ramdas Pophale) SiO2 
 PCOD8145233
Probable space group: C 2/C
;
_chemical_formula_sum "Si O2"
_cell_formula_units_Z 56
_cell_length_a 16.862034
_cell_length_b 16.506027
_cell_length_c 9.394901
_cell_angle_alpha 90.000000
_cell_angle_beta 98.018420
_cell_angle_gamma 90.000000
_cell_volume 2589.273043
_symmetry_space_group_name_H-M "C 2/C"
_symmetry_group_IT_number 15
_symmetry_cell_setting 'monoclinic'
loop_
_space_group_symop_operation_xyz
x,y,z
-x,y,1/2-z
-x,-y,-z
x,-y,1/2+z
1/2+x,1/2+y,z
1/2-x,1/2+y,1/2-z
1/2-x,1/2-y,-z
1/2+x,1/2-y,1/2+z
loop_
_atom_site_type_symbol
_atom_site_label
_atom_site_fract_x
_atom_site_fract_y
_atom_site_fract_z
Si Si1 0.089025 0.355214 0.740423
Si Si2 0.224764 0.928170 0.230890
Si Si3 0.730999 0.843409 0.979514
Si Si4 0.432388 0.673667 0.834715
Si Si5 0.069894 0.222933 0.363005
Si Si6 0.813492 0.109505 0.235591
Si Si7 0.320630 0.136140 0.503833
O O1 0.149050 0.374652 0.884486
O O2 0.095263 0.258122 0.738830
O O3 0.113426 0.397005 0.594391
O O4 0.000000 0.387044 0.750000
O O5 0.270386 0.881029 0.365424
O O6 0.143177 0.884530 0.163929
O O7 0.286172 0.928852 0.110533
O O8 0.200903 0.014383 0.290367
O O9 0.803746 0.875288 0.900878
O O10 0.750000 0.750000 0.000000
O O11 0.500000 0.633390 0.750000
O O12 0.468798 0.693174 0.998742
O O13 0.099894 0.142201 0.288223
O O14 0.141777 0.287196 0.404316
O O15 0.000000 0.263380 0.250000
O O16 0.751791 0.161174 0.120717
#
# Coordination Sequence:
#
# PCOD8145233 Si02
#       7
#     8   8   8   8   8   8   8
#     4   9  20  39  63  93 129 163 209 275 325 370
#     4  12  23  39  64  94 133 178 212 268 327 392
#     4  11  22  36  64  94 121 164 230 266 306 390
#     4  10  22  38  59  92 136 169 205 261 330 382
#     4  11  24  41  69  96 127 170 223 270 326 392
#     4  11  24  41  62  95 132 171 214 265 332 390
#     4  10  22  42  67  91 130 172 219 271 321 382
#
# _framework density 21.627692
#
# number of rings (size 3 to 8) (size 9 to 14) (size 15 to 20)
#    0.000    1.429    2.857    2.143    4.000    5.143 
#    0.000    1.429    0.000   22.286    0.000    0.000 
#    0.000    0.000    0.000    0.000    0.000    0.000 
#
# Total GULP energy -346942.348695 kJ/mol
# GULP energy per Si atom -12390.798168 kJ/mol
# Density = 2.157847 g / cm^3
# Si number density = 21.627692 Si / 1000 Ang^3
#
#
#
# Elastic Constant Matrix: (Units=GPa)
#
#
# Indices 1 2 3 4 5 6 
#
# 1 96.4393 10.1241 39.0636 0.0000 -12.3822 0.0000
# 2 10.1241 54.3872 13.5525 0.0000 5.7395 0.0000
# 3 39.0636 13.5525 122.1586 0.0000 0.0558 0.0000
# 4 0.0000 0.0000 0.0000 23.8686 0.0000 -3.1163
# 5 -12.3822 5.7395 0.0558 0.0000 32.6190 0.0000
# 6 0.0000 0.0000 0.0000 -3.1163 0.0000 16.1560
#
#
#
# Elastic Compliance Matrix: (Units=1/GPa)
#
#
# Indices 1 2 3 4 5 6 
#
# 1 0.012819 -0.001969 -0.003883 0.000000 0.005219 0.000000
# 2 -0.001969 0.019579 -0.001540 0.000000 -0.004190 0.000000
# 3 -0.003883 -0.001540 0.009599 0.000000 -0.001219 0.000000
# 4 0.000000 0.000000 0.000000 0.042978 0.000000 0.008290
# 5 0.005219 -0.004190 -0.001219 0.000000 0.033378 0.000000
# 6 0.000000 0.000000 0.000000 0.008290 0.000000 0.063496
#
#
# Mechanical properties :
#
#
# Convention : Reuss Voigt Hill
#
# Bulk Modulus (GPa) = 36.74906 44.27393 40.51150
# Shear Modulus (GPa) = 24.30657 28.54506 26.42581
#
# Velocity S-wave (km/s) = 3.35604 3.63690 3.49929
# Velocity P-wave (km/s) = 5.66091 6.17668 5.92441
#
# Compressibility (1/GPa) = 0.02721158
#
# Stress axis : x y z
#
# Youngs Moduli (GPa) = 78.00938 51.07430 104.17458
#
# Poissons Ratio (x) = 0.10059 0.40452
# Poissons Ratio (y) = 0.15363 0.16048
# Poissons Ratio (z) = 0.30292 0.07868
#
# Static dielectric constant tensor:
#      x y z
#    x 4.013230 0.000000 -0.186200 
#    y 0.000000 3.671950 0.000000 
#    z -0.186200 0.000000 4.038650 
# 
# 
# High freq. dielectric constant tensor:
#      x y z
#    x 1.844430 0.000000 -0.014160 
#    y 0.000000 1.813840 0.000000 
#    z -0.014160 0.000000 1.868250 
# 
# From -- ./inp_files/49160.got.cif
#   From: 2010.06.25/outbox.cif.g09.slc.cpg/sg15_25_cif.got.tgz:49160.got - 2010.06.28 07:06:18.
