data_PCOD8145148
_publ_section_title
;
Structure prediction by ZEFSAII (Michael W. Deem and Ramdas Pophale) SiO2 
 PCOD8145148
Probable space group: C 2/C
;
_chemical_formula_sum "Si O2"
_cell_formula_units_Z 56
_cell_length_a 16.593870
_cell_length_b 9.135088
_cell_length_c 25.416306
_cell_angle_alpha 90.000000
_cell_angle_beta 136.979073
_cell_angle_gamma 90.000000
_cell_volume 2628.610393
_symmetry_space_group_name_H-M "C 2/C"
_symmetry_group_IT_number 15
_symmetry_cell_setting 'monoclinic'
loop_
_space_group_symop_operation_xyz
x,y,z
-x,y,1/2-z
-x,-y,-z
x,-y,1/2+z
1/2+x,1/2+y,z
1/2-x,1/2+y,1/2-z
1/2-x,1/2-y,-z
1/2+x,1/2-y,1/2+z
loop_
_atom_site_type_symbol
_atom_site_label
_atom_site_fract_x
_atom_site_fract_y
_atom_site_fract_z
Si Si1 0.860109 0.498659 0.929524
Si Si2 0.932785 0.111498 0.864003
Si Si3 0.658856 0.252680 0.503006
Si Si4 0.790250 0.299173 0.306347
Si Si5 0.794931 0.962948 0.883093
Si Si6 0.320819 0.257462 0.650119
Si Si7 0.973783 0.835092 0.820165
O O1 0.812684 0.608230 0.950940
O O2 0.814966 0.554305 0.851247
O O3 0.806523 0.337988 0.915584
O O4 0.000000 0.500000 0.000000
O O5 0.808873 0.175630 0.784771
O O6 0.908521 0.033648 0.908523
O O7 0.987781 0.000577 0.847629
O O8 0.025032 0.243859 0.916504
O O9 0.750000 0.250000 0.500000
O O10 0.670776 0.398709 0.543938
O O11 0.745369 0.165928 0.321789
O O12 0.913672 0.262430 0.336736
O O13 0.695215 0.086184 0.844923
O O14 0.392193 0.338738 0.729849
O O15 0.396442 0.272296 0.632261
#
# Coordination Sequence:
#
# PCOD8145148 Si02
#       7
#     8   8   8   8   8   8   8
#     4  11  24  41  67  96 130 169 219 264 318 393
#     4  11  20  42  68  87 126 171 214 266 317 390
#     4  11  25  44  61  95 131 172 215 263 330 386
#     4  10  22  42  64  96 120 171 220 261 319 390
#     4  10  23  41  65  91 128 166 218 259 325 388
#     4  11  21  41  62  95 130 161 207 272 320 378
#     4  10  22  37  65  93 124 160 213 262 327 374
#
# _framework density 21.304031999999999
#
# number of rings (size 3 to 8) (size 9 to 14) (size 15 to 20)
#    0.000    1.429    2.857    2.143    0.000    3.429 
#    5.143    2.143    0.000    0.000    0.000    0.000 
#    0.000    0.000    0.000    0.000    0.000    0.000 
#
# Total GULP energy -347234.235185 kJ/mol
# GULP energy per Si atom -12401.222685 kJ/mol
# Density = 2.125554 g / cm^3
# Si number density = 21.304032 Si / 1000 Ang^3
#
#
#
# Elastic Constant Matrix: (Units=GPa)
#
#
# Indices 1 2 3 4 5 6 
#
# 1 136.3364 43.0875 36.3772 0.0000 2.2474 0.0000
# 2 43.0875 92.3890 21.5290 0.0000 0.2602 0.0000
# 3 36.3772 21.5290 89.2480 0.0000 3.0386 0.0000
# 4 0.0000 0.0000 0.0000 24.2626 0.0000 5.5616
# 5 2.2474 0.2602 3.0386 0.0000 31.3704 0.0000
# 6 0.0000 0.0000 0.0000 5.5616 0.0000 33.3632
#
#
#
# Elastic Compliance Matrix: (Units=1/GPa)
#
#
# Indices 1 2 3 4 5 6 
#
# 1 0.009263 -0.003647 -0.002884 0.000000 -0.000354 0.000000
# 2 -0.003647 0.012905 -0.001637 0.000000 0.000313 0.000000
# 3 -0.002884 -0.001637 0.012810 0.000000 -0.001021 0.000000
# 4 0.000000 0.000000 0.000000 0.042853 0.000000 -0.007144
# 5 -0.000354 0.000313 -0.001021 0.000000 0.031999 0.000000
# 6 0.000000 0.000000 0.000000 -0.007144 0.000000 0.031164
#
#
# Mechanical properties :
#
#
# Convention : Reuss Voigt Hill
#
# Bulk Modulus (GPa) = 53.64208 57.77343 55.70776
# Shear Modulus (GPa) = 30.57298 32.26456 31.41877
#
# Velocity S-wave (km/s) = 3.79235 3.89586 3.84445
# Velocity P-wave (km/s) = 6.66408 6.88581 6.77585
#
# Compressibility (1/GPa) = 0.01864208
#
# Stress axis : x y z
#
# Youngs Moduli (GPa) = 107.96128 77.48801 78.06520
#
# Poissons Ratio (x) = 0.28259 0.22511
# Poissons Ratio (y) = 0.39372 0.12782
# Poissons Ratio (z) = 0.31132 0.12687
#
# Static dielectric constant tensor:
#      x y z
#    x 4.004590 0.000000 -0.150370 
#    y 0.000000 3.982390 0.000000 
#    z -0.150370 0.000000 3.708270 
# 
# 
# High freq. dielectric constant tensor:
#      x y z
#    x 1.845410 0.000000 -0.008890 
#    y 0.000000 1.833300 0.000000 
#    z -0.008890 0.000000 1.824140 
# 
# From -- ./inp_files/298563.got.cif
#   From: 2010.06.25/outbox.cif.g09.slc.cpg/sg15_150_cif.got.tgz:298563.got - 2010.06.28 07:06:18.
