data_PCOD8145884
_publ_section_title
;
Structure prediction by ZEFSAII (Michael W. Deem and Ramdas Pophale) SiO2 
 PCOD8145884
Probable space group: C 2/C
;
_chemical_formula_sum "Si O2"
_cell_formula_units_Z 36
_cell_length_a 8.254849
_cell_length_b 13.030274
_cell_length_c 17.522022
_cell_angle_alpha 90.000000
_cell_angle_beta 104.959408
_cell_angle_gamma 90.000000
_cell_volume 1820.845123
_symmetry_space_group_name_H-M "C 2/C"
_symmetry_group_IT_number 15
_symmetry_cell_setting 'monoclinic'
loop_
_space_group_symop_operation_xyz
x,y,z
-x,y,1/2-z
-x,-y,-z
x,-y,1/2+z
1/2+x,1/2+y,z
1/2-x,1/2+y,1/2-z
1/2-x,1/2-y,-z
1/2+x,1/2-y,1/2+z
loop_
_atom_site_type_symbol
_atom_site_label
_atom_site_fract_x
_atom_site_fract_y
_atom_site_fract_z
Si Si1 0.897726 0.017874 0.369434
Si Si2 0.500000 0.629793 0.750000
Si Si3 0.265506 0.544982 0.012524
Si Si4 0.283686 0.217353 0.130591
Si Si5 0.942449 0.341755 0.501234
O O1 0.772978 0.112362 0.334008
O O2 0.081620 0.061710 0.410939
O O3 0.828181 0.954834 0.433209
O O4 0.906393 0.941072 0.299822
O O5 0.647678 0.700728 0.801169
O O6 0.176245 0.439574 0.025150
O O7 0.136144 0.637933 0.006809
O O8 0.430723 0.196840 0.086981
O O9 0.119554 0.255765 0.065220
#
# Coordination Sequence:
#
# PCOD8145884 Si02
#       5
#     8   4   8   8   8
#     4  10  22  40  62  89 122 163 206 251 316 368
#     4  12  24  44  58  86 142 166 188 278 302 360
#     4   9  18  38  67  91 117 155 209 264 301 365
#     4  10  22  40  62  89 121 165 205 248 324 364
#     4   9  18  38  67  91 115 156 209 261 304 369
#
# _framework density 19.771039999999999
#
# number of rings (size 3 to 8) (size 9 to 14) (size 15 to 20)
#    0.000    2.222    2.222    0.000    3.111    2.667 
#    8.000    0.000    0.000    0.000    0.000    0.000 
#    0.000    0.000    0.000    0.000    0.000    0.000 
#
# Total GULP energy -223236.220235 kJ/mol
# GULP energy per Si atom -12402.012235 kJ/mol
# Density = 1.972604 g / cm^3
# Si number density = 19.771040 Si / 1000 Ang^3
#
#
#
# Elastic Constant Matrix: (Units=GPa)
#
#
# Indices 1 2 3 4 5 6 
#
# 1 123.7763 49.1404 52.9471 0.0000 -1.3701 0.0000
# 2 49.1404 102.8111 63.2413 0.0000 -6.2535 0.0000
# 3 52.9471 63.2413 99.0977 0.0000 -7.5577 0.0000
# 4 0.0000 0.0000 0.0000 34.5556 0.0000 -4.0681
# 5 -1.3701 -6.2535 -7.5577 0.0000 15.2266 0.0000
# 6 0.0000 0.0000 0.0000 -4.0681 0.0000 37.4333
#
#
#
# Elastic Compliance Matrix: (Units=1/GPa)
#
#
# Indices 1 2 3 4 5 6 
#
# 1 0.010978 -0.002750 -0.004283 0.000000 -0.002268 0.000000
# 2 -0.002750 0.016737 -0.009049 0.000000 0.002135 0.000000
# 3 -0.004283 -0.009049 0.018543 0.000000 0.005102 0.000000
# 4 0.000000 0.000000 0.000000 0.029314 0.000000 0.003186
# 5 -0.002268 0.002135 0.005102 0.000000 0.068880 0.000000
# 6 0.000000 0.000000 0.000000 0.003186 0.000000 0.027060
#
#
# Mechanical properties :
#
#
# Convention : Reuss Voigt Hill
#
# Bulk Modulus (GPa) = 70.95361 72.92698 71.94029
# Shear Modulus (GPa) = 23.99510 28.13353 26.06432
#
# Velocity S-wave (km/s) = 3.48753 3.77632 3.63479
# Velocity P-wave (km/s) = 7.22376 7.48197 7.35400
#
# Compressibility (1/GPa) = 0.01409372
#
# Stress axis : x y z
#
# Youngs Moduli (GPa) = 91.08996 59.74727 53.92761
#
# Poissons Ratio (x) = 0.16433 0.23099
# Poissons Ratio (y) = 0.25054 0.48798
# Poissons Ratio (z) = 0.39016 0.54064
#
# Static dielectric constant tensor:
#      x y z
#    x 3.631070 0.000000 -0.082560 
#    y 0.000000 3.662570 0.000000 
#    z -0.082560 0.000000 3.361970 
# 
# 
# High freq. dielectric constant tensor:
#      x y z
#    x 1.771630 0.000000 -0.002620 
#    y 0.000000 1.778820 0.000000 
#    z -0.002620 0.000000 1.749590 
# 
# From -- ./inp_files/187577.got.cif
#   From: 2010.06.25/outbox.cif.g09.slc.cpg/sg15_94_cif.got.tgz:187577.got - 2010.06.28 07:06:18.
