data_PCOD8145330
_publ_section_title
;
Structure prediction by ZEFSAII (Michael W. Deem and Ramdas Pophale) SiO2 
 PCOD8145330
Probable space group: C 2/C
;
_chemical_formula_sum "Si O2"
_cell_formula_units_Z 48
_cell_length_a 8.067229
_cell_length_b 28.882436
_cell_length_c 13.043695
_cell_angle_alpha 90.000000
_cell_angle_beta 44.541071
_cell_angle_gamma 90.000000
_cell_volume 2131.754594
_symmetry_space_group_name_H-M "C 2/C"
_symmetry_group_IT_number 15
_symmetry_cell_setting 'monoclinic'
loop_
_space_group_symop_operation_xyz
x,y,z
-x,y,1/2-z
-x,-y,-z
x,-y,1/2+z
1/2+x,1/2+y,z
1/2-x,1/2+y,1/2-z
1/2-x,1/2-y,-z
1/2+x,1/2-y,1/2+z
loop_
_atom_site_type_symbol
_atom_site_label
_atom_site_fract_x
_atom_site_fract_y
_atom_site_fract_z
Si Si1 0.504224 0.154058 0.044591
Si Si2 0.685873 0.623526 0.760167
Si Si3 0.802411 0.768271 0.761511
Si Si4 0.911896 0.470840 0.181150
Si Si5 0.268137 0.939097 0.637173
Si Si6 0.933300 0.803583 0.480226
O O1 0.270276 0.184823 0.147675
O O2 0.434398 0.101762 0.111525
O O3 0.591974 0.150804 0.887882
O O4 0.684232 0.180792 0.041410
O O5 0.500000 0.622267 0.750000
O O6 0.733288 0.571705 0.775058
O O7 0.595258 0.650141 0.901786
O O8 0.902985 0.781980 0.605729
O O9 0.574974 0.734370 0.849360
O O10 0.000000 0.745605 0.750000
O O11 0.770036 0.514627 0.202637
O O12 0.000000 0.488381 0.250000
O O13 0.133370 0.453967 0.016777
O O14 0.000000 0.920910 0.750000
#
# Coordination Sequence:
#
# PCOD8145330 Si02
#       6
#     8   8   8   8   8   8
#     4  10  22  41  63  89 123 164 212 261 315 375
#     4   9  20  40  64  89 121 162 208 260 315 374
#     4  12  25  41  62  92 126 164 209 260 318 380
#     4  10  22  38  63  95 128 168 212 258 317 378
#     4  10  22  42  64  92 131 169 212 266 315 371
#     4  11  24  42  66  91 124 167 213 260 317 383
#
# _framework density 22.516663999999999
#
# number of rings (size 3 to 8) (size 9 to 14) (size 15 to 20)
#    0.000    1.667    0.000    3.500    0.000   10.667 
#    0.000    0.000    0.000    0.000    0.000    0.000 
#    0.000    0.000    0.000    0.000    0.000    0.000 
#
# Total GULP energy -297416.721675 kJ/mol
# GULP energy per Si atom -12392.363403 kJ/mol
# Density = 2.246541 g / cm^3
# Si number density = 22.516664 Si / 1000 Ang^3
#
#
#
# Elastic Constant Matrix: (Units=GPa)
#
#
# Indices 1 2 3 4 5 6 
#
# 1 91.8295 46.6182 51.7691 0.0000 9.6644 0.0000
# 2 46.6182 129.0753 61.3894 0.0000 -7.1495 0.0000
# 3 51.7691 61.3894 106.6350 0.0000 -8.1346 0.0000
# 4 0.0000 0.0000 0.0000 6.5603 0.0000 31.6326
# 5 9.6644 -7.1495 -8.1346 0.0000 23.6824 0.0000
# 6 0.0000 0.0000 0.0000 31.6326 0.0000 -20.6462
#
#
#
# Elastic Compliance Matrix: (Units=1/GPa)
#
#
# Indices 1 2 3 4 5 6 
#
# 1 0.018152 -0.003548 -0.007616 0.000000 -0.011095 0.000000
# 2 -0.003548 0.011392 -0.004583 0.000000 0.003313 0.000000
# 3 -0.007616 -0.004583 0.016272 0.000000 0.007314 0.000000
# 4 0.000000 0.000000 0.000000 0.018173 0.000000 0.027844
# 5 -0.011095 0.003313 0.007314 0.000000 0.050265 0.000000
# 6 0.000000 0.000000 0.000000 0.027844 0.000000 -0.005775
#
#
# Mechanical properties :
#
#
# Convention : Reuss Voigt Hill
#
# Bulk Modulus (GPa) = 69.82739 71.89923 70.86331
# Shear Modulus (GPa) = 34.54239 13.10350 23.82294
#
# Velocity S-wave (km/s) = 3.92098 2.41497 3.25624
# Velocity P-wave (km/s) = 7.18175 6.30690 6.75850
#
# Compressibility (1/GPa) = 0.01432103
#
# Stress axis : x y z
#
# Youngs Moduli (GPa) = 55.08901 87.77903 61.45630
#
# Poissons Ratio (x) = 0.31147 0.46807
# Poissons Ratio (y) = 0.19547 0.28166
# Poissons Ratio (z) = 0.41957 0.40230
#
# Static dielectric constant tensor:
#      x y z
#    x 3.681410 0.000000 -0.279670 
#    y 0.000000 4.287950 0.000000 
#    z -0.279670 0.000000 4.483110 
# 
# 
# High freq. dielectric constant tensor:
#      x y z
#    x 1.857760 0.000000 -0.012890 
#    y 0.000000 1.906990 0.000000 
#    z -0.012890 0.000000 1.898670 
# 
# From -- ./inp_files/138887.got.cif
#   From: 2010.06.25/outbox.cif.g09.slc.cpg/sg15_70_cif.got.tgz:138887.got - 2010.06.28 07:06:18.
