data_PCOD8145551
_publ_section_title
;
Structure prediction by ZEFSAII (Michael W. Deem and Ramdas Pophale) SiO2 
 PCOD8145551
Probable space group: C 2/C
;
_chemical_formula_sum "Si O2"
_cell_formula_units_Z 56
_cell_length_a 16.839049
_cell_length_b 24.288521
_cell_length_c 9.147009
_cell_angle_alpha 90.000000
_cell_angle_beta 128.807875
_cell_angle_gamma 90.000000
_cell_volume 2915.248432
_symmetry_space_group_name_H-M "C 2/C"
_symmetry_group_IT_number 15
_symmetry_cell_setting 'monoclinic'
loop_
_space_group_symop_operation_xyz
x,y,z
-x,y,1/2-z
-x,-y,-z
x,-y,1/2+z
1/2+x,1/2+y,z
1/2-x,1/2+y,1/2-z
1/2-x,1/2-y,-z
1/2+x,1/2-y,1/2+z
loop_
_atom_site_type_symbol
_atom_site_label
_atom_site_fract_x
_atom_site_fract_y
_atom_site_fract_z
Si Si1 0.000000 0.353425 0.250000
Si Si2 0.821212 0.428031 0.990979
Si Si3 0.110692 0.511416 0.195826
Si Si4 0.500000 0.094566 0.250000
Si Si5 0.994479 0.795475 0.084435
Si Si6 0.195009 0.777957 0.134510
Si Si7 0.685213 0.325502 0.814199
Si Si8 0.408237 0.818120 0.433146
O O1 0.079732 0.391474 0.427104
O O2 0.054991 0.315413 0.193477
O O3 0.836948 0.459084 0.164342
O O4 0.811813 0.469550 0.842628
O O5 0.724579 0.387522 0.885988
O O6 0.093683 0.558233 0.298113
O O7 0.000000 0.500000 0.000000
O O8 0.549900 0.128682 0.438003
O O9 0.000000 0.824450 0.250000
O O10 0.105905 0.787003 0.146787
O O11 0.919510 0.831458 0.897046
O O12 0.946017 0.735867 0.058077
O O13 0.231793 0.713712 0.173150
O O14 0.285995 0.818369 0.289578
O O15 0.155475 0.795833 0.930281
#
# Coordination Sequence:
#
# PCOD8145551 Si02
#       8
#     4   8   8   4   8   8   8   8
#     4  12  19  34  60  84 132 160 202 233 304 362
#     4  12  22  37  58  89 125 163 198 249 304 373
#     4  12  22  35  54  85 128 159 199 244 301 371
#     4  12  21  36  54  90 126 164 192 245 316 360
#     4  11  24  41  57  88 131 161 206 261 303 368
#     4  10  22  39  61  91 119 164 215 245 298 376
#     4  10  23  39  63  88 119 166 210 251 304 364
#     4  11  23  35  60  92 126 169 198 247 306 371
#
# _framework density 19.209341999999999
#
# number of rings (size 3 to 8) (size 9 to 14) (size 15 to 20)
#    0.000    0.857    6.429    1.286    4.000    3.429 
#    0.000    0.000    0.000    0.000    0.000   14.000 
#    0.000    0.000    0.000    0.000    0.000    0.000 
#
# Total GULP energy -347207.489234 kJ/mol
# GULP energy per Si atom -12400.267473 kJ/mol
# Density = 1.916562 g / cm^3
# Si number density = 19.209342 Si / 1000 Ang^3
#
#
#
# Elastic Constant Matrix: (Units=GPa)
#
#
# Indices 1 2 3 4 5 6 
#
# 1 91.1562 13.6747 52.4536 0.0000 -2.6608 0.0000
# 2 13.6747 75.0239 37.8752 0.0000 1.6425 0.0000
# 3 52.4536 37.8752 114.0118 0.0000 -0.3897 0.0000
# 4 0.0000 0.0000 0.0000 40.8178 0.0000 1.1170
# 5 -2.6608 1.6425 -0.3897 0.0000 27.8267 0.0000
# 6 0.0000 0.0000 0.0000 1.1170 0.0000 24.7860
#
#
#
# Elastic Compliance Matrix: (Units=1/GPa)
#
#
# Indices 1 2 3 4 5 6 
#
# 1 0.015016 0.000866 -0.007192 0.000000 0.001284 0.000000
# 2 0.000866 0.016094 -0.005748 0.000000 -0.000948 0.000000
# 3 -0.007192 -0.005748 0.013989 0.000000 -0.000152 0.000000
# 4 0.000000 0.000000 0.000000 0.024529 0.000000 -0.001105
# 5 0.001284 -0.000948 -0.000152 0.000000 0.036113 0.000000
# 6 0.000000 0.000000 0.000000 -0.001105 0.000000 0.040395
#
#
# Mechanical properties :
#
#
# Convention : Reuss Voigt Hill
#
# Bulk Modulus (GPa) = 47.73134 54.24431 50.98783
# Shear Modulus (GPa) = 28.20591 30.43200 29.31896
#
# Velocity S-wave (km/s) = 3.83605 3.98456 3.91101
# Velocity P-wave (km/s) = 6.67251 7.03340 6.85533
#
# Compressibility (1/GPa) = 0.02095060
#
# Stress axis : x y z
#
# Youngs Moduli (GPa) = 66.59540 62.13553 71.48671
#
# Poissons Ratio (x) = -0.05378 0.51410
# Poissons Ratio (y) = -0.05764 0.41090
# Poissons Ratio (z) = 0.47893 0.35715
#
# Static dielectric constant tensor:
#      x y z
#    x 3.315220 0.000000 -0.121930 
#    y 0.000000 3.460610 0.000000 
#    z -0.121930 0.000000 3.653000 
# 
# 
# High freq. dielectric constant tensor:
#      x y z
#    x 1.723980 0.000000 -0.017820 
#    y 0.000000 1.729650 0.000000 
#    z -0.017820 0.000000 1.756500 
# 
# From -- ./inp_files/42771.got.cif
#   From: 2010.06.25/outbox.cif.g09.slc.cpg/sg15_22_cif.got.tgz:42771.got - 2010.06.28 07:06:18.
