data_PCOD8145636
_publ_section_title
;
Structure prediction by ZEFSAII (Michael W. Deem and Ramdas Pophale) SiO2 
 PCOD8145636
Probable space group: C 2/C
;
_chemical_formula_sum "Si O2"
_cell_formula_units_Z 36
_cell_length_a 14.615763
_cell_length_b 18.678855
_cell_length_c 5.034396
_cell_angle_alpha 90.000000
_cell_angle_beta 86.461565
_cell_angle_gamma 90.000000
_cell_volume 1371.798731
_symmetry_space_group_name_H-M "C 2/C"
_symmetry_group_IT_number 15
_symmetry_cell_setting 'monoclinic'
loop_
_space_group_symop_operation_xyz
x,y,z
-x,y,1/2-z
-x,-y,-z
x,-y,1/2+z
1/2+x,1/2+y,z
1/2-x,1/2+y,1/2-z
1/2-x,1/2-y,-z
1/2+x,1/2-y,1/2+z
loop_
_atom_site_type_symbol
_atom_site_label
_atom_site_fract_x
_atom_site_fract_y
_atom_site_fract_z
Si Si1 0.601335 0.046665 0.176980
Si Si2 0.000000 0.164566 0.250000
Si Si3 0.830483 0.249405 0.195990
Si Si4 0.897498 0.046441 0.580896
Si Si5 0.728855 0.869489 0.994211
O O1 0.500000 0.077696 0.250000
O O2 0.675414 0.107067 0.236986
O O3 0.615420 0.977861 0.370891
O O4 0.071057 0.215800 0.401874
O O5 0.045409 0.115849 0.013296
O O6 0.799585 0.194856 0.432310
O O7 0.843659 0.332477 0.288965
O O8 0.750000 0.250000 0.000000
O O9 0.788257 0.063856 0.595099
O O10 0.920344 0.020219 0.876728
#
# Coordination Sequence:
#
# PCOD8145636 Si02
#       5
#     8   4   8   8   8
#     4  10  22  39  63  96 131 170 222 284 343 409
#     4  10  24  46  68 104 142 180 242 284 354 426
#     4  10  24  44  66  96 135 186 234 289 338 419
#     4  11  24  43  73 105 138 179 224 293 356 417
#     4  10  23  41  64  97 132 180 233 281 349 414
#
# _framework density 26.242916000000001
#
# number of rings (size 3 to 8) (size 9 to 14) (size 15 to 20)
#    0.000    1.778    0.000    2.000    9.333    1.778 
#   10.000    0.000    0.000    0.000    0.000    0.000 
#    0.000    0.000    0.000    0.000    0.000    0.000 
#
# Total GULP energy -223052.997620 kJ/mol
# GULP energy per Si atom -12391.833201 kJ/mol
# Density = 2.618319 g / cm^3
# Si number density = 26.242916 Si / 1000 Ang^3
#
#
#
# Elastic Constant Matrix: (Units=GPa)
#
#
# Indices 1 2 3 4 5 6 
#
# 1 136.3754 55.1752 14.8329 0.0000 22.7483 0.0000
# 2 55.1752 107.7696 20.4731 0.0000 1.5331 0.0000
# 3 14.8329 20.4731 78.8920 0.0000 23.8158 0.0000
# 4 0.0000 0.0000 0.0000 26.2842 0.0000 3.3924
# 5 22.7483 1.5331 23.8158 0.0000 39.9857 0.0000
# 6 0.0000 0.0000 0.0000 3.3924 0.0000 50.0387
#
#
#
# Elastic Compliance Matrix: (Units=1/GPa)
#
#
# Indices 1 2 3 4 5 6 
#
# 1 0.010543 -0.005584 0.001479 0.000000 -0.006664 0.000000
# 2 -0.005584 0.012781 -0.003753 0.000000 0.004922 0.000000
# 3 0.001479 -0.003753 0.016559 0.000000 -0.010560 0.000000
# 4 0.000000 0.000000 0.000000 0.038381 0.000000 -0.002602
# 5 -0.006664 0.004922 -0.010560 0.000000 0.034901 0.000000
# 6 0.000000 0.000000 0.000000 -0.002602 0.000000 0.020161
#
#
# Mechanical properties :
#
#
# Convention : Reuss Voigt Hill
#
# Bulk Modulus (GPa) = 41.37813 55.99993 48.68903
# Shear Modulus (GPa) = 31.82744 38.76545 35.29645
#
# Velocity S-wave (km/s) = 3.48631 3.84758 3.67139
# Velocity P-wave (km/s) = 5.65751 6.41279 6.04695
#
# Compressibility (1/GPa) = 0.02416735
#
# Stress axis : x y z
#
# Youngs Moduli (GPa) = 94.85351 78.24366 60.38913
#
# Poissons Ratio (x) = 0.43688 -0.08930
# Poissons Ratio (y) = 0.52963 0.22662
# Poissons Ratio (z) = -0.14026 0.29362
#
# Static dielectric constant tensor:
#      x y z
#    x 5.258060 0.000000 -0.060960 
#    y 0.000000 5.182240 0.000000 
#    z -0.060960 0.000000 4.324400 
# 
# 
# High freq. dielectric constant tensor:
#      x y z
#    x 2.069870 0.000000 0.009960 
#    y 0.000000 2.053220 0.000000 
#    z 0.009960 0.000000 2.027310 
# 
# From -- ./inp_files/6890.got.cif
#   From: 2010.06.25/outbox.cif.g09.slc.cpg/sg15_4_cif.got.tgz:6890.got - 2010.06.28 07:06:18.
