data_PCOD8145780
_publ_section_title
;
Structure prediction by ZEFSAII (Michael W. Deem and Ramdas Pophale) SiO2 
 PCOD8145780
Probable space group: C 2/C
;
_chemical_formula_sum "Si O2"
_cell_formula_units_Z 36
_cell_length_a 23.192945
_cell_length_b 7.304803
_cell_length_c 31.095298
_cell_angle_alpha 90.000000
_cell_angle_beta 159.283655
_cell_angle_gamma 90.000000
_cell_volume 1863.568550
_symmetry_space_group_name_H-M "C 2/C"
_symmetry_group_IT_number 15
_symmetry_cell_setting 'monoclinic'
loop_
_space_group_symop_operation_xyz
x,y,z
-x,y,1/2-z
-x,-y,-z
x,-y,1/2+z
1/2+x,1/2+y,z
1/2-x,1/2+y,1/2-z
1/2-x,1/2-y,-z
1/2+x,1/2-y,1/2+z
loop_
_atom_site_type_symbol
_atom_site_label
_atom_site_fract_x
_atom_site_fract_y
_atom_site_fract_z
Si Si1 0.808794 0.584556 0.961473
Si Si2 0.086705 0.490558 0.722119
Si Si3 0.790673 0.668008 0.375592
Si Si4 0.866070 0.721061 0.912915
Si Si5 0.500000 0.187696 0.250000
O O1 0.763337 0.392026 0.906289
O O2 0.889432 0.717902 0.981388
O O3 0.647809 0.681110 0.867850
O O4 0.927027 0.541966 0.083034
O O5 0.142686 0.702050 0.758011
O O6 0.231822 0.366404 0.804588
O O7 0.049174 0.441065 0.744982
O O8 0.801834 0.483181 0.353875
O O9 0.964551 0.772600 0.492169
#
# Coordination Sequence:
#
# PCOD8145780 Si02
#       5
#     8   8   8   8   4
#     4   9  20  38  58  79 113 146 185 226 277 323
#     4  11  20  37  60  80 109 155 183 218 288 322
#     4   9  19  39  54  88 114 137 182 234 269 337
#     4   8  19  39  55  84 122 131 179 239 267 332
#     4  10  22  40  54  80 116 144 192 242 256 322
#
# _framework density 19.317775000000001
#
# number of rings (size 3 to 8) (size 9 to 14) (size 15 to 20)
#    1.333    1.333    0.000    1.333    0.000    2.667 
#    8.000    2.222    0.000    0.000    0.000    0.000 
#    0.000    0.000    0.000    0.000    0.000    0.000 
#
# Total GULP energy -223021.908213 kJ/mol
# GULP energy per Si atom -12390.106012 kJ/mol
# Density = 1.927381 g / cm^3
# Si number density = 19.317775 Si / 1000 Ang^3
#
#
#
# Elastic Constant Matrix: (Units=GPa)
#
#
# Indices 1 2 3 4 5 6 
#
# 1 40.9166 18.5058 15.4888 -0.0010 14.4059 0.0140
# 2 18.5058 66.9566 44.3247 -0.0081 2.2823 0.0181
# 3 15.4888 44.3247 99.7741 0.0131 -6.0950 0.0095
# 4 -0.0010 -0.0081 0.0131 28.5679 0.0094 2.6465
# 5 14.4059 2.2823 -6.0950 0.0094 26.1312 -0.0014
# 6 0.0140 0.0181 0.0095 2.6465 -0.0014 20.6870
#
#
#
# Elastic Compliance Matrix: (Units=1/GPa)
#
#
# Indices 1 2 3 4 5 6 
#
# 1 0.036041 -0.006734 -0.003836 0.000010 -0.020176 -0.000019
# 2 -0.006734 0.022857 -0.009134 0.000012 -0.000414 -0.000013
# 3 -0.003836 -0.009134 0.015069 -0.000012 0.006427 0.000006
# 4 0.000010 0.000012 -0.000012 0.035424 -0.000022 -0.004532
# 5 -0.020176 -0.000414 0.006427 -0.000022 0.050926 0.000017
# 6 -0.000019 -0.000013 0.000006 -0.004532 0.000017 0.048919
#
#
# Mechanical properties :
#
#
# Convention : Reuss Voigt Hill
#
# Bulk Modulus (GPa) = 28.93649 40.47621 34.70635
# Shear Modulus (GPa) = 19.21859 23.69908 21.45883
#
# Velocity S-wave (km/s) = 3.15757 3.50637 3.33653
# Velocity P-wave (km/s) = 5.32028 6.11483 5.73134
#
# Compressibility (1/GPa) = 0.03455844
#
# Stress axis : x y z
#
# Youngs Moduli (GPa) = 27.74608 43.74987 66.36312
#
# Poissons Ratio (x) = 0.29462 0.25455
# Poissons Ratio (y) = 0.18685 0.60618
# Poissons Ratio (z) = 0.10643 0.39962
#
# Static dielectric constant tensor:
#      x y z
#    x 3.357340 -0.000010 0.218740 
#    y -0.000010 3.418530 0.000000 
#    z 0.218740 0.000000 3.200500 
# 
# 
# High freq. dielectric constant tensor:
#      x y z
#    x 1.741550 0.000000 0.021010 
#    y 0.000000 1.744060 0.000000 
#    z 0.021010 0.000000 1.730730 
# 
# From -- ./inp_files/59868.got.cif
#   From: 2010.06.25/outbox.cif.g09.slc.cpg/sg15_30_cif.got.tgz:59868.got - 2010.06.28 07:06:18.
