data_PCOD8145649
_publ_section_title
;
Structure prediction by ZEFSAII (Michael W. Deem and Ramdas Pophale) SiO2 
 PCOD8145649
Probable space group: C 2/C
;
_chemical_formula_sum "Si O2"
_cell_formula_units_Z 32
_cell_length_a 5.211468
_cell_length_b 22.700103
_cell_length_c 17.989908
_cell_angle_alpha 90.000000
_cell_angle_beta 128.067453
_cell_angle_gamma 90.000000
_cell_volume 1675.517797
_symmetry_space_group_name_H-M "C 2/C"
_symmetry_group_IT_number 15
_symmetry_cell_setting 'monoclinic'
loop_
_space_group_symop_operation_xyz
x,y,z
-x,y,1/2-z
-x,-y,-z
x,-y,1/2+z
1/2+x,1/2+y,z
1/2-x,1/2+y,1/2-z
1/2-x,1/2-y,-z
1/2+x,1/2-y,1/2+z
loop_
_atom_site_type_symbol
_atom_site_label
_atom_site_fract_x
_atom_site_fract_y
_atom_site_fract_z
Si Si1 0.377263 0.477120 0.309962
Si Si2 0.721391 0.319257 0.001589
Si Si3 0.113757 0.106497 0.350161
Si Si4 0.775235 0.882143 0.032562
O O1 0.500000 0.460039 0.250000
O O2 0.437762 0.545430 0.338030
O O3 0.563905 0.440158 0.405547
O O4 0.000000 0.462155 0.250000
O O5 0.514988 0.344952 0.894450
O O6 0.750000 0.250000 0.000000
O O7 0.545456 0.338805 0.045834
O O8 0.087622 0.346236 0.064359
O O9 0.508136 0.097491 0.422877
O O10 0.000000 0.130355 0.250000
#
# Coordination Sequence:
#
# PCOD8145649 Si02
#       4
#     8   8   8   8
#     4  11  23  38  61  93 129 158 205 250 310 372
#     4  10  22  39  64  85 121 159 211 249 301 357
#     4   9  23  37  64  90 124 158 205 248 307 367
#     4  10  22  39  65  83 126 157 204 250 314 348
#
# _framework density 19.098572999999998
#
# number of rings (size 3 to 8) (size 9 to 14) (size 15 to 20)
#    1.500    0.500    0.000    3.000    7.000    1.000 
#    0.000    3.750    5.500    0.000    0.000    0.000 
#    0.000    0.000    0.000    0.000    0.000    0.000 
#
# Total GULP energy -198295.596850 kJ/mol
# GULP energy per Si atom -12393.474803 kJ/mol
# Density = 1.905510 g / cm^3
# Si number density = 19.098573 Si / 1000 Ang^3
#
#
#
# Elastic Constant Matrix: (Units=GPa)
#
#
# Indices 1 2 3 4 5 6 
#
# 1 136.5226 24.6422 36.0836 0.0000 9.0806 0.0000
# 2 24.6422 85.7905 46.5420 0.0000 -5.4668 0.0000
# 3 36.0836 46.5420 98.3408 0.0000 3.5667 0.0000
# 4 0.0000 0.0000 0.0000 9.3730 0.0000 10.4107
# 5 9.0806 -5.4668 3.5667 0.0000 22.7005 0.0000
# 6 0.0000 0.0000 0.0000 10.4107 0.0000 -14.6350
#
#
#
# Elastic Compliance Matrix: (Units=1/GPa)
#
#
# Indices 1 2 3 4 5 6 
#
# 1 0.008405 -0.001371 -0.002315 0.000000 -0.003329 0.000000
# 2 -0.001371 0.016485 -0.007506 0.000000 0.005698 0.000000
# 3 -0.002315 -0.007506 0.014686 0.000000 -0.003189 0.000000
# 4 0.000000 0.000000 0.000000 0.059599 0.000000 0.042396
# 5 -0.003329 0.005698 -0.003189 0.000000 0.047257 0.000000
# 6 0.000000 0.000000 0.000000 0.042396 0.000000 -0.038170
#
#
# Mechanical properties :
#
#
# Convention : Reuss Voigt Hill
#
# Bulk Modulus (GPa) = 58.15896 59.46551 58.81224
# Shear Modulus (GPa) = 36.66356 17.71342 27.18849
#
# Velocity S-wave (km/s) = 4.38619 3.04875 3.77714
# Velocity P-wave (km/s) = 7.49464 6.60279 7.06281
#
# Compressibility (1/GPa) = 0.01719425
#
# Stress axis : x y z
#
# Youngs Moduli (GPa) = 118.97115 60.66152 68.09271
#
# Poissons Ratio (x) = 0.08315 0.15761
# Poissons Ratio (y) = 0.16308 0.51107
# Poissons Ratio (z) = 0.27538 0.45530
#
# Static dielectric constant tensor:
#      x y z
#    x 3.709780 0.000000 0.074340 
#    y 0.000000 3.230550 0.000000 
#    z 0.074340 0.000000 3.428250 
# 
# 
# High freq. dielectric constant tensor:
#      x y z
#    x 1.752780 0.000000 0.003570 
#    y 0.000000 1.732800 0.000000 
#    z 0.003570 0.000000 1.727390 
# 
# From -- ./inp_files/72096.got.cif
#   From: 2010.06.25/outbox.cif.g09.slc.cpg/sg15_37_cif.got.tgz:72096.got - 2010.06.28 07:06:18.
