data_PCOD8145559
_publ_section_title
;
Structure prediction by ZEFSAII (Michael W. Deem and Ramdas Pophale) SiO2 
 PCOD8145559
Probable space group: C 2/C
;
_chemical_formula_sum "Si O2"
_cell_formula_units_Z 48
_cell_length_a 15.976786
_cell_length_b 19.519029
_cell_length_c 12.533444
_cell_angle_alpha 90.000000
_cell_angle_beta 34.039293
_cell_angle_gamma 90.000000
_cell_volume 2187.867096
_symmetry_space_group_name_H-M "C 2/C"
_symmetry_group_IT_number 15
_symmetry_cell_setting 'monoclinic'
loop_
_space_group_symop_operation_xyz
x,y,z
-x,y,1/2-z
-x,-y,-z
x,-y,1/2+z
1/2+x,1/2+y,z
1/2-x,1/2+y,1/2-z
1/2-x,1/2-y,-z
1/2+x,1/2-y,1/2+z
loop_
_atom_site_type_symbol
_atom_site_label
_atom_site_fract_x
_atom_site_fract_y
_atom_site_fract_z
Si Si1 0.467732 0.872436 0.660630
Si Si2 0.756255 0.377982 0.262171
Si Si3 0.481818 0.277211 0.051805
Si Si4 0.499929 0.539082 0.129003
Si Si5 0.122656 0.286866 0.199702
Si Si6 0.349870 0.590538 0.092023
O O1 0.500000 0.884941 0.750000
O O2 0.608877 0.906683 0.451897
O O3 0.464805 0.791313 0.638755
O O4 0.318428 0.911348 0.777308
O O5 0.682597 0.310726 0.284556
O O6 0.637517 0.436494 0.409468
O O7 0.816984 0.355770 0.312331
O O8 0.546942 0.263751 0.865341
O O9 0.593704 0.331979 0.987102
O O10 0.500000 0.568396 0.250000
O O11 0.356527 0.566311 0.211657
O O12 0.533621 0.457747 0.097273
O O13 0.000000 0.314812 0.250000
O O14 0.250000 0.250000 0.000000
#
# Coordination Sequence:
#
# PCOD8145559 Si02
#       6
#     8   8   8   8   8   8
#     4  11  24  41  64  95 134 171 210 275 332 376
#     4  10  23  38  59  95 128 164 225 269 319 392
#     4  10  22  39  61  93 131 167 219 266 316 402
#     4  10  24  45  70  92 125 175 218 268 321 390
#     4  11  21  33  59  94 131 172 207 269 336 387
#     4  10  24  43  65  93 130 170 224 262 312 401
#
# _framework density 21.939174000000001
#
# number of rings (size 3 to 8) (size 9 to 14) (size 15 to 20)
#    0.000    1.667    1.667    2.000    7.000    8.000 
#    0.000    0.833    0.000    0.000    0.000    0.000 
#    0.000    0.000    0.000    0.000    0.000    0.000 
#
# Total GULP energy -297410.812833 kJ/mol
# GULP energy per Si atom -12392.117201 kJ/mol
# Density = 2.188924 g / cm^3
# Si number density = 21.939174 Si / 1000 Ang^3
#
#
#
# Elastic Constant Matrix: (Units=GPa)
#
#
# Indices 1 2 3 4 5 6 
#
# 1 176.7545 21.4900 63.9943 -0.0043 -0.1498 0.0013
# 2 21.4900 63.1727 11.4391 -0.0018 1.4396 0.0004
# 3 63.9943 11.4391 92.2304 -0.0031 0.8352 -0.0037
# 4 -0.0043 -0.0018 -0.0031 23.0202 0.0040 -3.0893
# 5 -0.1498 1.4396 0.8352 0.0040 36.8093 -0.0003
# 6 0.0013 0.0004 -0.0037 -3.0893 -0.0003 19.1783
#
#
#
# Elastic Compliance Matrix: (Units=1/GPa)
#
#
# Indices 1 2 3 4 5 6 
#
# 1 0.007731 -0.001701 -0.005155 0.000000 0.000215 -0.000001
# 2 -0.001701 0.016580 -0.000870 0.000001 -0.000636 0.000000
# 3 -0.005155 -0.000870 0.014530 0.000001 -0.000317 0.000003
# 4 0.000000 0.000001 0.000001 0.044400 -0.000005 0.007152
# 5 0.000215 -0.000636 -0.000317 -0.000005 0.027200 0.000000
# 6 -0.000001 0.000000 0.000003 0.007152 0.000000 0.053294
#
#
# Mechanical properties :
#
#
# Convention : Reuss Voigt Hill
#
# Bulk Modulus (GPa) = 42.75655 58.44495 50.60075
# Shear Modulus (GPa) = 26.74006 31.48383 29.11194
#
# Velocity S-wave (km/s) = 3.49496 3.79232 3.64667
# Velocity P-wave (km/s) = 5.98476 6.77295 6.39102
#
# Compressibility (1/GPa) = 0.02338823
#
# Stress axis : x y z
#
# Youngs Moduli (GPa) = 129.34907 60.31207 68.82266
#
# Poissons Ratio (x) = 0.10261 0.35479
# Poissons Ratio (y) = 0.22007 0.05989
# Poissons Ratio (z) = 0.66681 0.05248
#
# Static dielectric constant tensor:
#      x y z
#    x 4.153080 -0.000010 -0.168550 
#    y -0.000010 3.834720 0.000000 
#    z -0.168550 0.000000 3.820780 
# 
# 
# High freq. dielectric constant tensor:
#      x y z
#    x 1.876010 0.000000 -0.010340 
#    y 0.000000 1.852060 0.000000 
#    z -0.010340 0.000000 1.850500 
# 
# From -- ./inp_files/99996.got.cif
#   From: 2010.06.25/outbox.cif.g09.slc.cpg/sg15_50_cif.got.tgz:99996.got - 2010.06.28 07:06:18.
