data_PCOD8145181
_publ_section_title
;
Structure prediction by ZEFSAII (Michael W. Deem and Ramdas Pophale) SiO2 
 PCOD8145181
Probable space group: C 2/C
;
_chemical_formula_sum "Si O2"
_cell_formula_units_Z 52
_cell_length_a 23.556233
_cell_length_b 13.314919
_cell_length_c 12.816028
_cell_angle_alpha 90.000000
_cell_angle_beta 38.116995
_cell_angle_gamma 90.000000
_cell_volume 2481.261133
_symmetry_space_group_name_H-M "C 2/C"
_symmetry_group_IT_number 15
_symmetry_cell_setting 'monoclinic'
loop_
_space_group_symop_operation_xyz
x,y,z
-x,y,1/2-z
-x,-y,-z
x,-y,1/2+z
1/2+x,1/2+y,z
1/2-x,1/2+y,1/2-z
1/2-x,1/2-y,-z
1/2+x,1/2-y,1/2+z
loop_
_atom_site_type_symbol
_atom_site_label
_atom_site_fract_x
_atom_site_fract_y
_atom_site_fract_z
Si Si1 0.258756 0.600902 0.169724
Si Si2 0.123695 0.270201 0.423685
Si Si3 0.096934 0.307181 0.235135
Si Si4 0.177433 0.523442 0.082313
Si Si5 0.500000 0.127761 0.250000
Si Si6 0.714799 0.591457 0.761650
Si Si7 0.111004 0.275792 0.986496
O O1 0.339155 0.683332 0.053790
O O2 0.203629 0.593431 0.141890
O O3 0.310672 0.498074 0.123062
O O4 0.183801 0.634574 0.364489
O O5 0.118906 0.241931 0.307385
O O6 0.025931 0.303308 0.612659
O O7 0.190918 0.364307 0.331938
O O8 0.156689 0.409524 0.147845
O O9 0.987048 0.324786 0.398107
O O10 0.119110 0.244746 0.097595
O O11 0.084918 0.560037 0.161178
O O12 0.266206 0.540795 0.878795
O O13 0.635004 0.677351 0.880842
#
# Coordination Sequence:
#
# PCOD8145181 Si02
#       7
#     8   8   8   8   4   8   8
#     4  11  22  39  60  89 123 169 208 263 311 384
#     4  10  23  37  61  87 127 163 217 255 322 369
#     4  11  21  39  64  96 120 171 210 278 303 380
#     4  11  22  37  68  89 128 164 218 260 324 367
#     4  10  22  38  56  96 128 162 208 262 322 386
#     4  10  22  40  56  93 125 166 207 261 315 386
#     4  10  23  37  63  92 133 156 214 259 331 359
#
# _framework density 20.957086
#
# number of rings (size 3 to 8) (size 9 to 14) (size 15 to 20)
#    0.000    1.538    3.077    1.846    2.154   11.692 
#    0.000    2.308    0.000    0.000    0.000    0.000 
#    0.000    0.000    0.000    0.000    0.000    0.000 
#
# Total GULP energy -322159.328392 kJ/mol
# GULP energy per Si atom -12390.743400 kJ/mol
# Density = 2.090939 g / cm^3
# Si number density = 20.957086 Si / 1000 Ang^3
#
#
#
# Elastic Constant Matrix: (Units=GPa)
#
#
# Indices 1 2 3 4 5 6 
#
# 1 84.9975 23.4751 19.5634 0.0000 22.5278 0.0000
# 2 23.4751 94.4725 28.6556 0.0000 1.3835 0.0000
# 3 19.5634 28.6556 80.3378 0.0000 10.9648 0.0000
# 4 0.0000 0.0000 0.0000 30.3101 0.0000 0.2493
# 5 22.5278 1.3835 10.9648 0.0000 27.6482 0.0000
# 6 0.0000 0.0000 0.0000 0.2493 0.0000 30.8777
#
#
#
# Elastic Compliance Matrix: (Units=1/GPa)
#
#
# Indices 1 2 3 4 5 6 
#
# 1 0.016362 -0.003587 -0.000962 0.000000 -0.012771 0.000000
# 2 -0.003587 0.012690 -0.004192 0.000000 0.003950 0.000000
# 3 -0.000962 -0.004192 0.014845 0.000000 -0.004894 0.000000
# 4 0.000000 0.000000 0.000000 0.032995 0.000000 -0.000266
# 5 -0.012771 0.003950 -0.004894 0.000000 0.048317 0.000000
# 6 0.000000 0.000000 0.000000 -0.000266 0.000000 0.032388
#
#
# Mechanical properties :
#
#
# Convention : Reuss Voigt Hill
#
# Bulk Modulus (GPa) = 37.85735 44.79956 41.32845
# Shear Modulus (GPa) = 27.19112 30.30810 28.74961
#
# Velocity S-wave (km/s) = 3.60594 3.80702 3.70784
# Velocity P-wave (km/s) = 5.95320 6.38339 6.17204
#
# Compressibility (1/GPa) = 0.02641495
#
# Stress axis : x y z
#
# Youngs Moduli (GPa) = 61.11774 78.80162 67.36338
#
# Poissons Ratio (x) = 0.28265 0.06480
# Poissons Ratio (y) = 0.21922 0.28239
# Poissons Ratio (z) = 0.05879 0.33034
#
# Static dielectric constant tensor:
#      x y z
#    x 3.678730 0.000000 0.256080 
#    y 0.000000 3.568180 0.000000 
#    z 0.256080 0.000000 4.048480 
# 
# 
# High freq. dielectric constant tensor:
#      x y z
#    x 1.810370 0.000000 0.016630 
#    y 0.000000 1.803300 0.000000 
#    z 0.016630 0.000000 1.823720 
# 
# From -- ./inp_files/118744.got.cif
#   From: 2010.06.25/outbox.cif.g09.slc.cpg/sg15_60_cif.got.tgz:118744.got - 2010.06.28 07:06:18.
