data_PCOD8145479
_publ_section_title
;
Structure prediction by ZEFSAII (Michael W. Deem and Ramdas Pophale) SiO2 
 PCOD8145479
Probable space group: C 2/C
;
_chemical_formula_sum "Si O2"
_cell_formula_units_Z 52
_cell_length_a 28.483870
_cell_length_b 15.159393
_cell_length_c 8.867533
_cell_angle_alpha 90.000000
_cell_angle_beta 141.440961
_cell_angle_gamma 90.000000
_cell_volume 2386.685460
_symmetry_space_group_name_H-M "C 2/C"
_symmetry_group_IT_number 15
_symmetry_cell_setting 'monoclinic'
loop_
_space_group_symop_operation_xyz
x,y,z
-x,y,1/2-z
-x,-y,-z
x,-y,1/2+z
1/2+x,1/2+y,z
1/2-x,1/2+y,1/2-z
1/2-x,1/2-y,-z
1/2+x,1/2-y,1/2+z
loop_
_atom_site_type_symbol
_atom_site_label
_atom_site_fract_x
_atom_site_fract_y
_atom_site_fract_z
Si Si1 0.190844 0.768601 0.481482
Si Si2 0.082332 0.383392 0.777726
Si Si3 0.139055 0.489498 0.179819
Si Si4 0.536330 0.780944 0.184587
Si Si5 0.807986 0.376289 0.930796
Si Si6 0.000000 0.027592 0.750000
Si Si7 0.550399 0.383387 0.091078
O O1 0.250000 0.750000 0.500000
O O2 0.157043 0.677443 0.457282
O O3 0.123789 0.825876 0.240722
O O4 0.231374 0.820762 0.719706
O O5 0.085003 0.458359 0.656946
O O6 0.006146 0.328195 0.561983
O O7 0.082625 0.428686 0.941450
O O8 0.195663 0.428378 0.420253
O O9 0.187169 0.554348 0.194954
O O10 0.500000 0.814004 0.250000
O O11 0.623304 0.806662 0.400451
O O12 0.524241 0.675387 0.134617
O O13 0.949644 0.088424 0.733198
O O14 0.946579 0.968363 0.509299
#
# Coordination Sequence:
#
# PCOD8145479 Si02
#       7
#     8   8   8   8   8   4   8
#     4  11  22  42  63  91 124 174 202 258 318 399
#     4  10  22  39  61  82 123 152 209 242 306 366
#     4  10  22  39  56  91 115 156 192 258 295 370
#     4  11  20  38  62  88 116 169 201 253 300 388
#     4  11  23  38  62  85 125 157 205 245 318 371
#     4  10  22  44  64 102 118 166 218 290 304 366
#     4  10  23  41  69  90 129 160 226 257 331 366
#
# _framework density 21.787537
#
# number of rings (size 3 to 8) (size 9 to 14) (size 15 to 20)
#    0.000    1.538    3.846    0.923    0.000    8.615 
#    0.000    0.000    0.000    0.000    0.000    0.000 
#    0.000    0.000    0.000    0.000    0.000    0.000 
#
# Total GULP energy -322464.595390 kJ/mol
# GULP energy per Si atom -12402.484438 kJ/mol
# Density = 2.173795 g / cm^3
# Si number density = 21.787537 Si / 1000 Ang^3
#
#
#
# Elastic Constant Matrix: (Units=GPa)
#
#
# Indices 1 2 3 4 5 6 
#
# 1 66.3684 29.5952 30.4845 0.0000 -12.0737 0.0000
# 2 29.5952 97.6806 41.1987 0.0000 -3.2481 0.0000
# 3 30.4845 41.1987 95.5985 0.0000 -8.5902 0.0000
# 4 0.0000 0.0000 0.0000 48.0626 0.0000 -11.0860
# 5 -12.0737 -3.2481 -8.5902 0.0000 40.5080 0.0000
# 6 0.0000 0.0000 0.0000 -11.0860 0.0000 17.4699
#
#
#
# Elastic Compliance Matrix: (Units=1/GPa)
#
#
# Indices 1 2 3 4 5 6 
#
# 1 0.019600 -0.004062 -0.004081 0.000000 0.004651 0.000000
# 2 -0.004062 0.013354 -0.004559 0.000000 -0.001107 0.000000
# 3 -0.004081 -0.004559 0.013848 0.000000 0.001355 0.000000
# 4 0.000000 0.000000 0.000000 0.024374 0.000000 0.015467
# 5 0.004651 -0.001107 0.001355 0.000000 0.026271 0.000000
# 6 0.000000 0.000000 0.000000 0.015467 0.000000 0.067056
#
#
# Mechanical properties :
#
#
# Convention : Reuss Voigt Hill
#
# Bulk Modulus (GPa) = 46.73624 51.35604 49.04614
# Shear Modulus (GPa) = 25.37540 31.76607 28.57073
#
# Velocity S-wave (km/s) = 3.41644 3.82251 3.62516
# Velocity P-wave (km/s) = 6.08771 6.56541 6.33106
#
# Compressibility (1/GPa) = 0.02139667
#
# Stress axis : x y z
#
# Youngs Moduli (GPa) = 51.02162 74.88203 72.21032
#
# Poissons Ratio (x) = 0.30419 0.29472
# Poissons Ratio (y) = 0.20726 0.32922
# Poissons Ratio (z) = 0.20824 0.34140
#
# Static dielectric constant tensor:
#      x y z
#    x 3.587470 0.000000 -0.277460 
#    y 0.000000 4.287850 0.000000 
#    z -0.277460 0.000000 4.107080 
# 
# 
# High freq. dielectric constant tensor:
#      x y z
#    x 1.827480 0.000000 -0.023240 
#    y 0.000000 1.872600 0.000000 
#    z -0.023240 0.000000 1.856970 
# 
# From -- ./inp_files/70194.got.cif
#   From: 2010.06.25/outbox.cif.g09.slc.cpg/sg15_36_cif.got.tgz:70194.got - 2010.06.28 07:06:18.
