data_PCOD8145194
_publ_section_title
;
Structure prediction by ZEFSAII (Michael W. Deem and Ramdas Pophale) SiO2 
 PCOD8145194
Probable space group: C 2/C
;
_chemical_formula_sum "Si O2"
_cell_formula_units_Z 56
_cell_length_a 15.997165
_cell_length_b 22.558447
_cell_length_c 13.065617
_cell_angle_alpha 90.000000
_cell_angle_beta 144.760013
_cell_angle_gamma 90.000000
_cell_volume 2720.569433
_symmetry_space_group_name_H-M "C 2/C"
_symmetry_group_IT_number 15
_symmetry_cell_setting 'monoclinic'
loop_
_space_group_symop_operation_xyz
x,y,z
-x,y,1/2-z
-x,-y,-z
x,-y,1/2+z
1/2+x,1/2+y,z
1/2-x,1/2+y,1/2-z
1/2-x,1/2-y,-z
1/2+x,1/2-y,1/2+z
loop_
_atom_site_type_symbol
_atom_site_label
_atom_site_fract_x
_atom_site_fract_y
_atom_site_fract_z
Si Si1 0.914811 0.348597 0.765161
Si Si2 1.000000 0.750000 0.498497
Si Si3 0.908101 0.156890 0.059915
Si Si4 0.908103 0.343110 0.256289
Si Si5 0.076324 0.062586 0.585995
Si Si6 0.923678 0.562586 0.933348
Si Si7 0.414811 0.348598 0.064462
O O1 0.750000 0.368105 0.575049
O O2 0.000000 0.326948 0.750000
O O3 0.904800 0.293637 0.833457
O O4 0.005352 0.403958 0.899602
O O5 0.102235 0.710816 0.673575
O O6 0.095200 0.793638 0.523858
O O7 0.897765 0.789183 0.469109
O O8 0.000000 0.173799 0.250000
O O9 0.749999 0.144510 0.945606
O O10 0.964223 0.098173 0.058031
O O11 0.964222 0.401827 0.370411
O O12 0.000000 0.326197 0.250000
O O13 0.250001 0.057490 0.775098
O O14 0.005353 0.096040 0.611106
O O15 0.000000 0.000000 0.500000
O O16 0.000000 0.500000 0.000000
O O17 0.500000 0.326947 0.250000
#
# Coordination Sequence:
#
# PCOD8145194 Si02
#       7
#     8   8   8   8   8   8   8
#     4  11  23  39  61  88 119 156 197 243 297 354
#     4  10  22  38  60  86 118 154 196 242 288 346
#     4  10  22  38  58  86 117 151 191 236 286 343
#     4  10  22  38  58  86 117 151 191 236 286 343
#     4  10  22  41  62  86 118 154 197 245 294 350
#     4  10  22  41  62  86 118 154 197 245 294 350
#     4  11  23  39  61  88 119 156 197 243 297 354
#
# _framework density 20.583926000000002
#
# number of rings (size 3 to 8) (size 9 to 14) (size 15 to 20)
#    0.000    1.714    0.000    3.429    0.000   13.714 
#    0.000    2.857    0.000    0.000    0.000    0.000 
#    0.000    0.000    0.000    0.000    0.000    0.000 
#
# Total GULP energy -347136.261983 kJ/mol
# GULP energy per Si atom -12397.723642 kJ/mol
# Density = 2.053708 g / cm^3
# Si number density = 20.583926 Si / 1000 Ang^3
#
#
#
# Elastic Constant Matrix: (Units=GPa)
#
#
# Indices 1 2 3 4 5 6 
#
# 1 128.0891 52.5770 66.3554 0.0000 -3.0433 0.0000
# 2 52.5770 143.7419 48.2907 0.0000 -4.2890 0.0000
# 3 66.3554 48.2907 128.0161 0.0000 2.9621 0.0000
# 4 0.0000 0.0000 0.0000 21.7338 0.0000 2.7069
# 5 -3.0433 -4.2890 2.9621 0.0000 35.3533 0.0000
# 6 0.0000 0.0000 0.0000 2.7069 0.0000 19.0268
#
#
#
# Elastic Compliance Matrix: (Units=1/GPa)
#
#
# Indices 1 2 3 4 5 6 
#
# 1 0.011452 -0.002465 -0.005032 0.000000 0.001108 0.000000
# 2 -0.002465 0.008550 -0.001970 0.000000 0.000990 0.000000
# 3 -0.005032 -0.001970 0.011200 0.000000 -0.001611 0.000000
# 4 0.000000 0.000000 0.000000 0.046841 0.000000 -0.006664
# 5 0.001108 0.000990 -0.001611 0.000000 0.028636 0.000000
# 6 0.000000 0.000000 0.000000 -0.006664 0.000000 0.053505
#
#
# Mechanical properties :
#
#
# Convention : Reuss Voigt Hill
#
# Bulk Modulus (GPa) = 81.51567 81.58817 81.55192
# Shear Modulus (GPa) = 27.29122 30.73105 29.01114
#
# Velocity S-wave (km/s) = 3.64517 3.86808 3.75828
# Velocity P-wave (km/s) = 7.57654 7.72478 7.65102
#
# Compressibility (1/GPa) = 0.01226758
#
# Stress axis : x y z
#
# Youngs Moduli (GPa) = 87.32149 116.95674 89.28482
#
# Poissons Ratio (x) = 0.28834 0.44925
# Poissons Ratio (y) = 0.21528 0.17592
# Poissons Ratio (z) = 0.43937 0.23045
#
# Static dielectric constant tensor:
#      x y z
#    x 3.742780 0.000000 -0.068830 
#    y 0.000000 3.729750 0.000000 
#    z -0.068830 0.000000 3.674010 
# 
# 
# High freq. dielectric constant tensor:
#      x y z
#    x 1.807800 0.000000 0.000550 
#    y 0.000000 1.805690 0.000000 
#    z 0.000550 0.000000 1.808350 
# 
# From -- ./inp_files/163834.got.cif
#   From: 2010.06.25/outbox.cif.g09.slc.cpg/sg15_82_cif.got.tgz:163834.got - 2010.06.28 07:06:18.
