data_PCOD8145803
_publ_section_title
;
Structure prediction by ZEFSAII (Michael W. Deem and Ramdas Pophale) SiO2 
 PCOD8145803
Probable space group: C 2/C
;
_chemical_formula_sum "Si O2"
_cell_formula_units_Z 64
_cell_length_a 11.715981
_cell_length_b 7.886158
_cell_length_c 29.931525
_cell_angle_alpha 90.000000
_cell_angle_beta 100.976922
_cell_angle_gamma 90.000000
_cell_volume 2714.898013
_symmetry_space_group_name_H-M "C 2/C"
_symmetry_group_IT_number 15
_symmetry_cell_setting 'monoclinic'
loop_
_space_group_symop_operation_xyz
x,y,z
-x,y,1/2-z
-x,-y,-z
x,-y,1/2+z
1/2+x,1/2+y,z
1/2-x,1/2+y,1/2-z
1/2-x,1/2-y,-z
1/2+x,1/2-y,1/2+z
loop_
_atom_site_type_symbol
_atom_site_label
_atom_site_fract_x
_atom_site_fract_y
_atom_site_fract_z
Si Si1 0.573679 0.800092 0.455244
Si Si2 0.303562 0.202494 0.447111
Si Si3 0.720721 0.332037 0.450534
Si Si4 0.120557 0.309923 0.739952
Si Si5 0.744027 0.047240 0.812925
Si Si6 0.380906 0.676461 0.386643
Si Si7 0.494173 0.858211 0.588683
Si Si8 0.498178 0.068136 0.828587
O O1 0.600105 0.749130 0.508167
O O2 0.696023 0.832615 0.437574
O O3 0.496017 0.651334 0.426308
O O4 0.510280 0.981584 0.446181
O O5 0.370709 0.202066 0.405069
O O6 0.240182 0.030060 0.456851
O O7 0.750000 0.250000 0.500000
O O8 0.788972 0.262307 0.412759
O O9 0.586006 0.296606 0.431335
O O10 0.210220 0.370748 0.785112
O O11 0.000000 0.226680 0.750000
O O12 0.085207 0.489198 0.714912
O O13 0.183303 0.176645 0.712278
O O14 0.826790 0.993999 0.861115
O O15 0.622505 0.137426 0.819226
O O16 0.423055 0.792928 0.348600
O O17 0.466924 0.911671 0.636743
#
# Coordination Sequence:
#
# PCOD8145803 Si02
#       8
#     8   8   8   8   8   8   8   8
#     4  10  22  40  59  89 123 169 221 271 323 374
#     4  11  22  41  60  85 127 170 221 277 321 377
#     4  12  22  38  65  89 126 179 221 268 327 370
#     4  10  24  44  71 101 130 165 207 256 327 399
#     4  11  23  44  68  97 133 164 206 266 320 393
#     4  11  23  42  63  95 134 169 222 270 318 386
#     4  11  21  40  62  87 126 167 211 267 325 374
#     4  10  22  41  64  95 129 168 212 260 318 388
#
# _framework density 23.573629
#
# number of rings (size 3 to 8) (size 9 to 14) (size 15 to 20)
#    0.000    1.250    5.000    1.875    0.000    4.000 
#    2.250    1.875    0.000    0.000    0.000    0.000 
#    0.000    0.000    0.000    0.000    0.000    0.000 
#
# Total GULP energy -396518.235703 kJ/mol
# GULP energy per Si atom -12391.194866 kJ/mol
# Density = 2.351997 g / cm^3
# Si number density = 23.573629 Si / 1000 Ang^3
#
#
#
# Elastic Constant Matrix: (Units=GPa)
#
#
# Indices 1 2 3 4 5 6 
#
# 1 129.9302 26.7332 11.1648 0.0000 -27.5911 0.0000
# 2 26.7332 50.0230 16.4797 0.0000 -10.1488 0.0000
# 3 11.1648 16.4797 38.9205 0.0000 -16.3073 0.0000
# 4 0.0000 0.0000 0.0000 23.4541 0.0000 -16.0593
# 5 -27.5911 -10.1488 -16.3073 0.0000 54.5739 0.0000
# 6 0.0000 0.0000 0.0000 -16.0593 0.0000 27.3842
#
#
#
# Elastic Compliance Matrix: (Units=1/GPa)
#
#
# Indices 1 2 3 4 5 6 
#
# 1 0.009437 -0.004506 0.000970 0.000000 0.004223 0.000000
# 2 -0.004506 0.025503 -0.009686 0.000000 -0.000430 0.000000
# 3 0.000970 -0.009686 0.033113 0.000000 0.008584 0.000000
# 4 0.000000 0.000000 0.000000 0.071244 0.000000 0.041781
# 5 0.004223 -0.000430 0.008584 0.000000 0.022944 0.000000
# 6 0.000000 0.000000 0.000000 0.041781 0.000000 0.061019
#
#
# Mechanical properties :
#
#
# Convention : Reuss Voigt Hill
#
# Bulk Modulus (GPa) = 24.03320 36.40322 30.21821
# Shear Modulus (GPa) = 18.97011 32.04885 25.50948
#
# Velocity S-wave (km/s) = 2.83983 3.69117 3.29313
# Velocity P-wave (km/s) = 4.57929 5.80019 5.22552
#
# Compressibility (1/GPa) = 0.04160911
#
# Stress axis : x y z
#
# Youngs Moduli (GPa) = 105.96610 39.21162 30.19988
#
# Poissons Ratio (x) = 0.17669 -0.02930
# Poissons Ratio (y) = 0.47750 0.29251
# Poissons Ratio (z) = -0.10282 0.37979
#
# Static dielectric constant tensor:
#      x y z
#    x 4.649190 0.000000 -0.004560 
#    y 0.000000 3.881490 0.000000 
#    z -0.004560 0.000000 4.430810 
# 
# 
# High freq. dielectric constant tensor:
#      x y z
#    x 1.957910 0.000000 -0.005430 
#    y 0.000000 1.900410 0.000000 
#    z -0.005430 0.000000 1.938980 
# 
# From -- ./inp_files/310317.got.cif
#   From: 2010.06.25/outbox.cif.g09.slc.cpg/sg15_156_cif.got.tgz:310317.got - 2010.06.28 07:06:18.
