data_PCOD8145764
_publ_section_title
;
Structure prediction by ZEFSAII (Michael W. Deem and Ramdas Pophale) SiO2 
 PCOD8145764
Probable space group: C 2/C
;
_chemical_formula_sum "Si O2"
_cell_formula_units_Z 32
_cell_length_a 20.695628
_cell_length_b 10.408073
_cell_length_c 10.790109
_cell_angle_alpha 90.000000
_cell_angle_beta 142.933607
_cell_angle_gamma 90.000000
_cell_volume 1400.892555
_symmetry_space_group_name_H-M "C 2/C"
_symmetry_group_IT_number 15
_symmetry_cell_setting 'monoclinic'
loop_
_space_group_symop_operation_xyz
x,y,z
-x,y,1/2-z
-x,-y,-z
x,-y,1/2+z
1/2+x,1/2+y,z
1/2-x,1/2+y,1/2-z
1/2-x,1/2-y,-z
1/2+x,1/2-y,1/2+z
loop_
_atom_site_type_symbol
_atom_site_label
_atom_site_fract_x
_atom_site_fract_y
_atom_site_fract_z
Si Si1 0.973211 0.412629 0.576448
Si Si2 0.412404 0.316709 0.354151
Si Si3 0.747711 0.214133 0.801415
Si Si4 0.131224 0.905976 0.790801
O O1 0.848853 0.378973 0.382826
O O2 0.000000 0.480844 0.750000
O O3 0.000000 0.500000 0.500000
O O4 0.047245 0.285224 0.685351
O O5 0.317869 0.250778 0.288791
O O6 0.510211 0.355194 0.593834
O O7 0.365738 0.440308 0.212155
O O8 0.706100 0.346560 0.797392
O O9 0.824591 0.134666 0.009539
#
# Coordination Sequence:
#
# PCOD8145764 Si02
#       4
#     8   8   8   8
#     4  11  28  46  66 102 140 185 237 289 347 417
#     4  10  22  41  70  96 138 177 235 289 338 428
#     4  10  22  39  69  99 138 185 223 285 358 410
#     4   9  21  40  64 106 135 180 230 284 350 422
#
# _framework density 22.842580000000002
#
# number of rings (size 3 to 8) (size 9 to 14) (size 15 to 20)
#    0.000    2.000    0.000    0.750    7.000   11.000 
#    0.000    0.000    0.000    0.000    0.000    0.000 
#    0.000    0.000    0.000    0.000    0.000    0.000 
#
# Total GULP energy -198454.766333 kJ/mol
# GULP energy per Si atom -12403.422896 kJ/mol
# Density = 2.279059 g / cm^3
# Si number density = 22.842580 Si / 1000 Ang^3
#
#
#
# Elastic Constant Matrix: (Units=GPa)
#
#
# Indices 1 2 3 4 5 6 
#
# 1 116.0265 25.5309 31.2946 0.0000 12.0483 0.0000
# 2 25.5309 99.9517 26.4061 0.0000 -2.6219 0.0000
# 3 31.2946 26.4061 85.6608 0.0000 -2.0851 0.0000
# 4 0.0000 0.0000 0.0000 34.5331 0.0000 -0.0824
# 5 12.0483 -2.6219 -2.0851 0.0000 45.6364 0.0000
# 6 0.0000 0.0000 0.0000 -0.0824 0.0000 21.3463
#
#
#
# Elastic Compliance Matrix: (Units=1/GPa)
#
#
# Indices 1 2 3 4 5 6 
#
# 1 0.010199 -0.001828 -0.003234 0.000000 -0.002945 0.000000
# 2 -0.001828 0.011230 -0.002770 0.000000 0.001001 0.000000
# 3 -0.003234 -0.002770 0.013741 0.000000 0.001323 0.000000
# 4 0.000000 0.000000 0.000000 0.028958 0.000000 0.000112
# 5 -0.002945 0.001001 0.001323 0.000000 0.022808 0.000000
# 6 0.000000 0.000000 0.000000 0.000112 0.000000 0.046847
#
#
# Mechanical properties :
#
#
# Convention : Reuss Voigt Hill
#
# Bulk Modulus (GPa) = 51.26426 52.01136 51.63781
# Shear Modulus (GPa) = 32.06174 34.86364 33.46269
#
# Velocity S-wave (km/s) = 3.75052 3.91097 3.83159
# Velocity P-wave (km/s) = 6.42233 6.57367 6.49844
#
# Compressibility (1/GPa) = 0.01950677
#
# Stress axis : x y z
#
# Youngs Moduli (GPa) = 98.04723 89.04956 72.77249
#
# Poissons Ratio (x) = 0.16278 0.23537
# Poissons Ratio (y) = 0.17923 0.20154
# Poissons Ratio (z) = 0.31711 0.24662
#
# Static dielectric constant tensor:
#      x y z
#    x 4.047710 0.000000 0.189480 
#    y 0.000000 3.999180 0.000000 
#    z 0.189480 0.000000 4.210750 
# 
# 
# High freq. dielectric constant tensor:
#      x y z
#    x 1.904840 0.000000 0.013710 
#    y 0.000000 1.890520 0.000000 
#    z 0.013710 0.000000 1.912840 
# 
# From -- ./inp_files/83871.got.cif
#   From: 2010.06.25/outbox.cif.g09.slc.cpg/sg15_42_cif.got.tgz:83871.got - 2010.06.28 07:06:18.
