data_PCOD8145166
_publ_section_title
;
Structure prediction by ZEFSAII (Michael W. Deem and Ramdas Pophale) SiO2 
 PCOD8145166
Probable space group: C 2/C
;
_chemical_formula_sum "Si O2"
_cell_formula_units_Z 32
_cell_length_a 8.265555
_cell_length_b 18.902306
_cell_length_c 9.978654
_cell_angle_alpha 90.000000
_cell_angle_beta 111.264964
_cell_angle_gamma 90.000000
_cell_volume 1452.894994
_symmetry_space_group_name_H-M "C 2/C"
_symmetry_group_IT_number 15
_symmetry_cell_setting 'monoclinic'
loop_
_space_group_symop_operation_xyz
x,y,z
-x,y,1/2-z
-x,-y,-z
x,-y,1/2+z
1/2+x,1/2+y,z
1/2-x,1/2+y,1/2-z
1/2-x,1/2-y,-z
1/2+x,1/2-y,1/2+z
loop_
_atom_site_type_symbol
_atom_site_label
_atom_site_fract_x
_atom_site_fract_y
_atom_site_fract_z
Si Si1 0.273945 0.564604 0.362390
Si Si2 0.587807 0.413432 0.132205
Si Si3 0.153327 0.692516 0.883088
Si Si4 0.546142 0.078310 0.058621
O O1 0.293140 0.479401 0.378364
O O2 0.447784 0.600172 0.472014
O O3 0.230567 0.581840 0.193972
O O4 0.115947 0.598468 0.397418
O O5 0.500000 0.427802 0.250000
O O6 0.706887 0.343922 0.174066
O O7 0.000000 0.728764 0.750000
O O8 0.250000 0.750000 0.000000
O O9 0.059098 0.632428 0.941639
O O10 0.500000 0.000000 0.000000
#
# Coordination Sequence:
#
# PCOD8145166 Si02
#       4
#     8   8   8   8
#     4  10  22  37  71 103 130 173 224 291 347 412
#     4  11  23  41  66 103 140 173 225 291 353 404
#     4  12  28  47  70  97 144 190 233 281 348 429
#     4  11  21  42  69  99 136 174 233 285 349 397
#
# _framework density 22.024992000000001
#
# number of rings (size 3 to 8) (size 9 to 14) (size 15 to 20)
#    0.000    1.000    2.500    4.500    7.000    0.000 
#    4.500    2.500    0.000    0.000    0.000    0.000 
#    0.000    0.000    0.000    0.000    0.000    0.000 
#
# Total GULP energy -198331.349988 kJ/mol
# GULP energy per Si atom -12395.709374 kJ/mol
# Density = 2.197486 g / cm^3
# Si number density = 22.024992 Si / 1000 Ang^3
#
#
#
# Elastic Constant Matrix: (Units=GPa)
#
#
# Indices 1 2 3 4 5 6 
#
# 1 95.9923 37.0449 47.9593 0.0000 10.8337 0.0000
# 2 37.0449 79.9504 28.9876 0.0000 3.4017 0.0000
# 3 47.9593 28.9876 149.3547 0.0000 36.1059 0.0000
# 4 0.0000 0.0000 0.0000 31.6902 0.0000 5.0082
# 5 10.8337 3.4017 36.1059 0.0000 48.6964 0.0000
# 6 0.0000 0.0000 0.0000 5.0082 0.0000 24.0269
#
#
#
# Elastic Compliance Matrix: (Units=1/GPa)
#
#
# Indices 1 2 3 4 5 6 
#
# 1 0.014238 -0.005324 -0.003488 0.000000 -0.000209 0.000000
# 2 -0.005324 0.015504 -0.001613 0.000000 0.001298 0.000000
# 3 -0.003488 -0.001613 0.009642 0.000000 -0.006260 0.000000
# 4 0.000000 0.000000 0.000000 0.032630 0.000000 -0.006801
# 5 -0.000209 0.001298 -0.006260 0.000000 0.025133 0.000000
# 6 0.000000 0.000000 0.000000 -0.006801 0.000000 0.043038
#
#
# Mechanical properties :
#
#
# Convention : Reuss Voigt Hill
#
# Bulk Modulus (GPa) = 53.95410 61.47567 57.71489
# Shear Modulus (GPa) = 29.90168 34.96972 32.43570
#
# Velocity S-wave (km/s) = 3.68859 3.98895 3.84171
# Velocity P-wave (km/s) = 6.53383 7.01342 6.77787
#
# Compressibility (1/GPa) = 0.01853427
#
# Stress axis : x y z
#
# Youngs Moduli (GPa) = 70.23251 64.49849 103.71153
#
# Poissons Ratio (x) = 0.34337 0.36177
# Poissons Ratio (y) = 0.37390 0.16732
# Poissons Ratio (z) = 0.24499 0.10406
#
# Static dielectric constant tensor:
#      x y z
#    x 3.758160 0.000000 0.520160 
#    y 0.000000 3.630910 0.000000 
#    z 0.520160 0.000000 4.170200 
# 
# 
# High freq. dielectric constant tensor:
#      x y z
#    x 1.876160 0.000000 0.013680 
#    y 0.000000 1.822610 0.000000 
#    z 0.013680 0.000000 1.889740 
# 
# From -- ./inp_files/22119.got.cif
#   From: 2010.06.25/outbox.cif.g09.slc.cpg/sg15_12_cif.got.tgz:22119.got - 2010.06.28 07:06:18.
