data_PCOD8145519
_publ_section_title
;
Structure prediction by ZEFSAII (Michael W. Deem and Ramdas Pophale) SiO2 
 PCOD8145519
Probable space group: C 2/C
;
_chemical_formula_sum "Si O2"
_cell_formula_units_Z 44
_cell_length_a 17.135189
_cell_length_b 22.033519
_cell_length_c 12.746914
_cell_angle_alpha 90.000000
_cell_angle_beta 154.389265
_cell_angle_gamma 90.000000
_cell_volume 2080.259686
_symmetry_space_group_name_H-M "C 2/C"
_symmetry_group_IT_number 15
_symmetry_cell_setting 'monoclinic'
loop_
_space_group_symop_operation_xyz
x,y,z
-x,y,1/2-z
-x,-y,-z
x,-y,1/2+z
1/2+x,1/2+y,z
1/2-x,1/2+y,1/2-z
1/2-x,1/2-y,-z
1/2+x,1/2-y,1/2+z
loop_
_atom_site_type_symbol
_atom_site_label
_atom_site_fract_x
_atom_site_fract_y
_atom_site_fract_z
Si Si1 0.361752 0.173869 0.224607
Si Si2 0.005150 0.571112 0.530045
Si Si3 0.106950 0.910452 0.087065
Si Si4 0.732189 0.303179 0.347343
Si Si5 0.000000 0.545558 0.750000
Si Si6 0.378801 0.500980 0.700069
O O1 0.356543 0.110501 0.283699
O O2 0.308256 0.233074 0.227326
O O3 0.566475 0.181334 0.439575
O O4 0.221321 0.175647 0.956708
O O5 0.208276 0.590807 0.754416
O O6 0.952004 0.584171 0.587722
O O7 0.000000 0.500000 0.500000
O O8 0.083736 0.841972 0.102099
O O9 0.109458 0.953505 0.190290
O O10 0.949169 0.933584 0.819207
O O11 0.832326 0.503532 0.584358
O O12 0.500000 0.524721 0.750000
#
# Coordination Sequence:
#
# PCOD8145519 Si02
#       6
#     8   8   8   8   4   8
#     4   9  20  36  59  89 121 160 205 251 314 368
#     4  11  22  37  63  90 124 167 209 262 315 376
#     4  10  22  39  60  87 125 161 202 259 309 373
#     4   9  19  38  60  86 122 159 200 256 307 373
#     4  12  24  38  62  88 128 162 206 260 314 380
#     4  11  23  39  59  93 124 161 205 252 314 373
#
# _framework density 21.151205000000001
#
# number of rings (size 3 to 8) (size 9 to 14) (size 15 to 20)
#    0.000    1.818    3.636    0.000    2.545    1.455 
#    6.545    0.000    2.000    3.273    0.000    0.000 
#    0.000    0.000    0.000    0.000    0.000    0.000 
#
# Total GULP energy -272551.047361 kJ/mol
# GULP energy per Si atom -12388.683971 kJ/mol
# Density = 2.110306 g / cm^3
# Si number density = 21.151205 Si / 1000 Ang^3
#
#
#
# Elastic Constant Matrix: (Units=GPa)
#
#
# Indices 1 2 3 4 5 6 
#
# 1 108.2890 15.9241 15.9772 0.0000 -11.8081 0.0000
# 2 15.9241 129.0843 24.2936 0.0000 -18.9408 0.0000
# 3 15.9772 24.2936 52.9673 0.0000 0.2036 0.0000
# 4 0.0000 0.0000 0.0000 26.4655 0.0000 -5.7041
# 5 -11.8081 -18.9408 0.2036 0.0000 32.7179 0.0000
# 6 0.0000 0.0000 0.0000 -5.7041 0.0000 26.4589
#
#
#
# Elastic Compliance Matrix: (Units=1/GPa)
#
#
# Indices 1 2 3 4 5 6 
#
# 1 0.010087 -0.000160 -0.002983 0.000000 0.003567 0.000000
# 2 -0.000160 0.009360 -0.004266 0.000000 0.005387 0.000000
# 3 -0.002983 -0.004266 0.021750 0.000000 -0.003681 0.000000
# 4 0.000000 0.000000 0.000000 0.039626 0.000000 0.008543
# 5 0.003567 0.005387 -0.003681 0.000000 0.034993 0.000000
# 6 0.000000 0.000000 0.000000 0.008543 0.000000 0.039636
#
#
# Mechanical properties :
#
#
# Convention : Reuss Voigt Hill
#
# Bulk Modulus (GPa) = 37.90705 44.74783 41.32744
# Shear Modulus (GPa) = 27.92319 32.73817 30.33068
#
# Velocity S-wave (km/s) = 3.63736 3.93850 3.79092
# Velocity P-wave (km/s) = 5.96668 6.47182 6.22438
#
# Compressibility (1/GPa) = 0.02638032
#
# Stress axis : x y z
#
# Youngs Moduli (GPa) = 99.13672 106.83930 45.97704
#
# Poissons Ratio (x) = 0.01705 0.13716
# Poissons Ratio (y) = 0.01582 0.19612
# Poissons Ratio (z) = 0.29575 0.45572
#
# Static dielectric constant tensor:
#      x y z
#    x 4.051850 0.000000 -0.150710 
#    y 0.000000 4.219700 0.000000 
#    z -0.150710 0.000000 4.043590 
# 
# 
# High freq. dielectric constant tensor:
#      x y z
#    x 1.836130 0.000000 0.003410 
#    y 0.000000 1.807040 0.000000 
#    z 0.003410 0.000000 1.814780 
# 
# From -- ./inp_files/108000.got.cif
#   From: 2010.06.25/outbox.cif.g09.slc.cpg/sg15_54_cif.got.tgz:108000.got - 2010.06.28 07:06:18.
