data_PCOD8145417
_publ_section_title
;
Structure prediction by ZEFSAII (Michael W. Deem and Ramdas Pophale) SiO2 
 PCOD8145417
Probable space group: C 2/C
;
_chemical_formula_sum "Si O2"
_cell_formula_units_Z 52
_cell_length_a 23.590505
_cell_length_b 9.112878
_cell_length_c 13.588289
_cell_angle_alpha 90.000000
_cell_angle_beta 130.115601
_cell_angle_gamma 90.000000
_cell_volume 2233.956821
_symmetry_space_group_name_H-M "C 2/C"
_symmetry_group_IT_number 15
_symmetry_cell_setting 'monoclinic'
loop_
_space_group_symop_operation_xyz
x,y,z
-x,y,1/2-z
-x,-y,-z
x,-y,1/2+z
1/2+x,1/2+y,z
1/2-x,1/2+y,1/2-z
1/2-x,1/2-y,-z
1/2+x,1/2-y,1/2+z
loop_
_atom_site_type_symbol
_atom_site_label
_atom_site_fract_x
_atom_site_fract_y
_atom_site_fract_z
Si Si1 0.116672 0.888966 0.893413
Si Si2 0.000000 0.580718 0.250000
Si Si3 0.213891 0.396584 0.135914
Si Si4 0.487510 0.607881 0.396671
Si Si5 0.240178 0.057840 0.134029
Si Si6 0.344620 0.932962 0.103386
Si Si7 0.452715 0.130175 0.991122
O O1 0.071998 0.951152 0.749281
O O2 0.162399 0.742245 0.917139
O O3 0.063366 0.853585 0.925832
O O4 0.171853 0.017936 0.986900
O O5 0.930069 0.474065 0.184107
O O6 0.987459 0.678881 0.137168
O O7 0.242955 0.232597 0.149245
O O8 0.270888 0.478933 0.272763
O O9 0.212880 0.487326 0.034189
O O10 0.132217 0.408597 0.089170
O O11 0.500000 0.500000 0.500000
O O12 0.453857 0.750579 0.408085
O O13 0.317329 0.991873 0.178508
O O14 0.500000 0.000000 0.000000
#
# Coordination Sequence:
#
# PCOD8145417 Si02
#       7
#     8   4   8   8   8   8   8
#     4  11  24  42  65  95 130 177 228 273 335 417
#     4  10  22  38  66  96 122 162 224 274 322 402
#     4  11  25  42  64 100 131 172 226 274 336 411
#     4  11  24  41  64  96 134 173 218 279 341 396
#     4  12  25  43  66  95 136 175 218 279 341 406
#     4  11  23  43  67  94 130 174 224 278 334 397
#     4  11  22  41  67  94 129 173 222 275 333 399
#
# _framework density 23.277083999999999
#
# number of rings (size 3 to 8) (size 9 to 14) (size 15 to 20)
#    0.000    0.923    0.000    8.308    0.000    7.385 
#    0.000    0.000    0.000    0.000    0.000    0.000 
#    0.000    0.000    0.000    0.000    0.000    0.000 
#
# Total GULP energy -322399.160202 kJ/mol
# GULP energy per Si atom -12399.967700 kJ/mol
# Density = 2.322410 g / cm^3
# Si number density = 23.277084 Si / 1000 Ang^3
#
#
#
# Elastic Constant Matrix: (Units=GPa)
#
#
# Indices 1 2 3 4 5 6 
#
# 1 54.0717 -4.6614 20.9879 0.0000 -11.8454 0.0000
# 2 -4.6614 101.2280 39.7357 0.0000 -9.5383 0.0000
# 3 20.9879 39.7357 150.4204 0.0000 -21.0573 0.0000
# 4 0.0000 0.0000 0.0000 42.7866 0.0000 -5.5558
# 5 -11.8454 -9.5383 -21.0573 0.0000 36.0098 0.0000
# 6 0.0000 0.0000 0.0000 -5.5558 0.0000 37.3821
#
#
#
# Elastic Compliance Matrix: (Units=1/GPa)
#
#
# Indices 1 2 3 4 5 6 
#
# 1 0.021126 0.002640 -0.002804 0.000000 0.006009 0.000000
# 2 0.002640 0.011410 -0.003091 0.000000 0.002083 0.000000
# 3 -0.002804 -0.003091 0.008291 0.000000 0.003107 0.000000
# 4 0.000000 0.000000 0.000000 0.023832 0.000000 0.003542
# 5 0.006009 0.002083 0.003107 0.000000 0.032116 0.000000
# 6 0.000000 0.000000 0.000000 0.003542 0.000000 0.027277
#
#
# Mechanical properties :
#
#
# Convention : Reuss Voigt Hill
#
# Bulk Modulus (GPa) = 29.14020 46.42717 37.78368
# Shear Modulus (GPa) = 35.21128 39.87955 37.54541
#
# Velocity S-wave (km/s) = 3.89357 4.14364 4.02055
# Velocity P-wave (km/s) = 5.72356 6.54841 6.14983
#
# Compressibility (1/GPa) = 0.03431686
#
# Stress axis : x y z
#
# Youngs Moduli (GPa) = 47.33454 87.64432 120.61747
#
# Poissons Ratio (x) = -0.23135 0.33819
# Poissons Ratio (y) = -0.12495 0.37280
# Poissons Ratio (z) = 0.13272 0.27089
#
# Static dielectric constant tensor:
#      x y z
#    x 4.502880 0.000000 -0.509040 
#    y 0.000000 3.759960 0.000000 
#    z -0.509040 0.000000 4.769690 
# 
# 
# High freq. dielectric constant tensor:
#      x y z
#    x 1.931780 0.000000 -0.013970 
#    y 0.000000 1.902700 0.000000 
#    z -0.013970 0.000000 1.943070 
# 
# From -- ./inp_files/176703.got.cif
#   From: 2010.06.25/outbox.cif.g09.slc.cpg/sg15_89_cif.got.tgz:176703.got - 2010.06.28 07:06:18.
