data_PCOD8145742
_publ_section_title
;
Structure prediction by ZEFSAII (Michael W. Deem and Ramdas Pophale) SiO2 
 PCOD8145742
Probable space group: C 2/C
;
_chemical_formula_sum "Si O2"
_cell_formula_units_Z 60
_cell_length_a 20.336640
_cell_length_b 8.831744
_cell_length_c 25.837806
_cell_angle_alpha 90.000000
_cell_angle_beta 146.828726
_cell_angle_gamma 90.000000
_cell_volume 2539.116658
_symmetry_space_group_name_H-M "C 2/C"
_symmetry_group_IT_number 15
_symmetry_cell_setting 'monoclinic'
loop_
_space_group_symop_operation_xyz
x,y,z
-x,y,1/2-z
-x,-y,-z
x,-y,1/2+z
1/2+x,1/2+y,z
1/2-x,1/2+y,1/2-z
1/2-x,1/2-y,-z
1/2+x,1/2-y,1/2+z
loop_
_atom_site_type_symbol
_atom_site_label
_atom_site_fract_x
_atom_site_fract_y
_atom_site_fract_z
Si Si1 0.334956 0.587816 0.369970
Si Si2 0.391232 0.734834 0.506833
Si Si3 0.783219 0.312078 0.159644
Si Si4 0.549662 0.377983 0.663627
Si Si5 0.500000 0.632891 0.750000
Si Si6 0.248739 0.024120 0.422113
Si Si7 0.902241 0.215793 0.785019
Si Si8 0.779846 0.962489 0.482805
O O1 0.416599 0.633091 0.472889
O O2 0.296279 0.411529 0.352300
O O3 0.409392 0.625039 0.368599
O O4 0.221349 0.698042 0.294468
O O5 0.322802 0.886469 0.446812
O O6 0.520832 0.773108 0.615715
O O7 0.311060 0.639657 0.494994
O O8 0.902357 0.262710 0.270105
O O9 0.719822 0.160008 0.096423
O O10 0.805318 0.408368 0.121199
O O11 0.608458 0.532357 0.724886
O O12 0.405929 0.370795 0.568112
O O13 0.391485 0.518215 0.665114
O O14 0.470521 0.751412 0.776397
O O15 0.289641 0.061535 0.508438
#
# Coordination Sequence:
#
# PCOD8145742 Si02
#       8
#     8   8   8   8   4   8   8   8
#     4  11  24  41  62  95 126 164 223 265 309 372
#     4  10  22  39  67  92 124 165 215 266 308 376
#     4  11  24  38  62  95 132 165 202 269 326 373
#     4  11  22  42  65  86 128 175 211 263 316 377
#     4  12  20  38  72  88 124 168 212 250 318 384
#     4  12  20  41  66  94 130 164 208 260 324 388
#     4  11  23  41  66  93 120 170 216 259 317 378
#     4  10  23  39  64  96 125 166 214 256 324 380
#
# _framework density 23.630264
#
# number of rings (size 3 to 8) (size 9 to 14) (size 15 to 20)
#    0.000    1.067    5.333    1.600    0.000    6.933 
#    0.000    4.667    0.000   11.200    0.000    0.000 
#    0.000    0.000    0.000    0.000    0.000    0.000 
#
# Total GULP energy -371832.785917 kJ/mol
# GULP energy per Si atom -12394.426197 kJ/mol
# Density = 2.357648 g / cm^3
# Si number density = 23.630264 Si / 1000 Ang^3
#
#
#
# Elastic Constant Matrix: (Units=GPa)
#
#
# Indices 1 2 3 4 5 6 
#
# 1 65.9278 9.4833 13.1787 -0.0001 -24.7953 -0.0001
# 2 9.4833 74.6759 21.7789 -0.0005 -1.6037 -0.0004
# 3 13.1787 21.7789 82.0906 -0.0011 -20.2417 -0.0007
# 4 -0.0001 -0.0005 -0.0011 36.7773 -0.0008 -12.3272
# 5 -24.7953 -1.6037 -20.2417 -0.0008 25.1836 -0.0005
# 6 -0.0001 -0.0004 -0.0007 -12.3272 -0.0005 22.8915
#
#
#
# Elastic Compliance Matrix: (Units=1/GPa)
#
#
# Indices 1 2 3 4 5 6 
#
# 1 0.025410 -0.003728 0.003767 0.000001 0.027809 0.000001
# 2 -0.003728 0.015211 -0.005117 0.000000 -0.006815 0.000000
# 3 0.003767 -0.005117 0.017172 0.000001 0.017185 0.000002
# 4 0.000001 0.000000 0.000001 0.033180 0.000004 0.017867
# 5 0.027809 -0.006815 0.017185 0.000004 0.080467 0.000004
# 6 0.000001 0.000000 0.000002 0.017867 0.000004 0.053306
#
#
# Mechanical properties :
#
#
# Convention : Reuss Voigt Hill
#
# Bulk Modulus (GPa) = 20.99286 34.61957 27.80622
# Shear Modulus (GPa) = 19.93762 28.85403 24.39583
#
# Velocity S-wave (km/s) = 2.90786 3.49816 3.21658
# Velocity P-wave (km/s) = 4.49192 5.56763 5.05845
#
# Compressibility (1/GPa) = 0.04763524
#
# Stress axis : x y z
#
# Youngs Moduli (GPa) = 39.35420 65.74286 58.23407
#
# Poissons Ratio (x) = 0.24511 -0.21936
# Poissons Ratio (y) = 0.14672 0.29801
# Poissons Ratio (z) = -0.14824 0.33644
#
# Static dielectric constant tensor:
#      x y z
#    x 4.161060 0.000000 -0.492190 
#    y 0.000000 4.250280 0.000000 
#    z -0.492190 0.000000 4.599290 
# 
# 
# High freq. dielectric constant tensor:
#      x y z
#    x 1.913510 0.000000 -0.033680 
#    y 0.000000 1.927770 0.000000 
#    z -0.033680 0.000000 1.950930 
# 
# From -- ./inp_files/279722.got.cif
#   From: 2010.06.25/outbox.cif.g09.slc.cpg/sg15_140_cif.got.tgz:279722.got - 2010.06.28 07:06:18.
