data_PCOD8145758
_publ_section_title
;
Structure prediction by ZEFSAII (Michael W. Deem and Ramdas Pophale) SiO2 
 PCOD8145758
Probable space group: C 2/C
;
_chemical_formula_sum "Si O2"
_cell_formula_units_Z 64
_cell_length_a 31.500391
_cell_length_b 7.999928
_cell_length_c 14.052060
_cell_angle_alpha 90.000000
_cell_angle_beta 48.959557
_cell_angle_gamma 90.000000
_cell_volume 2670.885123
_symmetry_space_group_name_H-M "C 2/C"
_symmetry_group_IT_number 15
_symmetry_cell_setting 'monoclinic'
loop_
_space_group_symop_operation_xyz
x,y,z
-x,y,1/2-z
-x,-y,-z
x,-y,1/2+z
1/2+x,1/2+y,z
1/2-x,1/2+y,1/2-z
1/2-x,1/2-y,-z
1/2+x,1/2-y,1/2+z
loop_
_atom_site_type_symbol
_atom_site_label
_atom_site_fract_x
_atom_site_fract_y
_atom_site_fract_z
Si Si1 0.981689 0.257033 0.587511
Si Si2 0.313090 0.700339 0.379084
Si Si3 0.915872 0.066126 0.996511
Si Si4 0.476546 0.099326 0.888045
Si Si5 0.362220 0.370690 0.249449
Si Si6 0.792505 0.669148 0.221111
Si Si7 0.376679 0.263731 0.961578
Si Si8 0.322673 0.799397 0.152366
O O1 0.989266 0.282774 0.461854
O O2 0.918019 0.212407 0.713900
O O3 0.020859 0.104876 0.563954
O O4 0.001211 0.417016 0.619541
O O5 0.250000 0.750000 0.500000
O O6 0.324983 0.498908 0.368264
O O7 0.360379 0.783301 0.378053
O O8 0.325980 0.779006 0.259908
O O9 0.881909 0.237010 0.020339
O O10 0.883039 0.977804 0.130051
O O11 0.914750 0.933902 0.910748
O O12 0.500000 0.162010 0.750000
O O13 0.409315 0.112173 0.968518
O O14 0.321067 0.217559 0.279815
O O15 0.725645 0.686187 0.324794
O O16 0.809072 0.490530 0.153330
O O17 0.817570 0.795133 0.104062
#
# Coordination Sequence:
#
# PCOD8145758 Si02
#       8
#     8   8   8   8   8   8   8   8
#     4  11  23  45  67  96 140 181 248 291 362 438
#     4  11  24  41  66  98 141 174 228 297 365 428
#     4  10  22  39  68  97 123 180 232 284 348 428
#     4  11  26  40  66  99 138 185 232 302 360 425
#     4  10  23  41  68  96 129 186 229 291 356 436
#     4  11  21  42  66  95 130 178 235 273 343 444
#     4  11  23  42  63  97 137 168 230 288 356 425
#     4  11  23  39  69  94 130 183 225 280 352 430
#
# _framework density 23.962095000000001
#
# number of rings (size 3 to 8) (size 9 to 14) (size 15 to 20)
#    0.000    1.250    3.750    3.375    5.250    1.000 
#    0.000    1.875    0.000    0.000    0.000    0.000 
#    0.000    0.000    0.000    0.000    0.000    0.000 
#
# Total GULP energy -396440.856962 kJ/mol
# GULP energy per Si atom -12388.776780 kJ/mol
# Density = 2.390756 g / cm^3
# Si number density = 23.962095 Si / 1000 Ang^3
#
#
#
# Elastic Constant Matrix: (Units=GPa)
#
#
# Indices 1 2 3 4 5 6 
#
# 1 192.0572 52.5513 37.4793 0.0000 -19.5852 0.0000
# 2 52.5513 101.6173 14.3890 -0.0007 -10.4992 0.0002
# 3 37.4793 14.3890 62.2536 0.0000 -5.9560 0.0000
# 4 0.0000 -0.0007 0.0000 32.8452 0.0000 -8.7051
# 5 -19.5852 -10.4992 -5.9560 0.0000 26.1732 0.0000
# 6 0.0000 0.0002 0.0000 -8.7051 0.0000 42.6437
#
#
#
# Elastic Compliance Matrix: (Units=1/GPa)
#
#
# Indices 1 2 3 4 5 6 
#
# 1 0.006937 -0.002787 -0.003212 0.000000 0.003342 0.000000
# 2 -0.002787 0.011642 -0.000783 0.000000 0.002406 0.000000
# 3 -0.003212 -0.000783 0.018317 0.000000 0.001450 0.000000
# 4 0.000000 0.000000 0.000000 0.032187 0.000000 0.006571
# 5 0.003342 0.002406 0.001450 0.000000 0.042003 0.000000
# 6 0.000000 0.000000 0.000000 0.006571 0.000000 0.024791
#
#
# Mechanical properties :
#
#
# Convention : Reuss Voigt Hill
#
# Bulk Modulus (GPa) = 42.86105 62.75191 52.80648
# Shear Modulus (GPa) = 31.80270 37.09965 34.45117
#
# Velocity S-wave (km/s) = 3.64704 3.93907 3.79586
# Velocity P-wave (km/s) = 5.97163 6.85078 6.42626
#
# Compressibility (1/GPa) = 0.02333121
#
# Stress axis : x y z
#
# Youngs Moduli (GPa) = 144.15103 85.89782 54.59404
#
# Poissons Ratio (x) = 0.23943 0.17538
# Poissons Ratio (y) = 0.40180 0.04272
# Poissons Ratio (z) = 0.46308 0.06722
#
# Static dielectric constant tensor:
#      x y z
#    x 4.675230 0.000000 -0.258580 
#    y 0.000000 4.797140 0.000000 
#    z -0.258580 0.000000 4.221800 
# 
# 
# High freq. dielectric constant tensor:
#      x y z
#    x 1.969690 0.000000 -0.016320 
#    y 0.000000 1.947790 0.000000 
#    z -0.016320 0.000000 1.917010 
# 
# From -- ./inp_files/181120.got.cif
#   From: 2010.06.25/outbox.cif.g09.slc.cpg/sg15_91_cif.got.tgz:181120.got - 2010.06.28 07:06:18.
