data_PCOD8145940
_publ_section_title
;
Structure prediction by ZEFSAII (Michael W. Deem and Ramdas Pophale) SiO2 
 PCOD8145940
Probable space group: C 2/C
;
_chemical_formula_sum "Si O2"
_cell_formula_units_Z 60
_cell_length_a 8.945866
_cell_length_b 23.158200
_cell_length_c 15.924939
_cell_angle_alpha 90.000000
_cell_angle_beta 114.447398
_cell_angle_gamma 90.000000
_cell_volume 3003.373603
_symmetry_space_group_name_H-M "C 2/C"
_symmetry_group_IT_number 15
_symmetry_cell_setting 'monoclinic'
loop_
_space_group_symop_operation_xyz
x,y,z
-x,y,1/2-z
-x,-y,-z
x,-y,1/2+z
1/2+x,1/2+y,z
1/2-x,1/2+y,1/2-z
1/2-x,1/2-y,-z
1/2+x,1/2-y,1/2+z
loop_
_atom_site_type_symbol
_atom_site_label
_atom_site_fract_x
_atom_site_fract_y
_atom_site_fract_z
Si Si1 0.936608 0.898389 0.433022
Si Si2 0.163959 0.442443 0.246168
Si Si3 0.000000 0.338132 0.750000
Si Si4 0.253347 0.248245 0.100513
Si Si5 0.574498 0.591365 0.385533
Si Si6 0.101986 0.205718 0.468375
Si Si7 0.772227 0.430101 0.779767
Si Si8 0.842635 0.876016 0.156895
O O1 0.808213 0.928652 0.343558
O O2 0.895416 0.830443 0.442702
O O3 0.114886 0.898461 0.427706
O O4 0.062967 0.066749 0.478508
O O5 0.145399 0.510660 0.229501
O O6 0.192065 0.411811 0.162317
O O7 0.000000 0.417616 0.250000
O O8 0.122334 0.300235 0.835544
O O9 0.102564 0.378015 0.709335
O O10 0.304210 0.308839 0.151188
O O11 0.068541 0.237757 0.087120
O O12 0.250000 0.250000 0.000000
O O13 0.616785 0.659763 0.395963
O O14 0.397427 0.580704 0.306471
O O15 0.723416 0.563419 0.367112
O O16 0.250000 0.250000 0.500000
O O17 0.000000 0.888540 0.250000
#
# Coordination Sequence:
#
# PCOD8145940 Si02
#       8
#     8   8   4   8   8   8   8   8
#     4   9  21  43  62  93 125 166 220 262 324 406
#     4  11  25  44  63  92 132 174 223 275 330 387
#     4  12  24  44  66 100 138 178 222 288 340 400
#     4  12  23  41  68  97 137 176 222 277 334 406
#     4   9  22  41  64  96 120 170 218 264 334 394
#     4  10  22  40  63  95 132 170 209 271 323 398
#     4  11  23  44  65  92 133 169 222 281 334 393
#     4  10  22  41  65  94 129 173 216 266 335 395
#
# _framework density 19.977533999999999
#
# number of rings (size 3 to 8) (size 9 to 14) (size 15 to 20)
#    0.800    0.800    4.000    0.000    9.333    0.533 
#    0.000    0.667    0.000    0.000    0.000    0.000 
#    0.000    0.000    0.000    0.000    0.000    0.000 
#
# Total GULP energy -371741.866627 kJ/mol
# GULP energy per Si atom -12391.395554 kJ/mol
# Density = 1.993206 g / cm^3
# Si number density = 19.977534 Si / 1000 Ang^3
#
#
#
# Elastic Constant Matrix: (Units=GPa)
#
#
# Indices 1 2 3 4 5 6 
#
# 1 159.6077 53.0563 51.8872 0.0000 -14.8512 0.0000
# 2 53.0563 91.5451 29.9752 0.0000 -8.3665 0.0000
# 3 51.8872 29.9752 71.0715 0.0000 -23.2638 0.0000
# 4 0.0000 0.0000 0.0000 25.4244 0.0000 -10.3843
# 5 -14.8512 -8.3665 -23.2638 0.0000 33.6485 0.0000
# 6 0.0000 0.0000 0.0000 -10.3843 0.0000 10.7050
#
#
#
# Elastic Compliance Matrix: (Units=1/GPa)
#
#
# Indices 1 2 3 4 5 6 
#
# 1 0.009148 -0.003604 -0.005338 0.000000 -0.000549 0.000000
# 2 -0.003604 0.014107 -0.003478 0.000000 -0.000488 0.000000
# 3 -0.005338 -0.003478 0.023757 0.000000 0.013204 0.000000
# 4 0.000000 0.000000 0.000000 0.065142 0.000000 0.063190
# 5 -0.000549 -0.000488 0.013204 0.000000 0.038484 0.000000
# 6 0.000000 0.000000 0.000000 0.063190 0.000000 0.154712
#
#
# Mechanical properties :
#
#
# Convention : Reuss Voigt Hill
#
# Bulk Modulus (GPa) = 45.10578 65.78463 55.44520
# Shear Modulus (GPa) = 14.81134 26.44263 20.62699
#
# Velocity S-wave (km/s) = 2.72582 3.64210 3.21675
# Velocity P-wave (km/s) = 5.70386 7.11950 6.45064
#
# Compressibility (1/GPa) = 0.02217011
#
# Stress axis : x y z
#
# Youngs Moduli (GPa) = 109.31729 70.88891 42.09351
#
# Poissons Ratio (x) = 0.25548 0.22471
# Poissons Ratio (y) = 0.39397 0.14641
# Poissons Ratio (z) = 0.58357 0.24656
#
# Static dielectric constant tensor:
#      x y z
#    x 3.965250 0.000000 -0.292150 
#    y 0.000000 3.722780 0.000000 
#    z -0.292150 0.000000 3.572220 
# 
# 
# High freq. dielectric constant tensor:
#      x y z
#    x 1.792130 0.000000 -0.013220 
#    y 0.000000 1.778850 0.000000 
#    z -0.013220 0.000000 1.764110 
# 
# From -- ./inp_files/192578.got.cif
#   From: 2010.06.25/outbox.cif.g09.slc.cpg/sg15_97_cif.got.tgz:192578.got - 2010.06.28 07:06:18.
