data_PCOD8145929
_publ_section_title
;
Structure prediction by ZEFSAII (Michael W. Deem and Ramdas Pophale) SiO2 
 PCOD8145929
Probable space group: C 2/C
;
_chemical_formula_sum "Si O2"
_cell_formula_units_Z 44
_cell_length_a 21.779661
_cell_length_b 19.388085
_cell_length_c 4.988976
_cell_angle_alpha 90.000000
_cell_angle_beta 63.354074
_cell_angle_gamma 90.000000
_cell_volume 1882.935258
_symmetry_space_group_name_H-M "C 2/C"
_symmetry_group_IT_number 15
_symmetry_cell_setting 'monoclinic'
loop_
_space_group_symop_operation_xyz
x,y,z
-x,y,1/2-z
-x,-y,-z
x,-y,1/2+z
1/2+x,1/2+y,z
1/2-x,1/2+y,1/2-z
1/2-x,1/2-y,-z
1/2+x,1/2-y,1/2+z
loop_
_atom_site_type_symbol
_atom_site_label
_atom_site_fract_x
_atom_site_fract_y
_atom_site_fract_z
Si Si1 0.321897 0.654405 0.844255
Si Si2 0.824640 0.306722 0.741609
Si Si3 0.769983 0.957843 0.064056
Si Si4 0.136344 0.382740 0.334494
Si Si5 0.000000 0.451452 0.750000
Si Si6 0.918855 0.953947 0.405862
O O1 0.345124 0.726851 0.667652
O O2 0.306569 0.608888 0.610579
O O3 0.381050 0.618133 0.908927
O O4 0.255163 0.671798 0.161751
O O5 0.871354 0.351922 0.449516
O O6 0.835423 0.322668 0.032028
O O7 0.687676 0.948236 0.237990
O O8 0.789335 0.025505 0.212833
O O9 0.064975 0.402771 0.603887
O O10 0.000000 0.500000 0.500000
O O11 0.000000 0.938877 0.250000
O O12 0.898322 0.983687 0.740284
#
# Coordination Sequence:
#
# PCOD8145929 Si02
#       6
#     8   8   8   8   4   8
#     4  10  22  40  64  92 129 172 212 262 332 380
#     4  10  24  40  62  92 129 169 213 264 315 391
#     4  11  21  34  58  92 123 156 204 260 312 375
#     4  11  23  42  61  92 130 163 213 263 316 389
#     4  12  24  42  70  92 126 172 210 268 332 384
#     4  10  22  40  63  92 127 165 216 270 322 386
#
# _framework density 23.367771999999999
#
# number of rings (size 3 to 8) (size 9 to 14) (size 15 to 20)
#    0.000    1.455    0.000    5.455    0.000   12.364 
#    1.636    0.000    0.000    0.000    0.000    0.000 
#    0.000    0.000    0.000    0.000    0.000    0.000 
#
# Total GULP energy -272804.962709 kJ/mol
# GULP energy per Si atom -12400.225578 kJ/mol
# Density = 2.331459 g / cm^3
# Si number density = 23.367772 Si / 1000 Ang^3
#
#
#
# Elastic Constant Matrix: (Units=GPa)
#
#
# Indices 1 2 3 4 5 6 
#
# 1 102.4716 47.3517 31.5531 0.0000 -2.2349 0.0000
# 2 47.3517 140.6752 45.2722 0.0000 2.8697 0.0000
# 3 31.5531 45.2722 144.2852 0.0000 8.6836 0.0000
# 4 0.0000 0.0000 0.0000 37.9653 0.0000 -0.0360
# 5 -2.2349 2.8697 8.6836 0.0000 32.1474 0.0000
# 6 0.0000 0.0000 0.0000 -0.0360 0.0000 29.6235
#
#
#
# Elastic Compliance Matrix: (Units=1/GPa)
#
#
# Indices 1 2 3 4 5 6 
#
# 1 0.011915 -0.003530 -0.001593 0.000000 0.001574 0.000000
# 2 -0.003530 0.008953 -0.002007 0.000000 -0.000502 0.000000
# 3 -0.001593 -0.002007 0.008035 0.000000 -0.002102 0.000000
# 4 0.000000 0.000000 0.000000 0.026340 0.000000 0.000032
# 5 0.001574 -0.000502 -0.002102 0.000000 0.031829 0.000000
# 6 0.000000 0.000000 0.000000 0.000032 0.000000 0.033757
#
#
# Mechanical properties :
#
#
# Convention : Reuss Voigt Hill
#
# Bulk Modulus (GPa) = 68.28940 70.64292 69.46616
# Shear Modulus (GPa) = 35.72212 37.49755 36.60984
#
# Velocity S-wave (km/s) = 3.91409 4.01018 3.96243
# Velocity P-wave (km/s) = 7.05082 7.19295 7.12224
#
# Compressibility (1/GPa) = 0.01464356
#
# Stress axis : x y z
#
# Youngs Moduli (GPa) = 83.92930 111.69514 124.45195
#
# Poissons Ratio (x) = 0.39430 0.19821
# Poissons Ratio (y) = 0.29628 0.24977
# Poissons Ratio (z) = 0.13367 0.22416
#
# Static dielectric constant tensor:
#      x y z
#    x 4.162820 0.000000 0.154150 
#    y 0.000000 4.122350 0.000000 
#    z 0.154150 0.000000 4.096410 
# 
# 
# High freq. dielectric constant tensor:
#      x y z
#    x 1.926300 0.000000 0.004420 
#    y 0.000000 1.919350 0.000000 
#    z 0.004420 0.000000 1.938390 
# 
# From -- ./inp_files/12885.got.cif
#   From: 2010.06.25/outbox.cif.g09.slc.cpg/sg15_7_cif.got.tgz:12885.got - 2010.06.28 07:06:18.
