data_PCOD8145558
_publ_section_title
;
Structure prediction by ZEFSAII (Michael W. Deem and Ramdas Pophale) SiO2 
 PCOD8145558
Probable space group: C 2/C
;
_chemical_formula_sum "Si O2"
_cell_formula_units_Z 56
_cell_length_a 8.572261
_cell_length_b 23.576251
_cell_length_c 13.004137
_cell_angle_alpha 90.000000
_cell_angle_beta 102.940098
_cell_angle_gamma 90.000000
_cell_volume 2561.416346
_symmetry_space_group_name_H-M "C 2/C"
_symmetry_group_IT_number 15
_symmetry_cell_setting 'monoclinic'
loop_
_space_group_symop_operation_xyz
x,y,z
-x,y,1/2-z
-x,-y,-z
x,-y,1/2+z
1/2+x,1/2+y,z
1/2-x,1/2+y,1/2-z
1/2-x,1/2-y,-z
1/2+x,1/2-y,1/2+z
loop_
_atom_site_type_symbol
_atom_site_label
_atom_site_fract_x
_atom_site_fract_y
_atom_site_fract_z
Si Si1 0.247410 0.638965 0.037088
Si Si2 0.364935 0.509810 0.337659
Si Si3 0.561916 0.306851 0.642072
Si Si4 0.852126 0.565271 0.805493
Si Si5 0.818363 0.382506 0.749691
Si Si6 0.216863 0.990174 0.949380
Si Si7 0.032026 0.317053 0.137621
O O1 0.427782 0.662786 0.051104
O O2 0.182784 0.649794 0.141954
O O3 0.231194 0.572470 0.010607
O O4 0.136636 0.671515 0.940976
O O5 0.303120 0.448568 0.287530
O O6 0.277675 0.558147 0.255921
O O7 0.318856 0.522740 0.449530
O O8 0.556669 0.511418 0.354082
O O9 0.500000 0.310031 0.750000
O O10 0.727670 0.341844 0.654669
O O11 0.599486 0.243101 0.606011
O O12 0.854712 0.523159 0.905222
O O13 0.847381 0.629178 0.851645
O O14 0.000000 0.555559 0.750000
O O15 0.000000 0.395431 0.750000
O O16 0.000000 0.304709 0.250000
#
# Coordination Sequence:
#
# PCOD8145558 Si02
#       7
#     8   8   8   8   8   8   8
#     4  11  21  38  68  89 118 170 213 261 313 382
#     4  11  23  40  58  93 127 172 205 267 314 398
#     4   9  20  41  65  90 120 165 216 266 311 379
#     4  11  23  38  60  91 131 165 203 266 322 380
#     4  11  23  39  64  93 122 159 213 266 323 373
#     4  11  23  37  64  90 128 166 218 252 333 381
#     4  10  22  39  61  93 128 163 215 264 316 379
#
# _framework density 21.862905000000001
#
# number of rings (size 3 to 8) (size 9 to 14) (size 15 to 20)
#    0.000    1.429    2.857    3.000    2.000    1.143 
#    0.000    2.143    0.000    0.000    0.000    0.000 
#    0.000    0.000    0.000    0.000    0.000    0.000 
#
# Total GULP energy -347091.989765 kJ/mol
# GULP energy per Si atom -12396.142492 kJ/mol
# Density = 2.181314 g / cm^3
# Si number density = 21.862905 Si / 1000 Ang^3
#
#
#
# Elastic Constant Matrix: (Units=GPa)
#
#
# Indices 1 2 3 4 5 6 
#
# 1 93.4309 45.6963 23.9544 0.0000 6.7588 0.0000
# 2 45.6963 154.6764 17.3133 0.0000 10.4529 0.0000
# 3 23.9544 17.3133 69.0616 0.0000 17.6311 0.0000
# 4 0.0000 0.0000 0.0000 -87.8238 0.0000 -36.8386
# 5 6.7588 10.4529 17.6311 0.0000 34.7743 0.0000
# 6 0.0000 0.0000 0.0000 -36.8386 0.0000 8.2613
#
#
#
# Elastic Compliance Matrix: (Units=1/GPa)
#
#
# Indices 1 2 3 4 5 6 
#
# 1 0.013402 -0.003555 -0.003866 0.000000 0.000424 0.000000
# 2 -0.003555 0.007649 -0.000314 0.000000 -0.001449 0.000000
# 3 -0.003866 -0.000314 0.018015 0.000000 -0.008288 0.000000
# 4 0.000000 0.000000 0.000000 -0.003967 0.000000 -0.017689
# 5 0.000424 -0.001449 -0.008288 0.000000 0.033312 0.000000
# 6 0.000000 0.000000 0.000000 -0.017689 0.000000 0.042170
#
#
# Mechanical properties :
#
#
# Convention : Reuss Voigt Hill
#
# Bulk Modulus (GPa) = 42.38076 54.56633 48.47355
# Shear Modulus (GPa) = 37.33635 6.38935 21.86285
#
# Velocity S-wave (km/s) = 4.13697 1.71138 3.16570
# Velocity P-wave (km/s) = 6.49971 5.37751 5.96506
#
# Compressibility (1/GPa) = 0.02359561
#
# Stress axis : x y z
#
# Youngs Moduli (GPa) = 74.61304 130.74291 55.50815
#
# Poissons Ratio (x) = 0.46485 0.21457
# Poissons Ratio (y) = 0.26528 0.01745
# Poissons Ratio (z) = 0.28842 0.04110
#
# Static dielectric constant tensor:
#      x y z
#    x 3.656120 0.000000 0.175010 
#    y 0.000000 4.155740 0.000000 
#    z 0.175010 0.000000 4.056560 
# 
# 
# High freq. dielectric constant tensor:
#      x y z
#    x 1.831810 0.000000 0.015940 
#    y 0.000000 1.856710 0.000000 
#    z 0.015940 0.000000 1.871200 
# 
# From -- ./inp_files/81442.got.cif
#   From: 2010.06.25/outbox.cif.g09.slc.cpg/sg15_41_cif.got.tgz:81442.got - 2010.06.28 07:06:18.
