data_PCOD8145541
_publ_section_title
;
Structure prediction by ZEFSAII (Michael W. Deem and Ramdas Pophale) SiO2 
 PCOD8145541
Probable space group: C 2/C
;
_chemical_formula_sum "Si O2"
_cell_formula_units_Z 56
_cell_length_a 15.114130
_cell_length_b 19.036422
_cell_length_c 19.593241
_cell_angle_alpha 90.000000
_cell_angle_beta 148.968127
_cell_angle_gamma 90.000000
_cell_volume 2906.135896
_symmetry_space_group_name_H-M "C 2/C"
_symmetry_group_IT_number 15
_symmetry_cell_setting 'monoclinic'
loop_
_space_group_symop_operation_xyz
x,y,z
-x,y,1/2-z
-x,-y,-z
x,-y,1/2+z
1/2+x,1/2+y,z
1/2-x,1/2+y,1/2-z
1/2-x,1/2-y,-z
1/2+x,1/2-y,1/2+z
loop_
_atom_site_type_symbol
_atom_site_label
_atom_site_fract_x
_atom_site_fract_y
_atom_site_fract_z
Si Si1 0.059059 0.989268 0.185168
Si Si2 0.873957 0.111163 0.364578
Si Si3 0.593648 0.010582 0.240181
Si Si4 0.195469 0.716416 0.534615
Si Si5 0.692757 0.386059 0.163143
Si Si6 0.732598 0.948912 0.049846
Si Si7 0.811121 0.249465 0.760071
O O1 0.075318 0.068193 0.169164
O O2 0.091542 0.936163 0.146528
O O3 0.205795 0.979167 0.337931
O O4 0.865955 0.975140 0.081294
O O5 0.749568 0.065893 0.332868
O O6 0.786921 0.181687 0.280481
O O7 0.049065 0.137049 0.514812
O O8 0.500000 0.024897 0.250000
O O9 0.657797 0.930043 0.276320
O O10 0.456019 0.021668 0.089172
O O11 0.250000 0.750000 0.500000
O O12 0.226381 0.634395 0.548077
O O13 0.303149 0.742538 0.672025
O O14 0.000700 0.739887 0.414703
O O15 0.768140 0.319039 0.254280
#
# Coordination Sequence:
#
# PCOD8145541 Si02
#       7
#     8   8   8   8   8   8   8
#     4  10  22  39  61  88 124 162 198 259 313 368
#     4  11  23  40  61  89 123 161 204 256 313 373
#     4  11  23  38  63  90 116 159 210 260 300 366
#     4  12  25  38  59  93 132 163 198 254 312 384
#     4  11  22  41  61  86 124 165 204 254 310 373
#     4  11  22  38  62  91 122 156 209 254 311 369
#     4  12  24  40  61  88 126 167 206 245 314 372
#
# _framework density 19.269573999999999
#
# number of rings (size 3 to 8) (size 9 to 14) (size 15 to 20)
#    0.000    0.857    4.286    4.714    4.000    3.429 
#    0.000    0.000    3.143    1.714    0.000    0.000 
#    0.000    0.000    0.000    0.000    0.000    0.000 
#
# Total GULP energy -347180.126444 kJ/mol
# GULP energy per Si atom -12399.290230 kJ/mol
# Density = 1.922572 g / cm^3
# Si number density = 19.269574 Si / 1000 Ang^3
#
#
#
# Elastic Constant Matrix: (Units=GPa)
#
#
# Indices 1 2 3 4 5 6 
#
# 1 62.7156 29.6567 6.1209 0.0061 2.2281 -0.0322
# 2 29.6567 129.7948 27.7634 0.0298 1.3418 -0.1104
# 3 6.1209 27.7634 113.2626 0.0475 -11.3022 -0.2494
# 4 0.0061 0.0298 0.0475 27.6388 0.0048 16.4761
# 5 2.2281 1.3418 -11.3022 0.0048 26.4466 -0.0436
# 6 -0.0322 -0.1104 -0.2494 16.4761 -0.0436 -119.7525
#
#
#
# Elastic Compliance Matrix: (Units=1/GPa)
#
#
# Indices 1 2 3 4 5 6 
#
# 1 0.017922 -0.004058 -0.000109 0.000001 -0.001350 0.000000
# 2 -0.004058 0.009094 -0.002112 -0.000003 -0.001022 -0.000003
# 3 -0.000109 -0.002112 0.009781 -0.000003 0.004296 -0.000020
# 4 0.000001 -0.000003 -0.000003 0.033439 0.000000 0.004601
# 5 -0.001350 -0.001022 0.004296 0.000000 0.039814 -0.000022
# 6 0.000000 -0.000003 -0.000020 0.004601 -0.000022 -0.007718
#
#
# Mechanical properties :
#
#
# Convention : Reuss Voigt Hill
#
# Bulk Modulus (GPa) = 41.25254 48.09500 44.67377
# Shear Modulus (GPa) = 40.66050 3.01537 21.83794
#
# Velocity S-wave (km/s) = 4.59855 1.25229 3.37008
# Velocity P-wave (km/s) = 7.04629 5.20617 6.19493
#
# Compressibility (1/GPa) = 0.02424093
#
# Stress axis : x y z
#
# Youngs Moduli (GPa) = 55.79589 109.96333 102.23633
#
# Poissons Ratio (x) = 0.44622 0.01111
# Poissons Ratio (y) = 0.22641 0.21591
# Poissons Ratio (z) = 0.00606 0.23223
#
# Static dielectric constant tensor:
#      x y z
#    x 3.454400 -0.000010 -0.081570 
#    y -0.000010 3.671240 -0.000020 
#    z -0.081570 -0.000020 3.812710 
# 
# 
# High freq. dielectric constant tensor:
#      x y z
#    x 1.731210 0.000000 -0.009800 
#    y 0.000000 1.750870 0.000000 
#    z -0.009800 0.000000 1.768880 
# 
# From -- ./inp_files/245189.got.cif
#   From: 2010.06.25/outbox.cif.g09.slc.cpg/sg15_123_cif.got.tgz:245189.got - 2010.06.28 07:06:18.
