data_PCOD8145980
_publ_section_title
;
Structure prediction by ZEFSAII (Michael W. Deem and Ramdas Pophale) SiO2 
 PCOD8145980
Probable space group: C 2/C
;
_chemical_formula_sum "Si O2"
_cell_formula_units_Z 52
_cell_length_a 9.626538
_cell_length_b 24.587496
_cell_length_c 12.240622
_cell_angle_alpha 90.000000
_cell_angle_beta 64.537761
_cell_angle_gamma 90.000000
_cell_volume 2615.848411
_symmetry_space_group_name_H-M "C 2/C"
_symmetry_group_IT_number 15
_symmetry_cell_setting 'monoclinic'
loop_
_space_group_symop_operation_xyz
x,y,z
-x,y,1/2-z
-x,-y,-z
x,-y,1/2+z
1/2+x,1/2+y,z
1/2-x,1/2+y,1/2-z
1/2-x,1/2-y,-z
1/2+x,1/2-y,1/2+z
loop_
_atom_site_type_symbol
_atom_site_label
_atom_site_fract_x
_atom_site_fract_y
_atom_site_fract_z
Si Si1 0.869263 0.590839 0.943031
Si Si2 0.181653 0.956067 0.696795
Si Si3 0.211674 0.571190 0.776836
Si Si4 0.162126 0.709154 0.453462
Si Si5 0.146497 0.158390 0.280234
Si Si6 0.601571 0.282861 0.016952
Si Si7 0.000000 0.143661 0.750000
O O1 0.810097 0.587347 0.840376
O O2 0.051113 0.579327 0.895730
O O3 0.765139 0.550185 0.050836
O O4 0.838094 0.651930 0.987650
O O5 0.218302 0.902358 0.756500
O O6 0.000000 0.965237 0.750000
O O7 0.251096 0.007577 0.734405
O O8 0.348513 0.606445 0.784710
O O9 0.250000 0.750000 0.500000
O O10 0.238956 0.703207 0.308252
O O11 0.995146 0.732138 0.491853
O O12 0.117210 0.173778 0.414440
O O13 0.000000 0.157235 0.250000
O O14 0.524832 0.316905 0.139377
O O15 0.750000 0.250000 0.000000
#
# Coordination Sequence:
#
# PCOD8145980 Si02
#       7
#     8   8   8   8   8   8   4
#     4  10  24  41  66  93 131 168 224 265 322 400
#     4  10  22  41  66  95 125 169 222 267 327 389
#     4  11  23  43  63  97 129 172 212 277 331 382
#     4  11  21  40  65  91 121 171 216 259 317 390
#     4  10  22  40  64  93 122 168 221 261 314 398
#     4  12  25  42  62  95 134 166 212 275 333 382
#     4  12  26  40  64  98 134 168 218 272 336 380
#
# _framework density 19.878827000000001
#
# number of rings (size 3 to 8) (size 9 to 14) (size 15 to 20)
#    0.000    1.231    2.308    3.231    4.308    4.308 
#    0.000    6.154    0.000    0.000    0.000    0.000 
#    0.000    0.000    0.000    0.000    0.000    0.000 
#
# Total GULP energy -322353.647707 kJ/mol
# GULP energy per Si atom -12398.217220 kJ/mol
# Density = 1.983358 g / cm^3
# Si number density = 19.878827 Si / 1000 Ang^3
#
#
#
# Elastic Constant Matrix: (Units=GPa)
#
#
# Indices 1 2 3 4 5 6 
#
# 1 117.6773 36.0675 38.3107 0.0000 -11.2971 0.0000
# 2 36.0675 106.5833 42.1285 0.0000 4.2347 0.0000
# 3 38.3107 42.1285 137.2789 0.0000 -1.6188 0.0000
# 4 0.0000 0.0000 0.0000 -35.4122 0.0000 81.3071
# 5 -11.2971 4.2347 -1.6188 0.0000 35.9872 0.0000
# 6 0.0000 0.0000 0.0000 81.3071 0.0000 -94.5195
#
#
#
# Elastic Compliance Matrix: (Units=1/GPa)
#
#
# Indices 1 2 3 4 5 6 
#
# 1 0.010352 -0.002864 -0.001969 0.000000 0.003498 0.000000
# 2 -0.002864 0.011541 -0.002771 0.000000 -0.002382 0.000000
# 3 -0.001969 -0.002771 0.008685 0.000000 0.000099 0.000000
# 4 0.000000 0.000000 0.000000 0.028961 0.000000 0.024913
# 5 0.003498 -0.002382 0.000099 0.000000 0.029171 0.000000
# 6 0.000000 0.000000 0.000000 0.024913 0.000000 0.010850
#
#
# Mechanical properties :
#
#
# Convention : Reuss Voigt Hill
#
# Bulk Modulus (GPa) = 65.05353 66.06142 65.55748
# Shear Modulus (GPa) = 41.70426 -2.45338 19.62544
#
# Velocity S-wave (km/s) = 4.58528 -1.11214 3.14547
# Velocity P-wave (km/s) = 7.79930 5.62628 6.80015
#
# Compressibility (1/GPa) = 0.01537195
#
# Stress axis : x y z
#
# Youngs Moduli (GPa) = 96.59557 86.64568 115.13663
#
# Poissons Ratio (x) = 0.24815 0.22669
# Poissons Ratio (y) = 0.27665 0.31900
# Poissons Ratio (z) = 0.19019 0.24006
#
# Static dielectric constant tensor:
#      x y z
#    x 6.230100 0.000000 0.556750 
#    y 0.000000 3.934840 0.000000 
#    z 0.556750 0.000000 4.156880 
# 
# 
# High freq. dielectric constant tensor:
#      x y z
#    x 1.777550 0.000000 -0.011840 
#    y 0.000000 1.792580 0.000000 
#    z -0.011840 0.000000 1.787070 
# 
# From -- ./inp_files/81194.got.cif
#   From: 2010.06.25/outbox.cif.g09.slc.cpg/sg15_41_cif.got.tgz:81194.got - 2010.06.28 07:06:18.
