data_PCOD8145011
_publ_section_title
;
Structure prediction by ZEFSAII (Michael W. Deem and Ramdas Pophale) SiO2 
 PCOD8145011
Probable space group: C 2/C
;
_chemical_formula_sum "Si O2"
_cell_formula_units_Z 56
_cell_length_a 12.880154
_cell_length_b 25.451828
_cell_length_c 11.773900
_cell_angle_alpha 90.000000
_cell_angle_beta 44.120805
_cell_angle_gamma 90.000000
_cell_volume 2687.063158
_symmetry_space_group_name_H-M "C 2/C"
_symmetry_group_IT_number 15
_symmetry_cell_setting 'monoclinic'
loop_
_space_group_symop_operation_xyz
x,y,z
-x,y,1/2-z
-x,-y,-z
x,-y,1/2+z
1/2+x,1/2+y,z
1/2-x,1/2+y,1/2-z
1/2-x,1/2-y,-z
1/2+x,1/2-y,1/2+z
loop_
_atom_site_type_symbol
_atom_site_label
_atom_site_fract_x
_atom_site_fract_y
_atom_site_fract_z
Si Si1 0.138136 0.948455 0.088185
Si Si2 0.874542 0.232088 0.584264
Si Si3 0.334403 0.212776 0.346774
Si Si4 0.431557 0.181101 0.689048
Si Si5 0.112505 0.488931 0.758422
Si Si6 0.558720 0.657759 0.585544
Si Si7 0.394260 0.919788 0.059708
O O1 0.031854 0.904195 0.111997
O O2 0.253307 0.920833 0.085906
O O3 0.000000 0.983457 0.250000
O O4 0.225843 0.979501 0.923188
O O5 0.819715 0.264644 0.734151
O O6 0.727845 0.204901 0.647596
O O7 0.960014 0.271034 0.432317
O O8 0.982726 0.184965 0.537809
O O9 0.500000 0.197183 0.250000
O O10 0.250000 0.250000 0.500000
O O11 0.237779 0.160007 0.429354
O O12 0.500000 0.155291 0.750000
O O13 0.415479 0.137786 0.600578
O O14 0.138997 0.536847 0.820605
O O15 0.000000 0.508174 0.750000
O O16 0.045655 0.437107 0.874144
O O17 0.500000 0.685821 0.750000
#
# Coordination Sequence:
#
# PCOD8145011 Si02
#       7
#     8   8   8   8   8   8   8
#     4  10  22  36  60  96 126 150 191 244 305 365
#     4  12  23  39  57  82 121 160 199 246 299 343
#     4  12  20  31  53  84 116 155 186 233 290 354
#     4  12  26  42  60  83 114 163 211 252 292 357
#     4   9  20  41  64  92 119 151 198 249 294 362
#     4  11  21  35  54  88 126 153 187 240 295 365
#     4  10  22  40  65  87 118 160 199 246 303 348
#
# _framework density 20.840596999999999
#
# number of rings (size 3 to 8) (size 9 to 14) (size 15 to 20)
#    0.000    1.143    4.286    2.571    4.000    1.143 
#    0.000    0.000    0.000    2.571    0.000    0.000 
#    0.000    0.000    0.000    0.000    0.000    0.000 
#
# Total GULP energy -346950.566476 kJ/mol
# GULP energy per Si atom -12391.091660 kJ/mol
# Density = 2.079316 g / cm^3
# Si number density = 20.840597 Si / 1000 Ang^3
#
#
#
# Elastic Constant Matrix: (Units=GPa)
#
#
# Indices 1 2 3 4 5 6 
#
# 1 83.0617 26.6228 43.1205 0.0000 -6.1590 0.0000
# 2 26.6228 69.5506 34.9991 0.0000 -6.9939 0.0000
# 3 43.1205 34.9991 146.1153 0.0000 -30.7652 0.0000
# 4 0.0000 0.0000 0.0000 21.9192 0.0000 2.1842
# 5 -6.1590 -6.9939 -30.7652 0.0000 40.9387 0.0000
# 6 0.0000 0.0000 0.0000 2.1842 0.0000 19.9158
#
#
#
# Elastic Compliance Matrix: (Units=1/GPa)
#
#
# Indices 1 2 3 4 5 6 
#
# 1 0.015206 -0.004043 -0.003781 0.000000 -0.001244 0.000000
# 2 -0.004043 0.017425 -0.002948 0.000000 0.000153 0.000000
# 3 -0.003781 -0.002948 0.010027 0.000000 0.006462 0.000000
# 4 0.000000 0.000000 0.000000 0.046126 0.000000 -0.005059
# 5 -0.001244 0.000153 0.006462 0.000000 0.029122 0.000000
# 6 0.000000 0.000000 0.000000 -0.005059 0.000000 0.050766
#
#
# Mechanical properties :
#
#
# Convention : Reuss Voigt Hill
#
# Bulk Modulus (GPa) = 47.36596 56.46805 51.91700
# Shear Modulus (GPa) = 25.34805 29.48708 27.41757
#
# Velocity S-wave (km/s) = 3.49131 3.76558 3.63103
# Velocity P-wave (km/s) = 6.24735 6.78676 6.52263
#
# Compressibility (1/GPa) = 0.02111221
#
# Stress axis : x y z
#
# Youngs Moduli (GPa) = 65.76495 57.38985 99.73399
#
# Poissons Ratio (x) = 0.23202 0.37709
# Poissons Ratio (y) = 0.26588 0.29406
# Poissons Ratio (z) = 0.24866 0.16921
#
# Static dielectric constant tensor:
#      x y z
#    x 3.878470 0.000000 -0.448020 
#    y 0.000000 3.496420 0.000000 
#    z -0.448020 0.000000 4.754690 
# 
# 
# High freq. dielectric constant tensor:
#      x y z
#    x 1.808840 0.000000 -0.015140 
#    y 0.000000 1.793650 0.000000 
#    z -0.015140 0.000000 1.834350 
# 
# From -- ./inp_files/91988.got.cif
#   From: 2010.06.25/outbox.cif.g09.slc.cpg/sg15_46_cif.got.tgz:91988.got - 2010.06.28 07:06:18.
