data_PCOD8145529
_publ_section_title
;
Structure prediction by ZEFSAII (Michael W. Deem and Ramdas Pophale) SiO2 
 PCOD8145529
Probable space group: C 2/C
;
_chemical_formula_sum "Si O2"
_cell_formula_units_Z 56
_cell_length_a 12.845089
_cell_length_b 25.329540
_cell_length_c 8.338083
_cell_angle_alpha 90.000000
_cell_angle_beta 102.345638
_cell_angle_gamma 90.000000
_cell_volume 2650.146529
_symmetry_space_group_name_H-M "C 2/C"
_symmetry_group_IT_number 15
_symmetry_cell_setting 'monoclinic'
loop_
_space_group_symop_operation_xyz
x,y,z
-x,y,1/2-z
-x,-y,-z
x,-y,1/2+z
1/2+x,1/2+y,z
1/2-x,1/2+y,1/2-z
1/2-x,1/2-y,-z
1/2+x,1/2-y,1/2+z
loop_
_atom_site_type_symbol
_atom_site_label
_atom_site_fract_x
_atom_site_fract_y
_atom_site_fract_z
Si Si1 0.594733 0.294039 0.659004
Si Si2 0.105804 0.595948 0.373216
Si Si3 0.685164 0.572994 0.531192
Si Si4 0.461965 0.608540 0.562025
Si Si5 0.221393 0.965303 0.398999
Si Si6 0.293368 0.839769 0.870343
Si Si7 0.014715 0.683271 0.571129
O O1 0.500000 0.303783 0.750000
O O2 0.592746 0.339544 0.526348
O O3 0.705849 0.296370 0.791863
O O4 0.582764 0.236847 0.573267
O O5 0.166209 0.547992 0.479448
O O6 0.183892 0.622644 0.272151
O O7 0.000000 0.573897 0.250000
O O8 0.076685 0.637844 0.500107
O O9 0.560411 0.587777 0.488645
O O10 0.703774 0.528006 0.403518
O O11 0.724852 0.552308 0.715860
O O12 0.752090 0.624557 0.504584
O O13 0.500000 0.624778 0.750000
O O14 0.375013 0.562411 0.538555
O O15 0.398093 0.807651 0.956426
O O16 0.000000 0.666609 0.750000
#
# Coordination Sequence:
#
# PCOD8145529 Si02
#       7
#     8   8   8   8   8   8   8
#     4  11  22  40  66  92 125 167 207 258 313 378
#     4  10  22  42  64  90 128 165 214 257 304 372
#     4  11  23  39  65  93 130 163 209 255 312 377
#     4  10  22  39  60  95 131 161 207 257 308 379
#     4  11  22  40  63  96 125 172 204 256 316 363
#     4  11  22  42  64  91 126 168 208 261 312 368
#     4  10  24  42  62  93 124 165 210 264 313 367
#
# _framework density 21.130907000000001
#
# number of rings (size 3 to 8) (size 9 to 14) (size 15 to 20)
#    0.000    1.429    2.857    2.143    0.000    4.571 
#    5.143    7.143    0.000    0.000    0.000    0.000 
#    0.000    0.000    0.000    0.000    0.000    0.000 
#
# Total GULP energy -347323.254869 kJ/mol
# GULP energy per Si atom -12404.401960 kJ/mol
# Density = 2.108281 g / cm^3
# Si number density = 21.130907 Si / 1000 Ang^3
#
#
#
# Elastic Constant Matrix: (Units=GPa)
#
#
# Indices 1 2 3 4 5 6 
#
# 1 93.2065 27.6662 29.7411 0.0000 8.5337 0.0000
# 2 27.6662 91.7124 32.2723 0.0000 3.9655 0.0000
# 3 29.7411 32.2723 90.3345 0.0000 12.6971 0.0000
# 4 0.0000 0.0000 0.0000 25.9441 0.0000 3.0971
# 5 8.5337 3.9655 12.6971 0.0000 30.0192 0.0000
# 6 0.0000 0.0000 0.0000 3.0971 0.0000 18.8805
#
#
#
# Elastic Compliance Matrix: (Units=1/GPa)
#
#
# Indices 1 2 3 4 5 6 
#
# 1 0.012645 -0.002702 -0.002916 0.000000 -0.002004 0.000000
# 2 -0.002702 0.013050 -0.003868 0.000000 0.000680 0.000000
# 3 -0.002916 -0.003868 0.014060 0.000000 -0.004607 0.000000
# 4 0.000000 0.000000 0.000000 0.039314 0.000000 -0.006449
# 5 -0.002004 0.000680 -0.004607 0.000000 0.035740 0.000000
# 6 0.000000 0.000000 0.000000 -0.006449 0.000000 0.054023
#
#
# Mechanical properties :
#
#
# Convention : Reuss Voigt Hill
#
# Bulk Modulus (GPa) = 48.11795 50.51250 49.31522
# Shear Modulus (GPa) = 25.67629 27.34035 26.50832
#
# Velocity S-wave (km/s) = 3.48962 3.60092 3.54571
# Velocity P-wave (km/s) = 6.24959 6.42225 6.33651
#
# Compressibility (1/GPa) = 0.02078227
#
# Stress axis : x y z
#
# Youngs Moduli (GPa) = 79.08380 76.62559 71.12578
#
# Poissons Ratio (x) = 0.20701 0.20742
# Poissons Ratio (y) = 0.21366 0.27515
# Poissons Ratio (z) = 0.23062 0.29642
#
# Static dielectric constant tensor:
#      x y z
#    x 3.958520 0.000000 0.051630 
#    y 0.000000 3.683970 0.000000 
#    z 0.051630 0.000000 3.937240 
# 
# 
# High freq. dielectric constant tensor:
#      x y z
#    x 1.837460 0.000000 0.003320 
#    y 0.000000 1.815670 0.000000 
#    z 0.003320 0.000000 1.839450 
# 
# From -- ./inp_files/34190.got.cif
#   From: 2010.06.25/outbox.cif.g09.slc.cpg/sg15_18_cif.got.tgz:34190.got - 2010.06.28 07:06:18.
