data_PCOD8145597
_publ_section_title
;
Structure prediction by ZEFSAII (Michael W. Deem and Ramdas Pophale) SiO2 
 PCOD8145597
Probable space group: C 2/C
;
_chemical_formula_sum "Si O2"
_cell_formula_units_Z 64
_cell_length_a 22.104526
_cell_length_b 8.647522
_cell_length_c 14.535112
_cell_angle_alpha 90.000000
_cell_angle_beta 88.664840
_cell_angle_gamma 90.000000
_cell_volume 2777.623240
_symmetry_space_group_name_H-M "C 2/C"
_symmetry_group_IT_number 15
_symmetry_cell_setting 'monoclinic'
loop_
_space_group_symop_operation_xyz
x,y,z
-x,y,1/2-z
-x,-y,-z
x,-y,1/2+z
1/2+x,1/2+y,z
1/2-x,1/2+y,1/2-z
1/2-x,1/2-y,-z
1/2+x,1/2-y,1/2+z
loop_
_atom_site_type_symbol
_atom_site_label
_atom_site_fract_x
_atom_site_fract_y
_atom_site_fract_z
Si Si1 0.939695 0.704862 0.956295
Si Si2 0.743901 0.104803 0.126793
Si Si3 0.369260 0.956784 0.607356
Si Si4 0.127792 0.569750 0.704768
Si Si5 0.423866 0.252708 0.528749
Si Si6 0.370386 0.396947 0.700547
Si Si7 0.891345 0.989055 0.382578
Si Si8 0.757984 0.950049 0.413494
O O1 0.919921 0.583309 0.877500
O O2 0.933490 0.881555 0.926400
O O3 0.009879 0.677434 0.975779
O O4 0.899931 0.682274 0.050257
O O5 0.805465 0.040321 0.170289
O O6 0.738251 0.289099 0.143309
O O7 0.688787 0.009796 0.169657
O O8 0.746512 0.075584 0.019795
O O9 0.399210 0.970382 0.708188
O O10 0.376895 0.115142 0.548323
O O11 0.296459 0.940749 0.622610
O O12 0.140806 0.739801 0.742559
O O13 0.415436 0.376898 0.611799
O O14 0.407189 0.326459 0.430436
O O15 0.401471 0.518269 0.771240
O O16 0.821322 0.038594 0.398911
#
# Coordination Sequence:
#
# PCOD8145597 Si02
#       8
#     8   8   8   8   8   8   8   8
#     4  11  25  43  65  95 134 172 225 277 326 394
#     4  11  19  39  63  94 133 170 215 267 328 407
#     4  11  22  44  67  99 128 175 220 280 334 393
#     4  10  22  39  62  94 132 171 221 269 335 395
#     4  11  22  46  70  90 129 180 227 266 331 400
#     4  10  22  39  64  96 128 178 220 271 338 392
#     4  11  24  41  65  99 131 175 220 273 335 396
#     4  11  20  38  69  91 132 172 212 264 339 393
#
# _framework density 23.041281999999999
#
# number of rings (size 3 to 8) (size 9 to 14) (size 15 to 20)
#    0.000    1.250    5.000    2.250    0.000    5.000 
#    4.500    0.000    0.000    0.000    0.000    0.000 
#    0.000    0.000    0.000    0.000    0.000    0.000 
#
# Total GULP energy -396754.439985 kJ/mol
# GULP energy per Si atom -12398.576250 kJ/mol
# Density = 2.298884 g / cm^3
# Si number density = 23.041282 Si / 1000 Ang^3
#
#
#
# Elastic Constant Matrix: (Units=GPa)
#
#
# Indices 1 2 3 4 5 6 
#
# 1 121.4573 9.6255 29.1874 0.0000 14.9489 0.0000
# 2 9.6255 22.4997 16.4395 0.0000 1.2524 0.0000
# 3 29.1874 16.4395 90.1338 0.0000 15.7707 0.0000
# 4 0.0000 0.0000 0.0000 10.8890 0.0000 6.1589
# 5 14.9489 1.2524 15.7707 0.0000 22.2695 0.0000
# 6 0.0000 0.0000 0.0000 6.1589 0.0000 26.9591
#
#
#
# Elastic Compliance Matrix: (Units=1/GPa)
#
#
# Indices 1 2 3 4 5 6 
#
# 1 0.009462 -0.002502 -0.001736 0.000000 -0.004981 0.000000
# 2 -0.002502 0.052298 -0.009711 0.000000 0.005616 0.000000
# 3 -0.001736 -0.009711 0.014985 0.000000 -0.008901 0.000000
# 4 0.000000 0.000000 0.000000 0.105463 0.000000 -0.024093
# 5 -0.004981 0.005616 -0.008901 0.000000 0.054236 0.000000
# 6 0.000000 0.000000 0.000000 -0.024093 0.000000 0.042597
#
#
# Mechanical properties :
#
#
# Convention : Reuss Voigt Hill
#
# Bulk Modulus (GPa) = 20.47198 38.28839 29.38018
# Shear Modulus (GPa) = 15.46919 23.94609 19.70764
#
# Velocity S-wave (km/s) = 2.59389 3.22727 2.92776
# Velocity P-wave (km/s) = 4.22791 5.52633 4.92014
#
# Compressibility (1/GPa) = 0.04884726
#
# Stress axis : x y z
#
# Youngs Moduli (GPa) = 105.68671 19.12106 66.73184
#
# Poissons Ratio (x) = 0.04784 0.11585
# Poissons Ratio (y) = 0.26445 0.64803
# Poissons Ratio (z) = 0.18347 0.18568
#
# Static dielectric constant tensor:
#      x y z
#    x 4.013700 0.000000 0.056050 
#    y 0.000000 3.854930 0.000000 
#    z 0.056050 0.000000 4.731740 
# 
# 
# High freq. dielectric constant tensor:
#      x y z
#    x 1.901620 0.000000 0.008080 
#    y 0.000000 1.877520 0.000000 
#    z 0.008080 0.000000 1.928850 
# 
# From -- ./inp_files/172409.got.cif
#   From: 2010.06.25/outbox.cif.g09.slc.cpg/sg15_87_cif.got.tgz:172409.got - 2010.06.28 07:06:18.
