data_PCOD8145289
_publ_section_title
;
Structure prediction by ZEFSAII (Michael W. Deem and Ramdas Pophale) SiO2 
 PCOD8145289
Probable space group: C 2/C
;
_chemical_formula_sum "Si O2"
_cell_formula_units_Z 60
_cell_length_a 15.551676
_cell_length_b 23.257605
_cell_length_c 8.450040
_cell_angle_alpha 90.000000
_cell_angle_beta 66.381188
_cell_angle_gamma 90.000000
_cell_volume 2800.309585
_symmetry_space_group_name_H-M "C 2/C"
_symmetry_group_IT_number 15
_symmetry_cell_setting 'monoclinic'
loop_
_space_group_symop_operation_xyz
x,y,z
-x,y,1/2-z
-x,-y,-z
x,-y,1/2+z
1/2+x,1/2+y,z
1/2-x,1/2+y,1/2-z
1/2-x,1/2-y,-z
1/2+x,1/2-y,1/2+z
loop_
_atom_site_type_symbol
_atom_site_label
_atom_site_fract_x
_atom_site_fract_y
_atom_site_fract_z
Si Si1 0.577531 0.821114 0.991398
Si Si2 0.500000 0.476073 0.750000
Si Si3 0.077328 0.547808 0.482054
Si Si4 0.378334 0.448868 0.113032
Si Si5 0.300301 0.012749 0.382831
Si Si6 0.748980 0.206168 0.145614
Si Si7 0.750324 0.880588 0.396960
Si Si8 0.624577 0.207472 0.802831
O O1 0.540179 0.886971 0.008934
O O2 0.645710 0.801924 0.798641
O O3 0.482386 0.783591 0.058688
O O4 0.631912 0.811446 0.115560
O O5 0.546238 0.435689 0.580927
O O6 0.577200 0.516256 0.775045
O O7 0.160104 0.547986 0.293164
O O8 0.123546 0.535112 0.619292
O O9 0.000000 0.500000 0.500000
O O10 0.297933 0.485587 0.088627
O O11 0.338437 0.388714 0.212350
O O12 0.289607 0.055564 0.541425
O O13 0.822551 0.230940 0.219254
O O14 0.750000 0.250000 0.000000
O O15 0.782447 0.145876 0.043194
O O16 0.672158 0.841316 0.374821
#
# Coordination Sequence:
#
# PCOD8145289 Si02
#       8
#     8   4   8   8   8   8   8   8
#     4  11  23  42  69  99 132 179 216 276 338 399
#     4  10  22  38  62  86 124 168 226 264 314 382
#     4  12  25  36  60 102 147 175 214 255 324 425
#     4  11  21  39  62  89 126 175 218 270 331 392
#     4  12  22  38  60  92 142 175 211 258 328 411
#     4  10  23  44  67  90 123 167 224 282 334 382
#     4  11  21  40  61  93 124 175 209 268 333 397
#     4  10  24  41  69  92 129 165 227 273 339 390
#
# _framework density 21.426203000000001
#
# number of rings (size 3 to 8) (size 9 to 14) (size 15 to 20)
#    0.000    1.067    4.000    2.400    3.733    2.133 
#    0.000    2.667    0.000    1.600    0.000    0.000 
#    0.000    0.000    0.000    0.000    0.000    0.000 
#
# Total GULP energy -371910.891674 kJ/mol
# GULP energy per Si atom -12397.029722 kJ/mol
# Density = 2.137744 g / cm^3
# Si number density = 21.426203 Si / 1000 Ang^3
#
#
#
# Elastic Constant Matrix: (Units=GPa)
#
#
# Indices 1 2 3 4 5 6 
#
# 1 114.7454 40.2511 28.2209 0.0000 3.4659 0.0000
# 2 40.2511 76.5405 39.3427 0.0000 -9.6024 0.0000
# 3 28.2209 39.3427 138.5884 0.0000 -15.4974 0.0000
# 4 0.0000 0.0000 0.0000 36.8858 0.0000 3.1315
# 5 3.4659 -9.6024 -15.4974 0.0000 33.8855 0.0000
# 6 0.0000 0.0000 0.0000 3.1315 0.0000 34.0586
#
#
#
# Elastic Compliance Matrix: (Units=1/GPa)
#
#
# Indices 1 2 3 4 5 6 
#
# 1 0.011057 -0.005708 -0.000989 0.000000 -0.003201 0.000000
# 2 -0.005708 0.018443 -0.003608 0.000000 0.004160 0.000000
# 3 -0.000989 -0.003608 0.008788 0.000000 0.003098 0.000000
# 4 0.000000 0.000000 0.000000 0.027324 0.000000 -0.002512
# 5 -0.003201 0.004160 0.003098 0.000000 0.032434 0.000000
# 6 0.000000 0.000000 0.000000 -0.002512 0.000000 0.029592
#
#
# Mechanical properties :
#
#
# Convention : Reuss Voigt Hill
#
# Bulk Modulus (GPa) = 56.56860 60.61152 58.59006
# Shear Modulus (GPa) = 32.43779 35.76995 34.10387
#
# Velocity S-wave (km/s) = 3.89515 4.09032 3.99393
# Velocity P-wave (km/s) = 6.83290 7.11741 6.97661
#
# Compressibility (1/GPa) = 0.01767765
#
# Stress axis : x y z
#
# Youngs Moduli (GPa) = 90.43935 54.22065 113.79505
#
# Poissons Ratio (x) = 0.30948 0.11256
# Poissons Ratio (y) = 0.51621 0.41059
# Poissons Ratio (z) = 0.08946 0.19564
#
# Static dielectric constant tensor:
#      x y z
#    x 3.957940 0.000000 0.071360 
#    y 0.000000 4.043570 0.000000 
#    z 0.071360 0.000000 4.254140 
# 
# 
# High freq. dielectric constant tensor:
#      x y z
#    x 1.836720 0.000000 0.002270 
#    y 0.000000 1.816460 0.000000 
#    z 0.002270 0.000000 1.865550 
# 
# From -- ./inp_files/42598.got.cif
#   From: 2010.06.25/outbox.cif.g09.slc.cpg/sg15_22_cif.got.tgz:42598.got - 2010.06.28 07:06:18.
