data_PCOD8145226
_publ_section_title
;
Structure prediction by ZEFSAII (Michael W. Deem and Ramdas Pophale) SiO2 
 PCOD8145226
Probable space group: C 2/C
;
_chemical_formula_sum "Si O2"
_cell_formula_units_Z 44
_cell_length_a 11.211532
_cell_length_b 23.990296
_cell_length_c 9.319360
_cell_angle_alpha 90.000000
_cell_angle_beta 55.214230
_cell_angle_gamma 90.000000
_cell_volume 2058.655518
_symmetry_space_group_name_H-M "C 2/C"
_symmetry_group_IT_number 15
_symmetry_cell_setting 'monoclinic'
loop_
_space_group_symop_operation_xyz
x,y,z
-x,y,1/2-z
-x,-y,-z
x,-y,1/2+z
1/2+x,1/2+y,z
1/2-x,1/2+y,1/2-z
1/2-x,1/2-y,-z
1/2+x,1/2-y,1/2+z
loop_
_atom_site_type_symbol
_atom_site_label
_atom_site_fract_x
_atom_site_fract_y
_atom_site_fract_z
Si Si1 0.460922 0.095112 0.933813
Si Si2 0.724748 0.543925 0.302436
Si Si3 0.037446 0.848546 0.923432
Si Si4 0.500000 0.354183 0.250000
Si Si5 0.252662 0.062178 0.611289
Si Si6 0.234948 0.812906 0.557200
O O1 0.500000 0.069356 0.750000
O O2 0.604753 0.093856 0.930204
O O3 0.348470 0.059405 0.102424
O O4 0.391782 0.156897 0.955183
O O5 0.589418 0.586707 0.388668
O O6 0.779578 0.539788 0.429857
O O7 0.685234 0.483224 0.268388
O O8 0.159067 0.811106 0.764110
O O9 0.877080 0.847379 0.965627
O O10 0.033754 0.819528 0.083299
O O11 0.363879 0.390470 0.302129
O O12 0.250000 0.750000 0.500000
#
# Coordination Sequence:
#
# PCOD8145226 Si02
#       6
#     8   8   8   4   8   8
#     4  11  22  36  59  89 123 161 203 259 306 362
#     4  10  22  38  59  90 126 169 203 254 299 371
#     4   9  21  41  63  88 125 155 208 256 312 366
#     4  10  22  40  60  88 126 168 198 254 308 370
#     4  11  22  37  61  89 129 167 211 241 308 368
#     4  10  22  40  66  90 118 157 211 264 313 367
#
# _framework density 21.373172
#
# number of rings (size 3 to 8) (size 9 to 14) (size 15 to 20)
#    0.000    1.818    0.000    3.273    2.545    8.727 
#    0.000    0.909    8.000    0.000    0.000    0.000 
#    0.000    0.000    0.000    0.000    0.000    0.000 
#
# Total GULP energy -272543.979329 kJ/mol
# GULP energy per Si atom -12388.362697 kJ/mol
# Density = 2.132453 g / cm^3
# Si number density = 21.373172 Si / 1000 Ang^3
#
#
#
# Elastic Constant Matrix: (Units=GPa)
#
#
# Indices 1 2 3 4 5 6 
#
# 1 110.8884 28.1635 61.2914 0.0000 18.2765 0.0000
# 2 28.1635 57.0399 34.8116 0.0000 13.1033 0.0000
# 3 61.2914 34.8116 166.8921 0.0000 37.0446 0.0000
# 4 0.0000 0.0000 0.0000 27.8240 0.0000 -3.4480
# 5 18.2765 13.1033 37.0446 0.0000 33.9723 0.0000
# 6 0.0000 0.0000 0.0000 -3.4480 0.0000 24.3975
#
#
#
# Elastic Compliance Matrix: (Units=1/GPa)
#
#
# Indices 1 2 3 4 5 6 
#
# 1 0.012009 -0.003555 -0.003350 0.000000 -0.001437 0.000000
# 2 -0.003555 0.021605 -0.002343 0.000000 -0.003866 0.000000
# 3 -0.003350 -0.002343 0.009381 0.000000 -0.007523 0.000000
# 4 0.000000 0.000000 0.000000 0.036581 0.000000 0.005170
# 5 -0.001437 -0.003866 -0.007523 0.000000 0.039903 0.000000
# 6 0.000000 0.000000 0.000000 0.005170 0.000000 0.041718
#
#
# Mechanical properties :
#
#
# Convention : Reuss Voigt Hill
#
# Bulk Modulus (GPa) = 40.81767 64.81703 52.81735
# Shear Modulus (GPa) = 26.61556 31.27568 28.94562
#
# Velocity S-wave (km/s) = 3.53268 3.82948 3.68407
# Velocity P-wave (km/s) = 5.98154 7.06721 6.54692
#
# Compressibility (1/GPa) = 0.02449919
#
# Stress axis : x y z
#
# Youngs Moduli (GPa) = 83.26760 46.28598 106.60069
#
# Poissons Ratio (x) = 0.16455 0.35712
# Poissons Ratio (y) = 0.29603 0.24974
# Poissons Ratio (z) = 0.27895 0.10844
#
# Static dielectric constant tensor:
#      x y z
#    x 4.039560 0.000000 0.036290 
#    y 0.000000 3.491450 0.000000 
#    z 0.036290 0.000000 5.030090 
# 
# 
# High freq. dielectric constant tensor:
#      x y z
#    x 1.843820 0.000000 0.002600 
#    y 0.000000 1.798110 0.000000 
#    z 0.002600 0.000000 1.873300 
# 
# From -- ./inp_files/32464.got.cif
#   From: 2010.06.25/outbox.cif.g09.slc.cpg/sg15_17_cif.got.tgz:32464.got - 2010.06.28 07:06:18.
