data_PCOD8145730
_publ_section_title
;
Structure prediction by ZEFSAII (Michael W. Deem and Ramdas Pophale) SiO2 
 PCOD8145730
Probable space group: C 2/C
;
_chemical_formula_sum "Si O2"
_cell_formula_units_Z 44
_cell_length_a 19.198181
_cell_length_b 12.551518
_cell_length_c 9.051363
_cell_angle_alpha 90.000000
_cell_angle_beta 113.905057
_cell_angle_gamma 90.000000
_cell_volume 1993.977150
_symmetry_space_group_name_H-M "C 2/C"
_symmetry_group_IT_number 15
_symmetry_cell_setting 'monoclinic'
loop_
_space_group_symop_operation_xyz
x,y,z
-x,y,1/2-z
-x,-y,-z
x,-y,1/2+z
1/2+x,1/2+y,z
1/2-x,1/2+y,1/2-z
1/2-x,1/2-y,-z
1/2+x,1/2-y,1/2+z
loop_
_atom_site_type_symbol
_atom_site_label
_atom_site_fract_x
_atom_site_fract_y
_atom_site_fract_z
Si Si1 0.271019 0.507761 0.397856
Si Si2 0.458031 0.085907 0.059698
Si Si3 0.445350 0.252818 0.476614
Si Si4 0.669601 0.930560 0.557316
Si Si5 0.626912 0.583545 0.766933
Si Si6 0.000000 0.076949 0.250000
O O1 0.228689 0.424863 0.472016
O O2 0.211533 0.577558 0.251516
O O3 0.324300 0.586721 0.540176
O O4 0.320179 0.438268 0.328326
O O5 0.500000 0.089719 0.250000
O O6 0.472463 0.199747 0.991332
O O7 0.500000 0.000000 0.000000
O O8 0.370413 0.048150 0.993378
O O9 0.389893 0.165965 0.504672
O O10 0.409669 0.300059 0.293661
O O11 0.455928 0.350443 0.595650
O O12 0.561366 0.494550 0.718018
#
# Coordination Sequence:
#
# PCOD8145730 Si02
#       6
#     8   8   8   8   8   4
#     4  10  23  44  66  91 141 172 206 276 323 397
#     4  10  22  39  67 103 137 165 213 271 326 392
#     4  11  25  39  72  99 126 176 224 270 338 382
#     4  10  22  42  68 101 136 165 209 272 337 397
#     4  11  24  47  65  93 129 176 227 267 322 383
#     4  12  26  44  70  92 132 172 226 292 308 382
#
# _framework density 22.066451000000001
#
# number of rings (size 3 to 8) (size 9 to 14) (size 15 to 20)
#    0.000    1.455    1.818    2.727    8.909    1.455 
#    0.000    0.000    0.000    0.000    0.000    0.000 
#    0.000    0.000    0.000    0.000    0.000    0.000 
#
# Total GULP energy -272736.585910 kJ/mol
# GULP energy per Si atom -12397.117541 kJ/mol
# Density = 2.201623 g / cm^3
# Si number density = 22.066451 Si / 1000 Ang^3
#
#
#
# Elastic Constant Matrix: (Units=GPa)
#
#
# Indices 1 2 3 4 5 6 
#
# 1 106.5216 47.4720 37.3149 0.0000 1.7667 0.0000
# 2 47.4720 91.5981 20.1697 0.0000 0.9639 0.0000
# 3 37.3149 20.1697 112.0738 0.0000 2.3898 0.0000
# 4 0.0000 0.0000 0.0000 21.2861 0.0000 5.4208
# 5 1.7667 0.9639 2.3898 0.0000 37.8580 0.0000
# 6 0.0000 0.0000 0.0000 5.4208 0.0000 21.3590
#
#
#
# Elastic Compliance Matrix: (Units=1/GPa)
#
#
# Indices 1 2 3 4 5 6 
#
# 1 0.013298 -0.006159 -0.003314 0.000000 -0.000255 0.000000
# 2 -0.006159 0.014222 -0.000508 0.000000 -0.000043 0.000000
# 3 -0.003314 -0.000508 0.010127 0.000000 -0.000472 0.000000
# 4 0.000000 0.000000 0.000000 0.050225 0.000000 -0.012747
# 5 -0.000255 -0.000043 -0.000472 0.000000 0.026457 0.000000
# 6 0.000000 0.000000 0.000000 -0.012747 0.000000 0.050054
#
#
# Mechanical properties :
#
#
# Convention : Reuss Voigt Hill
#
# Bulk Modulus (GPa) = 56.54398 57.78965 57.16682
# Shear Modulus (GPa) = 26.28267 29.78310 28.03288
#
# Velocity S-wave (km/s) = 3.45493 3.67781 3.56811
# Velocity P-wave (km/s) = 6.44945 6.65439 6.55272
#
# Compressibility (1/GPa) = 0.01768535
#
# Stress axis : x y z
#
# Youngs Moduli (GPa) = 75.20088 70.31497 98.74232
#
# Poissons Ratio (x) = 0.43310 0.32719
# Poissons Ratio (y) = 0.46319 0.05014
# Poissons Ratio (z) = 0.24918 0.03570
#
# Static dielectric constant tensor:
#      x y z
#    x 4.468160 0.000000 0.223290 
#    y 0.000000 4.061820 0.000000 
#    z 0.223290 0.000000 4.330100 
# 
# 
# High freq. dielectric constant tensor:
#      x y z
#    x 1.879870 0.000000 -0.004620 
#    y 0.000000 1.846440 0.000000 
#    z -0.004620 0.000000 1.881570 
# 
# From -- ./inp_files/54544.got.cif
#   From: 2010.06.25/outbox.cif.g09.slc.cpg/sg15_28_cif.got.tgz:54544.got - 2010.06.28 07:06:18.
