data_PCOD8145149
_publ_section_title
;
Structure prediction by ZEFSAII (Michael W. Deem and Ramdas Pophale) SiO2 
 PCOD8145149
Probable space group: C 2/C
;
_chemical_formula_sum "Si O2"
_cell_formula_units_Z 52
_cell_length_a 20.638140
_cell_length_b 11.019471
_cell_length_c 19.802518
_cell_angle_alpha 90.000000
_cell_angle_beta 32.855971
_cell_angle_gamma 90.000000
_cell_volume 2443.288446
_symmetry_space_group_name_H-M "C 2/C"
_symmetry_group_IT_number 15
_symmetry_cell_setting 'monoclinic'
loop_
_space_group_symop_operation_xyz
x,y,z
-x,y,1/2-z
-x,-y,-z
x,-y,1/2+z
1/2+x,1/2+y,z
1/2-x,1/2+y,1/2-z
1/2-x,1/2-y,-z
1/2+x,1/2-y,1/2+z
loop_
_atom_site_type_symbol
_atom_site_label
_atom_site_fract_x
_atom_site_fract_y
_atom_site_fract_z
Si Si1 0.887318 0.286510 0.901586
Si Si2 0.330903 0.665100 0.294793
Si Si3 0.386207 0.875162 0.151833
Si Si4 0.452495 0.321031 0.485645
Si Si5 0.651990 0.489402 0.331559
Si Si6 0.500000 0.765648 0.250000
Si Si7 0.095840 0.554332 0.556871
O O1 0.879589 0.426363 0.929729
O O2 0.000000 0.269871 0.750000
O O3 0.750000 0.250000 0.000000
O O4 0.921581 0.204043 0.935215
O O5 0.320225 0.795243 0.267193
O O6 0.397405 0.574039 0.185502
O O7 0.406593 0.676275 0.296406
O O8 0.205680 0.606368 0.420022
O O9 0.429922 0.796720 0.050478
O O10 0.293478 0.972190 0.203918
O O11 0.490033 0.954778 0.094859
O O12 0.590871 0.357611 0.376131
O O13 0.377581 0.440784 0.572843
O O14 0.430511 0.847996 0.363150
#
# Coordination Sequence:
#
# PCOD8145149 Si02
#       7
#     8   8   8   8   8   4   8
#     4  12  30  47  70 100 142 191 232 278 346 421
#     4  10  22  37  65  95 125 172 220 272 347 398
#     4  10  22  40  70  98 127 170 223 290 345 402
#     4  10  24  43  67  97 135 171 227 285 338 412
#     4  10  22  41  66  98 130 168 220 287 344 400
#     4  10  22  42  64  92 134 172 224 282 328 414
#     4  11  23  43  65  97 130 175 230 282 338 408
#
# _framework density 21.282792000000001
#
# number of rings (size 3 to 8) (size 9 to 14) (size 15 to 20)
#    0.000    1.538    0.769    2.308    6.462    6.154 
#    0.000    0.000    0.000    0.000    0.000    0.000 
#    0.000    0.000    0.000    0.000    0.000    0.000 
#
# Total GULP energy -322287.924181 kJ/mol
# GULP energy per Si atom -12395.689392 kJ/mol
# Density = 2.123435 g / cm^3
# Si number density = 21.282792 Si / 1000 Ang^3
#
#
#
# Elastic Constant Matrix: (Units=GPa)
#
#
# Indices 1 2 3 4 5 6 
#
# 1 155.7081 62.6722 56.7292 0.0000 -12.5466 0.0000
# 2 62.6722 86.3116 45.6267 0.0000 -14.0252 0.0000
# 3 56.7292 45.6267 111.2516 0.0000 -13.6388 0.0000
# 4 0.0000 0.0000 0.0000 20.9366 0.0000 -4.7244
# 5 -12.5466 -14.0252 -13.6388 0.0000 36.8466 0.0000
# 6 0.0000 0.0000 0.0000 -4.7244 0.0000 44.4219
#
#
#
# Elastic Compliance Matrix: (Units=1/GPa)
#
#
# Indices 1 2 3 4 5 6 
#
# 1 0.009634 -0.005592 -0.002596 0.000000 0.000191 0.000000
# 2 -0.005592 0.018495 -0.004299 0.000000 0.003544 0.000000
# 3 -0.002596 -0.004299 0.012326 0.000000 0.002042 0.000000
# 4 0.000000 0.000000 0.000000 0.048938 0.000000 0.005205
# 5 0.000191 0.003544 0.002042 0.000000 0.029310 0.000000
# 6 0.000000 0.000000 0.000000 0.005205 0.000000 0.023065
#
#
# Mechanical properties :
#
#
# Convention : Reuss Voigt Hill
#
# Bulk Modulus (GPa) = 64.59596 75.92528 70.26062
# Shear Modulus (GPa) = 29.08629 32.99055 31.03842
#
# Velocity S-wave (km/s) = 3.70084 3.94141 3.82302
# Velocity P-wave (km/s) = 6.97702 7.51431 7.25064
#
# Compressibility (1/GPa) = 0.01548084
#
# Stress axis : x y z
#
# Youngs Moduli (GPa) = 103.79572 54.06796 81.13105
#
# Poissons Ratio (x) = 0.30237 0.21059
# Poissons Ratio (y) = 0.58047 0.34879
# Poissons Ratio (z) = 0.26942 0.23244
#
# Static dielectric constant tensor:
#      x y z
#    x 3.853110 0.000000 -0.039730 
#    y 0.000000 3.822740 0.000000 
#    z -0.039730 0.000000 3.990810 
# 
# 
# High freq. dielectric constant tensor:
#      x y z
#    x 1.841530 0.000000 0.007280 
#    y 0.000000 1.839870 0.000000 
#    z 0.007280 0.000000 1.845720 
# 
# From -- ./inp_files/252714.got.cif
#   From: 2010.06.25/outbox.cif.g09.slc.cpg/sg15_127_cif.got.tgz:252714.got - 2010.06.28 07:06:18.
