data_PCOD8145642
_publ_section_title
;
Structure prediction by ZEFSAII (Michael W. Deem and Ramdas Pophale) SiO2 
 PCOD8145642
Probable space group: C 2/C
;
_chemical_formula_sum "Si O2"
_cell_formula_units_Z 64
_cell_length_a 28.442701
_cell_length_b 14.380592
_cell_length_c 9.033557
_cell_angle_alpha 90.000000
_cell_angle_beta 129.502068
_cell_angle_gamma 90.000000
_cell_volume 2851.015138
_symmetry_space_group_name_H-M "C 2/C"
_symmetry_group_IT_number 15
_symmetry_cell_setting 'monoclinic'
loop_
_space_group_symop_operation_xyz
x,y,z
-x,y,1/2-z
-x,-y,-z
x,-y,1/2+z
1/2+x,1/2+y,z
1/2-x,1/2+y,1/2-z
1/2-x,1/2-y,-z
1/2+x,1/2-y,1/2+z
loop_
_atom_site_type_symbol
_atom_site_label
_atom_site_fract_x
_atom_site_fract_y
_atom_site_fract_z
Si Si1 0.344863 0.035321 0.431929
Si Si2 0.761446 0.312765 0.251286
Si Si3 0.825673 0.310081 0.086609
Si Si4 0.576442 0.327064 0.763330
Si Si5 0.558109 0.294502 0.065469
Si Si6 0.206246 0.997219 0.179907
Si Si7 0.137053 0.369376 0.844302
Si Si8 0.122704 0.019256 0.771498
O O1 0.369187 0.118098 0.585854
O O2 0.274846 0.028010 0.350817
O O3 0.350370 0.063067 0.271478
O O4 0.379078 0.939519 0.549973
O O5 0.731403 0.215725 0.138995
O O6 0.706109 0.384307 0.167537
O O7 0.803853 0.308424 0.484099
O O8 0.801234 0.352173 0.191803
O O9 0.866882 0.220526 0.207773
O O10 0.514480 0.294191 0.560074
O O11 0.581938 0.438778 0.766216
O O12 0.577324 0.292143 0.933654
O O13 0.583650 0.203094 0.200945
O O14 0.582047 0.389480 0.183820
O O15 0.151174 0.022471 0.179275
O O16 0.183893 0.044620 0.984582
#
# Coordination Sequence:
#
# PCOD8145642 Si02
#       8
#     8   8   8   8   8   8   8   8
#     4  11  23  39  66  99 143 173 227 287 350 409
#     4  10  22  39  63  98 144 174 223 276 349 413
#     4  11  21  40  68 100 135 183 223 283 343 417
#     4  11  24  46  69  99 139 185 230 294 348 409
#     4  11  25  46  70  97 140 183 243 286 350 407
#     4  11  22  38  61 101 141 175 216 271 345 423
#     4  11  24  45  68 103 135 187 231 291 348 414
#     4  12  22  41  65 101 138 181 225 271 346 424
#
# _framework density 22.448143999999999
#
# number of rings (size 3 to 8) (size 9 to 14) (size 15 to 20)
#    0.000    1.000    3.750    4.125    3.500    0.500 
#    0.000    2.500    0.000    0.000    0.000    0.000 
#    0.000    0.000    0.000    0.000    0.000    0.000 
#
# Total GULP energy -396551.345026 kJ/mol
# GULP energy per Si atom -12392.229532 kJ/mol
# Density = 2.239705 g / cm^3
# Si number density = 22.448144 Si / 1000 Ang^3
#
#
#
# Elastic Constant Matrix: (Units=GPa)
#
#
# Indices 1 2 3 4 5 6 
#
# 1 57.8921 17.8107 30.6507 0.0000 2.7590 0.0000
# 2 17.8107 100.9915 62.4964 0.0000 2.5414 0.0000
# 3 30.6507 62.4964 128.4959 0.0000 8.2602 0.0000
# 4 0.0000 0.0000 0.0000 42.3513 0.0000 -6.2661
# 5 2.7590 2.5414 8.2602 0.0000 26.0358 0.0000
# 6 0.0000 0.0000 0.0000 -6.2661 0.0000 31.3213
#
#
#
# Elastic Compliance Matrix: (Units=1/GPa)
#
#
# Indices 1 2 3 4 5 6 
#
# 1 0.019828 -0.000829 -0.004284 0.000000 -0.000661 0.000000
# 2 -0.000829 0.014217 -0.006772 0.000000 0.000848 0.000000
# 3 -0.004284 -0.006772 0.012276 0.000000 -0.002780 0.000000
# 4 0.000000 0.000000 0.000000 0.024332 0.000000 0.004868
# 5 -0.000661 0.000848 -0.002780 0.000000 0.039278 0.000000
# 6 0.000000 0.000000 0.000000 0.004868 0.000000 0.032901
#
#
# Mechanical properties :
#
#
# Convention : Reuss Voigt Hill
#
# Bulk Modulus (GPa) = 44.34114 56.58835 50.46474
# Shear Modulus (GPa) = 28.71588 31.70312 30.20950
#
# Velocity S-wave (km/s) = 3.58048 3.76211 3.67242
# Velocity P-wave (km/s) = 6.07361 6.64338 6.36487
#
# Compressibility (1/GPa) = 0.02255242
#
# Stress axis : x y z
#
# Youngs Moduli (GPa) = 50.43310 70.33772 81.45735
#
# Poissons Ratio (x) = 0.05833 0.34896
# Poissons Ratio (y) = 0.04182 0.55159
# Poissons Ratio (z) = 0.21605 0.47629
#
# Static dielectric constant tensor:
#      x y z
#    x 3.676530 0.000000 -0.082920 
#    y 0.000000 4.098180 0.000000 
#    z -0.082920 0.000000 4.130750 
# 
# 
# High freq. dielectric constant tensor:
#      x y z
#    x 1.851000 0.000000 -0.012040 
#    y 0.000000 1.894000 0.000000 
#    z -0.012040 0.000000 1.888050 
# 
# From -- ./inp_files/70172.got.cif
#   From: 2010.06.25/outbox.cif.g09.slc.cpg/sg15_36_cif.got.tgz:70172.got - 2010.06.28 07:06:18.
