data_PCOD8145591
_publ_section_title
;
Structure prediction by ZEFSAII (Michael W. Deem and Ramdas Pophale) SiO2 
 PCOD8145591
Probable space group: C 2/C
;
_chemical_formula_sum "Si O2"
_cell_formula_units_Z 56
_cell_length_a 20.764579
_cell_length_b 12.526508
_cell_length_c 12.869596
_cell_angle_alpha 90.000000
_cell_angle_beta 126.368112
_cell_angle_gamma 90.000000
_cell_volume 2695.471490
_symmetry_space_group_name_H-M "C 2/C"
_symmetry_group_IT_number 15
_symmetry_cell_setting 'monoclinic'
loop_
_space_group_symop_operation_xyz
x,y,z
-x,y,1/2-z
-x,-y,-z
x,-y,1/2+z
1/2+x,1/2+y,z
1/2-x,1/2+y,1/2-z
1/2-x,1/2-y,-z
1/2+x,1/2-y,1/2+z
loop_
_atom_site_type_symbol
_atom_site_label
_atom_site_fract_x
_atom_site_fract_y
_atom_site_fract_z
Si Si1 0.538733 0.439155 0.181154
Si Si2 0.734140 0.969870 0.330184
Si Si3 0.216191 0.713127 0.673355
Si Si4 0.151746 0.445898 0.938812
Si Si5 0.113964 0.909174 0.603039
Si Si6 0.082698 0.554716 0.055377
Si Si7 0.881760 0.283483 0.762057
O O1 0.500000 0.480028 0.250000
O O2 0.597418 0.533270 0.197689
O O3 0.590166 0.332160 0.247755
O O4 0.469095 0.410491 0.035738
O O5 0.746429 0.847007 0.306612
O O6 0.716089 0.984714 0.435271
O O7 0.817474 0.027617 0.390745
O O8 0.657425 0.010932 0.192984
O O9 0.192764 0.628225 0.563584
O O10 0.142251 0.786747 0.639558
O O11 0.286376 0.785007 0.691622
O O12 0.100425 0.368251 0.813801
O O13 0.098264 0.535178 0.947621
O O14 0.075279 0.677836 0.088788
O O15 0.000000 0.500000 0.000000
#
# Coordination Sequence:
#
# PCOD8145591 Si02
#       7
#     8   8   8   8   8   8   8
#     4  11  26  40  67  95 131 174 216 265 316 396
#     4  10  22  39  62  92 124 162 211 263 323 374
#     4  11  21  41  67  91 123 164 211 271 313 378
#     4  10  22  39  65  93 120 169 212 265 317 385
#     4  11  23  44  62  96 134 165 212 271 326 371
#     4  10  23  38  57  90 132 156 199 277 317 366
#     4  11  22  39  64  98 118 166 217 258 321 379
#
# _framework density 20.775586000000001
#
# number of rings (size 3 to 8) (size 9 to 14) (size 15 to 20)
#    0.000    1.429    4.286    1.286    8.000    1.714 
#    0.000    3.571    0.000    0.000    0.000    0.000 
#    0.000    0.000    0.000    0.000    0.000    0.000 
#
# Total GULP energy -346974.084720 kJ/mol
# GULP energy per Si atom -12391.931597 kJ/mol
# Density = 2.072830 g / cm^3
# Si number density = 20.775586 Si / 1000 Ang^3
#
#
#
# Elastic Constant Matrix: (Units=GPa)
#
#
# Indices 1 2 3 4 5 6 
#
# 1 136.4253 35.9104 33.3793 0.0000 -29.9729 0.0000
# 2 35.9104 68.7408 39.5256 0.0000 -28.6893 0.0000
# 3 33.3793 39.5256 50.1079 0.0000 -17.9586 0.0000
# 4 0.0000 0.0000 0.0000 37.3052 0.0000 -2.8444
# 5 -29.9729 -28.6893 -17.9586 0.0000 46.7138 0.0000
# 6 0.0000 0.0000 0.0000 -2.8444 0.0000 31.1077
#
#
#
# Elastic Compliance Matrix: (Units=1/GPa)
#
#
# Indices 1 2 3 4 5 6 
#
# 1 0.009448 -0.000902 -0.004185 0.000000 0.003899 0.000000
# 2 -0.000902 0.031021 -0.020005 0.000000 0.010782 0.000000
# 3 -0.004185 -0.020005 0.038458 0.000000 -0.000186 0.000000
# 4 0.000000 0.000000 0.000000 0.026994 0.000000 0.002468
# 5 0.003899 0.010782 -0.000186 0.000000 0.030459 0.000000
# 6 0.000000 0.000000 0.000000 0.002468 0.000000 0.032372
#
#
# Mechanical properties :
#
#
# Convention : Reuss Voigt Hill
#
# Bulk Modulus (GPa) = 34.78960 52.54494 43.66727
# Shear Modulus (GPa) = 21.88027 32.78925 27.33476
#
# Velocity S-wave (km/s) = 3.24878 3.97704 3.63121
# Velocity P-wave (km/s) = 5.55469 6.81438 6.21652
#
# Compressibility (1/GPa) = 0.02874422
#
# Stress axis : x y z
#
# Youngs Moduli (GPa) = 105.84210 32.23600 26.00268
#
# Poissons Ratio (x) = 0.02908 0.10881
# Poissons Ratio (y) = 0.09548 0.52017
# Poissons Ratio (z) = 0.44291 0.64487
#
# Static dielectric constant tensor:
#      x y z
#    x 4.193650 0.000000 -0.291270 
#    y 0.000000 4.172890 0.000000 
#    z -0.291270 0.000000 3.846510 
# 
# 
# High freq. dielectric constant tensor:
#      x y z
#    x 1.829450 0.000000 0.001130 
#    y 0.000000 1.808850 0.000000 
#    z 0.001130 0.000000 1.792610 
# 
# From -- ./inp_files/105798.got.cif
#   From: 2010.06.25/outbox.cif.g09.slc.cpg/sg15_53_cif.got.tgz:105798.got - 2010.06.28 07:06:18.
