data_PCOD8145370
_publ_section_title
;
Structure prediction by ZEFSAII (Michael W. Deem and Ramdas Pophale) SiO2 
 PCOD8145370
Probable space group: C 2/C
;
_chemical_formula_sum "Si O2"
_cell_formula_units_Z 56
_cell_length_a 20.016489
_cell_length_b 9.539237
_cell_length_c 30.046035
_cell_angle_alpha 90.000000
_cell_angle_beta 28.451192
_cell_angle_gamma 90.000000
_cell_volume 2733.188221
_symmetry_space_group_name_H-M "C 2/C"
_symmetry_group_IT_number 15
_symmetry_cell_setting 'monoclinic'
loop_
_space_group_symop_operation_xyz
x,y,z
-x,y,1/2-z
-x,-y,-z
x,-y,1/2+z
1/2+x,1/2+y,z
1/2-x,1/2+y,1/2-z
1/2-x,1/2-y,-z
1/2+x,1/2-y,1/2+z
loop_
_atom_site_type_symbol
_atom_site_label
_atom_site_fract_x
_atom_site_fract_y
_atom_site_fract_z
Si Si1 0.464955 0.521631 0.322517
Si Si2 0.542692 0.268812 0.330840
Si Si3 0.345343 0.361508 0.145467
Si Si4 0.037880 0.273622 0.345500
Si Si5 0.031603 0.358349 0.504705
Si Si6 0.642769 0.038908 0.032263
Si Si7 0.839839 0.167702 0.138477
O O1 0.500000 0.549896 0.250000
O O2 0.550140 0.383631 0.287192
O O3 0.508107 0.658961 0.324903
O O4 0.306151 0.481632 0.428257
O O5 0.551857 0.355467 0.371713
O O6 0.405747 0.165411 0.405707
O O7 0.681145 0.172667 0.248991
O O8 0.182802 0.351577 0.251631
O O9 0.371944 0.508726 0.105222
O O10 0.390160 0.235301 0.086666
O O11 0.048613 0.206480 0.388240
O O12 0.915664 0.389597 0.416968
O O13 0.072909 0.402160 0.529203
O O14 0.150225 0.270603 0.409550
O O15 0.000000 0.500000 0.500000
#
# Coordination Sequence:
#
# PCOD8145370 Si02
#       7
#     8   8   8   8   8   8   8
#     4  12  26  42  65  91 129 171 216 259 313 381
#     4  10  22  40  66  92 123 171 213 255 316 374
#     4  10  22  38  64  96 128 160 208 262 319 372
#     4  11  23  40  66  91 126 171 211 258 318 377
#     4  11  23  36  66 100 127 159 206 268 318 370
#     4  11  23  44  62  94 128 171 211 256 318 385
#     4  11  20  39  65  95 131 160 208 267 317 367
#
# _framework density 20.488893000000001
#
# number of rings (size 3 to 8) (size 9 to 14) (size 15 to 20)
#    0.000    1.143    4.286    2.143    4.000    0.000 
#    0.000    0.714    0.000    0.000    0.000    0.000 
#    0.000    0.000    0.000    0.000    0.000    0.000 
#
# Total GULP energy -347015.619953 kJ/mol
# GULP energy per Si atom -12393.414998 kJ/mol
# Density = 2.044226 g / cm^3
# Si number density = 20.488893 Si / 1000 Ang^3
#
#
#
# Elastic Constant Matrix: (Units=GPa)
#
#
# Indices 1 2 3 4 5 6 
#
# 1 49.6499 44.6638 21.2025 0.0032 8.4183 0.0321
# 2 44.6638 161.2150 30.8118 -0.0015 12.1673 0.0065
# 3 21.2025 30.8118 75.1729 -0.0043 2.0286 -0.0139
# 4 0.0032 -0.0015 -0.0043 34.7581 -0.0014 7.7490
# 5 8.4183 12.1673 2.0286 -0.0014 32.8600 0.0008
# 6 0.0321 0.0065 -0.0139 7.7490 0.0008 26.9033
#
#
#
# Elastic Compliance Matrix: (Units=1/GPa)
#
#
# Indices 1 2 3 4 5 6 
#
# 1 0.029286 -0.006734 -0.005374 0.000004 -0.004678 -0.000037
# 2 -0.006734 0.008460 -0.001533 0.000000 -0.001313 0.000005
# 3 -0.005374 -0.001533 0.015420 -0.000001 0.000993 0.000015
# 4 0.000004 0.000000 -0.000001 0.030745 0.000001 -0.008855
# 5 -0.004678 -0.001313 0.000993 0.000001 0.032055 0.000005
# 6 -0.000037 0.000005 0.000015 -0.008855 0.000005 0.039721
#
#
# Mechanical properties :
#
#
# Convention : Reuss Voigt Hill
#
# Bulk Modulus (GPa) = 38.63165 53.26597 45.94881
# Shear Modulus (GPa) = 26.09633 31.52826 28.81229
#
# Velocity S-wave (km/s) = 3.57274 3.92701 3.75405
# Velocity P-wave (km/s) = 5.99292 6.82757 6.42382
#
# Compressibility (1/GPa) = 0.02588551
#
# Stress axis : x y z
#
# Youngs Moduli (GPa) = 34.14549 118.19633 64.85065
#
# Poissons Ratio (x) = 0.79588 0.34851
# Poissons Ratio (y) = 0.22992 0.09943
# Poissons Ratio (z) = 0.18350 0.18121
#
# Static dielectric constant tensor:
#      x y z
#    x 3.430680 -0.000010 -0.040720 
#    y -0.000010 4.252680 0.000020 
#    z -0.040720 0.000020 3.864320 
# 
# 
# High freq. dielectric constant tensor:
#      x y z
#    x 1.772680 0.000000 0.001580 
#    y 0.000000 1.825430 0.000000 
#    z 0.001580 0.000000 1.807230 
# 
# From -- ./inp_files/317494.got.cif
#   From: 2010.06.25/outbox.cif.g09.slc.cpg/sg15_159_cif.got.tgz:317494.got - 2010.06.28 07:06:18.
