data_PCOD8145164
_publ_section_title
;
Structure prediction by ZEFSAII (Michael W. Deem and Ramdas Pophale) SiO2 
 PCOD8145164
Probable space group: C 2/C
;
_chemical_formula_sum "Si O2"
_cell_formula_units_Z 60
_cell_length_a 5.299537
_cell_length_b 18.290700
_cell_length_c 27.222938
_cell_angle_alpha 90.000000
_cell_angle_beta 92.442395
_cell_angle_gamma 90.000000
_cell_volume 2636.383255
_symmetry_space_group_name_H-M "C 2/C"
_symmetry_group_IT_number 15
_symmetry_cell_setting 'monoclinic'
loop_
_space_group_symop_operation_xyz
x,y,z
-x,y,1/2-z
-x,-y,-z
x,-y,1/2+z
1/2+x,1/2+y,z
1/2-x,1/2+y,1/2-z
1/2-x,1/2-y,-z
1/2+x,1/2-y,1/2+z
loop_
_atom_site_type_symbol
_atom_site_label
_atom_site_fract_x
_atom_site_fract_y
_atom_site_fract_z
Si Si1 0.300083 0.818290 0.846582
Si Si2 0.741385 0.083967 0.002356
Si Si3 0.054388 0.821630 0.376440
Si Si4 0.500000 0.818743 0.750000
Si Si5 0.396161 0.787968 0.297177
Si Si6 0.243763 0.547016 0.892528
Si Si7 0.758025 0.031389 0.105337
Si Si8 0.767913 0.832999 0.014586
O O1 0.506599 0.765816 0.874787
O O2 0.407900 0.860852 0.798542
O O3 0.228340 0.882159 0.883097
O O4 0.085233 0.759561 0.832201
O O5 0.749900 0.041037 0.951402
O O6 0.487867 0.130534 0.005753
O O7 0.986796 0.135091 0.010510
O O8 0.742049 0.023940 0.045911
O O9 0.230702 0.841002 0.330900
O O10 0.207845 0.844097 0.426383
O O11 0.791444 0.869463 0.373391
O O12 0.268483 0.770184 0.732746
O O13 0.500000 0.833483 0.250000
O O14 0.482232 0.502527 0.872679
O O15 0.980138 0.511465 0.872080
O O16 0.750000 0.750000 0.000000
#
# Coordination Sequence:
#
# PCOD8145164 Si02
#       8
#     8   8   8   4   8   8   8   8
#     4  10  22  37  70  93 124 163 214 270 320 390
#     4  11  23  41  60  86 130 184 221 255 310 387
#     4  10  23  38  64  91 130 168 213 267 325 382
#     4   8  18  40  60  98 122 158 200 266 326 392
#     4   9  19  37  67  97 123 159 213 265 328 397
#     4  11  25  42  61  93 133 177 214 264 318 373
#     4  12  25  41  66  95 128 174 227 264 312 383
#     4  11  23  36  60  95 133 167 213 275 323 360
#
# _framework density 22.758448999999999
#
# number of rings (size 3 to 8) (size 9 to 14) (size 15 to 20)
#    0.000    1.600    0.000    4.400   11.200    0.000 
#    0.000    0.000    1.467    0.000    0.000    0.000 
#    0.000    0.000    0.000    0.000    0.000    0.000 
#
# Total GULP energy -371717.903488 kJ/mol
# GULP energy per Si atom -12390.596783 kJ/mol
# Density = 2.270665 g / cm^3
# Si number density = 22.758449 Si / 1000 Ang^3
#
#
#
# Elastic Constant Matrix: (Units=GPa)
#
#
# Indices 1 2 3 4 5 6 
#
# 1 143.6964 32.4805 11.1463 0.0000 -11.7528 0.0000
# 2 32.4805 83.2629 11.6189 0.0000 -10.6181 0.0000
# 3 11.1463 11.6189 68.9018 0.0000 -21.3660 0.0000
# 4 0.0000 0.0000 0.0000 20.0638 0.0000 -6.2902
# 5 -11.7528 -10.6181 -21.3660 0.0000 26.9776 0.0000
# 6 0.0000 0.0000 0.0000 -6.2902 0.0000 28.9736
#
#
#
# Elastic Compliance Matrix: (Units=1/GPa)
#
#
# Indices 1 2 3 4 5 6 
#
# 1 0.007767 -0.002731 -0.000106 0.000000 0.002225 0.000000
# 2 -0.002731 0.013637 -0.000745 0.000000 0.003587 0.000000
# 3 -0.000106 -0.000745 0.019288 0.000000 0.014936 0.000000
# 4 0.000000 0.000000 0.000000 0.053481 0.000000 0.011611
# 5 0.002225 0.003587 0.014936 0.000000 0.051278 0.000000
# 6 0.000000 0.000000 0.000000 0.011611 0.000000 0.037035
#
#
# Mechanical properties :
#
#
# Convention : Reuss Voigt Hill
#
# Bulk Modulus (GPa) = 29.82733 45.15026 37.48880
# Shear Modulus (GPa) = 24.89709 31.24402 28.07055
#
# Velocity S-wave (km/s) = 3.31111 3.70922 3.51581
# Velocity P-wave (km/s) = 5.26806 6.18275 5.74364
#
# Compressibility (1/GPa) = 0.03352630
#
# Stress axis : x y z
#
# Youngs Moduli (GPa) = 128.75563 73.32946 51.84595
#
# Poissons Ratio (x) = 0.20028 0.00550
# Poissons Ratio (y) = 0.35166 0.03865
# Poissons Ratio (z) = 0.01365 0.05466
#
# Static dielectric constant tensor:
#      x y z
#    x 3.874710 0.000000 -0.334000 
#    y 0.000000 3.724450 0.000000 
#    z -0.334000 0.000000 4.388130 
# 
# 
# High freq. dielectric constant tensor:
#      x y z
#    x 1.920920 0.000000 -0.011320 
#    y 0.000000 1.868240 0.000000 
#    z -0.011320 0.000000 1.887690 
# 
# From -- ./inp_files/286081.got.cif
#   From: 2010.06.25/outbox.cif.g09.slc.cpg/sg15_144_cif.got.tgz:286081.got - 2010.06.28 07:06:18.
