data_PCOD8145382
_publ_section_title
;
Structure prediction by ZEFSAII (Michael W. Deem and Ramdas Pophale) SiO2 
 PCOD8145382
Probable space group: C 2/C
;
_chemical_formula_sum "Si O2"
_cell_formula_units_Z 48
_cell_length_a 20.311759
_cell_length_b 26.508841
_cell_length_c 5.281501
_cell_angle_alpha 90.000000
_cell_angle_beta 51.496436
_cell_angle_gamma 90.000000
_cell_volume 2225.453488
_symmetry_space_group_name_H-M "C 2/C"
_symmetry_group_IT_number 15
_symmetry_cell_setting 'monoclinic'
loop_
_space_group_symop_operation_xyz
x,y,z
-x,y,1/2-z
-x,-y,-z
x,-y,1/2+z
1/2+x,1/2+y,z
1/2-x,1/2+y,1/2-z
1/2-x,1/2-y,-z
1/2+x,1/2-y,1/2+z
loop_
_atom_site_type_symbol
_atom_site_label
_atom_site_fract_x
_atom_site_fract_y
_atom_site_fract_z
Si Si1 0.098591 0.025448 0.514645
Si Si2 0.500000 0.164012 0.250000
Si Si3 0.187585 0.126094 0.318344
Si Si4 0.869915 0.289432 0.723625
Si Si5 0.000000 0.465952 0.250000
Si Si6 0.193179 0.810352 0.314130
Si Si7 0.371523 0.887393 0.392632
O O1 0.114949 0.084861 0.480780
O O2 0.000000 0.015568 0.750000
O O3 0.139214 0.000685 0.165707
O O4 0.540481 0.201925 0.356263
O O5 0.428958 0.124961 0.513556
O O6 0.183569 0.151112 0.604304
O O7 0.168676 0.165855 0.141303
O O8 0.276439 0.096791 0.050063
O O9 0.870584 0.236339 0.575059
O O10 0.858497 0.334547 0.558850
O O11 0.789593 0.290228 0.106012
O O12 0.916890 0.430432 0.452006
O O13 0.000000 0.500000 0.500000
#
# Coordination Sequence:
#
# PCOD8145382 Si02
#       7
#     8   4   8   8   4   8   8
#     4  10  22  43  70  95 123 166 213 260 333 413
#     4  12  19  40  64  90 126 186 224 259 306 410
#     4  11  23  42  67  97 133 166 214 284 332 392
#     4  10  22  38  65  88 131 177 224 261 320 408
#     4  12  27  42  60  92 132 170 224 287 316 360
#     4  10  23  39  63  99 129 169 216 276 328 378
#     4  11  24  40  64  91 128 179 226 263 332 392
#
# _framework density 21.568636999999999
#
# number of rings (size 3 to 8) (size 9 to 14) (size 15 to 20)
#    0.000    1.333    3.333    1.500    2.333    3.333 
#    1.500    0.000    0.000    0.000    0.000    0.000 
#    0.000    0.000    0.000    0.000    0.000    0.000 
#
# Total GULP energy -297573.191482 kJ/mol
# GULP energy per Si atom -12398.882978 kJ/mol
# Density = 2.151955 g / cm^3
# Si number density = 21.568637 Si / 1000 Ang^3
#
#
#
# Elastic Constant Matrix: (Units=GPa)
#
#
# Indices 1 2 3 4 5 6 
#
# 1 69.0170 28.7478 22.5587 0.0000 28.0891 0.0000
# 2 28.7478 104.5655 13.0535 0.0000 7.4156 0.0000
# 3 22.5587 13.0535 47.8740 0.0000 14.6551 0.0000
# 4 0.0000 0.0000 0.0000 33.5980 0.0000 10.6143
# 5 28.0891 7.4156 14.6551 0.0000 23.0889 0.0000
# 6 0.0000 0.0000 0.0000 10.6143 0.0000 30.7641
#
#
#
# Elastic Compliance Matrix: (Units=1/GPa)
#
#
# Indices 1 2 3 4 5 6 
#
# 1 0.032488 -0.006053 -0.002674 0.000000 -0.035883 0.000000
# 2 -0.006053 0.011090 -0.001658 0.000000 0.004854 0.000000
# 3 -0.002674 -0.001658 0.026612 0.000000 -0.013106 0.000000
# 4 0.000000 0.000000 0.000000 0.033405 0.000000 -0.011525
# 5 -0.035883 0.004854 -0.013106 0.000000 0.093724 0.000000
# 6 0.000000 0.000000 0.000000 -0.011525 0.000000 0.036482
#
#
# Mechanical properties :
#
#
# Convention : Reuss Voigt Hill
#
# Bulk Modulus (GPa) = 20.23433 38.90849 29.57141
# Shear Modulus (GPa) = 18.44714 27.96332 23.20523
#
# Velocity S-wave (km/s) = 2.92768 3.60457 3.28362
# Velocity P-wave (km/s) = 4.56401 5.95000 5.30248
#
# Compressibility (1/GPa) = 0.04942095
#
# Stress axis : x y z
#
# Youngs Moduli (GPa) = 30.78019 90.16916 37.57696
#
# Poissons Ratio (x) = 0.54583 0.10048
# Poissons Ratio (y) = 0.18632 0.06229
# Poissons Ratio (z) = 0.08231 0.14946
#
# Static dielectric constant tensor:
#      x y z
#    x 4.280200 0.000000 -0.168320 
#    y 0.000000 3.814980 0.000000 
#    z -0.168320 0.000000 4.062640 
# 
# 
# High freq. dielectric constant tensor:
#      x y z
#    x 1.849170 0.000000 0.009370 
#    y 0.000000 1.842990 0.000000 
#    z 0.009370 0.000000 1.839960 
# 
# From -- ./inp_files/10747.got.cif
#   From: 2010.06.25/outbox.cif.g09.slc.cpg/sg15_6_cif.got.tgz:10747.got - 2010.06.28 07:06:18.
