data_PCOD8145632
_publ_section_title
;
Structure prediction by ZEFSAII (Michael W. Deem and Ramdas Pophale) SiO2 
 PCOD8145632
Probable space group: C 2/C
;
_chemical_formula_sum "Si O2"
_cell_formula_units_Z 56
_cell_length_a 30.905221
_cell_length_b 8.156244
_cell_length_c 19.934343
_cell_angle_alpha 90.000000
_cell_angle_beta 149.198867
_cell_angle_gamma 90.000000
_cell_volume 2573.029199
_symmetry_space_group_name_H-M "C 2/C"
_symmetry_group_IT_number 15
_symmetry_cell_setting 'monoclinic'
loop_
_space_group_symop_operation_xyz
x,y,z
-x,y,1/2-z
-x,-y,-z
x,-y,1/2+z
1/2+x,1/2+y,z
1/2-x,1/2+y,1/2-z
1/2-x,1/2-y,-z
1/2+x,1/2-y,1/2+z
loop_
_atom_site_type_symbol
_atom_site_label
_atom_site_fract_x
_atom_site_fract_y
_atom_site_fract_z
Si Si1 0.502095 0.393188 0.901797
Si Si2 0.714461 0.954019 0.415195
Si Si3 0.190184 0.108968 0.332181
Si Si4 0.773680 0.875945 0.867301
Si Si5 0.677444 0.412721 0.187352
Si Si6 0.521718 0.061516 0.701282
Si Si7 0.040044 0.778278 0.375466
O O1 0.410106 0.374212 0.810721
O O2 0.520132 0.225885 0.884545
O O3 0.502817 0.559239 0.859601
O O4 0.574913 0.409286 0.055297
O O5 0.781764 0.994065 0.564318
O O6 0.735197 0.784013 0.403834
O O7 0.621947 0.945112 0.323488
O O8 0.726418 0.090210 0.374340
O O9 0.219158 0.024996 0.301432
O O10 0.710264 0.769760 0.738916
O O11 0.794734 0.033447 0.850008
O O12 0.859374 0.779638 0.996910
O O13 0.500000 0.067675 0.750000
O O14 0.483985 0.892868 0.618470
O O15 0.000000 0.769316 0.250000
#
# Coordination Sequence:
#
# PCOD8145632 Si02
#       7
#     8   8   8   8   8   8   8
#     4  10  22  42  63  93 132 178 213 269 329 393
#     4  10  23  43  68  99 128 168 223 275 331 383
#     4  10  22  42  68  97 129 171 219 275 326 397
#     4  11  25  42  64  98 128 180 213 275 326 392
#     4  11  25  40  66  90 139 172 219 264 333 396
#     4  10  23  40  67 100 131 169 220 277 335 387
#     4  10  22  39  63  95 129 167 223 271 324 389
#
# _framework density 21.764230000000001
#
# number of rings (size 3 to 8) (size 9 to 14) (size 15 to 20)
#    0.000    1.714    0.000    2.571    8.000    6.286 
#    0.000    1.429    0.000    0.000    0.000    0.000 
#    0.000    0.000    0.000    0.000    0.000    0.000 
#
# Total GULP energy -347071.973704 kJ/mol
# GULP energy per Si atom -12395.427632 kJ/mol
# Density = 2.171469 g / cm^3
# Si number density = 21.764230 Si / 1000 Ang^3
#
#
#
# Elastic Constant Matrix: (Units=GPa)
#
#
# Indices 1 2 3 4 5 6 
#
# 1 68.8571 17.3875 39.1690 0.0000 -2.6508 0.0000
# 2 17.3875 128.2798 27.0190 0.0000 -8.7929 0.0000
# 3 39.1690 27.0190 110.5936 0.0000 -13.2462 0.0000
# 4 0.0000 0.0000 0.0000 34.8299 0.0000 -3.6551
# 5 -2.6508 -8.7929 -13.2462 0.0000 29.4215 0.0000
# 6 0.0000 0.0000 0.0000 -3.6551 0.0000 30.8921
#
#
#
# Elastic Compliance Matrix: (Units=1/GPa)
#
#
# Indices 1 2 3 4 5 6 
#
# 1 0.018425 -0.001257 -0.006410 0.000000 -0.001602 0.000000
# 2 -0.001257 0.008380 -0.001391 0.000000 0.001765 0.000000
# 3 -0.006410 -0.001391 0.012191 0.000000 0.004495 0.000000
# 4 0.000000 0.000000 0.000000 0.029072 0.000000 0.003440
# 5 -0.001602 0.001765 0.004495 0.000000 0.036396 0.000000
# 6 0.000000 0.000000 0.000000 0.003440 0.000000 0.032778
#
#
# Mechanical properties :
#
#
# Convention : Reuss Voigt Hill
#
# Bulk Modulus (GPa) = 47.89401 52.76459 50.32930
# Shear Modulus (GPa) = 30.80398 33.97238 32.38818
#
# Velocity S-wave (km/s) = 3.76619 3.95514 3.86182
# Velocity P-wave (km/s) = 6.40046 6.71966 6.56200
#
# Compressibility (1/GPa) = 0.02087944
#
# Stress axis : x y z
#
# Youngs Moduli (GPa) = 54.27381 119.33565 82.03011
#
# Poissons Ratio (x) = 0.15000 0.52584
# Poissons Ratio (y) = 0.06822 0.11408
# Poissons Ratio (z) = 0.34791 0.16595
#
# Static dielectric constant tensor:
#      x y z
#    x 3.703770 0.000000 -0.016620 
#    y 0.000000 4.447490 0.000000 
#    z -0.016620 0.000000 4.044930 
# 
# 
# High freq. dielectric constant tensor:
#      x y z
#    x 1.842140 0.000000 0.000190 
#    y 0.000000 1.864640 0.000000 
#    z 0.000190 0.000000 1.862870 
# 
# From -- ./inp_files/259027.got.cif
#   From: 2010.06.25/outbox.cif.g09.slc.cpg/sg15_130_cif.got.tgz:259027.got - 2010.06.28 07:06:18.
