data_PCOD8145523
_publ_section_title
;
Structure prediction by ZEFSAII (Michael W. Deem and Ramdas Pophale) SiO2 
 PCOD8145523
Probable space group: C 2/C
;
_chemical_formula_sum "Si O2"
_cell_formula_units_Z 56
_cell_length_a 16.824951
_cell_length_b 18.109239
_cell_length_c 9.432439
_cell_angle_alpha 90.000000
_cell_angle_beta 116.804987
_cell_angle_gamma 90.000000
_cell_volume 2565.127163
_symmetry_space_group_name_H-M "C 2/C"
_symmetry_group_IT_number 15
_symmetry_cell_setting 'monoclinic'
loop_
_space_group_symop_operation_xyz
x,y,z
-x,y,1/2-z
-x,-y,-z
x,-y,1/2+z
1/2+x,1/2+y,z
1/2-x,1/2+y,1/2-z
1/2-x,1/2-y,-z
1/2+x,1/2-y,1/2+z
loop_
_atom_site_type_symbol
_atom_site_label
_atom_site_fract_x
_atom_site_fract_y
_atom_site_fract_z
Si Si1 0.594114 0.360287 0.240758
Si Si2 0.297607 0.409682 0.787486
Si Si3 0.499774 0.181285 0.589230
Si Si4 0.736217 0.521291 0.961196
Si Si5 0.518334 0.348299 0.605815
Si Si6 0.347624 0.797378 0.760659
Si Si7 0.920942 0.407023 0.596095
O O1 0.500000 0.352460 0.250000
O O2 0.657517 0.426080 0.339915
O O3 0.655791 0.286899 0.296230
O O4 0.567702 0.370601 0.055083
O O5 0.278133 0.439178 0.612859
O O6 0.400683 0.394492 0.892985
O O7 0.248356 0.333119 0.786266
O O8 0.268999 0.475527 0.872282
O O9 0.500000 0.151038 0.750000
O O10 0.545654 0.261957 0.621306
O O11 0.400124 0.192906 0.450624
O O12 0.549626 0.120790 0.534775
O O13 0.836379 0.542037 0.997138
O O14 0.500000 0.374251 0.750000
O O15 0.397270 0.837253 0.672826
O O16 0.000000 0.448578 0.750000
#
# Coordination Sequence:
#
# PCOD8145523 Si02
#       7
#     8   8   8   8   8   8   8
#     4  11  21  41  67 101 123 167 220 268 314 380
#     4  11  25  43  59  91 133 171 214 265 316 388
#     4   9  18  36  60  94 123 155 203 262 329 376
#     4  11  26  40  64  95 128 171 219 256 323 382
#     4  10  22  39  60  89 129 169 206 258 327 376
#     4   9  20  38  65  90 124 161 213 269 320 370
#     4   9  19  39  65  91 124 164 212 269 315 376
#
# _framework density 21.831275999999999
#
# number of rings (size 3 to 8) (size 9 to 14) (size 15 to 20)
#    0.000    2.000    1.429    2.143    4.000    3.429 
#    0.000    9.286    0.000    0.857    0.000    0.000 
#    0.000    0.000    0.000    0.000    0.000    0.000 
#
# Total GULP energy -347045.267597 kJ/mol
# GULP energy per Si atom -12394.473843 kJ/mol
# Density = 2.178159 g / cm^3
# Si number density = 21.831276 Si / 1000 Ang^3
#
#
#
# Elastic Constant Matrix: (Units=GPa)
#
#
# Indices 1 2 3 4 5 6 
#
# 1 99.9885 30.2483 24.8742 0.0000 5.9865 0.0000
# 2 30.2483 47.7622 7.5536 0.0000 3.8567 0.0000
# 3 24.8742 7.5536 97.5156 0.0000 -9.6939 0.0000
# 4 0.0000 0.0000 0.0000 26.0612 0.0000 -1.8483
# 5 5.9865 3.8567 -9.6939 0.0000 31.7912 0.0000
# 6 0.0000 0.0000 0.0000 -1.8483 0.0000 14.5020
#
#
#
# Elastic Compliance Matrix: (Units=1/GPa)
#
#
# Indices 1 2 3 4 5 6 
#
# 1 0.013232 -0.007701 -0.003025 0.000000 -0.002480 0.000000
# 2 -0.007701 0.025993 -0.000225 0.000000 -0.001772 0.000000
# 3 -0.003025 -0.000225 0.011450 0.000000 0.004088 0.000000
# 4 0.000000 0.000000 0.000000 0.038721 0.000000 0.004935
# 5 -0.002480 -0.001772 0.004088 0.000000 0.033384 0.000000
# 6 0.000000 0.000000 0.000000 0.004935 0.000000 0.069585
#
#
# Mechanical properties :
#
#
# Convention : Reuss Voigt Hill
#
# Bulk Modulus (GPa) = 34.75581 41.17981 37.96781
# Shear Modulus (GPa) = 22.33546 26.64355 24.48950
#
# Velocity S-wave (km/s) = 3.20205 3.49726 3.35291
# Velocity P-wave (km/s) = 5.44294 5.93392 5.69373
#
# Compressibility (1/GPa) = 0.02877217
#
# Stress axis : x y z
#
# Youngs Moduli (GPa) = 75.57463 38.47187 87.33408
#
# Poissons Ratio (x) = 0.29628 0.26420
# Poissons Ratio (y) = 0.58202 0.01966
# Poissons Ratio (z) = 0.22863 0.00866
#
# Static dielectric constant tensor:
#      x y z
#    x 3.912130 0.000000 0.024140 
#    y 0.000000 3.607480 0.000000 
#    z 0.024140 0.000000 4.226970 
# 
# 
# High freq. dielectric constant tensor:
#      x y z
#    x 1.853220 0.000000 0.001260 
#    y 0.000000 1.830460 0.000000 
#    z 0.001260 0.000000 1.874710 
# 
# From -- ./inp_files/49129.got.cif
#   From: 2010.06.25/outbox.cif.g09.slc.cpg/sg15_25_cif.got.tgz:49129.got - 2010.06.28 07:06:18.
