data_PCOD8145527
_publ_section_title
;
Structure prediction by ZEFSAII (Michael W. Deem and Ramdas Pophale) SiO2 
 PCOD8145527
Probable space group: C 2/C
;
_chemical_formula_sum "Si O2"
_cell_formula_units_Z 60
_cell_length_a 12.795279
_cell_length_b 27.945047
_cell_length_c 18.346178
_cell_angle_alpha 90.000000
_cell_angle_beta 152.531372
_cell_angle_gamma 90.000000
_cell_volume 3025.859095
_symmetry_space_group_name_H-M "C 2/C"
_symmetry_group_IT_number 15
_symmetry_cell_setting 'monoclinic'
loop_
_space_group_symop_operation_xyz
x,y,z
-x,y,1/2-z
-x,-y,-z
x,-y,1/2+z
1/2+x,1/2+y,z
1/2-x,1/2+y,1/2-z
1/2-x,1/2-y,-z
1/2+x,1/2-y,1/2+z
loop_
_atom_site_type_symbol
_atom_site_label
_atom_site_fract_x
_atom_site_fract_y
_atom_site_fract_z
Si Si1 0.356460 0.287241 0.729557
Si Si2 0.061459 0.023364 0.367041
Si Si3 0.016425 0.954045 0.060404
Si Si4 0.015203 0.582656 0.887503
Si Si5 0.000000 0.348108 0.250000
Si Si6 0.802175 0.630902 0.184981
Si Si7 0.211377 0.608347 0.161422
Si Si8 0.557273 0.290165 0.004530
O O1 0.500000 0.268130 0.750000
O O2 0.333918 0.344158 0.709373
O O3 0.495443 0.272846 0.886207
O O4 0.112968 0.259320 0.582244
O O5 0.322901 0.038460 0.531675
O O6 0.000000 0.006455 0.250000
O O7 0.897617 0.066977 0.290240
O O8 0.034436 0.973695 0.391582
O O9 0.262340 0.931019 0.210180
O O10 0.835043 0.914955 0.925919
O O11 0.000000 0.000000 0.000000
O O12 0.089874 0.623413 0.876807
O O13 0.037271 0.595130 0.988031
O O14 0.210917 0.319180 0.350405
O O15 0.898603 0.620118 0.326926
O O16 0.644571 0.678245 0.085909
O O17 0.000000 0.641090 0.250000
#
# Coordination Sequence:
#
# PCOD8145527 Si02
#       8
#     8   8   8   8   4   8   8   8
#     4  11  21  36  64  99 130 159 200 260 332 388
#     4  10  22  39  60  93 129 160 201 262 326 378
#     4  12  24  38  61  91 119 165 223 250 310 380
#     4  11  23  38  66  87 130 165 206 259 314 390
#     4  12  20  38  62  96 132 156 202 256 326 382
#     4  11  25  46  64  86 131 174 217 266 312 370
#     4  10  22  43  62  94 129 169 205 259 330 376
#     4  11  24  38  62  97 127 161 209 260 324 384
#
# _framework density 19.829080000000001
#
# number of rings (size 3 to 8) (size 9 to 14) (size 15 to 20)
#    0.000    1.067    3.333    4.800    3.733    3.200 
#    0.000    2.667    0.000    0.000    0.000    0.000 
#    0.000    0.000    0.000    0.000    0.000    0.000 
#
# Total GULP energy -371803.172326 kJ/mol
# GULP energy per Si atom -12393.439078 kJ/mol
# Density = 1.978395 g / cm^3
# Si number density = 19.829080 Si / 1000 Ang^3
#
#
#
# Elastic Constant Matrix: (Units=GPa)
#
#
# Indices 1 2 3 4 5 6 
#
# 1 118.0103 26.2867 30.9924 0.0207 -1.7197 -0.0094
# 2 26.2867 73.4955 23.3772 0.0238 -8.4422 -0.0107
# 3 30.9924 23.3772 83.5523 -0.0576 -1.7882 0.0205
# 4 0.0207 0.0238 -0.0576 2008.6677 0.0059 -756.6675
# 5 -1.7197 -8.4422 -1.7882 0.0059 29.2146 -0.0050
# 6 -0.0094 -0.0107 0.0205 -756.6675 -0.0050 298.9923
#
#
#
# Elastic Compliance Matrix: (Units=1/GPa)
#
#
# Indices 1 2 3 4 5 6 
#
# 1 0.009819 -0.002626 -0.002915 0.000000 -0.000359 0.000000
# 2 -0.002626 0.016136 -0.003449 0.000001 0.004297 0.000002
# 3 -0.002915 -0.003449 0.014008 0.000001 -0.000311 0.000000
# 4 0.000000 0.000001 0.000001 0.010667 0.000003 0.026994
# 5 -0.000359 0.004297 -0.000311 0.000003 0.035431 0.000007
# 6 0.000000 0.000002 0.000000 0.026994 0.000007 0.071660
#
#
# Mechanical properties :
#
#
# Convention : Reuss Voigt Hill
#
# Bulk Modulus (GPa) = 45.48847 48.48564 46.98706
# Shear Modulus (GPa) = 27.31809 480.33504 253.82657
#
# Velocity S-wave (km/s) = 3.71574 15.58087 11.32630
# Velocity P-wave (km/s) = 6.43421 18.65984 13.95687
#
# Compressibility (1/GPa) = 0.02198359
#
# Stress axis : x y z
#
# Youngs Moduli (GPa) = 101.84188 61.97299 71.38693
#
# Poissons Ratio (x) = 0.16274 0.20811
# Poissons Ratio (y) = 0.26743 0.24619
# Poissons Ratio (z) = 0.29689 0.21373
#
# Static dielectric constant tensor:
#      x y z
#    x 3.844790 0.000060 -0.679450 
#    y 0.000060 4.223680 -0.000090 
#    z -0.679450 -0.000090 4.340920 
# 
# 
# High freq. dielectric constant tensor:
#      x y z
#    x 1.761210 0.000000 -0.024220 
#    y 0.000000 1.779300 0.000000 
#    z -0.024220 0.000000 1.777240 
# 
# From -- ./inp_files/201293.got.cif
#   From: 2010.06.25/outbox.cif.g09.slc.cpg/sg15_101_cif.got.tgz:201293.got - 2010.06.28 07:06:18.
