data_PCOD8145115
_publ_section_title
;
Structure prediction by ZEFSAII (Michael W. Deem and Ramdas Pophale) SiO2 
 PCOD8145115
Probable space group: C 2/C
;
_chemical_formula_sum "Si O2"
_cell_formula_units_Z 52
_cell_length_a 15.114102
_cell_length_b 23.983717
_cell_length_c 7.803047
_cell_angle_alpha 90.000000
_cell_angle_beta 55.889510
_cell_angle_gamma 90.000000
_cell_volume 2341.915384
_symmetry_space_group_name_H-M "C 2/C"
_symmetry_group_IT_number 15
_symmetry_cell_setting 'monoclinic'
loop_
_space_group_symop_operation_xyz
x,y,z
-x,y,1/2-z
-x,-y,-z
x,-y,1/2+z
1/2+x,1/2+y,z
1/2-x,1/2+y,1/2-z
1/2-x,1/2-y,-z
1/2+x,1/2-y,1/2+z
loop_
_atom_site_type_symbol
_atom_site_label
_atom_site_fract_x
_atom_site_fract_y
_atom_site_fract_z
Si Si1 0.645930 0.148753 0.761830
Si Si2 0.000000 0.904616 0.750000
Si Si3 0.255252 0.256278 0.694083
Si Si4 0.088632 0.341720 0.933434
Si Si5 0.272632 0.450237 0.028857
Si Si6 0.245498 0.572526 0.169401
Si Si7 0.926624 0.848283 0.489437
O O1 0.725306 0.199527 0.721456
O O2 0.608641 0.143614 0.608153
O O3 0.712035 0.091482 0.728921
O O4 0.535810 0.156073 0.988161
O O5 0.099423 0.944826 0.597088
O O6 0.987995 0.866054 0.595096
O O7 0.250000 0.250000 0.500000
O O8 0.137615 0.279549 0.867169
O O9 0.349138 0.299294 0.639015
O O10 0.148302 0.384476 0.736568
O O11 0.232565 0.513085 0.095752
O O12 0.239605 0.433341 0.877538
O O13 0.357435 0.599972 0.990962
O O14 0.000000 0.828813 0.250000
#
# Coordination Sequence:
#
# PCOD8145115 Si02
#       7
#     8   4   8   8   8   8   8
#     4  10  22  40  65  86 120 165 213 251 318 382
#     4  10  24  40  64  94 132 164 218 256 328 380
#     4  11  25  39  60  92 125 158 210 265 317 380
#     4   9  21  43  61  87 122 164 207 263 308 381
#     4  10  22  37  61  93 120 169 207 259 315 382
#     4   9  21  39  59  91 127 159 212 256 317 372
#     4  10  24  41  63  94 129 169 210 263 322 380
#
# _framework density 22.204046000000002
#
# number of rings (size 3 to 8) (size 9 to 14) (size 15 to 20)
#    0.000    2.154    0.000    1.385    7.538    4.308 
#    0.000    0.000    0.000    0.000    0.000    0.000 
#    0.000    0.000    0.000    0.000    0.000    0.000 
#
# Total GULP energy -322192.701899 kJ/mol
# GULP energy per Si atom -12392.026996 kJ/mol
# Density = 2.215351 g / cm^3
# Si number density = 22.204046 Si / 1000 Ang^3
#
#
#
# Elastic Constant Matrix: (Units=GPa)
#
#
# Indices 1 2 3 4 5 6 
#
# 1 62.0458 22.5164 23.3333 0.0000 -26.4060 0.0000
# 2 22.5164 114.2507 8.3068 0.0000 -20.3248 0.0000
# 3 23.3333 8.3068 68.8989 0.0000 -28.3346 0.0000
# 4 0.0000 0.0000 0.0000 46.2285 0.0000 11.1503
# 5 -26.4060 -20.3248 -28.3346 0.0000 28.9583 0.0000
# 6 0.0000 0.0000 0.0000 11.1503 0.0000 29.8371
#
#
#
# Elastic Compliance Matrix: (Units=1/GPa)
#
#
# Indices 1 2 3 4 5 6 
#
# 1 0.026523 -0.000899 0.001360 0.000000 0.024885 0.000000
# 2 -0.000899 0.010369 0.002861 0.000000 0.009257 0.000000
# 3 0.001360 0.002861 0.025174 0.000000 0.027881 0.000000
# 4 0.000000 0.000000 0.000000 0.023775 0.000000 -0.008885
# 5 0.024885 0.009257 0.027881 0.000000 0.091002 0.000000
# 6 0.000000 0.000000 0.000000 -0.008885 0.000000 0.036836
#
#
# Mechanical properties :
#
#
# Convention : Reuss Voigt Hill
#
# Bulk Modulus (GPa) = 14.55379 39.27872 26.91625
# Shear Modulus (GPa) = 21.74518 33.74068 27.74293
#
# Velocity S-wave (km/s) = 3.13283 3.90240 3.53860
# Velocity P-wave (km/s) = 4.43339 6.16711 5.37067
#
# Compressibility (1/GPa) = 0.06871064
#
# Stress axis : x y z
#
# Youngs Moduli (GPa) = 37.70368 96.44428 39.72304
#
# Poissons Ratio (x) = 0.08671 -0.05403
# Poissons Ratio (y) = 0.03390 -0.11367
# Poissons Ratio (z) = -0.05128 -0.27597
#
# Static dielectric constant tensor:
#      x y z
#    x 4.028140 0.000000 -0.467900 
#    y 0.000000 6.381290 0.000000 
#    z -0.467900 0.000000 4.348130 
# 
# 
# High freq. dielectric constant tensor:
#      x y z
#    x 1.865560 0.000000 -0.009530 
#    y 0.000000 1.873780 0.000000 
#    z -0.009530 0.000000 1.876260 
# 
# From -- ./inp_files/50574.got.cif
#   From: 2010.06.25/outbox.cif.g09.slc.cpg/sg15_26_cif.got.tgz:50574.got - 2010.06.28 07:06:18.
