data_PCOD8145689
_publ_section_title
;
Structure prediction by ZEFSAII (Michael W. Deem and Ramdas Pophale) SiO2 
 PCOD8145689
Probable space group: C 2/C
;
_chemical_formula_sum "Si O2"
_cell_formula_units_Z 48
_cell_length_a 8.518847
_cell_length_b 28.632124
_cell_length_c 17.158147
_cell_angle_alpha 90.000000
_cell_angle_beta 148.456365
_cell_angle_gamma 90.000000
_cell_volume 2189.420301
_symmetry_space_group_name_H-M "C 2/C"
_symmetry_group_IT_number 15
_symmetry_cell_setting 'monoclinic'
loop_
_space_group_symop_operation_xyz
x,y,z
-x,y,1/2-z
-x,-y,-z
x,-y,1/2+z
1/2+x,1/2+y,z
1/2-x,1/2+y,1/2-z
1/2-x,1/2-y,-z
1/2+x,1/2-y,1/2+z
loop_
_atom_site_type_symbol
_atom_site_label
_atom_site_fract_x
_atom_site_fract_y
_atom_site_fract_z
Si Si1 0.280085 0.635262 0.426172
Si Si2 0.332844 0.734493 0.394083
Si Si3 0.515013 0.414543 0.163731
Si Si4 0.821026 0.396888 0.056863
Si Si5 0.320862 0.309190 0.600198
Si Si6 0.814506 0.984829 0.600189
O O1 0.316268 0.691215 0.447716
O O2 0.259298 0.613870 0.505412
O O3 0.586819 0.613309 0.525144
O O4 0.000000 0.622498 0.250000
O O5 0.440774 0.715299 0.356220
O O6 0.565574 0.773272 0.521115
O O7 0.000000 0.756941 0.250000
O O8 0.500000 0.403044 0.250000
O O9 0.474205 0.469636 0.131588
O O10 0.841486 0.400947 0.268384
O O11 0.830241 0.354461 0.999992
O O12 0.717302 0.445636 0.977425
O O13 0.500000 0.327017 0.750000
O O14 0.000000 0.963219 0.750000
O O15 0.500000 0.000000 0.500000
#
# Coordination Sequence:
#
# PCOD8145689 Si02
#       6
#     8   8   8   8   8   8
#     4  10  24  42  67  97 134 175 217 272 327 388
#     4   9  21  42  61  92 134 166 213 273 326 382
#     4  11  24  42  66  98 126 176 219 266 330 390
#     4  11  23  41  64  94 131 171 220 270 326 393
#     4  10  22  39  65  95 125 176 219 263 328 390
#     4  11  22  41  63  94 135 174 215 275 325 388
#
# _framework density 21.923613
#
# number of rings (size 3 to 8) (size 9 to 14) (size 15 to 20)
#    0.000    1.667    3.333    1.000    2.333   10.000 
#    0.000    0.000    0.000    0.000    0.000    0.000 
#    0.000    0.000    0.000    0.000    0.000    0.000 
#
# Total GULP energy -297521.673994 kJ/mol
# GULP energy per Si atom -12396.736416 kJ/mol
# Density = 2.187371 g / cm^3
# Si number density = 21.923613 Si / 1000 Ang^3
#
#
#
# Elastic Constant Matrix: (Units=GPa)
#
#
# Indices 1 2 3 4 5 6 
#
# 1 49.3628 26.7204 37.2472 0.0000 7.7661 0.0000
# 2 26.7204 109.2835 50.4881 0.0000 -8.6554 0.0000
# 3 37.2472 50.4881 138.6926 0.0004 -1.8487 0.0000
# 4 0.0000 0.0000 0.0004 18.7621 0.0001 15.3252
# 5 7.7661 -8.6554 -1.8487 0.0001 50.4156 0.0000
# 6 0.0000 0.0000 0.0000 15.3252 0.0000 -4.5011
#
#
#
# Elastic Compliance Matrix: (Units=1/GPa)
#
#
# Indices 1 2 3 4 5 6 
#
# 1 0.028036 -0.004526 -0.005953 0.000000 -0.005314 0.000000
# 2 -0.004526 0.011886 -0.003077 0.000000 0.002625 0.000000
# 3 -0.005953 -0.003077 0.009939 0.000000 0.000753 0.000000
# 4 0.000000 0.000000 0.000000 0.014096 0.000000 0.047994
# 5 -0.005314 0.002625 0.000753 0.000000 0.021132 0.000000
# 6 0.000000 0.000000 0.000000 0.047994 0.000000 -0.058758
#
#
# Mechanical properties :
#
#
# Convention : Reuss Voigt Hill
#
# Bulk Modulus (GPa) = 43.95400 58.47228 51.21314
# Shear Modulus (GPa) = 81.93449 25.12753 53.53101
#
# Velocity S-wave (km/s) = 6.11995 3.38914 4.94672
# Velocity P-wave (km/s) = 8.36843 6.48412 7.48580
#
# Compressibility (1/GPa) = 0.02275106
#
# Stress axis : x y z
#
# Youngs Moduli (GPa) = 35.66898 84.13042 100.61576
#
# Poissons Ratio (x) = 0.38075 0.59892
# Poissons Ratio (y) = 0.16143 0.30955
# Poissons Ratio (z) = 0.21232 0.25883
#
# Static dielectric constant tensor:
#      x y z
#    x 3.775870 0.000000 0.181900 
#    y 0.000000 3.678470 0.000000 
#    z 0.181900 0.000000 4.169440 
# 
# 
# High freq. dielectric constant tensor:
#      x y z
#    x 1.852690 0.000000 0.010830 
#    y 0.000000 1.863560 0.000000 
#    z 0.010830 0.000000 1.873840 
# 
# From -- ./inp_files/194315.got.cif
#   From: 2010.06.25/outbox.cif.g09.slc.cpg/sg15_98_cif.got.tgz:194315.got - 2010.06.28 07:06:18.
