data_PCOD8145898
_publ_section_title
;
Structure prediction by ZEFSAII (Michael W. Deem and Ramdas Pophale) SiO2 
 PCOD8145898
Probable space group: C 2/C
;
_chemical_formula_sum "Si O2"
_cell_formula_units_Z 32
_cell_length_a 17.094082
_cell_length_b 6.489437
_cell_length_c 13.851192
_cell_angle_alpha 90.000000
_cell_angle_beta 64.542321
_cell_angle_gamma 90.000000
_cell_volume 1387.334109
_symmetry_space_group_name_H-M "C 2/C"
_symmetry_group_IT_number 15
_symmetry_cell_setting 'monoclinic'
loop_
_space_group_symop_operation_xyz
x,y,z
-x,y,1/2-z
-x,-y,-z
x,-y,1/2+z
1/2+x,1/2+y,z
1/2-x,1/2+y,1/2-z
1/2-x,1/2-y,-z
1/2+x,1/2-y,1/2+z
loop_
_atom_site_type_symbol
_atom_site_label
_atom_site_fract_x
_atom_site_fract_y
_atom_site_fract_z
Si Si1 0.623584 0.178588 0.129971
Si Si2 0.187211 0.976169 0.933071
Si Si3 0.414190 0.249606 0.894896
Si Si4 0.093320 0.966744 0.786072
O O1 0.711652 0.061702 0.112581
O O2 0.586845 0.301941 0.242867
O O3 0.560990 0.992251 0.127173
O O4 0.635387 0.322707 0.031219
O O5 0.160909 0.949310 0.836330
O O6 0.156444 0.205455 0.983374
O O7 0.499076 0.389427 0.870042
O O8 0.370899 0.317195 0.816219
#
# Coordination Sequence:
#
# PCOD8145898 Si02
#       4
#     8   8   8   8
#     4  10  23  41  64  94 132 166 210 267 317 371
#     4  10  22  41  64  94 131 165 213 264 316 383
#     4  10  22  40  62  94 132 165 214 259 315 380
#     4  10  23  39  64  96 128 165 216 261 311 386
#
# _framework density 23.065819999999999
#
# number of rings (size 3 to 8) (size 9 to 14) (size 15 to 20)
#    0.000    2.000    0.000    1.500    3.500   11.000 
#    0.000    0.000    0.000    4.500    0.000    0.000 
#    0.000    0.000    0.000    0.000    0.000    0.000 
#
# Total GULP energy -198279.457409 kJ/mol
# GULP energy per Si atom -12392.466088 kJ/mol
# Density = 2.301332 g / cm^3
# Si number density = 23.065820 Si / 1000 Ang^3
#
#
#
# Elastic Constant Matrix: (Units=GPa)
#
#
# Indices 1 2 3 4 5 6 
#
# 1 50.8034 14.8807 19.9580 -0.0003 0.3606 -0.0005
# 2 14.8807 126.9320 5.9813 -0.0005 -13.9064 -0.0010
# 3 19.9580 5.9813 54.7251 -0.0001 10.5254 -0.0002
# 4 -0.0003 -0.0005 -0.0001 26.2298 0.0000 -6.0212
# 5 0.3606 -13.9064 10.5254 0.0000 40.5468 -0.0001
# 6 -0.0005 -0.0010 -0.0002 -6.0212 -0.0001 22.8980
#
#
#
# Elastic Compliance Matrix: (Units=1/GPa)
#
#
# Indices 1 2 3 4 5 6 
#
# 1 0.023729 -0.002235 -0.008654 0.000000 0.001269 0.000000
# 2 -0.002235 0.008517 -0.000717 0.000000 0.003127 0.000000
# 3 -0.008654 -0.000717 0.022672 0.000000 -0.006054 0.000000
# 4 0.000000 0.000000 0.000000 0.040574 0.000000 0.010669
# 5 0.001269 0.003127 -0.006054 0.000000 0.027296 0.000000
# 6 0.000000 0.000000 0.000000 0.010669 0.000000 0.046477
#
#
# Mechanical properties :
#
#
# Convention : Reuss Voigt Hill
#
# Bulk Modulus (GPa) = 31.53989 34.90007 33.21998
# Shear Modulus (GPa) = 24.62516 30.71097 27.66807
#
# Velocity S-wave (km/s) = 3.27097 3.65286 3.46718
# Velocity P-wave (km/s) = 5.28859 5.74062 5.51923
#
# Compressibility (1/GPa) = 0.03170588
#
# Stress axis : x y z
#
# Youngs Moduli (GPa) = 42.14268 117.41719 44.10754
#
# Poissons Ratio (x) = 0.26243 0.38169
# Poissons Ratio (y) = 0.09419 0.03163
# Poissons Ratio (z) = 0.36468 0.08421
#
# Static dielectric constant tensor:
#      x y z
#    x 3.868790 0.000000 -0.037110 
#    y 0.000000 4.401060 0.000000 
#    z -0.037110 0.000000 4.112260 
# 
# 
# High freq. dielectric constant tensor:
#      x y z
#    x 1.897200 0.000000 -0.007750 
#    y 0.000000 1.918670 0.000000 
#    z -0.007750 0.000000 1.906570 
# 
# From -- ./inp_files/158173.got.cif
#   From: 2010.06.25/outbox.cif.g09.slc.cpg/sg15_80_cif.got.tgz:158173.got - 2010.06.28 07:06:18.
