data_PCOD8145024
_publ_section_title
;
Structure prediction by ZEFSAII (Michael W. Deem and Ramdas Pophale) SiO2 
 PCOD8145024
Probable space group: C 2/C
;
_chemical_formula_sum "Si O2"
_cell_formula_units_Z 44
_cell_length_a 9.669842
_cell_length_b 18.144194
_cell_length_c 15.333670
_cell_angle_alpha 90.000000
_cell_angle_beta 50.807286
_cell_angle_gamma 90.000000
_cell_volume 2085.061174
_symmetry_space_group_name_H-M "C 2/C"
_symmetry_group_IT_number 15
_symmetry_cell_setting 'monoclinic'
loop_
_space_group_symop_operation_xyz
x,y,z
-x,y,1/2-z
-x,-y,-z
x,-y,1/2+z
1/2+x,1/2+y,z
1/2-x,1/2+y,1/2-z
1/2-x,1/2-y,-z
1/2+x,1/2-y,1/2+z
loop_
_atom_site_type_symbol
_atom_site_label
_atom_site_fract_x
_atom_site_fract_y
_atom_site_fract_z
Si Si1 0.306102 0.646373 0.420900
Si Si2 0.626771 0.567722 0.939932
Si Si3 0.649115 0.978935 0.870486
Si Si4 0.000000 0.500173 0.750000
Si Si5 0.996692 0.706219 0.657580
Si Si6 0.845980 0.869649 0.247814
O O1 0.415320 0.610073 0.455066
O O2 0.271251 0.589032 0.355460
O O3 0.432942 0.713199 0.342230
O O4 0.116750 0.672785 0.533598
O O5 0.568667 0.618273 0.881681
O O6 0.835756 0.548661 0.850232
O O7 0.500000 0.500000 0.000000
O O8 0.565332 0.954383 0.809718
O O9 0.766211 0.052247 0.811080
O O10 0.500000 0.000000 0.000000
O O11 0.797040 0.697227 0.699397
O O12 0.000000 0.662570 0.750000
O O13 0.000000 0.841813 0.250000
#
# Coordination Sequence:
#
# PCOD8145024 Si02
#       6
#     8   8   8   4   8   8
#     4  11  22  39  69  96 123 182 232 272 338 417
#     4  11  21  37  66  97 132 174 227 283 349 409
#     4  11  20  38  68 101 139 172 225 296 346 403
#     4  10  22  36  62 104 144 170 214 288 364 398
#     4  11  23  42  67  91 132 185 228 272 335 431
#     4  11  23  39  65  99 136 179 223 285 358 401
#
# _framework density 21.102499999999999
#
# number of rings (size 3 to 8) (size 9 to 14) (size 15 to 20)
#    0.000    1.091    5.455    2.182    1.273    3.636 
#    0.000    0.909    8.000    0.000    0.000    0.000 
#    0.000    0.000    0.000    0.000    0.000    0.000 
#
# Total GULP energy -272571.976234 kJ/mol
# GULP energy per Si atom -12389.635283 kJ/mol
# Density = 2.105447 g / cm^3
# Si number density = 21.102500 Si / 1000 Ang^3
#
#
#
# Elastic Constant Matrix: (Units=GPa)
#
#
# Indices 1 2 3 4 5 6 
#
# 1 170.5681 48.2148 51.7527 0.0000 17.1755 0.0000
# 2 48.2148 76.6785 27.7434 0.0000 -1.2491 0.0000
# 3 51.7527 27.7434 96.3366 0.0001 16.7656 0.0000
# 4 0.0000 0.0000 0.0001 14.3167 0.0000 0.4031
# 5 17.1755 -1.2491 16.7656 0.0000 45.6687 0.0000
# 6 0.0000 0.0000 0.0000 0.4031 0.0000 41.0004
#
#
#
# Elastic Compliance Matrix: (Units=1/GPa)
#
#
# Indices 1 2 3 4 5 6 
#
# 1 0.008085 -0.004109 -0.002789 0.000000 -0.002129 0.000000
# 2 -0.004109 0.016832 -0.003193 0.000000 0.003178 0.000000
# 3 -0.002789 -0.003193 0.013493 0.000000 -0.003992 0.000000
# 4 0.000000 0.000000 0.000000 0.069868 0.000000 -0.000687
# 5 -0.002129 0.003178 -0.003992 0.000000 0.024250 0.000000
# 6 0.000000 0.000000 0.000000 -0.000687 0.000000 0.024397
#
#
# Mechanical properties :
#
#
# Convention : Reuss Voigt Hill
#
# Bulk Modulus (GPa) = 54.86355 66.55612 60.70983
# Shear Modulus (GPa) = 27.29495 34.58865 30.94180
#
# Velocity S-wave (km/s) = 3.60035 4.05295 3.83333
# Velocity P-wave (km/s) = 6.58319 7.31504 6.95874
#
# Compressibility (1/GPa) = 0.01822704
#
# Stress axis : x y z
#
# Youngs Moduli (GPa) = 123.68482 59.40932 74.11254
#
# Poissons Ratio (x) = 0.24413 0.20673
# Poissons Ratio (y) = 0.50825 0.23664
# Poissons Ratio (z) = 0.34501 0.18970
#
# Static dielectric constant tensor:
#      x y z
#    x 3.929870 0.000000 0.245540 
#    y 0.000000 3.637850 0.000000 
#    z 0.245540 0.000000 3.944050 
# 
# 
# High freq. dielectric constant tensor:
#      x y z
#    x 1.823820 0.000000 0.009510 
#    y 0.000000 1.800500 0.000000 
#    z 0.009510 0.000000 1.851740 
# 
# From -- ./inp_files/134714.got.cif
#   From: 2010.06.25/outbox.cif.g09.slc.cpg/sg15_68_cif.got.tgz:134714.got - 2010.06.28 07:06:18.
