data_PCOD8145654
_publ_section_title
;
Structure prediction by ZEFSAII (Michael W. Deem and Ramdas Pophale) SiO2 
 PCOD8145654
Probable space group: C 2/C
;
_chemical_formula_sum "Si O2"
_cell_formula_units_Z 40
_cell_length_a 15.407934
_cell_length_b 13.584612
_cell_length_c 9.478467
_cell_angle_alpha 90.000000
_cell_angle_beta 95.254396
_cell_angle_gamma 90.000000
_cell_volume 1975.608830
_symmetry_space_group_name_H-M "C 2/C"
_symmetry_group_IT_number 15
_symmetry_cell_setting 'monoclinic'
loop_
_space_group_symop_operation_xyz
x,y,z
-x,y,1/2-z
-x,-y,-z
x,-y,1/2+z
1/2+x,1/2+y,z
1/2-x,1/2+y,1/2-z
1/2-x,1/2-y,-z
1/2+x,1/2-y,1/2+z
loop_
_atom_site_type_symbol
_atom_site_label
_atom_site_fract_x
_atom_site_fract_y
_atom_site_fract_z
Si Si1 0.685229 0.095415 0.509148
Si Si2 0.601624 0.060635 0.793367
Si Si3 0.840814 0.809971 0.927904
Si Si4 0.832468 0.235052 0.111284
Si Si5 0.015468 0.905742 0.910001
O O1 0.660252 0.059708 0.661170
O O2 0.790186 0.096926 0.493932
O O3 0.664506 0.210672 0.480248
O O4 0.633885 0.029800 0.390888
O O5 0.500000 0.044587 0.750000
O O6 0.612963 0.163398 0.877082
O O7 0.802159 0.793746 0.764304
O O8 0.943242 0.825991 0.937906
O O9 0.891380 0.147328 0.054890
O O10 0.750000 0.250000 0.000000
O O11 0.000000 0.942392 0.750000
O O12 0.000000 0.000000 0.000000
#
# Coordination Sequence:
#
# PCOD8145654 Si02
#       5
#     8   8   8   8   8
#     4  10  22  39  64  89 122 165 203 264 314 386
#     4  11  23  40  64  90 125 163 212 264 331 382
#     4   9  21  43  60  87 132 162 205 259 324 376
#     4  10  22  40  65  92 125 168 210 261 320 385
#     4  10  22  42  65  88 126 169 207 261 315 379
#
# _framework density 20.246922999999999
#
# number of rings (size 3 to 8) (size 9 to 14) (size 15 to 20)
#    0.000    2.000    0.000    3.600    5.600    1.600 
#    7.200    0.000    0.000    0.000    0.000    0.000 
#    0.000    0.000    0.000    0.000    0.000    0.000 
#
# Total GULP energy -247909.008005 kJ/mol
# GULP energy per Si atom -12395.450400 kJ/mol
# Density = 2.020084 g / cm^3
# Si number density = 20.246923 Si / 1000 Ang^3
#
#
#
# Elastic Constant Matrix: (Units=GPa)
#
#
# Indices 1 2 3 4 5 6 
#
# 1 112.9047 57.1729 70.3572 0.0000 -2.3134 0.0000
# 2 57.1729 128.9052 70.5566 0.0000 5.4058 0.0000
# 3 70.3572 70.5566 97.0478 0.0000 -4.0774 0.0000
# 4 0.0000 0.0000 0.0000 37.1316 0.0000 -2.6674
# 5 -2.3134 5.4058 -4.0774 0.0000 32.9750 0.0000
# 6 0.0000 0.0000 0.0000 -2.6674 0.0000 29.1680
#
#
#
# Elastic Compliance Matrix: (Units=1/GPa)
#
#
# Indices 1 2 3 4 5 6 
#
# 1 0.016279 -0.001263 -0.010883 0.000000 0.000003 0.000000
# 2 -0.001263 0.013348 -0.008930 0.000000 -0.003381 0.000000
# 3 -0.010883 -0.008930 0.024845 0.000000 0.003773 0.000000
# 4 0.000000 0.000000 0.000000 0.027109 0.000000 0.002479
# 5 0.000003 -0.003381 0.003773 0.000000 0.031347 0.000000
# 6 0.000000 0.000000 0.000000 0.002479 0.000000 0.034511
#
#
# Mechanical properties :
#
#
# Convention : Reuss Voigt Hill
#
# Bulk Modulus (GPa) = 81.18029 81.67011 81.42520
# Shear Modulus (GPa) = 25.81333 29.23966 27.52650
#
# Velocity S-wave (km/s) = 3.57448 3.80432 3.69119
# Velocity P-wave (km/s) = 7.56426 7.72799 7.64656
#
# Compressibility (1/GPa) = 0.01231826
#
# Stress axis : x y z
#
# Youngs Moduli (GPa) = 61.43041 74.91840 40.24917
#
# Poissons Ratio (x) = 0.09465 0.43803
# Poissons Ratio (y) = 0.07761 0.35944
# Poissons Ratio (z) = 0.66854 0.66905
#
# Static dielectric constant tensor:
#      x y z
#    x 4.004430 0.000000 -0.507270 
#    y 0.000000 3.539990 0.000000 
#    z -0.507270 0.000000 3.687250 
# 
# 
# High freq. dielectric constant tensor:
#      x y z
#    x 1.799200 0.000000 -0.020070 
#    y 0.000000 1.797130 0.000000 
#    z -0.020070 0.000000 1.783890 
# 
# From -- ./inp_files/37569.got.cif
#   From: 2010.06.25/outbox.cif.g09.slc.cpg/sg15_19_cif.got.tgz:37569.got - 2010.06.28 07:06:18.
