data_PCOD8145401
_publ_section_title
;
Structure prediction by ZEFSAII (Michael W. Deem and Ramdas Pophale) SiO2 
 PCOD8145401
Probable space group: C 2/C
;
_chemical_formula_sum "Si O2"
_cell_formula_units_Z 44
_cell_length_a 22.185305
_cell_length_b 5.017530
_cell_length_c 18.648238
_cell_angle_alpha 90.000000
_cell_angle_beta 100.612231
_cell_angle_gamma 90.000000
_cell_volume 2040.331706
_symmetry_space_group_name_H-M "C 2/C"
_symmetry_group_IT_number 15
_symmetry_cell_setting 'monoclinic'
loop_
_space_group_symop_operation_xyz
x,y,z
-x,y,1/2-z
-x,-y,-z
x,-y,1/2+z
1/2+x,1/2+y,z
1/2-x,1/2+y,1/2-z
1/2-x,1/2-y,-z
1/2+x,1/2-y,1/2+z
loop_
_atom_site_type_symbol
_atom_site_label
_atom_site_fract_x
_atom_site_fract_y
_atom_site_fract_z
Si Si1 0.290515 0.339261 0.761549
Si Si2 0.112376 0.232931 0.098318
Si Si3 0.500000 0.523606 0.250000
Si Si4 0.897552 0.268719 0.563499
Si Si5 0.883091 0.228440 0.152163
Si Si6 0.037881 0.738077 0.121512
O O1 0.266782 0.641213 0.756842
O O2 0.325350 0.286889 0.843450
O O3 0.334830 0.301116 0.704446
O O4 0.067988 0.447207 0.126175
O O5 0.078419 0.948382 0.085939
O O6 0.130025 0.318364 0.021435
O O7 0.452188 0.710006 0.197884
O O8 0.536584 0.331588 0.203816
O O9 0.873495 0.488398 0.613347
O O10 0.971006 0.276418 0.571869
O O11 0.872952 0.991622 0.588934
#
# Coordination Sequence:
#
# PCOD8145401 Si02
#       6
#     8   8   4   8   8   8
#     4  12  27  47  68  93 127 179 232 273 310 380
#     4  12  24  43  65  96 136 174 219 266 327 388
#     4  10  22  38  66 106 130 172 206 278 326 396
#     4  11  24  40  66 102 136 169 208 269 339 401
#     4  11  24  43  67  97 137 169 221 265 332 386
#     4  11  22  36  67  99 139 169 208 259 341 399
#
# _framework density 21.565121999999999
#
# number of rings (size 3 to 8) (size 9 to 14) (size 15 to 20)
#    0.000    0.727    1.818    6.545    5.091    1.455 
#    0.000    5.455    0.000    0.000    0.000    0.000 
#    0.000    0.000    0.000    0.000    0.000    0.000 
#
# Total GULP energy -272993.567913 kJ/mol
# GULP energy per Si atom -12408.798542 kJ/mol
# Density = 2.151604 g / cm^3
# Si number density = 21.565122 Si / 1000 Ang^3
#
#
#
# Elastic Constant Matrix: (Units=GPa)
#
#
# Indices 1 2 3 4 5 6 
#
# 1 72.1415 17.6469 36.4990 0.0000 0.1470 0.0000
# 2 17.6469 74.4359 2.0870 0.0000 6.0434 0.0000
# 3 36.4990 2.0870 130.5249 0.0000 2.9989 0.0000
# 4 0.0000 0.0000 0.0000 28.0096 0.0000 -11.5580
# 5 0.1470 6.0434 2.9989 0.0000 27.8801 0.0000
# 6 0.0000 0.0000 0.0000 -11.5580 0.0000 40.6671
#
#
#
# Elastic Compliance Matrix: (Units=1/GPa)
#
#
# Indices 1 2 3 4 5 6 
#
# 1 0.017281 -0.004069 -0.004797 0.000000 0.001307 0.000000
# 2 -0.004069 0.014636 0.000979 0.000000 -0.003256 0.000000
# 3 -0.004797 0.000979 0.009014 0.000000 -0.001156 0.000000
# 4 0.000000 0.000000 0.000000 0.040445 0.000000 0.011495
# 5 0.001307 -0.003256 -0.001156 0.000000 0.036691 0.000000
# 6 0.000000 0.000000 0.000000 0.011495 0.000000 0.027857
#
#
# Mechanical properties :
#
#
# Convention : Reuss Voigt Hill
#
# Bulk Modulus (GPa) = 39.75176 43.28535 41.51855
# Shear Modulus (GPa) = 29.39706 34.03598 31.71652
#
# Velocity S-wave (km/s) = 3.69613 3.97708 3.83917
# Velocity P-wave (km/s) = 6.05710 6.41911 6.24073
#
# Compressibility (1/GPa) = 0.02515612
#
# Stress axis : x y z
#
# Youngs Moduli (GPa) = 57.86569 68.32520 110.94095
#
# Poissons Ratio (x) = 0.27799 0.53223
# Poissons Ratio (y) = 0.23543 -0.10856
# Poissons Ratio (z) = 0.27761 -0.06686
#
# Static dielectric constant tensor:
#      x y z
#    x 3.688090 0.000000 -0.029960 
#    y 0.000000 4.036000 0.000000 
#    z -0.029960 0.000000 3.944330 
# 
# 
# High freq. dielectric constant tensor:
#      x y z
#    x 1.824030 0.000000 -0.010380 
#    y 0.000000 1.862720 0.000000 
#    z -0.010380 0.000000 1.857680 
# 
# From -- ./inp_files/212826.got.cif
#   From: 2010.06.25/outbox.cif.g09.slc.cpg/sg15_107_cif.got.tgz:212826.got - 2010.06.28 07:06:18.
