data_PCOD8145356
_publ_section_title
;
Structure prediction by ZEFSAII (Michael W. Deem and Ramdas Pophale) SiO2 
 PCOD8145356
Probable space group: C 2/C
;
_chemical_formula_sum "Si O2"
_cell_formula_units_Z 44
_cell_length_a 26.447686
_cell_length_b 10.248009
_cell_length_c 13.673998
_cell_angle_alpha 90.000000
_cell_angle_beta 147.138520
_cell_angle_gamma 90.000000
_cell_volume 2010.992096
_symmetry_space_group_name_H-M "C 2/C"
_symmetry_group_IT_number 15
_symmetry_cell_setting 'monoclinic'
loop_
_space_group_symop_operation_xyz
x,y,z
-x,y,1/2-z
-x,-y,-z
x,-y,1/2+z
1/2+x,1/2+y,z
1/2-x,1/2+y,1/2-z
1/2-x,1/2-y,-z
1/2+x,1/2-y,1/2+z
loop_
_atom_site_type_symbol
_atom_site_label
_atom_site_fract_x
_atom_site_fract_y
_atom_site_fract_z
Si Si1 0.692267 0.898110 0.581230
Si Si2 0.425309 0.387722 0.392614
Si Si3 0.500000 0.998445 0.750000
Si Si4 0.761766 0.993745 0.002230
Si Si5 0.698000 0.387079 0.131654
Si Si6 0.562064 0.107151 0.153452
O O1 0.723043 0.902251 0.517875
O O2 0.732018 0.763637 0.690000
O O3 0.581031 0.901776 0.413663
O O4 0.724659 0.024676 0.692407
O O5 0.500000 0.500000 0.500000
O O6 0.396798 0.398596 0.460229
O O7 0.469200 0.247032 0.439813
O O8 0.336353 0.400984 0.176357
O O9 0.461322 0.901135 0.769978
O O10 0.815763 0.067880 0.002613
O O11 0.673070 0.913261 0.815892
O O12 0.500000 0.000000 0.000000
#
# Coordination Sequence:
#
# PCOD8145356 Si02
#       6
#     8   8   4   8   8   8
#     4  10  23  40  64  94 121 159 206 249 304 368
#     4  11  26  42  61  94 126 160 209 257 306 363
#     4  10  22  38  64  92 124 162 202 248 304 362
#     4  10  23  41  65  92 123 163 206 252 306 368
#     4  11  22  41  65  89 125 162 201 256 309 357
#     4  11  23  42  66  93 125 163 208 251 302 373
#
# _framework density 21.879749
#
# number of rings (size 3 to 8) (size 9 to 14) (size 15 to 20)
#    0.000    1.455    0.000    4.364    0.000   15.273 
#    0.000    0.000    0.000    1.091    0.000    0.000 
#    0.000    0.000    0.000    0.000    0.000    0.000 
#
# Total GULP energy -272802.818752 kJ/mol
# GULP energy per Si atom -12400.128125 kJ/mol
# Density = 2.182995 g / cm^3
# Si number density = 21.879749 Si / 1000 Ang^3
#
#
#
# Elastic Constant Matrix: (Units=GPa)
#
#
# Indices 1 2 3 4 5 6 
#
# 1 147.8871 66.4580 34.2855 0.0000 -4.0085 0.0000
# 2 66.4580 185.9854 61.9271 0.0000 3.9049 0.0000
# 3 34.2855 61.9271 83.6524 0.0000 5.9505 0.0000
# 4 0.0000 0.0000 0.0000 32.7910 0.0000 -3.8759
# 5 -4.0085 3.9049 5.9505 0.0000 23.7744 0.0000
# 6 0.0000 0.0000 0.0000 -3.8759 0.0000 28.1429
#
#
#
# Elastic Compliance Matrix: (Units=1/GPa)
#
#
# Indices 1 2 3 4 5 6 
#
# 1 0.008327 -0.002433 -0.001772 0.000000 0.002247 0.000000
# 2 -0.002433 0.007847 -0.004776 0.000000 -0.000504 0.000000
# 3 -0.001772 -0.004776 0.016475 0.000000 -0.003638 0.000000
# 4 0.000000 0.000000 0.000000 0.031001 0.000000 0.004270
# 5 0.002247 -0.000504 -0.003638 0.000000 0.043434 0.000000
# 6 0.000000 0.000000 0.000000 0.004270 0.000000 0.036121
#
#
# Mechanical properties :
#
#
# Convention : Reuss Voigt Hill
#
# Bulk Modulus (GPa) = 68.08510 82.54067 75.31289
# Shear Modulus (GPa) = 30.10939 33.93196 32.02068
#
# Velocity S-wave (km/s) = 3.71365 3.94234 3.82970
# Velocity P-wave (km/s) = 7.04086 7.65045 7.35197
#
# Compressibility (1/GPa) = 0.01468750
#
# Stress axis : x y z
#
# Youngs Moduli (GPa) = 120.09473 127.43916 60.69848
#
# Poissons Ratio (x) = 0.31001 0.10754
# Poissons Ratio (y) = 0.29215 0.28990
# Poissons Ratio (z) = 0.21278 0.60866
#
# Static dielectric constant tensor:
#      x y z
#    x 4.418300 0.000000 -0.125670 
#    y 0.000000 3.785420 0.000000 
#    z -0.125670 0.000000 3.801500 
# 
# 
# High freq. dielectric constant tensor:
#      x y z
#    x 1.884290 0.000000 -0.007760 
#    y 0.000000 1.854990 0.000000 
#    z -0.007760 0.000000 1.845710 
# 
# From -- ./inp_files/176759.got.cif
#   From: 2010.06.25/outbox.cif.g09.slc.cpg/sg15_89_cif.got.tgz:176759.got - 2010.06.28 07:06:18.
