data_PCOD8145946
_publ_section_title
;
Structure prediction by ZEFSAII (Michael W. Deem and Ramdas Pophale) SiO2 
 PCOD8145946
Probable space group: C 2/C
;
_chemical_formula_sum "Si O2"
_cell_formula_units_Z 32
_cell_length_a 11.030488
_cell_length_b 25.938348
_cell_length_c 13.506572
_cell_angle_alpha 90.000000
_cell_angle_beta 158.101580
_cell_angle_gamma 90.000000
_cell_volume 1441.275455
_symmetry_space_group_name_H-M "C 2/C"
_symmetry_group_IT_number 15
_symmetry_cell_setting 'monoclinic'
loop_
_space_group_symop_operation_xyz
x,y,z
-x,y,1/2-z
-x,-y,-z
x,-y,1/2+z
1/2+x,1/2+y,z
1/2-x,1/2+y,1/2-z
1/2-x,1/2-y,-z
1/2+x,1/2-y,1/2+z
loop_
_atom_site_type_symbol
_atom_site_label
_atom_site_fract_x
_atom_site_fract_y
_atom_site_fract_z
Si Si1 0.916674 0.387561 0.372546
Si Si2 0.372501 0.993083 0.013369
Si Si3 0.665796 0.907178 0.780607
Si Si4 0.970915 0.727861 0.580187
O O1 0.087613 0.432019 0.434836
O O2 0.989223 0.390910 0.544808
O O3 0.047639 0.333659 0.431253
O O4 0.537817 0.391969 0.062771
O O5 0.000000 0.010203 0.750000
O O6 0.500000 0.000000 0.000000
O O7 0.613039 0.030776 0.256696
O O8 0.500000 0.879299 0.750000
O O9 0.750000 0.750000 0.500000
O O10 0.837278 0.750863 0.374900
#
# Coordination Sequence:
#
# PCOD8145946 Si02
#       4
#     8   8   8   8
#     4  11  23  40  67  95 131 181 220 273 346 397
#     4  10  22  40  63  97 140 176 225 270 330 411
#     4  11  22  42  64  95 134 177 225 272 326 408
#     4  10  22  41  63  92 133 161 216 279 344 389
#
# _framework density 22.202556999999999
#
# number of rings (size 3 to 8) (size 9 to 14) (size 15 to 20)
#    0.000    1.500    0.000    6.000    3.500    2.000 
#    9.000    0.000    0.000   15.000    0.000    0.000 
#    0.000    0.000    0.000    0.000    0.000    0.000 
#
# Total GULP energy -198222.815587 kJ/mol
# GULP energy per Si atom -12388.925974 kJ/mol
# Density = 2.215202 g / cm^3
# Si number density = 22.202557 Si / 1000 Ang^3
#
#
#
# Elastic Constant Matrix: (Units=GPa)
#
#
# Indices 1 2 3 4 5 6 
#
# 1 79.8899 22.4181 32.5354 0.0069 6.0036 0.0051
# 2 22.4181 182.7353 39.2682 0.0028 -2.1377 0.0014
# 3 32.5354 39.2682 138.4805 0.0395 -15.1905 0.0294
# 4 0.0069 0.0028 0.0395 22.4502 0.0195 -11.7763
# 5 6.0036 -2.1377 -15.1905 0.0195 37.1733 0.0140
# 6 0.0051 0.0014 0.0294 -11.7763 0.0140 8.4366
#
#
#
# Elastic Compliance Matrix: (Units=1/GPa)
#
#
# Indices 1 2 3 4 5 6 
#
# 1 0.014548 -0.001070 -0.003538 0.000039 -0.003857 0.000065
# 2 -0.001070 0.005911 -0.001433 0.000017 -0.000073 0.000029
# 3 -0.003538 -0.001433 0.008912 -0.000137 0.004131 -0.000226
# 4 0.000039 0.000017 -0.000137 0.166332 -0.000236 0.232177
# 5 -0.003857 -0.000073 0.004131 -0.000236 0.029208 -0.000389
# 6 0.000065 0.000029 -0.000226 0.232177 -0.000389 0.442619
#
#
# Mechanical properties :
#
#
# Convention : Reuss Voigt Hill
#
# Bulk Modulus (GPa) = 57.83612 65.50546 61.67079
# Shear Modulus (GPa) = 7.29529 34.07095 20.68312
#
# Velocity S-wave (km/s) = 1.81464 3.92158 3.05547
# Velocity P-wave (km/s) = 5.52236 7.07621 6.34701
#
# Compressibility (1/GPa) = 0.01729023
#
# Stress axis : x y z
#
# Youngs Moduli (GPa) = 68.73815 169.18599 112.20941
#
# Poissons Ratio (x) = 0.18097 0.39697
# Poissons Ratio (y) = 0.07353 0.16077
# Poissons Ratio (z) = 0.24318 0.24240
#
# Static dielectric constant tensor:
#      x y z
#    x 5.990040 0.000130 -0.373970 
#    y 0.000130 4.615620 -0.000150 
#    z -0.373970 -0.000150 -0.015020 
# 
# 
# High freq. dielectric constant tensor:
#      x y z
#    x 1.861540 0.000000 -0.016320 
#    y 0.000000 1.866060 0.000000 
#    z -0.016320 0.000000 1.890090 
# 
# From -- ./inp_files/3967.got.cif
#   From: 2010.06.25/outbox.cif.g09.slc.cpg/sg15_2_cif.got.tgz:3967.got - 2010.06.28 07:06:18.
