data_PCOD8145554
_publ_section_title
;
Structure prediction by ZEFSAII (Michael W. Deem and Ramdas Pophale) SiO2 
 PCOD8145554
Probable space group: C 2/C
;
_chemical_formula_sum "Si O2"
_cell_formula_units_Z 40
_cell_length_a 4.927243
_cell_length_b 28.659199
_cell_length_c 14.743518
_cell_angle_alpha 90.000000
_cell_angle_beta 56.788435
_cell_angle_gamma 90.000000
_cell_volume 1741.866742
_symmetry_space_group_name_H-M "C 2/C"
_symmetry_group_IT_number 15
_symmetry_cell_setting 'monoclinic'
loop_
_space_group_symop_operation_xyz
x,y,z
-x,y,1/2-z
-x,-y,-z
x,-y,1/2+z
1/2+x,1/2+y,z
1/2-x,1/2+y,1/2-z
1/2-x,1/2-y,-z
1/2+x,1/2-y,1/2+z
loop_
_atom_site_type_symbol
_atom_site_label
_atom_site_fract_x
_atom_site_fract_y
_atom_site_fract_z
Si Si1 0.382249 0.037226 0.675817
Si Si2 0.871605 0.434157 0.678114
Si Si3 0.628097 0.237706 0.324437
Si Si4 0.418416 0.320656 0.481199
Si Si5 0.446977 0.881300 0.484458
O O1 0.500000 0.056622 0.750000
O O2 0.531907 0.071108 0.573968
O O3 0.000000 0.039324 0.750000
O O4 0.530436 0.985327 0.629324
O O5 0.500000 0.446335 0.750000
O O6 0.928361 0.395000 0.593417
O O7 0.000000 0.413805 0.750000
O O8 0.500000 0.254462 0.250000
O O9 0.629568 0.279815 0.397167
O O10 0.389410 0.197671 0.404880
O O11 0.000000 0.219388 0.250000
O O12 0.643035 0.350931 0.506792
O O13 0.276403 0.350760 0.422470
#
# Coordination Sequence:
#
# PCOD8145554 Si02
#       5
#     8   8   8   8   8
#     4  10  22  39  61  91 128 174 219 255 309 377
#     4  10  22  40  61  89 128 174 217 254 308 376
#     4  11  24  46  69  89 127 171 204 258 328 387
#     4  11  26  41  64 101 124 159 220 260 314 398
#     4  12  23  40  64  94 133 163 207 275 317 358
#
# _framework density 22.963868000000002
#
# number of rings (size 3 to 8) (size 9 to 14) (size 15 to 20)
#    0.000    1.200    0.000    5.400    0.000   11.200 
#    0.000    8.000    0.000    0.000    0.000    0.000 
#    0.000    0.000    0.000    0.000    0.000    0.000 
#
# Total GULP energy -247962.314794 kJ/mol
# GULP energy per Si atom -12398.115740 kJ/mol
# Density = 2.291160 g / cm^3
# Si number density = 22.963868 Si / 1000 Ang^3
#
#
#
# Elastic Constant Matrix: (Units=GPa)
#
#
# Indices 1 2 3 4 5 6 
#
# 1 173.4841 41.0347 43.1514 0.0000 19.5460 0.0000
# 2 41.0347 96.6362 33.2167 0.0000 12.8747 0.0000
# 3 43.1514 33.2167 79.6819 0.0000 14.0103 0.0000
# 4 0.0000 0.0000 0.0000 14.8316 0.0000 1.5125
# 5 19.5460 12.8747 14.0103 0.0000 39.0693 0.0000
# 6 0.0000 0.0000 0.0000 1.5125 0.0000 41.7395
#
#
#
# Elastic Compliance Matrix: (Units=1/GPa)
#
#
# Indices 1 2 3 4 5 6 
#
# 1 0.007096 -0.001808 -0.002743 0.000000 -0.001971 0.000000
# 2 -0.001808 0.012740 -0.004005 0.000000 -0.001858 0.000000
# 3 -0.002743 -0.004005 0.016257 0.000000 -0.003138 0.000000
# 4 0.000000 0.000000 0.000000 0.067674 0.000000 -0.002452
# 5 -0.001971 -0.001858 -0.003138 0.000000 0.028319 0.000000
# 6 0.000000 0.000000 0.000000 -0.002452 0.000000 0.024047
#
#
# Mechanical properties :
#
#
# Convention : Reuss Voigt Hill
#
# Bulk Modulus (GPa) = 52.68428 64.95644 58.82036
# Shear Modulus (GPa) = 27.84418 34.62137 31.23278
#
# Velocity S-wave (km/s) = 3.48591 3.88705 3.69193
# Velocity P-wave (km/s) = 6.26052 6.96372 6.62146
#
# Compressibility (1/GPa) = 0.01898100
#
# Stress axis : x y z
#
# Youngs Moduli (GPa) = 140.92263 78.49314 61.51379
#
# Poissons Ratio (x) = 0.14191 0.16871
# Poissons Ratio (y) = 0.25478 0.24637
# Poissons Ratio (z) = 0.38651 0.31438
#
# Static dielectric constant tensor:
#      x y z
#    x 4.300260 0.000000 0.110010 
#    y 0.000000 4.337480 0.000000 
#    z 0.110010 0.000000 3.898870 
# 
# 
# High freq. dielectric constant tensor:
#      x y z
#    x 1.928510 0.000000 0.010220 
#    y 0.000000 1.919580 0.000000 
#    z 0.010220 0.000000 1.889230 
# 
# From -- ./inp_files/130256.got.cif
#   From: 2010.06.25/outbox.cif.g09.slc.cpg/sg15_66_cif.got.tgz:130256.got - 2010.06.28 07:06:18.
