data_PCOD8145212
_publ_section_title
;
Structure prediction by ZEFSAII (Michael W. Deem and Ramdas Pophale) SiO2 
 PCOD8145212
Probable space group: C 2/C
;
_chemical_formula_sum "Si O2"
_cell_formula_units_Z 44
_cell_length_a 4.906681
_cell_length_b 27.670169
_cell_length_c 14.791624
_cell_angle_alpha 90.000000
_cell_angle_beta 70.626801
_cell_angle_gamma 90.000000
_cell_volume 1894.528772
_symmetry_space_group_name_H-M "C 2/C"
_symmetry_group_IT_number 15
_symmetry_cell_setting 'monoclinic'
loop_
_space_group_symop_operation_xyz
x,y,z
-x,y,1/2-z
-x,-y,-z
x,-y,1/2+z
1/2+x,1/2+y,z
1/2-x,1/2+y,1/2-z
1/2-x,1/2-y,-z
1/2+x,1/2-y,1/2+z
loop_
_atom_site_type_symbol
_atom_site_label
_atom_site_fract_x
_atom_site_fract_y
_atom_site_fract_z
Si Si1 0.366919 0.390682 0.608973
Si Si2 0.638036 0.173376 0.389620
Si Si3 0.084866 0.890682 0.391027
Si Si4 0.500000 0.750000 0.250000
Si Si5 0.000000 0.468568 0.750000
Si Si6 0.082724 0.326624 0.389620
Si Si7 0.500000 0.531432 0.750000
O O1 0.633618 0.371040 0.639239
O O2 0.473015 0.408143 0.500000
O O3 0.151937 0.345222 0.625485
O O4 0.218956 0.436976 0.667640
O O5 0.740534 0.218340 0.319132
O O6 0.581666 0.189189 0.500000
O O7 0.902906 0.845222 0.374515
O O8 0.412097 0.871040 0.360761
O O9 0.054236 0.936976 0.332360
O O10 0.621201 0.781660 0.319132
O O11 0.793368 0.500000 0.706632
#
# Coordination Sequence:
#
# PCOD8145212 Si02
#       7
#     8   8   8   4   4   8   4
#     4  10  22  42  60  80 116 155 187 228 285 340
#     4  10  22  38  59  84 114 154 193 228 277 338
#     4  10  22  42  60  80 116 155 187 228 285 340
#     4  12  22  36  60  88 120 146 190 244 280 316
#     4  12  24  37  60  91 114 141 190 239 284 340
#     4  10  22  38  59  84 114 154 193 228 277 338
#     4  12  24  37  60  91 114 141 190 239 284 340
#
# _framework density 23.224774
#
# number of rings (size 3 to 8) (size 9 to 14) (size 15 to 20)
#    0.000    1.455    0.000    4.909    0.000    4.364 
#    0.000    5.455    0.000    0.000    0.000    0.000 
#    0.000    0.000    0.000    0.000    0.000    0.000 
#
# Total GULP energy -272905.067935 kJ/mol
# GULP energy per Si atom -12404.775815 kJ/mol
# Density = 2.317191 g / cm^3
# Si number density = 23.224774 Si / 1000 Ang^3
#
#
#
# Elastic Constant Matrix: (Units=GPa)
#
#
# Indices 1 2 3 4 5 6 
#
# 1 56.8013 -6.7234 -7.3983 0.0000 -2.6315 0.0000
# 2 -6.7234 87.8907 42.6041 0.0000 4.5708 0.0000
# 3 -7.3983 42.6041 80.7681 0.0000 4.8523 0.0000
# 4 0.0000 0.0000 0.0000 10.2072 0.0000 0.4328
# 5 -2.6315 4.5708 4.8523 0.0000 18.5936 0.0000
# 6 0.0000 0.0000 0.0000 0.4328 0.0000 5.5356
#
#
#
# Elastic Compliance Matrix: (Units=1/GPa)
#
#
# Indices 1 2 3 4 5 6 
#
# 1 0.017934 0.000710 0.001144 0.000000 0.002065 0.000000
# 2 0.000710 0.015366 -0.007944 0.000000 -0.001604 0.000000
# 3 0.001144 -0.007944 0.016813 0.000000 -0.002273 0.000000
# 4 0.000000 0.000000 0.000000 0.098296 0.000000 -0.007686
# 5 0.002065 -0.001604 -0.002273 0.000000 0.055061 0.000000
# 6 0.000000 0.000000 0.000000 -0.007686 0.000000 0.181249
#
#
# Mechanical properties :
#
#
# Convention : Reuss Voigt Hill
#
# Bulk Modulus (GPa) = 26.36222 31.38054 28.87138
# Shear Modulus (GPa) = 12.20870 19.99913 16.10392
#
# Velocity S-wave (km/s) = 2.29525 2.93765 2.63609
# Velocity P-wave (km/s) = 4.28950 5.00474 4.66086
#
# Compressibility (1/GPa) = 0.03793307
#
# Stress axis : x y z
#
# Youngs Moduli (GPa) = 55.76016 65.07730 59.47800
#
# Poissons Ratio (x) = -0.04619 -0.06806
# Poissons Ratio (y) = -0.03958 0.47250
# Poissons Ratio (z) = -0.06380 0.51699
#
# Static dielectric constant tensor:
#      x y z
#    x 4.387980 0.000000 -0.002740 
#    y 0.000000 3.990350 0.000000 
#    z -0.002740 0.000000 4.358390 
# 
# 
# High freq. dielectric constant tensor:
#      x y z
#    x 1.932500 0.000000 -0.000250 
#    y 0.000000 1.907360 0.000000 
#    z -0.000250 0.000000 1.929770 
# 
# From -- ./inp_files/8001.got.cif
#   From: 2010.06.25/outbox.cif.g09.slc.cpg/sg15_5_cif.got.tgz:8001.got - 2010.06.28 07:06:18.
