data_PCOD8145142
_publ_section_title
;
Structure prediction by ZEFSAII (Michael W. Deem and Ramdas Pophale) SiO2 
 PCOD8145142
Probable space group: C 2/C
;
_chemical_formula_sum "Si O2"
_cell_formula_units_Z 64
_cell_length_a 28.780532
_cell_length_b 13.423196
_cell_length_c 12.775058
_cell_angle_alpha 90.000000
_cell_angle_beta 139.759676
_cell_angle_gamma 90.000000
_cell_volume 3188.209402
_symmetry_space_group_name_H-M "C 2/C"
_symmetry_group_IT_number 15
_symmetry_cell_setting 'monoclinic'
loop_
_space_group_symop_operation_xyz
x,y,z
-x,y,1/2-z
-x,-y,-z
x,-y,1/2+z
1/2+x,1/2+y,z
1/2-x,1/2+y,1/2-z
1/2-x,1/2-y,-z
1/2+x,1/2-y,1/2+z
loop_
_atom_site_type_symbol
_atom_site_label
_atom_site_fract_x
_atom_site_fract_y
_atom_site_fract_z
Si Si1 0.362220 0.857998 0.245882
Si Si2 0.385005 0.953541 0.902876
Si Si3 0.650493 0.672637 0.907897
Si Si4 0.499522 0.786011 0.129457
Si Si5 0.780100 0.451146 0.915173
Si Si6 0.355093 0.326306 0.862354
Si Si7 0.209053 0.623398 0.433865
Si Si8 0.510035 0.615006 0.546545
O O1 0.421802 0.813006 0.272645
O O2 0.325449 0.767040 0.245316
O O3 0.396612 0.928693 0.397862
O O4 0.302902 0.903999 0.066263
O O5 0.333213 0.927751 0.910944
O O6 0.354904 0.924795 0.739348
O O7 0.456173 0.889373 0.042939
O O8 0.681180 0.764626 0.894257
O O9 0.576099 0.625480 0.740457
O O10 0.642009 0.704090 0.012230
O O11 0.717583 0.598575 0.005154
O O12 0.500000 0.751414 0.250000
O O13 0.470641 0.689207 0.016575
O O14 0.699336 0.417904 0.748652
O O15 0.781737 0.570547 0.936802
O O16 0.436117 0.352595 0.971899
O O17 0.500000 0.500000 0.500000
#
# Coordination Sequence:
#
# PCOD8145142 Si02
#       8
#     8   8   8   8   8   8   8   8
#     4  10  23  38  62  91 129 162 206 262 314 372
#     4  11  20  40  62  93 123 162 206 257 314 381
#     4  11  21  41  63  88 124 161 209 257 311 371
#     4  11  22  41  63  91 124 165 209 257 323 382
#     4  11  21  39  62  92 130 159 209 257 314 375
#     4  11  23  40  60  91 123 168 208 253 314 369
#     4  10  22  37  64  92 119 161 204 259 310 369
#     4  11  25  43  63  88 125 162 211 262 310 377
#
# _framework density 20.073962999999999
#
# number of rings (size 3 to 8) (size 9 to 14) (size 15 to 20)
#    0.000    1.250    3.750    2.625    0.000    1.000 
#    0.000    0.000    0.000    0.000    0.000    0.000 
#    0.000    0.000    0.000    0.000    0.000    0.000 
#
# Total GULP energy -396497.174485 kJ/mol
# GULP energy per Si atom -12390.536703 kJ/mol
# Density = 2.002827 g / cm^3
# Si number density = 20.073963 Si / 1000 Ang^3
#
#
#
# Elastic Constant Matrix: (Units=GPa)
#
#
# Indices 1 2 3 4 5 6 
#
# 1 92.2750 16.0232 29.6101 0.0000 -8.5629 0.0000
# 2 16.0232 67.3101 12.5279 0.0000 -1.7142 0.0000
# 3 29.6101 12.5279 78.9684 0.0000 -1.8383 0.0000
# 4 0.0000 0.0000 0.0000 22.9355 0.0000 -3.6448
# 5 -8.5629 -1.7142 -1.8383 0.0000 29.5775 0.0000
# 6 0.0000 0.0000 0.0000 -3.6448 0.0000 21.9813
#
#
#
# Elastic Compliance Matrix: (Units=1/GPa)
#
#
# Indices 1 2 3 4 5 6 
#
# 1 0.012947 -0.002172 -0.004432 0.000000 0.003347 0.000000
# 2 -0.002172 0.015689 -0.001670 0.000000 0.000177 0.000000
# 3 -0.004432 -0.001670 0.014579 0.000000 -0.000474 0.000000
# 4 0.000000 0.000000 0.000000 0.044781 0.000000 0.007425
# 5 0.003347 0.000177 -0.000474 0.000000 0.034759 0.000000
# 6 0.000000 0.000000 0.000000 0.007425 0.000000 0.046724
#
#
# Mechanical properties :
#
#
# Convention : Reuss Voigt Hill
#
# Bulk Modulus (GPa) = 37.50068 39.43064 38.46566
# Shear Modulus (GPa) = 25.65188 26.92501 26.28845
#
# Velocity S-wave (km/s) = 3.57861 3.66634 3.62274
# Velocity P-wave (km/s) = 5.98306 6.13254 6.05826
#
# Compressibility (1/GPa) = 0.02666619
#
# Stress axis : x y z
#
# Youngs Moduli (GPa) = 77.23705 63.73875 68.59100
#
# Poissons Ratio (x) = 0.13843 0.30401
# Poissons Ratio (y) = 0.16775 0.11458
# Poissons Ratio (z) = 0.34233 0.10647
#
# Static dielectric constant tensor:
#      x y z
#    x 3.762920 0.000000 -0.030050 
#    y 0.000000 4.141290 0.000000 
#    z -0.030050 0.000000 3.678420 
# 
# 
# High freq. dielectric constant tensor:
#      x y z
#    x 1.791570 0.000000 -0.002380 
#    y 0.000000 1.785430 0.000000 
#    z -0.002380 0.000000 1.783110 
# 
# From -- ./inp_files/112734.got.cif
#   From: 2010.06.25/outbox.cif.g09.slc.cpg/sg15_57_cif.got.tgz:112734.got - 2010.06.28 07:06:18.
