data_PCOD8145187
_publ_section_title
;
Structure prediction by ZEFSAII (Michael W. Deem and Ramdas Pophale) SiO2 
 PCOD8145187
Probable space group: C 2/C
;
_chemical_formula_sum "Si O2"
_cell_formula_units_Z 48
_cell_length_a 17.686407
_cell_length_b 12.041980
_cell_length_c 11.601249
_cell_angle_alpha 90.000000
_cell_angle_beta 112.111015
_cell_angle_gamma 90.000000
_cell_volume 2289.112815
_symmetry_space_group_name_H-M "C 2/C"
_symmetry_group_IT_number 15
_symmetry_cell_setting 'monoclinic'
loop_
_space_group_symop_operation_xyz
x,y,z
-x,y,1/2-z
-x,-y,-z
x,-y,1/2+z
1/2+x,1/2+y,z
1/2-x,1/2+y,1/2-z
1/2-x,1/2-y,-z
1/2+x,1/2-y,1/2+z
loop_
_atom_site_type_symbol
_atom_site_label
_atom_site_fract_x
_atom_site_fract_y
_atom_site_fract_z
Si Si1 0.806010 0.640965 0.148578
Si Si2 0.130929 0.764494 0.522796
Si Si3 0.338434 0.791594 0.915829
Si Si4 0.558066 0.484641 0.389161
Si Si5 0.000680 0.784114 0.887963
Si Si6 0.771412 0.923374 0.480355
O O1 0.867786 0.676083 0.080949
O O2 0.852093 0.668021 0.293260
O O3 0.779972 0.513461 0.121067
O O4 0.724362 0.714156 0.105802
O O5 0.074443 0.870428 0.463325
O O6 0.082621 0.726925 0.610835
O O7 0.295934 0.670754 0.901686
O O8 0.426307 0.791875 0.025323
O O9 0.282903 0.880944 0.946843
O O10 0.500000 0.454201 0.250000
O O11 0.514465 0.585537 0.435085
O O12 0.649006 0.528291 0.408206
O O13 0.000000 0.781950 0.750000
#
# Coordination Sequence:
#
# PCOD8145187 Si02
#       6
#     8   8   8   8   8   8
#     4  10  23  39  62  93 127 168 200 263 317 365
#     4  10  22  38  57  92 131 159 207 260 317 375
#     4  10  22  40  68  91 120 173 208 254 312 381
#     4   9  19  34  62  92 122 162 199 266 326 362
#     4  10  22  39  61  91 124 165 213 264 319 370
#     4   9  21  41  60  95 125 159 217 252 309 381
#
# _framework density 20.968823
#
# number of rings (size 3 to 8) (size 9 to 14) (size 15 to 20)
#    0.000    2.333    0.000    0.500   11.667    4.000 
#    3.000    0.833    0.000    0.000    0.000    0.000 
#    0.000    0.000    0.000    0.000    0.000    0.000 
#
# Total GULP energy -297397.752747 kJ/mol
# GULP energy per Si atom -12391.573031 kJ/mol
# Density = 2.092110 g / cm^3
# Si number density = 20.968823 Si / 1000 Ang^3
#
#
#
# Elastic Constant Matrix: (Units=GPa)
#
#
# Indices 1 2 3 4 5 6 
#
# 1 108.0979 36.0515 28.0605 0.0000 -17.1802 0.0000
# 2 36.0515 68.9590 41.0718 0.0000 -4.1919 0.0000
# 3 28.0605 41.0718 97.3285 0.0000 2.8631 0.0000
# 4 0.0000 0.0000 0.0000 12.8340 0.0000 1.0268
# 5 -17.1802 -4.1919 2.8631 0.0000 36.2596 0.0000
# 6 0.0000 0.0000 0.0000 1.0268 0.0000 15.6403
#
#
#
# Elastic Compliance Matrix: (Units=1/GPa)
#
#
# Indices 1 2 3 4 5 6 
#
# 1 0.012205 -0.005169 -0.001494 0.000000 0.005303 0.000000
# 2 -0.005169 0.021866 -0.007757 0.000000 0.000691 0.000000
# 3 -0.001494 -0.007757 0.014059 0.000000 -0.002715 0.000000
# 4 0.000000 0.000000 0.000000 0.078330 0.000000 -0.005143
# 5 0.005303 0.000691 -0.002715 0.000000 0.030386 0.000000
# 6 0.000000 0.000000 0.000000 -0.005143 0.000000 0.064275
#
#
# Mechanical properties :
#
#
# Convention : Reuss Voigt Hill
#
# Bulk Modulus (GPa) = 51.84043 53.86146 52.85094
# Shear Modulus (GPa) = 19.50152 24.22689 21.86420
#
# Velocity S-wave (km/s) = 3.05294 3.40277 3.23259
# Velocity P-wave (km/s) = 6.09947 6.41722 6.26036
#
# Compressibility (1/GPa) = 0.01928996
#
# Stress axis : x y z
#
# Youngs Moduli (GPa) = 81.93125 45.73317 71.13129
#
# Poissons Ratio (x) = 0.23639 0.10625
# Poissons Ratio (y) = 0.42350 0.55179
# Poissons Ratio (z) = 0.12238 0.35477
#
# Static dielectric constant tensor:
#      x y z
#    x 3.899990 0.000000 -0.024440 
#    y 0.000000 3.773220 0.000000 
#    z -0.024440 0.000000 3.554850 
# 
# 
# High freq. dielectric constant tensor:
#      x y z
#    x 1.829860 0.000000 -0.001410 
#    y 0.000000 1.802560 0.000000 
#    z -0.001410 0.000000 1.811210 
# 
# From -- ./inp_files/104264.got.cif
#   From: 2010.06.25/outbox.cif.g09.slc.cpg/sg15_53_cif.got.tgz:104264.got - 2010.06.28 07:06:18.
