data_PCOD8146111
_publ_section_title
;
Structure prediction by ZEFSAII (Michael W. Deem and Ramdas Pophale) SiO2 
 PCOD8146111
Probable space group: C 2/C
;
_chemical_formula_sum "Si O2"
_cell_formula_units_Z 52
_cell_length_a 16.737191
_cell_length_b 7.965662
_cell_length_c 31.777775
_cell_angle_alpha 90.000000
_cell_angle_beta 33.992842
_cell_angle_gamma 90.000000
_cell_volume 2368.694949
_symmetry_space_group_name_H-M "C 2/C"
_symmetry_group_IT_number 15
_symmetry_cell_setting 'monoclinic'
loop_
_space_group_symop_operation_xyz
x,y,z
-x,y,1/2-z
-x,-y,-z
x,-y,1/2+z
1/2+x,1/2+y,z
1/2-x,1/2+y,1/2-z
1/2-x,1/2-y,-z
1/2+x,1/2-y,1/2+z
loop_
_atom_site_type_symbol
_atom_site_label
_atom_site_fract_x
_atom_site_fract_y
_atom_site_fract_z
Si Si1 0.000000 0.449012 0.250000
Si Si2 0.915733 0.620228 0.505680
Si Si3 0.544884 0.908393 0.320360
Si Si4 0.528784 0.594550 0.901994
Si Si5 0.231456 0.165592 0.360767
Si Si6 0.772759 0.446607 0.491610
Si Si7 0.206454 0.750375 0.251616
O O1 0.021395 0.341353 0.282984
O O2 0.137372 0.559172 0.179644
O O3 0.821026 0.741950 0.575111
O O4 0.813791 0.508655 0.520310
O O5 0.000000 0.500000 0.500000
O O6 0.025098 0.732278 0.430318
O O7 0.659449 0.057846 0.272061
O O8 0.403310 0.980843 0.403219
O O9 0.625422 0.754467 0.307797
O O10 0.608039 0.452439 0.894456
O O11 0.606885 0.631526 0.823510
O O12 0.365958 0.543138 0.963958
O O13 0.287650 0.299531 0.300754
O O14 0.750000 0.250000 0.500000
#
# Coordination Sequence:
#
# PCOD8146111 Si02
#       7
#     4   8   8   8   8   8   8
#     4  10  22  40  66  98 128 170 228 284 332 400
#     4  12  26  43  70 105 141 179 235 290 351 411
#     4  11  23  44  69  97 137 177 236 280 350 414
#     4  12  24  46  72  99 141 194 229 288 357 418
#     4  11  25  43  69 100 140 181 234 287 351 412
#     4  12  27  45  71 103 142 184 237 283 352 426
#     4  11  22  42  71  96 136 185 231 277 350 416
#
# _framework density 21.953016999999999
#
# number of rings (size 3 to 8) (size 9 to 14) (size 15 to 20)
#    0.000    0.615    4.615    4.615    4.308    1.231 
#    0.000    0.000    0.000    0.923    0.000    0.000 
#    0.000    0.000    0.000    0.000    0.000    0.000 
#
# Total GULP energy -322249.254557 kJ/mol
# GULP energy per Si atom -12394.202098 kJ/mol
# Density = 2.190305 g / cm^3
# Si number density = 21.953017 Si / 1000 Ang^3
#
#
#
# Elastic Constant Matrix: (Units=GPa)
#
#
# Indices 1 2 3 4 5 6 
#
# 1 119.5283 43.2180 34.6711 -0.0634 -2.7508 0.1403
# 2 43.2180 68.8454 18.2380 -0.1431 4.3557 -0.3323
# 3 34.6711 18.2380 110.4374 -0.1498 0.7433 0.3336
# 4 -0.0634 -0.1431 -0.1498 22.0062 0.0612 7.0934
# 5 -2.7508 4.3557 0.7433 0.0612 46.1660 -0.0978
# 6 0.1403 -0.3323 0.3336 7.0934 -0.0978 -5.1359
#
#
#
# Elastic Compliance Matrix: (Units=1/GPa)
#
#
# Indices 1 2 3 4 5 6 
#
# 1 0.011539 -0.006657 -0.002534 -0.000145 0.001357 0.000355
# 2 -0.006657 0.019117 -0.001049 0.000394 -0.002186 -0.000901
# 3 -0.002534 -0.001049 0.010023 -0.000108 -0.000212 0.000505
# 4 -0.000145 0.000394 -0.000108 0.031453 0.000006 0.043404
# 5 0.001357 -0.002186 -0.000212 0.000006 0.021951 -0.000245
# 6 0.000355 -0.000901 0.000505 0.043404 -0.000245 -0.134656
#
#
# Mechanical properties :
#
#
# Convention : Reuss Voigt Hill
#
# Bulk Modulus (GPa) = 49.50550 54.56280 52.03415
# Shear Modulus (GPa) = -374.23621 26.11950 -174.05836
#
# Velocity S-wave (km/s) = -13.07064 3.45308 -8.91397
# Velocity P-wave (km/s) = 14.32442 6.38801 9.06594
#
# Compressibility (1/GPa) = 0.02019978
#
# Stress axis : x y z
#
# Youngs Moduli (GPa) = 86.66415 52.30986 99.76712
#
# Poissons Ratio (x) = 0.34822 0.25277
# Poissons Ratio (y) = 0.57691 0.10467
# Poissons Ratio (z) = 0.21957 0.05488
#
# Static dielectric constant tensor:
#      x y z
#    x 4.639570 -0.000470 0.186980 
#    y -0.000470 3.837630 0.001910 
#    z 0.186980 0.001910 2.848830 
# 
# 
# High freq. dielectric constant tensor:
#      x y z
#    x 1.877640 -0.000010 0.003470 
#    y -0.000010 1.846570 -0.000010 
#    z 0.003470 -0.000010 1.886360 
# 
# From -- ./inp_files/313103.got.cif
#   From: 2010.06.25/outbox.cif.g09.slc.cpg/sg15_157_cif.got.tgz:313103.got - 2010.06.28 07:06:18.
