data_PCOD8146876
_publ_section_title
;
Structure prediction by ZEFSAII (Michael W. Deem and Ramdas Pophale) SiO2 
 PCOD8146876
Probable space group: C 2/C
;
_chemical_formula_sum "Si O2"
_cell_formula_units_Z 52
_cell_length_a 11.588009
_cell_length_b 23.167992
_cell_length_c 13.548073
_cell_angle_alpha 90.000000
_cell_angle_beta 46.785935
_cell_angle_gamma 90.000000
_cell_volume 2650.839575
_symmetry_space_group_name_H-M "C 2/C"
_symmetry_group_IT_number 15
_symmetry_cell_setting 'monoclinic'
loop_
_space_group_symop_operation_xyz
x,y,z
-x,y,1/2-z
-x,-y,-z
x,-y,1/2+z
1/2+x,1/2+y,z
1/2-x,1/2+y,1/2-z
1/2-x,1/2-y,-z
1/2+x,1/2-y,1/2+z
loop_
_atom_site_type_symbol
_atom_site_label
_atom_site_fract_x
_atom_site_fract_y
_atom_site_fract_z
Si Si1 0.176995 0.923202 0.374334
Si Si2 0.145376 0.146042 0.240247
Si Si3 0.000000 0.609785 0.750000
Si Si4 0.138333 0.235113 0.401887
Si Si5 0.865611 0.299556 0.468851
Si Si6 0.566419 0.687303 0.812688
Si Si7 0.455568 0.470860 0.668556
O O1 0.369894 0.928277 0.267156
O O2 0.131939 0.862482 0.347797
O O3 0.096968 0.935177 0.528728
O O4 0.116116 0.975863 0.345578
O O5 0.126541 0.172117 0.359944
O O6 0.176928 0.078060 0.235977
O O7 0.000000 0.158230 0.250000
O O8 0.303081 0.174637 0.106829
O O9 0.879862 0.649280 0.882464
O O10 0.307339 0.265839 0.300827
O O11 0.037739 0.275872 0.389069
O O12 0.067818 0.225316 0.552612
O O13 0.750000 0.250000 0.500000
O O14 0.500000 0.658902 0.750000
O O15 0.500000 0.495044 0.750000
#
# Coordination Sequence:
#
# PCOD8146876 Si02
#       7
#     8   8   4   8   8   8   8
#     4  11  23  42  67  90 122 166 212 259 317 375
#     4  11  20  34  61  92 127 159 203 261 318 371
#     4  12  22  38  62  96 128 162 206 264 320 370
#     4  12  22  38  61  93 126 165 210 254 319 386
#     4  12  21  33  59  96 131 161 195 257 326 383
#     4  12  25  43  63  90 129 173 213 259 313 387
#     4  10  22  42  66  90 118 167 217 260 310 378
#
# _framework density 19.616427999999999
#
# number of rings (size 3 to 8) (size 9 to 14) (size 15 to 20)
#    0.000    0.615    6.154    4.615    0.000    0.000 
#    0.000    3.077    5.077    0.000    0.000    0.000 
#    0.000    0.000    0.000    0.000    0.000    0.000 
#
# Total GULP energy -322159.876363 kJ/mol
# GULP energy per Si atom -12390.764476 kJ/mol
# Density = 1.957178 g / cm^3
# Si number density = 19.616428 Si / 1000 Ang^3
#
#
#
# Elastic Constant Matrix: (Units=GPa)
#
#
# Indices 1 2 3 4 5 6 
#
# 1 83.3492 26.9125 46.6183 0.0000 10.4038 0.0000
# 2 26.9125 84.3859 39.9439 0.0000 -2.9726 0.0000
# 3 46.6183 39.9439 112.9130 0.0000 3.1614 0.0000
# 4 0.0000 0.0000 0.0000 22.8577 0.0000 3.1156
# 5 10.4038 -2.9726 3.1614 0.0000 26.1785 0.0000
# 6 0.0000 0.0000 0.0000 3.1156 0.0000 22.6226
#
#
#
# Elastic Compliance Matrix: (Units=1/GPa)
#
#
# Indices 1 2 3 4 5 6 
#
# 1 0.016974 -0.002889 -0.005808 0.000000 -0.006373 0.000000
# 2 -0.002889 0.014857 -0.004156 0.000000 0.003337 0.000000
# 3 -0.005808 -0.004156 0.012716 0.000000 0.000301 0.000000
# 4 0.000000 0.000000 0.000000 0.044586 0.000000 -0.006140
# 5 -0.006373 0.003337 0.000301 0.000000 0.041074 0.000000
# 6 0.000000 0.000000 0.000000 -0.006140 0.000000 0.045049
#
#
# Mechanical properties :
#
#
# Convention : Reuss Voigt Hill
#
# Bulk Modulus (GPa) = 53.07555 56.39973 54.73764
# Shear Modulus (GPa) = 24.12627 25.47665 24.80146
#
# Velocity S-wave (km/s) = 3.51080 3.60771 3.55959
# Velocity P-wave (km/s) = 6.59922 6.79469 6.69767
#
# Compressibility (1/GPa) = 0.01884107
#
# Stress axis : x y z
#
# Youngs Moduli (GPa) = 58.91267 67.31014 78.64008
#
# Poissons Ratio (x) = 0.19445 0.45672
# Poissons Ratio (y) = 0.17019 0.32686
# Poissons Ratio (z) = 0.34215 0.27977
#
# Static dielectric constant tensor:
#      x y z
#    x 3.444230 0.000000 0.203960 
#    y 0.000000 3.693790 0.000000 
#    z 0.203960 0.000000 3.787830 
# 
# 
# High freq. dielectric constant tensor:
#      x y z
#    x 1.750790 0.000000 0.015410 
#    y 0.000000 1.762970 0.000000 
#    z 0.015410 0.000000 1.775790 
# 
# From -- ./inp_files/148044.got.cif
#   From: 2010.06.25/outbox.cif.g09.slc.cpg/sg15_75_cif.got.tgz:148044.got - 2010.06.28 07:06:18.
