data_PCOD8146397
_publ_section_title
;
Structure prediction by ZEFSAII (Michael W. Deem and Ramdas Pophale) SiO2 
 PCOD8146397
Probable space group: C 2/C
;
_chemical_formula_sum "Si O2"
_cell_formula_units_Z 40
_cell_length_a 13.534540
_cell_length_b 12.732934
_cell_length_c 12.130607
_cell_angle_alpha 90.000000
_cell_angle_beta 116.736313
_cell_angle_gamma 90.000000
_cell_volume 1867.015896
_symmetry_space_group_name_H-M "C 2/C"
_symmetry_group_IT_number 15
_symmetry_cell_setting 'monoclinic'
loop_
_space_group_symop_operation_xyz
x,y,z
-x,y,1/2-z
-x,-y,-z
x,-y,1/2+z
1/2+x,1/2+y,z
1/2-x,1/2+y,1/2-z
1/2-x,1/2-y,-z
1/2+x,1/2-y,1/2+z
loop_
_atom_site_type_symbol
_atom_site_label
_atom_site_fract_x
_atom_site_fract_y
_atom_site_fract_z
Si Si1 0.566132 0.264753 0.388340
Si Si2 0.633988 0.794681 0.572963
Si Si3 0.684645 0.124854 0.864043
Si Si4 0.766595 0.591826 0.018077
Si Si5 0.614957 0.016179 0.622290
O O1 0.500000 0.307931 0.250000
O O2 0.485711 0.246831 0.451478
O O3 0.650887 0.350933 0.474411
O O4 0.631308 0.159907 0.381001
O O5 0.622205 0.824360 0.437124
O O6 0.728346 0.708206 0.641377
O O7 0.663172 0.897629 0.661974
O O8 0.599611 0.082873 0.727196
O O9 0.749535 0.020555 0.933556
O O10 0.795540 0.579861 0.903618
O O11 0.500000 0.000000 0.500000
#
# Coordination Sequence:
#
# PCOD8146397 Si02
#       5
#     8   8   8   8   8
#     4  11  21  39  64  92 131 169 220 268 324 403
#     4  10  22  41  64  96 128 171 217 269 339 381
#     4  10  23  41  66  93 135 164 222 278 323 409
#     4  10  23  37  62  96 123 174 220 264 333 386
#     4  11  21  40  65  94 127 173 219 273 330 388
#
# _framework density 21.424562000000002
#
# number of rings (size 3 to 8) (size 9 to 14) (size 15 to 20)
#    0.000    1.600    2.000    2.400    0.000    4.800 
#    0.000    0.000    8.800    0.000    0.000    0.000 
#    0.000    0.000    0.000    0.000    0.000    0.000 
#
# Total GULP energy -247896.836862 kJ/mol
# GULP energy per Si atom -12394.841843 kJ/mol
# Density = 2.137580 g / cm^3
# Si number density = 21.424562 Si / 1000 Ang^3
#
#
#
# Elastic Constant Matrix: (Units=GPa)
#
#
# Indices 1 2 3 4 5 6 
#
# 1 131.0140 52.9971 47.9513 0.0000 4.2022 0.0000
# 2 52.9971 115.5895 46.0966 0.0000 3.8374 0.0000
# 3 47.9513 46.0966 118.3828 0.0000 2.9806 0.0000
# 4 0.0000 0.0000 0.0000 32.7024 0.0000 -10.5753
# 5 4.2022 3.8374 2.9806 0.0000 19.7545 0.0000
# 6 0.0000 0.0000 0.0000 -10.5753 0.0000 33.0372
#
#
#
# Elastic Compliance Matrix: (Units=1/GPa)
#
#
# Indices 1 2 3 4 5 6 
#
# 1 0.010070 -0.003511 -0.002685 0.000000 -0.001055 0.000000
# 2 -0.003511 0.011504 -0.003031 0.000000 -0.001030 0.000000
# 3 -0.002685 -0.003031 0.010727 0.000000 -0.000458 0.000000
# 4 0.000000 0.000000 0.000000 0.034110 0.000000 0.010919
# 5 -0.001055 -0.001030 -0.000458 0.000000 0.051115 0.000000
# 6 0.000000 0.000000 0.000000 0.010919 0.000000 0.033764
#
#
# Mechanical properties :
#
#
# Convention : Reuss Voigt Hill
#
# Bulk Modulus (GPa) = 72.22583 73.23068 72.72826
# Shear Modulus (GPa) = 28.67636 31.62822 30.15229
#
# Velocity S-wave (km/s) = 3.66249 3.84638 3.75556
# Velocity P-wave (km/s) = 7.18819 7.34718 7.26812
#
# Compressibility (1/GPa) = 0.01384546
#
# Stress axis : x y z
#
# Youngs Moduli (GPa) = 99.30883 86.92436 93.22534
#
# Poissons Ratio (x) = 0.30520 0.25031
# Poissons Ratio (y) = 0.34868 0.28261
# Poissons Ratio (z) = 0.26664 0.26351
#
# Static dielectric constant tensor:
#      x y z
#    x 3.846580 0.000000 -0.257180 
#    y 0.000000 4.220620 0.000000 
#    z -0.257180 0.000000 3.708770 
# 
# 
# High freq. dielectric constant tensor:
#      x y z
#    x 1.837240 0.000000 -0.019220 
#    y 0.000000 1.850110 0.000000 
#    z -0.019220 0.000000 1.828250 
# 
# From -- ./inp_files/95132.got.cif
#   From: 2010.06.25/outbox.cif.g09.slc.cpg/sg15_48_cif.got.tgz:95132.got - 2010.06.28 07:06:18.
