data_PCOD8146892
_publ_section_title
;
Structure prediction by ZEFSAII (Michael W. Deem and Ramdas Pophale) SiO2 
 PCOD8146892
Probable space group: C 2/C
;
_chemical_formula_sum "Si O2"
_cell_formula_units_Z 48
_cell_length_a 10.528908
_cell_length_b 23.165901
_cell_length_c 8.296446
_cell_angle_alpha 90.000000
_cell_angle_beta 81.539684
_cell_angle_gamma 90.000000
_cell_volume 2001.578943
_symmetry_space_group_name_H-M "C 2/C"
_symmetry_group_IT_number 15
_symmetry_cell_setting 'monoclinic'
loop_
_space_group_symop_operation_xyz
x,y,z
-x,y,1/2-z
-x,-y,-z
x,-y,1/2+z
1/2+x,1/2+y,z
1/2-x,1/2+y,1/2-z
1/2-x,1/2-y,-z
1/2+x,1/2-y,1/2+z
loop_
_atom_site_type_symbol
_atom_site_label
_atom_site_fract_x
_atom_site_fract_y
_atom_site_fract_z
Si Si1 0.391615 0.054036 0.141097
Si Si2 0.053130 0.778346 0.570575
Si Si3 0.179616 0.324811 0.878036
Si Si4 0.857378 0.084450 0.798400
Si Si5 0.738473 0.495822 0.925278
Si Si6 0.211308 0.184309 0.480708
O O1 0.500000 0.039975 0.250000
O O2 0.393071 0.116718 0.056359
O O3 0.261944 0.048107 0.273935
O O4 0.373015 0.007088 0.000977
O O5 0.082673 0.726584 0.441424
O O6 0.182282 0.816173 0.563284
O O7 0.000000 0.752472 0.750000
O O8 0.941538 0.819388 0.524223
O O9 0.198472 0.333286 0.683912
O O10 0.808469 0.057589 0.638094
O O11 0.000000 0.108055 0.750000
O O12 0.768052 0.139256 0.873971
O O13 0.861881 0.034883 0.936173
O O14 0.250000 0.250000 0.500000
#
# Coordination Sequence:
#
# PCOD8146892 Si02
#       6
#     8   8   8   8   8   8
#     4  11  23  42  69  95 132 176 222 287 346 406
#     4   9  22  42  64  96 134 180 228 280 343 412
#     4  10  22  42  66  93 134 175 230 281 343 412
#     4  11  24  43  69 101 137 183 230 286 349 413
#     4  10  24  45  65 101 135 175 234 284 344 417
#     4  11  25  40  66 100 139 178 228 285 350 419
#
# _framework density 23.981068
#
# number of rings (size 3 to 8) (size 9 to 14) (size 15 to 20)
#    0.000    1.667    1.667    1.000    7.000    2.667 
#    0.000    2.500    0.000    0.000    0.000    0.000 
#    0.000    0.000    0.000    0.000    0.000    0.000 
#
# Total GULP energy -297320.903743 kJ/mol
# GULP energy per Si atom -12388.370989 kJ/mol
# Density = 2.392649 g / cm^3
# Si number density = 23.981068 Si / 1000 Ang^3
#
#
#
# Elastic Constant Matrix: (Units=GPa)
#
#
# Indices 1 2 3 4 5 6 
#
# 1 43.5126 2.2169 17.4311 0.0000 1.6617 0.0000
# 2 2.2169 124.3737 48.6731 0.0000 4.2833 0.0000
# 3 17.4311 48.6731 83.2802 0.0000 -0.3850 0.0000
# 4 0.0000 0.0000 0.0000 50.9738 0.0000 -3.4858
# 5 1.6617 4.2833 -0.3850 0.0000 28.7972 0.0000
# 6 0.0000 0.0000 0.0000 -3.4858 0.0000 22.6263
#
#
#
# Elastic Compliance Matrix: (Units=1/GPa)
#
#
# Indices 1 2 3 4 5 6 
#
# 1 0.025611 0.002217 -0.006665 0.000000 -0.001897 0.000000
# 2 0.002217 0.010694 -0.006722 0.000000 -0.001808 0.000000
# 3 -0.006665 -0.006722 0.017339 0.000000 0.001616 0.000000
# 4 0.000000 0.000000 0.000000 0.019827 0.000000 0.003055
# 5 -0.001897 -0.001808 0.001616 0.000000 0.035126 0.000000
# 6 0.000000 0.000000 0.000000 0.003055 0.000000 0.044667
#
#
# Mechanical properties :
#
#
# Convention : Reuss Voigt Hill
#
# Bulk Modulus (GPa) = 31.94540 43.08987 37.51763
# Shear Modulus (GPa) = 26.87602 32.66914 29.77258
#
# Velocity S-wave (km/s) = 3.35134 3.69492 3.52732
# Velocity P-wave (km/s) = 5.32216 6.01752 5.68049
#
# Compressibility (1/GPa) = 0.03130342
#
# Stress axis : x y z
#
# Youngs Moduli (GPa) = 39.04507 93.51166 57.67293
#
# Poissons Ratio (x) = -0.20734 0.38441
# Poissons Ratio (y) = -0.08657 0.38770
# Poissons Ratio (z) = 0.26025 0.62863
#
# Static dielectric constant tensor:
#      x y z
#    x 4.192130 0.000000 -0.000550 
#    y 0.000000 4.158400 0.000000 
#    z -0.000550 0.000000 4.628750 
# 
# 
# High freq. dielectric constant tensor:
#      x y z
#    x 1.932460 0.000000 -0.006550 
#    y 0.000000 1.948490 0.000000 
#    z -0.006550 0.000000 1.960740 
# 
# From -- ./inp_files/31902.got.cif
#   From: 2010.06.25/outbox.cif.g09.slc.cpg/sg15_16_cif.got.tgz:31902.got - 2010.06.28 07:06:18.
