data_PCOD8146008
_publ_section_title
;
Structure prediction by ZEFSAII (Michael W. Deem and Ramdas Pophale) SiO2 
 PCOD8146008
Probable space group: C 2/C
;
_chemical_formula_sum "Si O2"
_cell_formula_units_Z 64
_cell_length_a 19.103387
_cell_length_b 11.754275
_cell_length_c 23.677358
_cell_angle_alpha 90.000000
_cell_angle_beta 33.776948
_cell_angle_gamma 90.000000
_cell_volume 2955.860778
_symmetry_space_group_name_H-M "C 2/C"
_symmetry_group_IT_number 15
_symmetry_cell_setting 'monoclinic'
loop_
_space_group_symop_operation_xyz
x,y,z
-x,y,1/2-z
-x,-y,-z
x,-y,1/2+z
1/2+x,1/2+y,z
1/2-x,1/2+y,1/2-z
1/2-x,1/2-y,-z
1/2+x,1/2-y,1/2+z
loop_
_atom_site_type_symbol
_atom_site_label
_atom_site_fract_x
_atom_site_fract_y
_atom_site_fract_z
Si Si1 0.123399 0.224306 0.305826
Si Si2 0.039039 0.471619 0.558262
Si Si3 0.727625 0.420069 0.031328
Si Si4 0.648733 0.792322 0.653124
Si Si5 0.200552 0.135129 0.885011
Si Si6 0.001629 0.679166 0.986014
Si Si7 0.341872 0.652429 0.462590
Si Si8 0.220056 0.414227 0.718629
O O1 0.180798 0.294183 0.216457
O O2 0.217490 0.125326 0.263874
O O3 0.118564 0.298690 0.366395
O O4 0.984108 0.192900 0.378290
O O5 0.138493 0.467734 0.540409
O O6 0.074614 0.575651 0.492382
O O7 0.048124 0.354451 0.516777
O O8 0.906080 0.479753 0.678742
O O9 0.756512 0.360470 0.951981
O O10 0.644863 0.535461 0.081867
O O11 0.663399 0.339049 0.121978
O O12 0.500000 0.824976 0.750000
O O13 0.694066 0.817491 0.687521
O O14 0.074849 0.204689 0.955573
O O15 0.224539 0.118781 0.934699
O O16 0.186645 0.010317 0.867876
O O17 0.250000 0.750000 0.500000
#
# Coordination Sequence:
#
# PCOD8146008 Si02
#       8
#     8   8   8   8   8   8   8   8
#     4  11  24  44  66 104 134 172 231 281 342 400
#     4  11  21  40  70  92 135 179 226 273 346 410
#     4  11  23  45  66  98 135 178 225 277 341 409
#     4  11  24  44  68  99 135 179 229 274 341 414
#     4  11  23  43  68 100 135 177 229 279 348 408
#     4  10  22  40  64  99 133 173 219 287 337 404
#     4  11  26  47  70  99 139 181 225 286 347 408
#     4  12  23  43  71 100 133 184 227 287 340 411
#
# _framework density 21.651899
#
# number of rings (size 3 to 8) (size 9 to 14) (size 15 to 20)
#    0.000    1.000    5.000    2.250    0.000    2.500 
#   11.250    0.000    0.000    0.000    0.000    0.000 
#    0.000    0.000    0.000    0.000    0.000    0.000 
#
# Total GULP energy -396485.100923 kJ/mol
# GULP energy per Si atom -12390.159404 kJ/mol
# Density = 2.160262 g / cm^3
# Si number density = 21.651899 Si / 1000 Ang^3
#
#
#
# Elastic Constant Matrix: (Units=GPa)
#
#
# Indices 1 2 3 4 5 6 
#
# 1 82.8914 21.5460 12.8512 0.0003 -9.1013 0.0000
# 2 21.5460 104.2495 11.2997 0.0006 6.8621 -0.0001
# 3 12.8512 11.2997 68.4926 0.0015 8.0758 -0.0003
# 4 0.0003 0.0006 0.0015 30.5366 -0.0003 11.2575
# 5 -9.1013 6.8621 8.0758 -0.0003 28.6650 0.0000
# 6 0.0000 -0.0001 -0.0003 11.2575 0.0000 29.2087
#
#
#
# Elastic Compliance Matrix: (Units=1/GPa)
#
#
# Indices 1 2 3 4 5 6 
#
# 1 0.013922 -0.002961 -0.002822 0.000000 0.005924 0.000000
# 2 -0.002961 0.010503 -0.000796 0.000000 -0.003230 0.000000
# 3 -0.002822 -0.000796 0.015871 -0.000001 -0.005177 0.000001
# 4 0.000000 0.000000 -0.000001 0.038171 0.000001 -0.014712
# 5 0.005924 -0.003230 -0.005177 0.000001 0.038998 0.000000
# 6 0.000000 0.000000 0.000001 -0.014712 0.000000 0.039907
#
#
# Mechanical properties :
#
#
# Convention : Reuss Voigt Hill
#
# Bulk Modulus (GPa) = 36.85007 38.55859 37.70433
# Shear Modulus (GPa) = 27.84308 31.67783 29.76045
#
# Velocity S-wave (km/s) = 3.58989 3.82913 3.71144
# Velocity P-wave (km/s) = 5.85144 6.11529 5.98482
#
# Compressibility (1/GPa) = 0.02713699
#
# Stress axis : x y z
#
# Youngs Moduli (GPa) = 71.83021 95.20766 63.00645
#
# Poissons Ratio (x) = 0.28194 0.17781
# Poissons Ratio (y) = 0.21272 0.05017
# Poissons Ratio (z) = 0.20271 0.07581
#
# Static dielectric constant tensor:
#      x y z
#    x 3.935290 0.000000 0.313700 
#    y 0.000000 4.091180 0.000000 
#    z 0.313700 0.000000 3.994450 
# 
# 
# High freq. dielectric constant tensor:
#      x y z
#    x 1.847450 0.000000 0.011970 
#    y 0.000000 1.857860 0.000000 
#    z 0.011970 0.000000 1.848940 
# 
# From -- ./inp_files/300830.got.cif
#   From: 2010.06.25/outbox.cif.g09.slc.cpg/sg15_151_cif.got.tgz:300830.got - 2010.06.28 07:06:18.
