data_PCOD8146649
_publ_section_title
;
Structure prediction by ZEFSAII (Michael W. Deem and Ramdas Pophale) SiO2 
 PCOD8146649
Probable space group: C 2/C
;
_chemical_formula_sum "Si O2"
_cell_formula_units_Z 56
_cell_length_a 12.664009
_cell_length_b 9.301846
_cell_length_c 25.646386
_cell_angle_alpha 90.000000
_cell_angle_beta 120.327925
_cell_angle_gamma 90.000000
_cell_volume 2607.669686
_symmetry_space_group_name_H-M "C 2/C"
_symmetry_group_IT_number 15
_symmetry_cell_setting 'monoclinic'
loop_
_space_group_symop_operation_xyz
x,y,z
-x,y,1/2-z
-x,-y,-z
x,-y,1/2+z
1/2+x,1/2+y,z
1/2-x,1/2+y,1/2-z
1/2-x,1/2-y,-z
1/2+x,1/2-y,1/2+z
loop_
_atom_site_type_symbol
_atom_site_label
_atom_site_fract_x
_atom_site_fract_y
_atom_site_fract_z
Si Si1 0.552832 0.744698 0.390299
Si Si2 0.760732 0.093058 0.889268
Si Si3 0.520551 0.733280 0.603807
Si Si4 0.429638 0.999105 0.034868
Si Si5 0.097297 0.134652 0.729342
Si Si6 0.207273 0.878195 0.695791
Si Si7 0.161461 0.011754 0.978456
O O1 0.628490 0.831354 0.364381
O O2 0.563297 0.836346 0.445227
O O3 0.413676 0.720133 0.338495
O O4 0.610968 0.594957 0.421713
O O5 0.842226 0.214565 0.882649
O O6 0.756564 0.954908 0.849894
O O7 0.823794 0.049713 0.959545
O O8 0.509344 0.676638 0.659570
O O9 0.427842 0.648051 0.542600
O O10 0.490643 0.901473 0.594432
O O11 0.500000 0.000000 0.000000
O O12 0.293792 0.057302 0.990669
O O13 0.181592 0.272333 0.762903
O O14 0.000000 0.093938 0.750000
O O15 0.181991 0.997068 0.734923
#
# Coordination Sequence:
#
# PCOD8146649 Si02
#       7
#     8   8   8   8   8   8   8
#     4  11  23  43  67  99 136 178 220 268 350 413
#     4  10  22  41  72  97 135 176 220 277 346 419
#     4  11  23  43  63 101 135 174 227 284 340 400
#     4  11  24  36  64 104 137 175 219 274 344 426
#     4  11  28  48  72  98 137 180 243 286 336 402
#     4  11  27  48  71 101 133 187 230 291 343 398
#     4  11  21  41  68  96 139 177 216 269 354 418
#
# _framework density 21.475111999999999
#
# number of rings (size 3 to 8) (size 9 to 14) (size 15 to 20)
#    0.000    1.143    2.857    4.286    8.000    3.429 
#    0.000    0.000    0.000    0.000    0.000    0.000 
#    0.000    0.000    0.000    0.000    0.000    0.000 
#
# Total GULP energy -347099.720830 kJ/mol
# GULP energy per Si atom -12396.418601 kJ/mol
# Density = 2.142623 g / cm^3
# Si number density = 21.475112 Si / 1000 Ang^3
#
#
#
# Elastic Constant Matrix: (Units=GPa)
#
#
# Indices 1 2 3 4 5 6 
#
# 1 131.0648 38.2356 37.2676 0.0000 -15.3573 0.0000
# 2 38.2356 72.3222 19.5968 0.0000 9.3998 0.0000
# 3 37.2676 19.5968 70.3473 0.0000 -3.1492 0.0000
# 4 0.0000 0.0000 0.0000 32.2505 0.0000 9.5208
# 5 -15.3573 9.3998 -3.1492 0.0000 37.1421 0.0000
# 6 0.0000 0.0000 0.0000 9.5208 0.0000 39.3977
#
#
#
# Elastic Compliance Matrix: (Units=1/GPa)
#
#
# Indices 1 2 3 4 5 6 
#
# 1 0.011037 -0.005459 -0.004076 0.000000 0.005600 0.000000
# 2 -0.005459 0.018323 -0.002531 0.000000 -0.007109 0.000000
# 3 -0.004076 -0.002531 0.017098 0.000000 0.000405 0.000000
# 4 0.000000 0.000000 0.000000 0.033389 0.000000 -0.008069
# 5 0.005600 -0.007109 0.000405 0.000000 0.031072 0.000000
# 6 0.000000 0.000000 0.000000 -0.008069 0.000000 0.027332
#
#
# Mechanical properties :
#
#
# Convention : Reuss Voigt Hill
#
# Bulk Modulus (GPa) = 44.78848 51.54826 48.16837
# Shear Modulus (GPa) = 29.44229 33.66700 31.55464
#
# Velocity S-wave (km/s) = 3.70671 3.96374 3.83738
# Velocity P-wave (km/s) = 6.26266 6.70851 6.48942
#
# Compressibility (1/GPa) = 0.02232717
#
# Stress axis : x y z
#
# Youngs Moduli (GPa) = 90.60150 54.57770 58.48792
#
# Poissons Ratio (x) = 0.29792 0.23839
# Poissons Ratio (y) = 0.49456 0.14801
# Poissons Ratio (z) = 0.36929 0.13811
#
# Static dielectric constant tensor:
#      x y z
#    x 4.056490 0.000000 0.019940 
#    y 0.000000 3.812860 0.000000 
#    z 0.019940 0.000000 3.794200 
# 
# 
# High freq. dielectric constant tensor:
#      x y z
#    x 1.856140 0.000000 -0.001990 
#    y 0.000000 1.851310 0.000000 
#    z -0.001990 0.000000 1.831400 
# 
# From -- ./inp_files/291628.got.cif
#   From: 2010.06.25/outbox.cif.g09.slc.cpg/sg15_146_cif.got.tgz:291628.got - 2010.06.28 07:06:18.
