data_PCOD8146488
_publ_section_title
;
Structure prediction by ZEFSAII (Michael W. Deem and Ramdas Pophale) SiO2 
 PCOD8146488
Probable space group: C 2/C
;
_chemical_formula_sum "Si O2"
_cell_formula_units_Z 64
_cell_length_a 9.528049
_cell_length_b 15.572396
_cell_length_c 32.076036
_cell_angle_alpha 90.000000
_cell_angle_beta 40.152657
_cell_angle_gamma 90.000000
_cell_volume 3068.901073
_symmetry_space_group_name_H-M "C 2/C"
_symmetry_group_IT_number 15
_symmetry_cell_setting 'monoclinic'
loop_
_space_group_symop_operation_xyz
x,y,z
-x,y,1/2-z
-x,-y,-z
x,-y,1/2+z
1/2+x,1/2+y,z
1/2-x,1/2+y,1/2-z
1/2-x,1/2-y,-z
1/2+x,1/2-y,1/2+z
loop_
_atom_site_type_symbol
_atom_site_label
_atom_site_fract_x
_atom_site_fract_y
_atom_site_fract_z
Si Si1 0.120808 0.216120 0.489599
Si Si2 0.163978 0.372305 0.089267
Si Si3 0.996724 0.623131 0.536601
Si Si4 0.241686 0.509717 0.175631
Si Si5 0.733180 0.641409 0.175762
Si Si6 0.839530 0.673015 0.824486
Si Si7 0.295866 0.459785 0.900945
Si Si8 0.355203 0.068157 0.388363
O O1 0.250000 0.250000 0.500000
O O2 0.103263 0.292951 0.461059
O O3 0.251003 0.137112 0.441736
O O4 0.885457 0.176423 0.552305
O O5 0.026928 0.339072 0.161273
O O6 0.181413 0.474931 0.083031
O O7 0.071925 0.344569 0.065471
O O8 0.803561 0.554119 0.582666
O O9 0.201003 0.584762 0.464332
O O10 0.305793 0.412916 0.146920
O O11 0.440722 0.539564 0.159179
O O12 0.244954 0.571752 0.134864
O O13 0.000000 0.514548 0.250000
O O14 0.500000 0.634793 0.250000
O O15 0.798698 0.739485 0.149155
O O16 0.767445 0.594387 0.124465
O O17 0.891460 0.594808 0.172600
O O18 0.000000 0.673250 0.750000
#
# Coordination Sequence:
#
# PCOD8146488 Si02
#       8
#     8   8   8   8   8   8   8   8
#     4  12  26  39  66  94 131 169 220 263 329 391
#     4  11  22  42  64  93 132 169 212 265 328 387
#     4  11  25  41  63  97 133 174 208 273 331 392
#     4  10  22  41  66  93 125 169 214 270 321 382
#     4  11  22  42  66  92 125 171 217 264 322 386
#     4   9  21  39  66  93 126 166 215 266 317 381
#     4  11  23  41  64  94 132 167 218 264 328 390
#     4  11  23  39  62  94 125 164 217 264 317 387
#
# _framework density 20.854368999999998
#
# number of rings (size 3 to 8) (size 9 to 14) (size 15 to 20)
#    0.000    1.250    1.250    4.500    7.000    1.000 
#    0.000    0.000    0.000    0.750    0.000    0.000 
#    0.000    0.000    0.000    0.000    0.000    0.000 
#
# Total GULP energy -396521.288147 kJ/mol
# GULP energy per Si atom -12391.290255 kJ/mol
# Density = 2.080690 g / cm^3
# Si number density = 20.854369 Si / 1000 Ang^3
#
#
#
# Elastic Constant Matrix: (Units=GPa)
#
#
# Indices 1 2 3 4 5 6 
#
# 1 132.7535 59.1788 47.8717 -0.0042 4.7196 0.0025
# 2 59.1788 133.9674 40.1140 -0.0011 15.7694 0.0013
# 3 47.8717 40.1140 92.1449 0.0063 10.6171 -0.0025
# 4 -0.0042 -0.0011 0.0063 26.4064 0.0041 5.8433
# 5 4.7196 15.7694 10.6171 0.0041 35.6233 -0.0057
# 6 0.0025 0.0013 -0.0025 5.8433 -0.0057 27.2395
#
#
#
# Elastic Compliance Matrix: (Units=1/GPa)
#
#
# Indices 1 2 3 4 5 6 
#
# 1 0.010563 -0.003611 -0.004079 0.000003 0.001415 -0.000001
# 2 -0.003611 0.010093 -0.002131 0.000001 -0.003354 -0.000001
# 3 -0.004079 -0.002131 0.014216 -0.000004 -0.002753 0.000002
# 4 0.000003 0.000001 -0.000004 0.039757 -0.000006 -0.008528
# 5 0.001415 -0.003354 -0.002753 -0.000006 0.030189 0.000007
# 6 -0.000001 -0.000001 0.000002 -0.008528 0.000007 0.038541
#
#
# Mechanical properties :
#
#
# Convention : Reuss Voigt Hill
#
# Bulk Modulus (GPa) = 65.65968 72.57720 69.11844
# Shear Modulus (GPa) = 29.74803 31.96725 30.85764
#
# Velocity S-wave (km/s) = 3.78095 3.91945 3.85082
# Velocity P-wave (km/s) = 7.11435 7.44045 7.27923
#
# Compressibility (1/GPa) = 0.01523005
#
# Stress axis : x y z
#
# Youngs Moduli (GPa) = 94.66870 99.08114 70.34127
#
# Poissons Ratio (x) = 0.35782 0.28690
# Poissons Ratio (y) = 0.34189 0.14990
# Poissons Ratio (z) = 0.38612 0.21114
#
# Static dielectric constant tensor:
#      x y z
#    x 3.864180 0.000000 0.123060 
#    y 0.000000 4.388960 0.000000 
#    z 0.123060 0.000000 3.904340 
# 
# 
# High freq. dielectric constant tensor:
#      x y z
#    x 1.812530 0.000000 0.015920 
#    y 0.000000 1.833390 0.000000 
#    z 0.015920 0.000000 1.819950 
# 
# From -- ./inp_files/308248.got.cif
#   From: 2010.06.25/outbox.cif.g09.slc.cpg/sg15_155_cif.got.tgz:308248.got - 2010.06.28 07:06:18.
