data_PCOD8146670
_publ_section_title
;
Structure prediction by ZEFSAII (Michael W. Deem and Ramdas Pophale) SiO2 
 PCOD8146670
Probable space group: C 2/C
;
_chemical_formula_sum "Si O2"
_cell_formula_units_Z 56
_cell_length_a 25.269698
_cell_length_b 12.032568
_cell_length_c 12.100362
_cell_angle_alpha 90.000000
_cell_angle_beta 47.262643
_cell_angle_gamma 90.000000
_cell_volume 2702.291202
_symmetry_space_group_name_H-M "C 2/C"
_symmetry_group_IT_number 15
_symmetry_cell_setting 'monoclinic'
loop_
_space_group_symop_operation_xyz
x,y,z
-x,y,1/2-z
-x,-y,-z
x,-y,1/2+z
1/2+x,1/2+y,z
1/2-x,1/2+y,1/2-z
1/2-x,1/2-y,-z
1/2+x,1/2-y,1/2+z
loop_
_atom_site_type_symbol
_atom_site_label
_atom_site_fract_x
_atom_site_fract_y
_atom_site_fract_z
Si Si1 0.307208 0.062572 0.820388
Si Si2 0.572935 0.607649 0.085948
Si Si3 0.886198 0.196561 0.691417
Si Si4 0.931770 0.572355 0.061998
Si Si5 0.629158 0.839139 0.056279
Si Si6 0.249009 0.256262 0.750871
Si Si7 0.171100 0.916274 0.014874
O O1 0.360177 0.097359 0.845215
O O2 0.279662 0.169836 0.795555
O O3 0.359285 0.998857 0.664405
O O4 0.243596 0.980242 0.952373
O O5 0.500000 0.575771 0.250000
O O6 0.610462 0.708889 0.100064
O O7 0.623850 0.501510 0.013479
O O8 0.561726 0.635982 0.971749
O O9 0.920007 0.320484 0.659375
O O10 0.805588 0.197367 0.756177
O O11 0.878834 0.130424 0.815629
O O12 0.936134 0.610713 0.926792
O O13 0.000000 0.500000 0.000000
O O14 0.704868 0.848261 0.882804
O O15 0.311621 0.314404 0.591653
#
# Coordination Sequence:
#
# PCOD8146670 Si02
#       7
#     8   8   8   8   8   8   8
#     4  12  23  37  70  95 127 177 213 280 341 393
#     4  10  24  44  62  89 133 177 214 273 333 407
#     4  10  23  41  67  94 133 168 226 275 333 400
#     4  10  24  44  61  95 132 175 219 273 344 397
#     4  10  23  39  64  97 125 165 232 266 329 411
#     4  10  22  42  59 100 127 160 218 281 322 408
#     4  12  23  40  69  95 134 172 217 283 340 389
#
# _framework density 20.723155999999999
#
# number of rings (size 3 to 8) (size 9 to 14) (size 15 to 20)
#    0.000    1.714    5.714    0.857    8.000    0.571 
#    2.571    0.000    0.000    0.000    0.000    0.000 
#    0.000    0.000    0.000    0.000    0.000    0.000 
#
# Total GULP energy -347027.936340 kJ/mol
# GULP energy per Si atom -12393.854869 kJ/mol
# Density = 2.067599 g / cm^3
# Si number density = 20.723156 Si / 1000 Ang^3
#
#
#
# Elastic Constant Matrix: (Units=GPa)
#
#
# Indices 1 2 3 4 5 6 
#
# 1 71.8567 49.8147 22.0749 0.0000 0.2206 0.0000
# 2 49.8147 94.0201 29.1305 0.0000 7.1085 0.0000
# 3 22.0749 29.1305 81.3488 0.0000 -5.9675 0.0000
# 4 0.0000 0.0000 0.0000 32.7430 0.0000 -1.8377
# 5 0.2206 7.1085 -5.9675 0.0000 30.1349 0.0000
# 6 0.0000 0.0000 0.0000 -1.8377 0.0000 27.9884
#
#
#
# Elastic Compliance Matrix: (Units=1/GPa)
#
#
# Indices 1 2 3 4 5 6 
#
# 1 0.022431 -0.011488 -0.001813 0.000000 0.002187 0.000000
# 2 -0.011488 0.018274 -0.003791 0.000000 -0.004977 0.000000
# 3 -0.001813 -0.003791 0.014418 0.000000 0.003763 0.000000
# 4 0.000000 0.000000 0.000000 0.030654 0.000000 0.002013
# 5 0.002187 -0.004977 0.003763 0.000000 0.035087 0.000000
# 6 0.000000 0.000000 0.000000 0.002013 0.000000 0.035861
#
#
# Mechanical properties :
#
#
# Convention : Reuss Voigt Hill
#
# Bulk Modulus (GPa) = 47.75875 49.91842 48.83858
# Shear Modulus (GPa) = 25.26656 27.92030 26.59343
#
# Velocity S-wave (km/s) = 3.49555 3.67454 3.58616
# Velocity P-wave (km/s) = 6.27598 6.49180 6.38481
#
# Compressibility (1/GPa) = 0.02093857
#
# Stress axis : x y z
#
# Youngs Moduli (GPa) = 44.58101 54.72269 69.35622
#
# Poissons Ratio (x) = 0.62868 0.12571
# Poissons Ratio (y) = 0.51217 0.26296
# Poissons Ratio (z) = 0.08081 0.20748
#
# Static dielectric constant tensor:
#      x y z
#    x 3.577780 0.000000 -0.004260 
#    y 0.000000 3.961450 0.000000 
#    z -0.004260 0.000000 3.805340 
# 
# 
# High freq. dielectric constant tensor:
#      x y z
#    x 1.784030 0.000000 -0.002440 
#    y 0.000000 1.818590 0.000000 
#    z -0.002440 0.000000 1.811660 
# 
# From -- ./inp_files/122623.got.cif
#   From: 2010.06.25/outbox.cif.g09.slc.cpg/sg15_62_cif.got.tgz:122623.got - 2010.06.28 07:06:18.
