data_PCOD8146749
_publ_section_title
;
Structure prediction by ZEFSAII (Michael W. Deem and Ramdas Pophale) SiO2 
 PCOD8146749
Probable space group: C 2/C
;
_chemical_formula_sum "Si O2"
_cell_formula_units_Z 40
_cell_length_a 20.880091
_cell_length_b 7.712499
_cell_length_c 12.900482
_cell_angle_alpha 90.000000
_cell_angle_beta 63.472290
_cell_angle_gamma 90.000000
_cell_volume 1858.745131
_symmetry_space_group_name_H-M "C 2/C"
_symmetry_group_IT_number 15
_symmetry_cell_setting 'monoclinic'
loop_
_space_group_symop_operation_xyz
x,y,z
-x,y,1/2-z
-x,-y,-z
x,-y,1/2+z
1/2+x,1/2+y,z
1/2-x,1/2+y,1/2-z
1/2-x,1/2-y,-z
1/2+x,1/2-y,1/2+z
loop_
_atom_site_type_symbol
_atom_site_label
_atom_site_fract_x
_atom_site_fract_y
_atom_site_fract_z
Si Si1 0.420585 0.298658 0.850227
Si Si2 0.425012 0.980860 0.997568
Si Si3 0.871020 0.176167 0.917692
Si Si4 0.767705 0.312181 0.846239
Si Si5 0.322958 0.155829 0.749204
O O1 0.500000 0.283142 0.750000
O O2 0.406356 0.488763 0.908715
O O3 0.370440 0.278457 0.786532
O O4 0.405881 0.157438 0.950000
O O5 0.428891 0.821955 0.911223
O O6 0.366809 0.943147 0.127858
O O7 0.500000 0.000000 0.000000
O O8 0.839111 0.200519 0.824544
O O9 0.801814 0.220758 0.035229
O O10 0.743380 0.267708 0.747078
O O11 0.787992 0.511687 0.847159
#
# Coordination Sequence:
#
# PCOD8146749 Si02
#       5
#     8   8   8   8   8
#     4  12  25  43  67  98 130 175 222 263 329 388
#     4  11  24  45  65  96 137 169 219 271 320 389
#     4  10  24  43  65  96 132 166 220 273 317 389
#     4  10  22  42  63  97 130 169 219 265 328 385
#     4  11  23  41  67  96 130 174 217 268 329 388
#
# _framework density 21.519894000000001
#
# number of rings (size 3 to 8) (size 9 to 14) (size 15 to 20)
#    0.000    1.200    4.000    1.200    2.800    4.000 
#    0.000    0.000    0.000    0.000    0.000    0.000 
#    0.000    0.000    0.000    0.000    0.000    0.000 
#
# Total GULP energy -247901.628354 kJ/mol
# GULP energy per Si atom -12395.081418 kJ/mol
# Density = 2.147091 g / cm^3
# Si number density = 21.519894 Si / 1000 Ang^3
#
#
#
# Elastic Constant Matrix: (Units=GPa)
#
#
# Indices 1 2 3 4 5 6 
#
# 1 145.4594 58.6482 27.9650 0.0000 34.5782 0.0000
# 2 58.6482 150.1276 12.8058 0.0000 21.3047 -0.0001
# 3 27.9650 12.8058 29.1299 0.0000 17.5304 0.0000
# 4 0.0000 0.0000 0.0000 34.7261 0.0000 7.5236
# 5 34.5782 21.3047 17.5304 0.0000 33.9623 0.0000
# 6 0.0000 -0.0001 0.0000 7.5236 0.0000 37.6603
#
#
#
# Elastic Compliance Matrix: (Units=1/GPa)
#
#
# Indices 1 2 3 4 5 6 
#
# 1 0.010455 -0.002759 -0.005019 0.000000 -0.006324 0.000000
# 2 -0.002759 0.008049 0.000665 0.000000 -0.002583 0.000000
# 3 -0.005019 0.000665 0.052266 0.000000 -0.022286 0.000000
# 4 0.000000 0.000000 0.000000 0.030100 0.000000 -0.006013
# 5 -0.006324 -0.002583 -0.022286 0.000000 0.049006 0.000000
# 6 0.000000 0.000000 0.000000 -0.006013 0.000000 0.027754
#
#
# Mechanical properties :
#
#
# Convention : Reuss Voigt Hill
#
# Bulk Modulus (GPa) = 17.68508 58.17276 37.92892
# Shear Modulus (GPa) = 23.72991 36.28962 30.00976
#
# Velocity S-wave (km/s) = 3.32429 4.11095 3.73837
# Velocity P-wave (km/s) = 4.79274 7.04443 6.02471
#
# Compressibility (1/GPa) = 0.05654485
#
# Stress axis : x y z
#
# Youngs Moduli (GPa) = 95.64575 124.24429 19.13273
#
# Poissons Ratio (x) = 0.34278 0.09602
# Poissons Ratio (y) = 0.26388 -0.01272
# Poissons Ratio (z) = 0.48002 -0.08261
#
# Static dielectric constant tensor:
#      x y z
#    x 4.474620 0.000000 0.377830 
#    y 0.000000 3.895940 0.000000 
#    z 0.377830 0.000000 3.772820 
# 
# 
# High freq. dielectric constant tensor:
#      x y z
#    x 1.865100 0.000000 0.017190 
#    y 0.000000 1.849370 0.000000 
#    z 0.017190 0.000000 1.826000 
# 
# From -- ./inp_files/116184.got.cif
#   From: 2010.06.25/outbox.cif.g09.slc.cpg/sg15_59_cif.got.tgz:116184.got - 2010.06.28 07:06:18.
