data_PCOD8146955
_publ_section_title
;
Structure prediction by ZEFSAII (Michael W. Deem and Ramdas Pophale) SiO2 
 PCOD8146955
Probable space group: C 2/C
;
_chemical_formula_sum "Si O2"
_cell_formula_units_Z 64
_cell_length_a 11.197488
_cell_length_b 17.186205
_cell_length_c 19.445635
_cell_angle_alpha 90.000000
_cell_angle_beta 52.212011
_cell_angle_gamma 90.000000
_cell_volume 2957.369752
_symmetry_space_group_name_H-M "C 2/C"
_symmetry_group_IT_number 15
_symmetry_cell_setting 'monoclinic'
loop_
_space_group_symop_operation_xyz
x,y,z
-x,y,1/2-z
-x,-y,-z
x,-y,1/2+z
1/2+x,1/2+y,z
1/2-x,1/2+y,1/2-z
1/2-x,1/2-y,-z
1/2+x,1/2-y,1/2+z
loop_
_atom_site_type_symbol
_atom_site_label
_atom_site_fract_x
_atom_site_fract_y
_atom_site_fract_z
Si Si1 0.226476 0.866982 0.305782
Si Si2 0.183441 0.416437 0.082530
Si Si3 0.956222 0.292443 0.131262
Si Si4 0.031472 0.534023 0.414276
Si Si5 0.361828 0.510188 0.246240
Si Si6 0.491949 0.612434 0.081004
Si Si7 0.084007 0.163343 0.533412
Si Si8 0.151542 0.666270 0.972937
O O1 0.292649 0.920258 0.343774
O O2 0.347816 0.804741 0.235339
O O3 0.085695 0.817719 0.383551
O O4 0.163478 0.922050 0.267989
O O5 0.117185 0.331303 0.088868
O O6 0.063299 0.484134 0.107713
O O7 0.337966 0.421779 0.983929
O O8 0.877691 0.342996 0.097795
O O9 0.987369 0.202591 0.105274
O O10 0.208323 0.539232 0.335931
O O11 0.000000 0.500000 0.500000
O O12 0.974335 0.623159 0.436366
O O13 0.500000 0.516994 0.250000
O O14 0.395555 0.562586 0.167839
O O15 0.416704 0.604200 0.031484
O O16 0.157520 0.242660 0.483222
O O17 0.186192 0.129735 0.560147
#
# Coordination Sequence:
#
# PCOD8146955 Si02
#       8
#     8   8   8   8   8   8   8   8
#     4  11  25  40  66  94 133 171 215 270 330 383
#     4  11  23  43  66  97 130 175 214 266 332 391
#     4  11  22  42  68  95 132 169 220 269 323 391
#     4  12  24  42  69  95 133 173 213 269 324 390
#     4  12  28  43  64  99 129 168 222 268 325 391
#     4  10  25  44  66  97 130 169 221 272 327 381
#     4   9  23  43  67  95 128 174 217 270 325 387
#     4  10  22  42  67  95 127 173 223 257 328 389
#
# _framework density 21.640851999999999
#
# number of rings (size 3 to 8) (size 9 to 14) (size 15 to 20)
#    0.000    1.250    2.500    1.500    8.750    2.000 
#    0.000    0.000    0.000    0.000    0.000    0.000 
#    0.000    0.000    0.000    0.000    0.000    0.000 
#
# Total GULP energy -396708.531289 kJ/mol
# GULP energy per Si atom -12397.141603 kJ/mol
# Density = 2.159160 g / cm^3
# Si number density = 21.640852 Si / 1000 Ang^3
#
#
#
# Elastic Constant Matrix: (Units=GPa)
#
#
# Indices 1 2 3 4 5 6 
#
# 1 127.9346 9.8563 49.2353 0.0000 -12.2200 0.0000
# 2 9.8563 35.4944 5.5673 0.0001 -3.9975 0.0000
# 3 49.2353 5.5673 129.9069 0.0004 -16.0765 -0.0001
# 4 0.0000 0.0001 0.0004 33.1227 -0.0002 -2.8229
# 5 -12.2200 -3.9975 -16.0765 -0.0002 29.7085 0.0000
# 6 0.0000 0.0000 -0.0001 -2.8229 0.0000 22.4396
#
#
#
# Elastic Compliance Matrix: (Units=1/GPa)
#
#
# Indices 1 2 3 4 5 6 
#
# 1 0.009389 -0.001889 -0.003249 0.000000 0.001850 0.000000
# 2 -0.001889 0.029066 -0.000152 0.000000 0.003052 0.000000
# 3 -0.003249 -0.000152 0.009397 0.000000 0.003728 0.000000
# 4 0.000000 0.000000 0.000000 0.030518 0.000000 0.003839
# 5 0.001850 0.003052 0.003728 0.000000 0.036850 0.000000
# 6 0.000000 0.000000 0.000000 0.003839 0.000000 0.045047
#
#
# Mechanical properties :
#
#
# Convention : Reuss Voigt Hill
#
# Bulk Modulus (GPa) = 26.82988 46.96152 36.89570
# Shear Modulus (GPa) = 27.28222 32.29929 29.79076
#
# Velocity S-wave (km/s) = 3.55446 3.86750 3.71428
# Velocity P-wave (km/s) = 5.41020 6.45685 5.95656
#
# Compressibility (1/GPa) = 0.03727187
#
# Stress axis : x y z
#
# Youngs Moduli (GPa) = 106.50829 34.40495 106.41750
#
# Poissons Ratio (x) = 0.06500 0.34570
# Poissons Ratio (y) = 0.20123 0.01617
# Poissons Ratio (z) = 0.34600 0.00523
#
# Static dielectric constant tensor:
#      x y z
#    x 4.407760 0.000000 0.077350 
#    y 0.000000 3.720250 0.000000 
#    z 0.077350 0.000000 3.965830 
# 
# 
# High freq. dielectric constant tensor:
#      x y z
#    x 1.869050 0.000000 0.001300 
#    y 0.000000 1.839390 0.000000 
#    z 0.001300 0.000000 1.850610 
# 
# From -- ./inp_files/239786.got.cif
#   From: 2010.06.25/outbox.cif.g09.slc.cpg/sg15_120_cif.got.tgz:239786.got - 2010.06.28 07:06:18.
