data_PCOD8146715
_publ_section_title
;
Structure prediction by ZEFSAII (Michael W. Deem and Ramdas Pophale) SiO2 
 PCOD8146715
Probable space group: C 2/C
;
_chemical_formula_sum "Si O2"
_cell_formula_units_Z 36
_cell_length_a 16.445231
_cell_length_b 7.346919
_cell_length_c 21.529138
_cell_angle_alpha 90.000000
_cell_angle_beta 41.199931
_cell_angle_gamma 90.000000
_cell_volume 1713.373274
_symmetry_space_group_name_H-M "C 2/C"
_symmetry_group_IT_number 15
_symmetry_cell_setting 'monoclinic'
loop_
_space_group_symop_operation_xyz
x,y,z
-x,y,1/2-z
-x,-y,-z
x,-y,1/2+z
1/2+x,1/2+y,z
1/2-x,1/2+y,1/2-z
1/2-x,1/2-y,-z
1/2+x,1/2-y,1/2+z
loop_
_atom_site_type_symbol
_atom_site_label
_atom_site_fract_x
_atom_site_fract_y
_atom_site_fract_z
Si Si1 0.777882 0.371127 0.791183
Si Si2 0.714588 0.277693 0.690722
Si Si3 0.268915 0.894880 0.079280
Si Si4 0.070397 0.337663 0.628936
Si Si5 0.000000 0.357833 0.250000
O O1 0.733791 0.369342 0.745771
O O2 0.738158 0.570498 0.837796
O O3 0.703931 0.229235 0.876052
O O4 0.922575 0.316479 0.712072
O O5 0.770782 0.397155 0.602223
O O6 0.567794 0.268020 0.761440
O O7 0.140518 0.836729 0.118738
O O8 0.382910 0.872739 0.967274
O O9 0.099080 0.511940 0.656668
#
# Coordination Sequence:
#
# PCOD8146715 Si02
#       5
#     8   8   8   8   4
#     4  11  22  44  60  95 126 163 201 264 300 366
#     4  11  23  38  67  87 126 163 209 245 314 361
#     4  11  22  40  67  91 120 170 204 250 310 370
#     4  10  22  42  64  88 132 156 207 261 301 356
#     4  10  22  42  62  94 124 168 200 260 304 366
#
# _framework density 21.011185000000001
#
# number of rings (size 3 to 8) (size 9 to 14) (size 15 to 20)
#    0.000    1.333    6.667    0.000    3.111    1.778 
#    0.000    1.111    0.000    0.000    0.000    0.000 
#    0.000    0.000    0.000    0.000    0.000    0.000 
#
# Total GULP energy -223043.136359 kJ/mol
# GULP energy per Si atom -12391.285353 kJ/mol
# Density = 2.096336 g / cm^3
# Si number density = 21.011185 Si / 1000 Ang^3
#
#
#
# Elastic Constant Matrix: (Units=GPa)
#
#
# Indices 1 2 3 4 5 6 
#
# 1 98.2230 19.4570 22.7054 -0.0001 19.4993 0.0003
# 2 19.4570 90.8621 41.5414 -0.0003 1.2349 0.0000
# 3 22.7054 41.5414 131.9287 0.0000 27.6852 0.0000
# 4 -0.0001 -0.0003 0.0000 18.2864 0.0000 10.2954
# 5 19.4993 1.2349 27.6852 0.0000 21.8710 0.0000
# 6 0.0003 0.0000 0.0000 10.2954 0.0000 38.1278
#
#
#
# Elastic Compliance Matrix: (Units=1/GPa)
#
#
# Indices 1 2 3 4 5 6 
#
# 1 0.013184 -0.003402 0.001673 0.000000 -0.013680 0.000000
# 2 -0.003402 0.014338 -0.005986 0.000000 0.009801 0.000000
# 3 0.001673 -0.005986 0.012826 0.000000 -0.017389 0.000000
# 4 0.000000 0.000000 0.000000 0.064489 0.000000 -0.017414
# 5 -0.013680 0.009801 -0.017389 0.000000 0.079378 0.000000
# 6 0.000000 0.000000 0.000000 -0.017414 0.000000 0.030930
#
#
# Mechanical properties :
#
#
# Convention : Reuss Voigt Hill
#
# Bulk Modulus (GPa) = 40.13249 54.26902 47.20076
# Shear Modulus (GPa) = 20.93104 31.47768 26.20436
#
# Velocity S-wave (km/s) = 3.15966 3.87478 3.53535
# Velocity P-wave (km/s) = 5.69678 6.77519 6.25926
#
# Compressibility (1/GPa) = 0.02491747
#
# Stress axis : x y z
#
# Youngs Moduli (GPa) = 75.85045 69.74635 77.96786
#
# Poissons Ratio (x) = 0.23729 -0.13044
# Poissons Ratio (y) = 0.25805 0.46670
# Poissons Ratio (z) = -0.12690 0.41749
#
# Static dielectric constant tensor:
#      x y z
#    x 4.049100 0.000000 0.300780 
#    y 0.000000 3.902590 0.000000 
#    z 0.300780 0.000000 3.588440 
# 
# 
# High freq. dielectric constant tensor:
#      x y z
#    x 1.834800 0.000000 0.031150 
#    y 0.000000 1.825860 0.000000 
#    z 0.031150 0.000000 1.795400 
# 
# From -- ./inp_files/246775.got.cif
#   From: 2010.06.25/outbox.cif.g09.slc.cpg/sg15_124_cif.got.tgz:246775.got - 2010.06.28 07:06:18.
