data_PCOD8146519
_publ_section_title
;
Structure prediction by ZEFSAII (Michael W. Deem and Ramdas Pophale) SiO2 
 PCOD8146519
Probable space group: C 2/C
;
_chemical_formula_sum "Si O2"
_cell_formula_units_Z 48
_cell_length_a 11.619246
_cell_length_b 11.105453
_cell_length_c 16.180194
_cell_angle_alpha 90.000000
_cell_angle_beta 92.289956
_cell_angle_gamma 90.000000
_cell_volume 2086.176216
_symmetry_space_group_name_H-M "C 2/C"
_symmetry_group_IT_number 15
_symmetry_cell_setting 'monoclinic'
loop_
_space_group_symop_operation_xyz
x,y,z
-x,y,1/2-z
-x,-y,-z
x,-y,1/2+z
1/2+x,1/2+y,z
1/2-x,1/2+y,1/2-z
1/2-x,1/2-y,-z
1/2+x,1/2-y,1/2+z
loop_
_atom_site_type_symbol
_atom_site_label
_atom_site_fract_x
_atom_site_fract_y
_atom_site_fract_z
Si Si1 0.463224 0.465045 0.658369
Si Si2 0.357840 0.326489 0.915559
Si Si3 0.014255 0.631509 0.844603
Si Si4 0.051514 0.359902 0.661239
Si Si5 0.865917 0.793782 0.100069
Si Si6 0.215205 0.768942 0.903887
O O1 0.500000 0.422019 0.750000
O O2 0.586287 0.453021 0.613278
O O3 0.408812 0.597864 0.660005
O O4 0.373339 0.378228 0.610645
O O5 0.448492 0.220113 0.904055
O O6 0.240719 0.283859 0.865169
O O7 0.329313 0.347201 0.010821
O O8 0.151065 0.645440 0.871218
O O9 0.000000 0.672893 0.750000
O O10 0.957612 0.501418 0.856332
O O11 0.178027 0.304666 0.652229
O O12 0.000000 0.328008 0.750000
O O13 0.971766 0.296726 0.590860
O O14 0.250000 0.750000 0.000000
#
# Coordination Sequence:
#
# PCOD8146519 Si02
#       6
#     8   8   8   8   8   8
#     4  11  24  44  68  94 135 180 226 280 346 420
#     4  10  22  41  67  91 132 176 224 273 339 413
#     4  10  23  44  68  93 136 179 224 282 343 410
#     4  11  25  40  63 102 133 170 230 282 341 413
#     4  11  24  40  63  99 135 172 218 283 339 409
#     4  11  24  43  71  97 132 180 230 283 347 421
#
# _framework density 23.008600999999999
#
# number of rings (size 3 to 8) (size 9 to 14) (size 15 to 20)
#    0.000    1.333    0.000    6.000    4.667    6.667 
#    3.000    0.000    0.000    0.000    0.000    0.000 
#    0.000    0.000    0.000    0.000    0.000    0.000 
#
# Total GULP energy -297380.558888 kJ/mol
# GULP energy per Si atom -12390.856620 kJ/mol
# Density = 2.295623 g / cm^3
# Si number density = 23.008601 Si / 1000 Ang^3
#
#
#
# Elastic Constant Matrix: (Units=GPa)
#
#
# Indices 1 2 3 4 5 6 
#
# 1 165.9024 43.6057 31.6708 0.0000 4.2325 0.0000
# 2 43.6057 68.5894 11.5853 0.0000 9.4873 0.0000
# 3 31.6708 11.5853 99.9067 0.0000 15.7978 0.0000
# 4 0.0000 0.0000 0.0000 24.9494 0.0000 1.5781
# 5 4.2325 9.4873 15.7978 0.0000 39.5273 0.0000
# 6 0.0000 0.0000 0.0000 1.5781 0.0000 40.0604
#
#
#
# Elastic Compliance Matrix: (Units=1/GPa)
#
#
# Indices 1 2 3 4 5 6 
#
# 1 0.007612 -0.004648 -0.002051 0.000000 0.001120 0.000000
# 2 -0.004648 0.018067 -0.000016 0.000000 -0.003833 0.000000
# 3 -0.002051 -0.000016 0.011343 0.000000 -0.004310 0.000000
# 4 0.000000 0.000000 0.000000 0.040181 0.000000 -0.001583
# 5 0.001120 -0.003833 -0.004310 0.000000 0.027821 0.000000
# 6 0.000000 0.000000 0.000000 -0.001583 0.000000 0.025025
#
#
# Mechanical properties :
#
#
# Convention : Reuss Voigt Hill
#
# Bulk Modulus (GPa) = 42.38618 56.45800 49.42209
# Shear Modulus (GPa) = 33.03733 37.40987 35.22360
#
# Velocity S-wave (km/s) = 3.79340 4.03663 3.91690
# Velocity P-wave (km/s) = 6.13583 6.80565 6.47940
#
# Compressibility (1/GPa) = 0.02359260
#
# Stress axis : x y z
#
# Youngs Moduli (GPa) = 131.36569 55.34874 88.16056
#
# Poissons Ratio (x) = 0.25726 0.18084
# Poissons Ratio (y) = 0.61059 0.00138
# Poissons Ratio (z) = 0.26947 0.00087
#
# Static dielectric constant tensor:
#      x y z
#    x 4.708160 0.000000 0.071700 
#    y 0.000000 4.206880 0.000000 
#    z 0.071700 0.000000 3.981960 
# 
# 
# High freq. dielectric constant tensor:
#      x y z
#    x 1.924790 0.000000 0.006840 
#    y 0.000000 1.903360 0.000000 
#    z 0.006840 0.000000 1.903920 
# 
# From -- ./inp_files/196136.got.cif
#   From: 2010.06.25/outbox.cif.g09.slc.cpg/sg15_99_cif.got.tgz:196136.got - 2010.06.28 07:06:18.
