data_PCOD8146561
_publ_section_title
;
Structure prediction by ZEFSAII (Michael W. Deem and Ramdas Pophale) SiO2 
 PCOD8146561
Probable space group: C 2/C
;
_chemical_formula_sum "Si O2"
_cell_formula_units_Z 48
_cell_length_a 18.241106
_cell_length_b 13.334154
_cell_length_c 18.490409
_cell_angle_alpha 90.000000
_cell_angle_beta 30.972388
_cell_angle_gamma 90.000000
_cell_volume 2314.482872
_symmetry_space_group_name_H-M "C 2/C"
_symmetry_group_IT_number 15
_symmetry_cell_setting 'monoclinic'
loop_
_space_group_symop_operation_xyz
x,y,z
-x,y,1/2-z
-x,-y,-z
x,-y,1/2+z
1/2+x,1/2+y,z
1/2-x,1/2+y,1/2-z
1/2-x,1/2-y,-z
1/2+x,1/2-y,1/2+z
loop_
_atom_site_type_symbol
_atom_site_label
_atom_site_fract_x
_atom_site_fract_y
_atom_site_fract_z
Si Si1 0.349911 0.795900 0.357095
Si Si2 0.801856 0.326352 0.240558
Si Si3 0.362348 0.985182 0.901327
Si Si4 0.986539 0.742181 0.065247
Si Si5 0.871388 0.172240 0.915474
Si Si6 0.960168 0.479242 0.614248
O O1 0.500000 0.747545 0.250000
O O2 0.250000 0.750000 0.500000
O O3 0.312434 0.764390 0.306636
O O4 0.351006 0.915046 0.364288
O O5 0.642261 0.315101 0.346909
O O6 0.830280 0.443390 0.238021
O O7 0.914404 0.283164 0.087349
O O8 0.500000 0.925125 0.750000
O O9 0.401877 0.003676 0.952119
O O10 0.209410 0.933831 0.020727
O O11 0.074934 0.803904 0.049618
O O12 0.921946 0.639002 0.154361
O O13 0.000000 0.173759 0.750000
O O14 0.750000 0.250000 0.000000
O O15 0.000000 0.500000 0.500000
#
# Coordination Sequence:
#
# PCOD8146561 Si02
#       6
#     8   8   8   8   8   8
#     4  11  23  42  68  93 130 178 226 268 322 391
#     4  11  23  43  65 100 131 175 218 271 333 395
#     4  11  23  44  70  94 129 178 222 269 335 390
#     4  11  25  41  68  98 134 168 221 272 335 397
#     4  12  25  42  68 103 134 169 222 277 332 397
#     4  10  22  41  68  92 130 176 218 263 330 399
#
# _framework density 20.738973999999999
#
# number of rings (size 3 to 8) (size 9 to 14) (size 15 to 20)
#    0.000    1.000    5.000    2.500    7.000    0.667 
#    0.000    5.000    0.000    0.000    0.000    0.000 
#    0.000    0.000    0.000    0.000    0.000    0.000 
#
# Total GULP energy -297387.726719 kJ/mol
# GULP energy per Si atom -12391.155280 kJ/mol
# Density = 2.069177 g / cm^3
# Si number density = 20.738974 Si / 1000 Ang^3
#
#
#
# Elastic Constant Matrix: (Units=GPa)
#
#
# Indices 1 2 3 4 5 6 
#
# 1 194.8040 50.6886 70.1775 -0.0006 -2.6984 0.0003
# 2 50.6886 66.2899 43.4677 0.0024 -13.8850 -0.0009
# 3 70.1775 43.4677 156.7781 0.0041 -4.2372 -0.0016
# 4 -0.0006 0.0024 0.0041 32.9078 -0.0016 -7.0537
# 5 -2.6984 -13.8850 -4.2372 -0.0016 47.5501 0.0005
# 6 0.0003 -0.0009 -0.0016 -7.0537 0.0005 34.4317
#
#
#
# Elastic Compliance Matrix: (Units=1/GPa)
#
#
# Indices 1 2 3 4 5 6 
#
# 1 0.006923 -0.004224 -0.001955 0.000001 -0.001015 0.000000
# 2 -0.004224 0.022250 -0.004119 -0.000001 0.005890 0.000000
# 3 -0.001955 -0.004119 0.008380 -0.000001 -0.000567 0.000000
# 4 0.000001 -0.000001 -0.000001 0.031784 0.000001 0.006511
# 5 -0.001015 0.005890 -0.000567 0.000001 0.022642 0.000000
# 6 0.000000 0.000000 0.000000 0.006511 0.000000 0.030377
#
#
# Mechanical properties :
#
#
# Convention : Reuss Voigt Hill
#
# Bulk Modulus (GPa) = 58.97364 82.94885 70.96124
# Shear Modulus (GPa) = 33.64649 39.88047 36.76348
#
# Velocity S-wave (km/s) = 4.03225 4.38993 4.21488
# Velocity P-wave (km/s) = 7.08354 8.11041 7.61431
#
# Compressibility (1/GPa) = 0.01695673
#
# Stress axis : x y z
#
# Youngs Moduli (GPa) = 144.45188 44.94422 119.32825
#
# Poissons Ratio (x) = 0.18985 0.23329
# Poissons Ratio (y) = 0.61017 0.49150
# Poissons Ratio (z) = 0.28241 0.18512
#
# Static dielectric constant tensor:
#      x y z
#    x 3.314760 0.000000 1.254050 
#    y 0.000000 3.921850 0.000000 
#    z 1.254050 0.000000 2.056800 
# 
# 
# High freq. dielectric constant tensor:
#      x y z
#    x 1.838600 0.000000 0.014100 
#    y 0.000000 1.796570 0.000000 
#    z 0.014100 0.000000 1.808390 
# 
# From -- ./inp_files/211326.got.cif
#   From: 2010.06.25/outbox.cif.g09.slc.cpg/sg15_106_cif.got.tgz:211326.got - 2010.06.28 07:06:18.
