data_PCOD8146558
_publ_section_title
;
Structure prediction by ZEFSAII (Michael W. Deem and Ramdas Pophale) SiO2 
 PCOD8146558
Probable space group: C 2/C
;
_chemical_formula_sum "Si O2"
_cell_formula_units_Z 40
_cell_length_a 16.175239
_cell_length_b 16.001522
_cell_length_c 9.292167
_cell_angle_alpha 90.000000
_cell_angle_beta 54.380331
_cell_angle_gamma 90.000000
_cell_volume 1955.089295
_symmetry_space_group_name_H-M "C 2/C"
_symmetry_group_IT_number 15
_symmetry_cell_setting 'monoclinic'
loop_
_space_group_symop_operation_xyz
x,y,z
-x,y,1/2-z
-x,-y,-z
x,-y,1/2+z
1/2+x,1/2+y,z
1/2-x,1/2+y,1/2-z
1/2-x,1/2-y,-z
1/2+x,1/2-y,1/2+z
loop_
_atom_site_type_symbol
_atom_site_label
_atom_site_fract_x
_atom_site_fract_y
_atom_site_fract_z
Si Si1 0.829693 0.398897 0.729666
Si Si2 0.904949 0.218755 0.666589
Si Si3 0.133754 0.801563 0.968854
Si Si4 0.266617 0.814505 0.353607
Si Si5 0.382992 0.037080 0.880931
O O1 0.899295 0.317030 0.630841
O O2 0.864208 0.443658 0.841503
O O3 0.849825 0.463571 0.580366
O O4 0.709349 0.377469 0.853170
O O5 0.852831 0.216655 0.876089
O O6 0.841867 0.166339 0.612365
O O7 0.016435 0.178109 0.552966
O O8 0.161216 0.722097 0.843901
O O9 0.250000 0.750000 0.500000
O O10 0.313209 0.899547 0.362855
O O11 0.500000 0.063511 0.750000
#
# Coordination Sequence:
#
# PCOD8146558 Si02
#       5
#     8   8   8   8   8
#     4  11  24  42  61 100 125 167 207 259 325 373
#     4  10  22  41  69  92 123 170 218 259 305 377
#     4  10  22  41  68  91 126 168 220 254 310 376
#     4  11  21  39  62  93 127 162 215 264 302 376
#     4  12  26  40  63  94 135 163 203 265 326 376
#
# _framework density 20.459425
#
# number of rings (size 3 to 8) (size 9 to 14) (size 15 to 20)
#    0.000    1.200    4.000    4.200    8.400    0.000 
#    0.000    1.000    0.000    0.000    0.000    0.000 
#    0.000    0.000    0.000    0.000    0.000    0.000 
#
# Total GULP energy -247988.850018 kJ/mol
# GULP energy per Si atom -12399.442501 kJ/mol
# Density = 2.041286 g / cm^3
# Si number density = 20.459425 Si / 1000 Ang^3
#
#
#
# Elastic Constant Matrix: (Units=GPa)
#
#
# Indices 1 2 3 4 5 6 
#
# 1 139.2707 31.9788 39.2057 0.0000 -6.3968 0.0000
# 2 31.9788 59.4150 9.0332 0.0000 -9.1333 0.0000
# 3 39.2057 9.0332 102.0587 0.0000 -3.9031 0.0000
# 4 0.0000 0.0000 0.0000 25.8971 0.0000 17.2385
# 5 -6.3968 -9.1333 -3.9031 0.0000 31.9780 0.0000
# 6 0.0000 0.0000 0.0000 17.2385 0.0000 34.8873
#
#
#
# Elastic Compliance Matrix: (Units=1/GPa)
#
#
# Indices 1 2 3 4 5 6 
#
# 1 0.009064 -0.004380 -0.003087 0.000000 0.000185 0.000000
# 2 -0.004380 0.019914 0.000105 0.000000 0.004824 0.000000
# 3 -0.003087 0.000105 0.011004 0.000000 0.000755 0.000000
# 4 0.000000 0.000000 0.000000 0.057540 0.000000 -0.028432
# 5 0.000185 0.004824 0.000755 0.000000 0.032779 0.000000
# 6 0.000000 0.000000 0.000000 -0.028432 0.000000 0.042712
#
#
# Mechanical properties :
#
#
# Convention : Reuss Voigt Hill
#
# Bulk Modulus (GPa) = 39.59473 51.24220 45.41846
# Shear Modulus (GPa) = 25.48985 33.25428 29.37207
#
# Velocity S-wave (km/s) = 3.53352 4.03597 3.79307
# Velocity P-wave (km/s) = 6.00354 6.84243 6.43667
#
# Compressibility (1/GPa) = 0.02525589
#
# Stress axis : x y z
#
# Youngs Moduli (GPa) = 110.33150 50.21560 90.87795
#
# Poissons Ratio (x) = 0.21997 0.28054
# Poissons Ratio (y) = 0.48330 -0.00951
# Poissons Ratio (z) = 0.34059 -0.00525
#
# Static dielectric constant tensor:
#      x y z
#    x 3.958720 0.000000 0.134450 
#    y 0.000000 3.384760 0.000000 
#    z 0.134450 0.000000 3.852230 
# 
# 
# High freq. dielectric constant tensor:
#      x y z
#    x 1.818200 0.000000 0.010350 
#    y 0.000000 1.765110 0.000000 
#    z 0.010350 0.000000 1.813660 
# 
# From -- ./inp_files/38973.got.cif
#   From: 2010.06.25/outbox.cif.g09.slc.cpg/sg15_20_cif.got.tgz:38973.got - 2010.06.28 07:06:18.
