data_PCOD8146472
_publ_section_title
;
Structure prediction by ZEFSAII (Michael W. Deem and Ramdas Pophale) SiO2 
 PCOD8146472
Probable space group: C 2/C
;
_chemical_formula_sum "Si O2"
_cell_formula_units_Z 40
_cell_length_a 13.892678
_cell_length_b 16.773755
_cell_length_c 8.486450
_cell_angle_alpha 90.000000
_cell_angle_beta 125.814964
_cell_angle_gamma 90.000000
_cell_volume 1603.671913
_symmetry_space_group_name_H-M "C 2/C"
_symmetry_group_IT_number 15
_symmetry_cell_setting 'monoclinic'
loop_
_space_group_symop_operation_xyz
x,y,z
-x,y,1/2-z
-x,-y,-z
x,-y,1/2+z
1/2+x,1/2+y,z
1/2-x,1/2+y,1/2-z
1/2-x,1/2-y,-z
1/2+x,1/2-y,1/2+z
loop_
_atom_site_type_symbol
_atom_site_label
_atom_site_fract_x
_atom_site_fract_y
_atom_site_fract_z
Si Si1 0.159765 0.613922 0.811652
Si Si2 0.069505 0.153025 0.477975
Si Si3 0.265470 0.940324 0.644975
Si Si4 0.941187 0.326281 0.958705
Si Si5 0.098661 0.015514 0.727681
O O1 0.156268 0.518526 0.815222
O O2 0.075474 0.639450 0.584095
O O3 0.292151 0.643029 0.915110
O O4 0.113196 0.655273 0.923406
O O5 0.051437 0.231690 0.566498
O O6 0.027257 0.072874 0.534741
O O7 0.000000 0.166288 0.250000
O O8 0.355980 0.866638 0.746853
O O9 0.179047 0.926125 0.412954
O O10 0.186684 0.951479 0.730006
O O11 0.000000 0.973175 0.750000
#
# Coordination Sequence:
#
# PCOD8146472 Si02
#       5
#     8   8   8   8   8
#     4  10  22  41  66 102 127 175 225 271 330 394
#     4  11  25  43  69 100 132 180 224 274 330 401
#     4  11  23  44  67 101 133 174 226 278 332 396
#     4  11  22  41  73  95 135 175 224 275 329 403
#     4  11  26  42  67  99 140 177 221 275 336 398
#
# _framework density 24.942758000000001
#
# number of rings (size 3 to 8) (size 9 to 14) (size 15 to 20)
#    0.000    1.200    4.000    1.800    2.800    4.000 
#    0.000    2.000    0.000    0.000    0.000    0.000 
#    0.000    0.000    0.000    0.000    0.000    0.000 
#
# Total GULP energy -247959.699981 kJ/mol
# GULP energy per Si atom -12397.984999 kJ/mol
# Density = 2.488599 g / cm^3
# Si number density = 24.942758 Si / 1000 Ang^3
#
#
#
# Elastic Constant Matrix: (Units=GPa)
#
#
# Indices 1 2 3 4 5 6 
#
# 1 82.4184 2.5844 17.2960 0.0000 18.6235 0.0000
# 2 2.5844 144.4657 12.9401 0.0000 2.7348 0.0000
# 3 17.2960 12.9401 138.3052 0.0000 18.2414 0.0000
# 4 0.0000 0.0000 0.0000 37.3400 0.0000 2.1022
# 5 18.6235 2.7348 18.2414 0.0000 43.1011 0.0000
# 6 0.0000 0.0000 0.0000 2.1022 0.0000 4.0135
#
#
#
# Elastic Compliance Matrix: (Units=1/GPa)
#
#
# Indices 1 2 3 4 5 6 
#
# 1 0.013570 -0.000052 -0.000974 0.000000 -0.005448 0.000000
# 2 -0.000052 0.006982 -0.000626 0.000000 -0.000155 0.000000
# 3 -0.000974 -0.000626 0.007785 0.000000 -0.002834 0.000000
# 4 0.000000 0.000000 0.000000 0.027595 0.000000 -0.014453
# 5 -0.005448 -0.000155 -0.002834 0.000000 0.026765 0.000000
# 6 0.000000 0.000000 0.000000 -0.014453 0.000000 0.256726
#
#
# Mechanical properties :
#
#
# Convention : Reuss Voigt Hill
#
# Bulk Modulus (GPa) = 39.94821 47.87003 43.90912
# Shear Modulus (GPa) = 14.24213 39.04884 26.64549
#
# Velocity S-wave (km/s) = 2.39214 3.96098 3.27198
# Velocity P-wave (km/s) = 4.86626 6.33662 5.64948
#
# Compressibility (1/GPa) = 0.02503241
#
# Stress axis : x y z
#
# Youngs Moduli (GPa) = 73.69055 143.22487 128.45972
#
# Poissons Ratio (x) = 0.00751 0.12507
# Poissons Ratio (y) = 0.00386 0.08044
# Poissons Ratio (z) = 0.07174 0.08969
#
# Static dielectric constant tensor:
#      x y z
#    x 4.684960 0.000000 0.315570 
#    y 0.000000 4.808060 0.000000 
#    z 0.315570 0.000000 5.047030 
# 
# 
# High freq. dielectric constant tensor:
#      x y z
#    x 1.985910 0.000000 0.025150 
#    y 0.000000 1.982260 0.000000 
#    z 0.025150 0.000000 2.021090 
# 
# From -- ./inp_files/39387.got.cif
#   From: 2010.06.25/outbox.cif.g09.slc.cpg/sg15_20_cif.got.tgz:39387.got - 2010.06.28 07:06:18.
