data_PCOD8146948
_publ_section_title
;
Structure prediction by ZEFSAII (Michael W. Deem and Ramdas Pophale) SiO2 
 PCOD8146948
Probable space group: C 2/C
;
_chemical_formula_sum "Si O2"
_cell_formula_units_Z 64
_cell_length_a 29.327773
_cell_length_b 17.452158
_cell_length_c 9.162362
_cell_angle_alpha 90.000000
_cell_angle_beta 143.195789
_cell_angle_gamma 90.000000
_cell_volume 2809.456189
_symmetry_space_group_name_H-M "C 2/C"
_symmetry_group_IT_number 15
_symmetry_cell_setting 'monoclinic'
loop_
_space_group_symop_operation_xyz
x,y,z
-x,y,1/2-z
-x,-y,-z
x,-y,1/2+z
1/2+x,1/2+y,z
1/2-x,1/2+y,1/2-z
1/2-x,1/2-y,-z
1/2+x,1/2-y,1/2+z
loop_
_atom_site_type_symbol
_atom_site_label
_atom_site_fract_x
_atom_site_fract_y
_atom_site_fract_z
Si Si1 0.967237 0.309393 0.317775
Si Si2 0.956349 0.940866 0.287779
Si Si3 0.844701 0.190678 0.891177
Si Si4 0.402940 0.716146 0.733867
Si Si5 0.204288 0.457637 0.304900
Si Si6 0.952523 0.445513 0.483588
Si Si7 0.194150 0.984506 0.187518
Si Si8 0.287849 0.216094 0.737564
O O1 0.927094 0.372945 0.317138
O O2 0.000000 0.344694 0.250000
O O3 0.040388 0.286044 0.598363
O O4 0.914129 0.235148 0.149358
O O5 0.955512 0.858925 0.362802
O O6 0.000000 0.935573 0.250000
O O7 0.000000 0.000000 0.500000
O O8 0.868133 0.959727 0.039094
O O9 0.844461 0.210771 0.719687
O O10 0.847381 0.098312 0.913438
O O11 0.767191 0.218837 0.764318
O O12 0.359579 0.732611 0.470708
O O13 0.227701 0.487595 0.205462
O O14 0.278407 0.481738 0.588265
O O15 0.187902 0.367918 0.248025
O O16 0.124391 0.490557 0.161025
O O17 0.000000 0.422208 0.750000
O O18 0.000000 0.500000 0.500000
O O19 0.250000 0.250000 0.500000
#
# Coordination Sequence:
#
# PCOD8146948 Si02
#       8
#     8   8   8   8   8   8   8   8
#     4  10  23  42  65  94 130 170 219 272 331 396
#     4  12  25  41  65  97 132 174 223 275 333 401
#     4  10  22  42  67  93 129 174 219 272 331 399
#     4  11  23  41  64  93 130 176 218 269 334 399
#     4  11  24  41  64  92 127 171 216 269 327 391
#     4  12  25  44  68  98 133 174 222 276 334 399
#     4  11  23  42  64  94 131 171 218 269 327 390
#     4  11  23  39  62  95 130 170 222 276 331 393
#
# _framework density 22.780207999999998
#
# number of rings (size 3 to 8) (size 9 to 14) (size 15 to 20)
#    0.000    1.000    0.000    6.750    0.000    6.500 
#    0.000    5.000    0.000    0.000    0.000    0.000 
#    0.000    0.000    0.000    0.000    0.000    0.000 
#
# Total GULP energy -396700.404162 kJ/mol
# GULP energy per Si atom -12396.887630 kJ/mol
# Density = 2.272836 g / cm^3
# Si number density = 22.780208 Si / 1000 Ang^3
#
#
#
# Elastic Constant Matrix: (Units=GPa)
#
#
# Indices 1 2 3 4 5 6 
#
# 1 116.9707 41.6142 24.4482 0.0000 3.2692 0.0000
# 2 41.6142 84.3861 34.0174 0.0000 -11.3674 0.0000
# 3 24.4482 34.0174 125.6855 0.0000 -14.8090 0.0000
# 4 0.0000 0.0000 0.0000 38.5262 0.0000 -1.4561
# 5 3.2692 -11.3674 -14.8090 0.0000 35.5279 0.0000
# 6 0.0000 0.0000 0.0000 -1.4561 0.0000 31.0297
#
#
#
# Elastic Compliance Matrix: (Units=1/GPa)
#
#
# Indices 1 2 3 4 5 6 
#
# 1 0.010735 -0.005302 -0.001020 0.000000 -0.003109 0.000000
# 2 -0.005302 0.016210 -0.002826 0.000000 0.004496 0.000000
# 3 -0.001020 -0.002826 0.009280 0.000000 0.003058 0.000000
# 4 0.000000 0.000000 0.000000 0.026002 0.000000 0.001220
# 5 -0.003109 0.004496 0.003058 0.000000 0.031146 0.000000
# 6 0.000000 0.000000 0.000000 0.001220 0.000000 0.032284
#
#
# Mechanical properties :
#
#
# Convention : Reuss Voigt Hill
#
# Bulk Modulus (GPa) = 55.77309 58.57800 57.17554
# Shear Modulus (GPa) = 33.34891 36.14761 34.74826
#
# Velocity S-wave (km/s) = 3.83030 3.98779 3.90984
# Velocity P-wave (km/s) = 6.64062 6.85372 6.74801
#
# Compressibility (1/GPa) = 0.01792979
#
# Stress axis : x y z
#
# Youngs Moduli (GPa) = 93.15000 61.69105 107.75985
#
# Poissons Ratio (x) = 0.32708 0.10987
# Poissons Ratio (y) = 0.49387 0.30455
# Poissons Ratio (z) = 0.09498 0.17435
#
# Static dielectric constant tensor:
#      x y z
#    x 4.399500 0.000000 -0.108230 
#    y 0.000000 3.968720 0.000000 
#    z -0.108230 0.000000 3.968700 
# 
# 
# High freq. dielectric constant tensor:
#      x y z
#    x 1.920530 0.000000 -0.005530 
#    y 0.000000 1.893110 0.000000 
#    z -0.005530 0.000000 1.900230 
# 
# From -- ./inp_files/70635.got.cif
#   From: 2010.06.25/outbox.cif.g09.slc.cpg/sg15_36_cif.got.tgz:70635.got - 2010.06.28 07:06:18.
