data_PCOD8146063
_publ_section_title
;
Structure prediction by ZEFSAII (Michael W. Deem and Ramdas Pophale) SiO2 
 PCOD8146063
Probable space group: C 2/C
;
_chemical_formula_sum "Si O2"
_cell_formula_units_Z 52
_cell_length_a 21.357619
_cell_length_b 15.372594
_cell_length_c 10.014804
_cell_angle_alpha 90.000000
_cell_angle_beta 131.398347
_cell_angle_gamma 90.000000
_cell_volume 2466.488340
_symmetry_space_group_name_H-M "C 2/C"
_symmetry_group_IT_number 15
_symmetry_cell_setting 'monoclinic'
loop_
_space_group_symop_operation_xyz
x,y,z
-x,y,1/2-z
-x,-y,-z
x,-y,1/2+z
1/2+x,1/2+y,z
1/2-x,1/2+y,1/2-z
1/2-x,1/2-y,-z
1/2+x,1/2-y,1/2+z
loop_
_atom_site_type_symbol
_atom_site_label
_atom_site_fract_x
_atom_site_fract_y
_atom_site_fract_z
Si Si1 0.016242 0.240623 0.059792
Si Si2 0.027329 0.569324 0.931224
Si Si3 0.785412 0.374604 0.788784
Si Si4 0.500000 0.320166 0.250000
Si Si5 0.841919 0.071524 0.606254
Si Si6 0.664676 0.684099 0.651342
Si Si7 0.832243 0.123913 0.130658
O O1 0.097284 0.190157 0.222286
O O2 0.020581 0.339435 0.114924
O O3 0.011739 0.242054 0.893052
O O4 0.935442 0.191988 0.005633
O O5 0.000000 0.532036 0.750000
O O6 0.126284 0.578865 0.076916
O O7 0.000000 0.500000 0.000000
O O8 0.731914 0.427577 0.605673
O O9 0.794947 0.275849 0.750889
O O10 0.745382 0.374425 0.878855
O O11 0.579900 0.380832 0.348175
O O12 0.811139 0.115905 0.699766
O O13 0.869220 0.973250 0.676472
O O14 0.701539 0.651884 0.562446
#
# Coordination Sequence:
#
# PCOD8146063 Si02
#       7
#     8   8   8   4   8   8   8
#     4  10  22  43  69  98 140 181 233 276 358 419
#     4  11  27  50  74 100 136 184 240 296 348 415
#     4  11  24  47  65 100 135 179 237 283 347 415
#     4  10  22  40  66 104 140 190 220 274 358 430
#     4  11  24  41  66 104 141 178 226 288 343 428
#     4  10  23  40  67  94 139 184 221 280 343 421
#     4  12  23  41  69 104 134 178 228 290 355 415
#
# _framework density 21.082604
#
# number of rings (size 3 to 8) (size 9 to 14) (size 15 to 20)
#    0.000    1.231    1.538    4.154    5.385    1.231 
#    2.769    0.000    0.000    0.000    0.000    0.000 
#    0.000    0.000    0.000    0.000    0.000    0.000 
#
# Total GULP energy -322577.498975 kJ/mol
# GULP energy per Si atom -12406.826884 kJ/mol
# Density = 2.103462 g / cm^3
# Si number density = 21.082604 Si / 1000 Ang^3
#
#
#
# Elastic Constant Matrix: (Units=GPa)
#
#
# Indices 1 2 3 4 5 6 
#
# 1 131.4401 51.5280 66.4840 0.0000 -12.8853 0.0000
# 2 51.5280 92.9808 50.4067 0.0000 -6.4593 0.0000
# 3 66.4840 50.4067 132.1187 0.0000 -15.4671 0.0000
# 4 0.0000 0.0000 0.0000 25.0067 0.0000 -8.3414
# 5 -12.8853 -6.4593 -15.4671 0.0000 37.7142 0.0000
# 6 0.0000 0.0000 0.0000 -8.3414 0.0000 18.1019
#
#
#
# Elastic Compliance Matrix: (Units=1/GPa)
#
#
# Indices 1 2 3 4 5 6 
#
# 1 0.011359 -0.004018 -0.004002 0.000000 0.001552 0.000000
# 2 -0.004018 0.014982 -0.003734 0.000000 -0.000338 0.000000
# 3 -0.004002 -0.003734 0.011315 0.000000 0.002634 0.000000
# 4 0.000000 0.000000 0.000000 0.047253 0.000000 0.021774
# 5 0.001552 -0.000338 0.002634 0.000000 0.028068 0.000000
# 6 0.000000 0.000000 0.000000 0.021774 0.000000 0.065277
#
#
# Mechanical properties :
#
#
# Convention : Reuss Voigt Hill
#
# Bulk Modulus (GPa) = 70.66923 77.04191 73.85557
# Shear Modulus (GPa) = 24.21573 28.70593 26.46083
#
# Velocity S-wave (km/s) = 3.39279 3.69398 3.54659
# Velocity P-wave (km/s) = 6.99578 7.40380 7.20268
#
# Compressibility (1/GPa) = 0.01415043
#
# Stress axis : x y z
#
# Youngs Moduli (GPa) = 88.03322 66.74555 88.37442
#
# Poissons Ratio (x) = 0.26818 0.35363
# Poissons Ratio (y) = 0.35372 0.32997
# Poissons Ratio (z) = 0.35227 0.24921
#
# Static dielectric constant tensor:
#      x y z
#    x 4.008810 0.000000 -0.217840 
#    y 0.000000 3.810000 0.000000 
#    z -0.217840 0.000000 3.856520 
# 
# 
# High freq. dielectric constant tensor:
#      x y z
#    x 1.836830 0.000000 -0.013530 
#    y 0.000000 1.827340 0.000000 
#    z -0.013530 0.000000 1.832260 
# 
# From -- ./inp_files/57058.got.cif
#   From: 2010.06.25/outbox.cif.g09.slc.cpg/sg15_29_cif.got.tgz:57058.got - 2010.06.28 07:06:18.
