data_PCOD8146527
_publ_section_title
;
Structure prediction by ZEFSAII (Michael W. Deem and Ramdas Pophale) SiO2 
 PCOD8146527
Probable space group: C 2/C
;
_chemical_formula_sum "Si O2"
_cell_formula_units_Z 44
_cell_length_a 11.766919
_cell_length_b 14.531059
_cell_length_c 20.344352
_cell_angle_alpha 90.000000
_cell_angle_beta 37.668672
_cell_angle_gamma 90.000000
_cell_volume 2125.749781
_symmetry_space_group_name_H-M "C 2/C"
_symmetry_group_IT_number 15
_symmetry_cell_setting 'monoclinic'
loop_
_space_group_symop_operation_xyz
x,y,z
-x,y,1/2-z
-x,-y,-z
x,-y,1/2+z
1/2+x,1/2+y,z
1/2-x,1/2+y,1/2-z
1/2-x,1/2-y,-z
1/2+x,1/2-y,1/2+z
loop_
_atom_site_type_symbol
_atom_site_label
_atom_site_fract_x
_atom_site_fract_y
_atom_site_fract_z
Si Si1 0.191897 0.842743 0.783420
Si Si2 0.832494 0.530761 0.705307
Si Si3 0.500000 0.130212 0.750000
Si Si4 0.710170 0.686522 0.671825
Si Si5 0.467787 0.880610 0.556620
Si Si6 0.312487 0.284601 0.901594
O O1 0.188289 0.780194 0.850215
O O2 0.382460 0.819421 0.655711
O O3 0.018622 0.827450 0.814139
O O4 0.196718 0.952208 0.798053
O O5 0.712153 0.613099 0.730029
O O6 0.955465 0.487483 0.587778
O O7 0.961192 0.567215 0.704687
O O8 0.323933 0.195612 0.848171
O O9 0.500000 0.708776 0.750000
O O10 0.822561 0.649605 0.556674
O O11 0.333358 0.861589 0.555600
O O12 0.250000 0.250000 0.000000
#
# Coordination Sequence:
#
# PCOD8146527 Si02
#       6
#     8   8   4   8   8   8
#     4  10  23  40  62  98 125 172 209 266 329 374
#     4  10  24  41  65  94 130 172 214 267 330 380
#     4  12  20  44  66  96 138 162 224 280 306 398
#     4  12  24  42  65  95 134 169 214 264 328 398
#     4  10  22  41  67  94 127 169 221 260 330 385
#     4  12  20  39  74  95 127 170 225 274 323 382
#
# _framework density 20.698578000000001
#
# number of rings (size 3 to 8) (size 9 to 14) (size 15 to 20)
#    1.091    0.000    5.455    0.545    3.818    0.727 
#    0.000    0.909    0.000    0.000    0.000    0.000 
#    0.000    0.000    0.000    0.000    0.000    0.000 
#
# Total GULP energy -272608.325765 kJ/mol
# GULP energy per Si atom -12391.287535 kJ/mol
# Density = 2.065147 g / cm^3
# Si number density = 20.698578 Si / 1000 Ang^3
#
#
#
# Elastic Constant Matrix: (Units=GPa)
#
#
# Indices 1 2 3 4 5 6 
#
# 1 99.7164 34.8781 19.4559 0.0008 0.6689 0.0003
# 2 34.8781 107.3782 11.5341 0.0031 3.4723 -0.0004
# 3 19.4559 11.5341 68.8355 0.0096 -5.0817 -0.0027
# 4 0.0008 0.0031 0.0096 27.9678 -0.0020 8.9216
# 5 0.6689 3.4723 -5.0817 -0.0020 33.2374 0.0004
# 6 0.0003 -0.0004 -0.0027 8.9216 0.0004 41.0905
#
#
#
# Elastic Compliance Matrix: (Units=1/GPa)
#
#
# Indices 1 2 3 4 5 6 
#
# 1 0.011804 -0.003528 -0.002767 0.000001 -0.000292 -0.000001
# 2 -0.003528 0.010589 -0.000863 -0.000001 -0.001167 0.000000
# 3 -0.002767 -0.000863 0.015641 -0.000006 0.002537 0.000002
# 4 0.000001 -0.000001 -0.000006 0.038416 0.000002 -0.008341
# 5 -0.000292 -0.001167 0.002537 0.000002 0.030602 0.000000
# 6 -0.000001 0.000000 0.000002 -0.008341 0.000000 0.026147
#
#
# Mechanical properties :
#
#
# Convention : Reuss Voigt Hill
#
# Bulk Modulus (GPa) = 42.16024 45.29627 43.72825
# Shear Modulus (GPa) = 32.17037 34.46328 33.31683
#
# Velocity S-wave (km/s) = 3.94665 4.08488 4.01636
# Velocity P-wave (km/s) = 6.41724 6.64677 6.53301
#
# Compressibility (1/GPa) = 0.02371903
#
# Stress axis : x y z
#
# Youngs Moduli (GPa) = 84.71654 94.43618 63.93279
#
# Poissons Ratio (x) = 0.33312 0.17689
# Poissons Ratio (y) = 0.29884 0.05520
# Poissons Ratio (z) = 0.23440 0.08154
#
# Static dielectric constant tensor:
#      x y z
#    x 3.593310 0.000000 0.079600 
#    y 0.000000 3.824050 0.000000 
#    z 0.079600 0.000000 3.792480 
# 
# 
# High freq. dielectric constant tensor:
#      x y z
#    x 1.792860 0.000000 0.013570 
#    y 0.000000 1.812330 0.000000 
#    z 0.013570 0.000000 1.803820 
# 
# From -- ./inp_files/238609.got.cif
#   From: 2010.06.25/outbox.cif.g09.slc.cpg/sg15_120_cif.got.tgz:238609.got - 2010.06.28 07:06:18.
