data_PCOD8146968
_publ_section_title
;
Structure prediction by ZEFSAII (Michael W. Deem and Ramdas Pophale) SiO2 
 PCOD8146968
Probable space group: C 2/C
;
_chemical_formula_sum "Si O2"
_cell_formula_units_Z 56
_cell_length_a 10.973773
_cell_length_b 26.816409
_cell_length_c 11.011796
_cell_angle_alpha 90.000000
_cell_angle_beta 130.120219
_cell_angle_gamma 90.000000
_cell_volume 2478.006614
_symmetry_space_group_name_H-M "C 2/C"
_symmetry_group_IT_number 15
_symmetry_cell_setting 'monoclinic'
loop_
_space_group_symop_operation_xyz
x,y,z
-x,y,1/2-z
-x,-y,-z
x,-y,1/2+z
1/2+x,1/2+y,z
1/2-x,1/2+y,1/2-z
1/2-x,1/2-y,-z
1/2+x,1/2-y,1/2+z
loop_
_atom_site_type_symbol
_atom_site_label
_atom_site_fract_x
_atom_site_fract_y
_atom_site_fract_z
Si Si1 0.648341 0.459497 0.258126
Si Si2 0.639112 0.719539 0.516078
Si Si3 0.809561 0.246336 0.347595
Si Si4 0.606574 0.394906 0.991733
Si Si5 0.707454 0.429486 0.801461
Si Si6 0.645962 0.818456 0.919930
Si Si7 0.048872 0.427805 0.907215
O O1 0.500000 0.445532 0.250000
O O2 0.642036 0.516898 0.212866
O O3 0.820770 0.458481 0.435157
O O4 0.646820 0.422516 0.143260
O O5 0.750000 0.750000 0.500000
O O6 0.660738 0.742540 0.665016
O O7 0.458544 0.730432 0.359830
O O8 0.678105 0.660734 0.540229
O O9 0.794229 0.201352 0.435533
O O10 0.846550 0.298025 0.439588
O O11 0.692270 0.424811 0.937247
O O12 0.415163 0.391725 0.844462
O O13 0.889628 0.417642 0.883191
O O14 0.500000 0.795891 0.750000
O O15 0.638625 0.877671 0.923198
O O16 0.000000 0.456015 0.750000
#
# Coordination Sequence:
#
# PCOD8146968 Si02
#       7
#     8   8   8   8   8   8   8
#     4  12  25  48  75 112 146 188 243 305 369 446
#     4  12  28  44  71 101 144 192 240 292 359 441
#     4  11  24  44  66  97 137 180 241 290 357 411
#     4  11  27  46  75 105 145 196 239 305 371 441
#     4  11  26  48  76 103 146 191 244 299 377 442
#     4  10  22  42  67  98 133 182 229 300 347 418
#     4  11  26  42  74 106 145 189 241 297 365 434
#
# _framework density 22.598808999999999
#
# number of rings (size 3 to 8) (size 9 to 14) (size 15 to 20)
#    0.000    0.857    2.857    3.000   14.000    0.571 
#    2.571    0.000    0.000    0.000    0.000    0.000 
#    0.000    0.000    0.000    0.000    0.000    0.000 
#
# Total GULP energy -347152.600173 kJ/mol
# GULP energy per Si atom -12398.307149 kJ/mol
# Density = 2.254737 g / cm^3
# Si number density = 22.598809 Si / 1000 Ang^3
#
#
#
# Elastic Constant Matrix: (Units=GPa)
#
#
# Indices 1 2 3 4 5 6 
#
# 1 118.5768 30.8909 31.1844 0.0000 11.3104 0.0000
# 2 30.8909 116.8792 18.3354 0.0000 -12.6124 0.0000
# 3 31.1844 18.3354 105.8651 0.0000 -2.6195 0.0000
# 4 0.0000 0.0000 0.0000 29.9743 0.0000 -0.5221
# 5 11.3104 -12.6124 -2.6195 0.0000 38.2108 0.0000
# 6 0.0000 0.0000 0.0000 -0.5221 0.0000 30.8339
#
#
#
# Elastic Compliance Matrix: (Units=1/GPa)
#
#
# Indices 1 2 3 4 5 6 
#
# 1 0.010233 -0.002734 -0.002643 0.000000 -0.004112 0.000000
# 2 -0.002734 0.009835 -0.000799 0.000000 0.004001 0.000000
# 3 -0.002643 -0.000799 0.010393 0.000000 0.001231 0.000000
# 4 0.000000 0.000000 0.000000 0.033372 0.000000 0.000565
# 5 -0.004112 0.004001 0.001231 0.000000 0.028793 0.000000
# 6 0.000000 0.000000 0.000000 0.000565 0.000000 0.032441
#
#
# Mechanical properties :
#
#
# Convention : Reuss Voigt Hill
#
# Bulk Modulus (GPa) = 55.21632 55.79362 55.50497
# Shear Modulus (GPa) = 34.85410 37.19782 36.02596
#
# Velocity S-wave (km/s) = 3.93147 4.06150 3.99702
# Velocity P-wave (km/s) = 6.71528 6.83643 6.77612
#
# Compressibility (1/GPa) = 0.01811059
#
# Stress axis : x y z
#
# Youngs Moduli (GPa) = 97.72561 101.67294 96.21624
#
# Poissons Ratio (x) = 0.27794 0.25425
# Poissons Ratio (y) = 0.26715 0.07690
# Poissons Ratio (z) = 0.25824 0.08126
#
# Static dielectric constant tensor:
#      x y z
#    x 4.067590 0.000000 -0.049610 
#    y 0.000000 3.912310 0.000000 
#    z -0.049610 0.000000 4.514120 
# 
# 
# High freq. dielectric constant tensor:
#      x y z
#    x 1.897370 0.000000 -0.002430 
#    y 0.000000 1.885790 0.000000 
#    z -0.002430 0.000000 1.898490 
# 
# From -- ./inp_files/92089.got.cif
#   From: 2010.06.25/outbox.cif.g09.slc.cpg/sg15_47_cif.got.tgz:92089.got - 2010.06.28 07:06:18.
