data_PCOD8146399
_publ_section_title
;
Structure prediction by ZEFSAII (Michael W. Deem and Ramdas Pophale) SiO2 
 PCOD8146399
Probable space group: C 2/C
;
_chemical_formula_sum "Si O2"
_cell_formula_units_Z 40
_cell_length_a 16.683135
_cell_length_b 7.670008
_cell_length_c 25.894630
_cell_angle_alpha 90.000000
_cell_angle_beta 145.657253
_cell_angle_gamma 90.000000
_cell_volume 1869.268973
_symmetry_space_group_name_H-M "C 2/C"
_symmetry_group_IT_number 15
_symmetry_cell_setting 'monoclinic'
loop_
_space_group_symop_operation_xyz
x,y,z
-x,y,1/2-z
-x,-y,-z
x,-y,1/2+z
1/2+x,1/2+y,z
1/2-x,1/2+y,1/2-z
1/2-x,1/2-y,-z
1/2+x,1/2-y,1/2+z
loop_
_atom_site_type_symbol
_atom_site_label
_atom_site_fract_x
_atom_site_fract_y
_atom_site_fract_z
Si Si1 0.358148 0.853544 0.468459
Si Si2 0.902349 0.976012 0.497530
Si Si3 0.421947 0.677705 0.316290
Si Si4 0.202315 0.191504 0.418221
Si Si5 0.857638 0.521870 0.855738
O O1 0.316541 0.656572 0.462470
O O2 0.368402 0.856963 0.411840
O O3 0.244249 0.991944 0.428948
O O4 0.512256 0.887710 0.575323
O O5 0.786525 0.822408 0.424446
O O6 0.000000 0.000000 0.500000
O O7 0.999971 0.935776 0.598624
O O8 0.531092 0.708897 0.326312
O O9 0.290192 0.578003 0.221922
O O10 0.368655 0.860418 0.310680
O O11 0.250000 0.250000 0.500000
#
# Coordination Sequence:
#
# PCOD8146399 Si02
#       5
#     8   8   8   8   8
#     4  11  21  41  70  91 127 175 213 261 330 393
#     4  11  20  40  71  95 123 170 216 264 324 401
#     4  11  23  42  63  96 133 164 221 274 317 383
#     4  10  22  41  64  96 131 165 212 270 326 384
#     4  11  22  40  64  95 128 172 214 264 326 381
#
# _framework density 21.398738999999999
#
# number of rings (size 3 to 8) (size 9 to 14) (size 15 to 20)
#    0.000    1.200    6.000    2.400    0.000    4.000 
#    3.600    0.000    0.000    0.000    0.000    0.000 
#    0.000    0.000    0.000    0.000    0.000    0.000 
#
# Total GULP energy -247983.611842 kJ/mol
# GULP energy per Si atom -12399.180592 kJ/mol
# Density = 2.135003 g / cm^3
# Si number density = 21.398739 Si / 1000 Ang^3
#
#
#
# Elastic Constant Matrix: (Units=GPa)
#
#
# Indices 1 2 3 4 5 6 
#
# 1 103.2259 35.0817 23.4494 0.0001 32.2254 0.0000
# 2 35.0817 135.8082 34.0309 0.0002 20.3509 0.0000
# 3 23.4494 34.0309 91.9823 0.0000 35.1116 0.0000
# 4 0.0001 0.0002 0.0000 22.3545 0.0000 3.4804
# 5 32.2254 20.3509 35.1116 0.0000 40.4649 0.0000
# 6 0.0000 0.0000 0.0000 3.4804 0.0000 41.9820
#
#
#
# Elastic Compliance Matrix: (Units=1/GPa)
#
#
# Indices 1 2 3 4 5 6 
#
# 1 0.013531 -0.002241 0.001589 0.000000 -0.011027 0.000000
# 2 -0.002241 0.008621 -0.002459 0.000000 -0.000417 0.000000
# 3 0.001589 -0.002459 0.017027 0.000000 -0.014803 0.000000
# 4 0.000000 0.000000 0.000000 0.045319 0.000000 -0.003757
# 5 -0.011027 -0.000417 -0.014803 0.000000 0.046550 0.000000
# 6 0.000000 0.000000 0.000000 -0.003757 0.000000 0.024131
#
#
# Mechanical properties :
#
#
# Convention : Reuss Voigt Hill
#
# Bulk Modulus (GPa) = 30.34255 57.34893 43.84574
# Shear Modulus (GPa) = 29.00481 36.85724 32.93102
#
# Velocity S-wave (km/s) = 3.68563 4.15469 3.92717
# Velocity P-wave (km/s) = 5.68526 7.06212 6.41076
#
# Compressibility (1/GPa) = 0.03295701
#
# Stress axis : x y z
#
# Youngs Moduli (GPa) = 73.90629 115.99721 58.73028
#
# Poissons Ratio (x) = 0.25994 -0.09332
# Poissons Ratio (y) = 0.16562 0.14441
# Poissons Ratio (z) = -0.11744 0.28522
#
# Static dielectric constant tensor:
#      x y z
#    x 4.344620 0.000000 0.350950 
#    y 0.000000 4.224390 0.000000 
#    z 0.350950 0.000000 3.783740 
# 
# 
# High freq. dielectric constant tensor:
#      x y z
#    x 1.844100 0.000000 0.008000 
#    y 0.000000 1.846190 0.000000 
#    z 0.008000 0.000000 1.822860 
# 
# From -- ./inp_files/202846.got.cif
#   From: 2010.06.25/outbox.cif.g09.slc.cpg/sg15_102_cif.got.tgz:202846.got - 2010.06.28 07:06:18.
