data_PCOD8146316
_publ_section_title
;
Structure prediction by ZEFSAII (Michael W. Deem and Ramdas Pophale) SiO2 
 PCOD8146316
Probable space group: C 2/C
;
_chemical_formula_sum "Si O2"
_cell_formula_units_Z 32
_cell_length_a 22.033851
_cell_length_b 8.972248
_cell_length_c 17.843600
_cell_angle_alpha 90.000000
_cell_angle_beta 23.988216
_cell_angle_gamma 90.000000
_cell_volume 1434.124260
_symmetry_space_group_name_H-M "C 2/C"
_symmetry_group_IT_number 15
_symmetry_cell_setting 'monoclinic'
loop_
_space_group_symop_operation_xyz
x,y,z
-x,y,1/2-z
-x,-y,-z
x,-y,1/2+z
1/2+x,1/2+y,z
1/2-x,1/2+y,1/2-z
1/2-x,1/2-y,-z
1/2+x,1/2-y,1/2+z
loop_
_atom_site_type_symbol
_atom_site_label
_atom_site_fract_x
_atom_site_fract_y
_atom_site_fract_z
Si Si1 0.594465 0.383020 0.073866
Si Si2 0.971751 0.622275 0.943683
Si Si3 0.417690 0.802120 0.665008
Si Si4 0.210575 0.795366 0.460854
O O1 0.500000 0.314993 0.250000
O O2 0.504107 0.342407 0.099687
O O3 0.760100 0.314102 0.885494
O O4 0.604991 0.560338 0.072591
O O5 0.973214 0.443506 0.944669
O O6 0.140066 0.680995 0.754281
O O7 0.891206 0.702857 0.105286
O O8 0.881678 0.659894 0.970350
O O9 0.250000 0.750000 0.500000
#
# Coordination Sequence:
#
# PCOD8146316 Si02
#       4
#     8   8   8   8
#     4  11  23  39  60  90 122 156 199 245 297 354
#     4  10  22  41  62  87 121 156 197 246 296 354
#     4  10  23  40  61  89 119 156 198 246 298 349
#     4  11  23  40  62  89 121 158 198 243 298 355
#
# _framework density 22.313269999999999
#
# number of rings (size 3 to 8) (size 9 to 14) (size 15 to 20)
#    0.000    1.500    0.000    4.500    0.000    9.000 
#    0.000    0.000    0.000    0.000    0.000    0.000 
#    0.000    0.000    0.000    0.000    0.000    0.000 
#
# Total GULP energy -198426.511686 kJ/mol
# GULP energy per Si atom -12401.656980 kJ/mol
# Density = 2.226248 g / cm^3
# Si number density = 22.313270 Si / 1000 Ang^3
#
#
#
# Elastic Constant Matrix: (Units=GPa)
#
#
# Indices 1 2 3 4 5 6 
#
# 1 164.6842 64.8119 38.8153 0.0000 3.3920 0.0000
# 2 64.8119 82.1377 29.2189 0.0000 -1.8834 0.0000
# 3 38.8153 29.2189 116.5960 0.0000 20.6619 0.0000
# 4 0.0000 0.0000 0.0000 25.4528 0.0000 -9.6657
# 5 3.3920 -1.8834 20.6619 0.0000 29.7819 0.0000
# 6 0.0000 0.0000 0.0000 -9.6657 0.0000 43.6280
#
#
#
# Elastic Compliance Matrix: (Units=1/GPa)
#
#
# Indices 1 2 3 4 5 6 
#
# 1 0.009002 -0.006685 -0.001214 0.000000 -0.000606 0.000000
# 2 -0.006685 0.018681 -0.003193 0.000000 0.004158 0.000000
# 3 -0.001214 -0.003193 0.011165 0.000000 -0.007809 0.000000
# 4 0.000000 0.000000 0.000000 0.042897 0.000000 0.009504
# 5 -0.000606 0.004158 -0.007809 0.000000 0.039327 0.000000
# 6 0.000000 0.000000 0.000000 0.009504 0.000000 0.025027
#
#
# Mechanical properties :
#
#
# Convention : Reuss Voigt Hill
#
# Bulk Modulus (GPa) = 60.01105 69.90113 64.95609
# Shear Modulus (GPa) = 28.76263 35.14400 31.95331
#
# Velocity S-wave (km/s) = 3.59421 3.97297 3.78833
# Velocity P-wave (km/s) = 6.64663 7.24162 6.95049
#
# Compressibility (1/GPa) = 0.01666360
#
# Stress axis : x y z
#
# Youngs Moduli (GPa) = 111.08964 53.53152 89.56706
#
# Poissons Ratio (x) = 0.35785 0.10875
# Poissons Ratio (y) = 0.74263 0.28596
# Poissons Ratio (z) = 0.13488 0.17091
#
# Static dielectric constant tensor:
#      x y z
#    x 3.886710 0.000000 0.136940 
#    y 0.000000 3.943580 0.000000 
#    z 0.136940 0.000000 4.250720 
# 
# 
# High freq. dielectric constant tensor:
#      x y z
#    x 1.876480 0.000000 0.004250 
#    y 0.000000 1.860630 0.000000 
#    z 0.004250 0.000000 1.899940 
# 
# From -- ./inp_files/53459.got.cif
#   From: 2010.06.25/outbox.cif.g09.slc.cpg/sg15_27_cif.got.tgz:53459.got - 2010.06.28 07:06:18.
