data_PCOD8146071
_publ_section_title
;
Structure prediction by ZEFSAII (Michael W. Deem and Ramdas Pophale) SiO2 
 PCOD8146071
Probable space group: C 2/C
;
_chemical_formula_sum "Si O2"
_cell_formula_units_Z 36
_cell_length_a 8.695472
_cell_length_b 11.300365
_cell_length_c 20.744667
_cell_angle_alpha 90.000000
_cell_angle_beta 59.242679
_cell_angle_gamma 90.000000
_cell_volume 1751.691692
_symmetry_space_group_name_H-M "C 2/C"
_symmetry_group_IT_number 15
_symmetry_cell_setting 'monoclinic'
loop_
_space_group_symop_operation_xyz
x,y,z
-x,y,1/2-z
-x,-y,-z
x,-y,1/2+z
1/2+x,1/2+y,z
1/2-x,1/2+y,1/2-z
1/2-x,1/2-y,-z
1/2+x,1/2-y,1/2+z
loop_
_atom_site_type_symbol
_atom_site_label
_atom_site_fract_x
_atom_site_fract_y
_atom_site_fract_z
Si Si1 0.500000 0.857844 0.250000
Si Si2 0.823457 0.249144 0.912958
Si Si3 0.251281 0.450511 0.666714
Si Si4 0.209941 0.678217 0.302092
Si Si5 0.902854 0.980358 0.335344
O O1 0.357640 0.772633 0.244557
O O2 0.377035 0.937872 0.324600
O O3 0.736532 0.359233 0.894435
O O4 0.038458 0.256588 0.867488
O O5 0.774786 0.124342 0.889086
O O6 0.750000 0.250000 0.000000
O O7 0.155974 0.397303 0.751206
O O8 0.453342 0.487756 0.640309
O O9 0.287975 0.596222 0.342526
O O10 0.000000 0.932778 0.250000
#
# Coordination Sequence:
#
# PCOD8146071 Si02
#       5
#     4   8   8   8   8
#     4  12  20  36  68  96 114 140 212 264 302 340
#     4  12  26  40  58  90 133 169 196 237 305 377
#     4  11  22  38  66  91 117 156 205 260 301 346
#     4  11  22  40  65  96 113 156 206 262 303 345
#     4  10  22  40  66  90 118 151 210 261 300 348
#
# _framework density 20.551562000000001
#
# number of rings (size 3 to 8) (size 9 to 14) (size 15 to 20)
#    0.000    0.889    7.778    1.333    3.111    1.778 
#    0.000    1.111    0.000    0.000    0.000    0.000 
#    0.000    0.000    0.000    0.000    0.000    0.000 
#
# Total GULP energy -223132.492243 kJ/mol
# GULP energy per Si atom -12396.249569 kJ/mol
# Density = 2.050479 g / cm^3
# Si number density = 20.551562 Si / 1000 Ang^3
#
#
#
# Elastic Constant Matrix: (Units=GPa)
#
#
# Indices 1 2 3 4 5 6 
#
# 1 89.4116 40.3052 26.1209 0.0000 9.8786 0.0000
# 2 40.3052 125.1891 33.0988 0.0000 15.0317 0.0000
# 3 26.1209 33.0988 87.6940 0.0000 8.1991 0.0000
# 4 0.0000 0.0000 0.0000 21.6791 0.0000 2.4185
# 5 9.8786 15.0317 8.1991 0.0000 19.3662 0.0000
# 6 0.0000 0.0000 0.0000 2.4185 0.0000 20.4072
#
#
#
# Elastic Compliance Matrix: (Units=1/GPa)
#
#
# Indices 1 2 3 4 5 6 
#
# 1 0.013815 -0.003377 -0.002527 0.000000 -0.003356 0.000000
# 2 -0.003377 0.010346 -0.002405 0.000000 -0.005290 0.000000
# 3 -0.002527 -0.002405 0.013295 0.000000 -0.002473 0.000000
# 4 0.000000 0.000000 0.000000 0.046745 0.000000 -0.005540
# 5 -0.003356 -0.005290 -0.002473 0.000000 0.058501 0.000000
# 6 0.000000 0.000000 0.000000 -0.005540 0.000000 0.049659
#
#
# Mechanical properties :
#
#
# Convention : Reuss Voigt Hill
#
# Bulk Modulus (GPa) = 47.98495 55.70495 51.84495
# Shear Modulus (GPa) = 23.15622 25.80850 24.48236
#
# Velocity S-wave (km/s) = 3.36033 3.54756 3.45522
# Velocity P-wave (km/s) = 6.20121 6.62903 6.41869
#
# Compressibility (1/GPa) = 0.02083987
#
# Stress axis : x y z
#
# Youngs Moduli (GPa) = 72.38258 96.65558 75.21781
#
# Poissons Ratio (x) = 0.32640 0.19006
# Poissons Ratio (y) = 0.24443 0.18086
# Poissons Ratio (z) = 0.18289 0.23241
#
# Static dielectric constant tensor:
#      x y z
#    x 3.816130 0.000000 0.010300 
#    y 0.000000 4.082870 0.000000 
#    z 0.010300 0.000000 3.146680 
# 
# 
# High freq. dielectric constant tensor:
#      x y z
#    x 1.814290 0.000000 0.001020 
#    y 0.000000 1.832800 0.000000 
#    z 0.001020 0.000000 1.738490 
# 
# From -- ./inp_files/181682.got.cif
#   From: 2010.06.25/outbox.cif.g09.slc.cpg/sg15_91_cif.got.tgz:181682.got - 2010.06.28 07:06:18.
