data_PCOD8146465
_publ_section_title
;
Structure prediction by ZEFSAII (Michael W. Deem and Ramdas Pophale) SiO2 
 PCOD8146465
Probable space group: C 2/C
;
_chemical_formula_sum "Si O2"
_cell_formula_units_Z 44
_cell_length_a 12.579332
_cell_length_b 12.955147
_cell_length_c 12.358859
_cell_angle_alpha 90.000000
_cell_angle_beta 88.428699
_cell_angle_gamma 90.000000
_cell_volume 2013.330005
_symmetry_space_group_name_H-M "C 2/C"
_symmetry_group_IT_number 15
_symmetry_cell_setting 'monoclinic'
loop_
_space_group_symop_operation_xyz
x,y,z
-x,y,1/2-z
-x,-y,-z
x,-y,1/2+z
1/2+x,1/2+y,z
1/2-x,1/2+y,1/2-z
1/2-x,1/2-y,-z
1/2+x,1/2-y,1/2+z
loop_
_atom_site_type_symbol
_atom_site_label
_atom_site_fract_x
_atom_site_fract_y
_atom_site_fract_z
Si Si1 0.810501 0.660290 0.842673
Si Si2 0.369560 0.958344 0.126715
Si Si3 0.671024 0.396487 0.639631
Si Si4 0.500000 0.497986 0.250000
Si Si5 0.021309 0.638473 0.470853
Si Si6 0.422101 0.640189 0.579983
O O1 0.865271 0.606259 0.737808
O O2 0.787549 0.782888 0.832051
O O3 0.883627 0.635784 0.943185
O O4 0.692519 0.618348 0.863002
O O5 0.405307 0.877173 0.031233
O O6 0.260728 0.019717 0.107348
O O7 0.461686 0.046821 0.118116
O O8 0.605868 0.432734 0.746487
O O9 0.585463 0.388883 0.545177
O O10 0.494586 0.430341 0.359089
O O11 0.028630 0.745705 0.407680
#
# Coordination Sequence:
#
# PCOD8146465 Si02
#       6
#     8   8   8   4   8   8
#     4  11  21  41  68  91 128 174 214 251 316 394
#     4  11  21  39  66  98 124 165 217 257 312 376
#     4  11  23  42  66  93 128 172 212 258 318 390
#     4  12  26  42  66  92 130 164 218 262 324 370
#     4  10  22  41  65  97 129 167 211 265 316 379
#     4  11  22  44  64  92 128 169 210 266 315 376
#
# _framework density 21.854341999999999
#
# number of rings (size 3 to 8) (size 9 to 14) (size 15 to 20)
#    0.000    1.091    5.455    2.182    5.091    0.000 
#    6.545    2.727    0.000    0.000    0.000    0.000 
#    0.000    0.000    0.000    0.000    0.000    0.000 
#
# Total GULP energy -272602.370463 kJ/mol
# GULP energy per Si atom -12391.016839 kJ/mol
# Density = 2.180460 g / cm^3
# Si number density = 21.854342 Si / 1000 Ang^3
#
#
#
# Elastic Constant Matrix: (Units=GPa)
#
#
# Indices 1 2 3 4 5 6 
#
# 1 64.3206 33.1076 10.0998 0.0000 -27.0105 0.0000
# 2 33.1076 85.5631 37.3841 0.0000 -8.1212 0.0000
# 3 10.0998 37.3841 74.7014 0.0000 -20.2481 0.0000
# 4 0.0000 0.0000 0.0000 39.0105 0.0000 -10.7544
# 5 -27.0105 -8.1212 -20.2481 0.0000 42.8381 0.0000
# 6 0.0000 0.0000 0.0000 -10.7544 0.0000 27.2474
#
#
#
# Elastic Compliance Matrix: (Units=1/GPa)
#
#
# Indices 1 2 3 4 5 6 
#
# 1 0.029184 -0.012838 0.007807 0.000000 0.019658 0.000000
# 2 -0.012838 0.020629 -0.011151 0.000000 -0.009454 0.000000
# 3 0.007807 -0.011151 0.021417 0.000000 0.012932 0.000000
# 4 0.000000 0.000000 0.000000 0.028764 0.000000 0.011353
# 5 0.019658 -0.009454 0.012932 0.000000 0.040058 0.000000
# 6 0.000000 0.000000 0.000000 0.011353 0.000000 0.041182
#
#
# Mechanical properties :
#
#
# Convention : Reuss Voigt Hill
#
# Bulk Modulus (GPa) = 25.72858 42.86313 34.29585
# Shear Modulus (GPa) = 22.06993 31.41876 26.74435
#
# Velocity S-wave (km/s) = 3.18128 3.79574 3.50202
# Velocity P-wave (km/s) = 5.02916 6.23425 5.66385
#
# Compressibility (1/GPa) = 0.03886729
#
# Stress axis : x y z
#
# Youngs Moduli (GPa) = 34.26526 48.47469 46.69269
#
# Poissons Ratio (x) = 0.62230 -0.36454
# Poissons Ratio (y) = 0.43989 0.52066
# Poissons Ratio (z) = -0.26751 0.54053
#
# Static dielectric constant tensor:
#      x y z
#    x 3.726620 0.000000 -0.321900 
#    y 0.000000 4.181090 0.000000 
#    z -0.321900 0.000000 3.856890 
# 
# 
# High freq. dielectric constant tensor:
#      x y z
#    x 1.843530 0.000000 -0.031260 
#    y 0.000000 1.873390 0.000000 
#    z -0.031260 0.000000 1.848310 
# 
# From -- ./inp_files/94979.got.cif
#   From: 2010.06.25/outbox.cif.g09.slc.cpg/sg15_48_cif.got.tgz:94979.got - 2010.06.28 07:06:18.
