data_PCOD8146077
_publ_section_title
;
Structure prediction by ZEFSAII (Michael W. Deem and Ramdas Pophale) SiO2 
 PCOD8146077
Probable space group: C 2/C
;
_chemical_formula_sum "Si O2"
_cell_formula_units_Z 36
_cell_length_a 15.012115
_cell_length_b 26.159674
_cell_length_c 8.679185
_cell_angle_alpha 90.000000
_cell_angle_beta 31.155785
_cell_angle_gamma 90.000000
_cell_volume 1763.403462
_symmetry_space_group_name_H-M "C 2/C"
_symmetry_group_IT_number 15
_symmetry_cell_setting 'monoclinic'
loop_
_space_group_symop_operation_xyz
x,y,z
-x,y,1/2-z
-x,-y,-z
x,-y,1/2+z
1/2+x,1/2+y,z
1/2-x,1/2+y,1/2-z
1/2-x,1/2-y,-z
1/2+x,1/2-y,1/2+z
loop_
_atom_site_type_symbol
_atom_site_label
_atom_site_fract_x
_atom_site_fract_y
_atom_site_fract_z
Si Si1 0.885915 0.219033 0.195983
Si Si2 0.808261 0.373135 0.483604
Si Si3 0.802358 0.848992 0.197595
Si Si4 0.515820 0.554996 0.405192
Si Si5 0.500000 0.789054 0.750000
O O1 0.750000 0.250000 0.500000
O O2 0.769427 0.173126 0.297302
O O3 0.974402 0.254085 0.937278
O O4 0.041909 0.191559 0.058117
O O5 0.789093 0.357335 0.332097
O O6 0.704162 0.424740 0.672353
O O7 0.000000 0.384391 0.250000
O O8 0.666322 0.825722 0.520588
O O9 0.872293 0.902552 0.165412
O O10 0.500000 0.546911 0.250000
O O11 0.500000 0.500000 0.500000
#
# Coordination Sequence:
#
# PCOD8146077 Si02
#       5
#     8   8   8   8   4
#     4  11  23  39  65  88 132 176 213 258 317 377
#     4  10  22  40  66  91 126 172 216 256 323 385
#     4  10  23  44  61  93 134 169 213 266 316 389
#     4   9  20  45  68  88 124 166 208 270 335 379
#     4  12  24  36  64  98 130 170 224 250 322 380
#
# _framework density 20.415068000000002
#
# number of rings (size 3 to 8) (size 9 to 14) (size 15 to 20)
#    0.000    1.778    2.222    2.667    3.111    1.778 
#   14.000    2.222    0.000    0.000    0.000    0.000 
#    0.000    0.000    0.000    0.000    0.000    0.000 
#
# Total GULP energy -222989.713131 kJ/mol
# GULP energy per Si atom -12388.317396 kJ/mol
# Density = 2.036860 g / cm^3
# Si number density = 20.415068 Si / 1000 Ang^3
#
#
#
# Elastic Constant Matrix: (Units=GPa)
#
#
# Indices 1 2 3 4 5 6 
#
# 1 84.9739 64.3557 60.3382 0.0000 -29.5685 0.0000
# 2 64.3557 199.1493 102.9058 0.0000 -13.7080 0.0000
# 3 60.3382 102.9058 155.7700 0.0000 -19.6879 0.0001
# 4 0.0000 0.0000 0.0000 41.7736 0.0000 9.0063
# 5 -29.5685 -13.7080 -19.6879 0.0000 42.0165 0.0000
# 6 0.0000 0.0000 0.0001 9.0063 0.0000 21.4755
#
#
#
# Elastic Compliance Matrix: (Units=1/GPa)
#
#
# Indices 1 2 3 4 5 6 
#
# 1 0.022227 -0.004085 -0.004361 0.000000 0.012266 0.000000
# 2 -0.004085 0.008375 -0.004218 0.000000 -0.002119 0.000000
# 3 -0.004361 -0.004218 0.010984 0.000000 0.000702 0.000000
# 4 0.000000 0.000000 0.000000 0.026318 0.000000 -0.011037
# 5 0.012266 -0.002119 0.000702 0.000000 0.032070 0.000000
# 6 0.000000 0.000000 0.000000 -0.011037 0.000000 0.051193
#
#
# Mechanical properties :
#
#
# Convention : Reuss Voigt Hill
#
# Bulk Modulus (GPa) = 61.50765 99.45473 80.48119
# Shear Modulus (GPa) = 27.48530 35.20602 31.34566
#
# Velocity S-wave (km/s) = 3.67321 4.15723 3.92269
# Velocity P-wave (km/s) = 6.94146 8.47735 7.74756
#
# Compressibility (1/GPa) = 0.01625814
#
# Stress axis : x y z
#
# Youngs Moduli (GPa) = 44.99096 119.39718 91.03840
#
# Poissons Ratio (x) = 0.48775 0.39698
# Poissons Ratio (y) = 0.18379 0.38404
# Poissons Ratio (z) = 0.19619 0.50367
#
# Static dielectric constant tensor:
#      x y z
#    x 3.571950 0.000000 -0.085740 
#    y 0.000000 3.603300 0.000000 
#    z -0.085740 0.000000 4.110620 
# 
# 
# High freq. dielectric constant tensor:
#      x y z
#    x 1.778710 0.000000 -0.016490 
#    y 0.000000 1.805610 0.000000 
#    z -0.016490 0.000000 1.801700 
# 
# From -- ./inp_files/23853.got.cif
#   From: 2010.06.25/outbox.cif.g09.slc.cpg/sg15_12_cif.got.tgz:23853.got - 2010.06.28 07:06:18.
