data_PCOD8146343
_publ_section_title
;
Structure prediction by ZEFSAII (Michael W. Deem and Ramdas Pophale) SiO2 
 PCOD8146343
Probable space group: C 2/C
;
_chemical_formula_sum "Si O2"
_cell_formula_units_Z 48
_cell_length_a 30.642340
_cell_length_b 9.390904
_cell_length_c 17.053764
_cell_angle_alpha 90.000000
_cell_angle_beta 154.643362
_cell_angle_gamma 90.000000
_cell_volume 2101.591606
_symmetry_space_group_name_H-M "C 2/C"
_symmetry_group_IT_number 15
_symmetry_cell_setting 'monoclinic'
loop_
_space_group_symop_operation_xyz
x,y,z
-x,y,1/2-z
-x,-y,-z
x,-y,1/2+z
1/2+x,1/2+y,z
1/2-x,1/2+y,1/2-z
1/2-x,1/2-y,-z
1/2+x,1/2-y,1/2+z
loop_
_atom_site_type_symbol
_atom_site_label
_atom_site_fract_x
_atom_site_fract_y
_atom_site_fract_z
Si Si1 0.643412 0.204237 0.911231
Si Si2 0.084281 0.202023 0.643776
Si Si3 0.368420 0.387232 0.748553
Si Si4 0.143763 0.364995 0.048424
Si Si5 0.915785 0.401159 0.717319
Si Si6 0.673053 0.820660 0.629567
O O1 0.617416 0.346316 0.820522
O O2 0.585298 0.072550 0.773341
O O3 0.765190 0.181660 0.112386
O O4 0.608823 0.217396 0.945978
O O5 0.122248 0.323618 0.765733
O O6 0.113406 0.249360 0.603939
O O7 0.962766 0.175664 0.451465
O O8 0.140873 0.056786 0.759282
O O9 0.211938 0.236701 0.190399
O O10 0.183070 0.509749 0.153014
O O11 0.156640 0.369037 0.974658
O O12 0.027483 0.340299 0.882138
#
# Coordination Sequence:
#
# PCOD8146343 Si02
#       6
#     8   8   8   8   8   8
#     4  10  22  42  64  88 122 165 207 252 306 368
#     4  11  23  40  63  93 125 160 204 257 309 363
#     4  10  23  41  62  90 124 160 207 255 306 366
#     4  10  23  41  62  90 123 163 207 252 304 365
#     4  10  22  41  63  89 123 162 206 252 306 367
#     4  11  23  39  64  92 123 159 205 255 307 363
#
# _framework density 22.839832000000001
#
# number of rings (size 3 to 8) (size 9 to 14) (size 15 to 20)
#    0.000    1.667    0.000    4.000    0.000   12.667 
#    0.000    3.333    0.000    2.000    0.000    0.000 
#    0.000    0.000    0.000    0.000    0.000    0.000 
#
# Total GULP energy -297639.794291 kJ/mol
# GULP energy per Si atom -12401.658095 kJ/mol
# Density = 2.278785 g / cm^3
# Si number density = 22.839832 Si / 1000 Ang^3
#
#
#
# Elastic Constant Matrix: (Units=GPa)
#
#
# Indices 1 2 3 4 5 6 
#
# 1 111.1372 54.6725 13.5916 0.0000 -33.4265 0.0000
# 2 54.6725 115.1566 42.8304 0.0000 -32.6891 0.0000
# 3 13.5916 42.8304 73.9292 0.0000 -5.5701 0.0000
# 4 0.0000 0.0000 0.0000 42.1218 0.0000 -9.3948
# 5 -33.4265 -32.6891 -5.5701 0.0000 35.6329 0.0000
# 6 0.0000 0.0000 0.0000 -9.3948 0.0000 35.0683
#
#
#
# Elastic Compliance Matrix: (Units=1/GPa)
#
#
# Indices 1 2 3 4 5 6 
#
# 1 0.013713 -0.004110 0.000552 0.000000 0.009180 0.000000
# 2 -0.004110 0.016454 -0.008025 0.000000 0.009985 0.000000
# 3 0.000552 -0.008025 0.017768 0.000000 -0.004067 0.000000
# 4 0.000000 0.000000 0.000000 0.025249 0.000000 0.006764
# 5 0.009180 0.009985 -0.004067 0.000000 0.045200 0.000000
# 6 0.000000 0.000000 0.000000 0.006764 0.000000 0.030328
#
#
# Mechanical properties :
#
#
# Convention : Reuss Voigt Hill
#
# Bulk Modulus (GPa) = 40.37292 58.04579 49.20936
# Shear Modulus (GPa) = 27.75705 35.17318 31.46512
#
# Velocity S-wave (km/s) = 3.48989 3.92853 3.71569
# Velocity P-wave (km/s) = 5.82700 6.78581 6.32460
#
# Compressibility (1/GPa) = 0.02476908
#
# Stress axis : x y z
#
# Youngs Moduli (GPa) = 72.92205 60.77539 56.28199
#
# Poissons Ratio (x) = 0.24978 -0.03104
# Poissons Ratio (y) = 0.29970 0.45164
# Poissons Ratio (z) = -0.04022 0.48770
#
# Static dielectric constant tensor:
#      x y z
#    x 4.131350 0.000000 -0.085640 
#    y 0.000000 3.954730 0.000000 
#    z -0.085640 0.000000 4.139370 
# 
# 
# High freq. dielectric constant tensor:
#      x y z
#    x 1.904190 0.000000 0.000540 
#    y 0.000000 1.885660 0.000000 
#    z 0.000540 0.000000 1.910910 
# 
# From -- ./inp_files/177904.got.cif
#   From: 2010.06.25/outbox.cif.g09.slc.cpg/sg15_89_cif.got.tgz:177904.got - 2010.06.28 07:06:18.
