data_PCOD8146902
_publ_section_title
;
Structure prediction by ZEFSAII (Michael W. Deem and Ramdas Pophale) SiO2 
 PCOD8146902
Probable space group: C 2/C
;
_chemical_formula_sum "Si O2"
_cell_formula_units_Z 52
_cell_length_a 12.980331
_cell_length_b 30.263781
_cell_length_c 8.173152
_cell_angle_alpha 90.000000
_cell_angle_beta 45.934871
_cell_angle_gamma 90.000000
_cell_volume 2307.041172
_symmetry_space_group_name_H-M "C 2/C"
_symmetry_group_IT_number 15
_symmetry_cell_setting 'monoclinic'
loop_
_space_group_symop_operation_xyz
x,y,z
-x,y,1/2-z
-x,-y,-z
x,-y,1/2+z
1/2+x,1/2+y,z
1/2-x,1/2+y,1/2-z
1/2-x,1/2-y,-z
1/2+x,1/2-y,1/2+z
loop_
_atom_site_type_symbol
_atom_site_label
_atom_site_fract_x
_atom_site_fract_y
_atom_site_fract_z
Si Si1 0.000000 0.010498 0.750000
Si Si2 0.765995 0.701160 0.817295
Si Si3 0.520089 0.864723 0.542894
Si Si4 0.719754 0.344255 0.703935
Si Si5 0.973678 0.774099 0.462825
Si Si6 0.464218 0.952862 0.477648
Si Si7 0.145157 0.942348 0.796311
O O1 0.125762 0.975802 0.663860
O O2 0.036000 0.042987 0.560064
O O3 0.831029 0.655708 0.679362
O O4 0.892171 0.737185 0.659947
O O5 0.626569 0.716804 0.875279
O O6 0.723524 0.690477 0.050177
O O7 0.500000 0.850267 0.750000
O O8 0.381514 0.851112 0.588381
O O9 0.548779 0.916915 0.491714
O O10 0.636499 0.390413 0.754072
O O11 0.621419 0.318838 0.945121
O O12 0.000000 0.756327 0.250000
O O13 0.500000 0.944740 0.250000
O O14 0.299426 0.947820 0.702337
O O15 0.500000 0.000000 0.500000
#
# Coordination Sequence:
#
# PCOD8146902 Si02
#       7
#     4   8   8   8   8   8   8
#     4  10  22  42  66  94 138 182 224 288 342 410
#     4  12  25  45  71 101 137 182 225 288 346 418
#     4  11  23  43  67  97 135 181 228 291 346 411
#     4  11  25  44  67 101 138 178 236 280 349 419
#     4  12  26  45  71 104 136 179 226 285 351 421
#     4  11  22  40  64  98 134 179 233 287 349 416
#     4  10  23  41  65  97 135 180 230 281 347 406
#
# _framework density 22.539694000000001
#
# number of rings (size 3 to 8) (size 9 to 14) (size 15 to 20)
#    0.000    0.923    0.000    7.385    3.231    2.462 
#    2.769    0.000    0.000    0.000    0.000    0.000 
#    0.000    0.000    0.000    0.000    0.000    0.000 
#
# Total GULP energy -322314.574587 kJ/mol
# GULP energy per Si atom -12396.714407 kJ/mol
# Density = 2.248839 g / cm^3
# Si number density = 22.539694 Si / 1000 Ang^3
#
#
#
# Elastic Constant Matrix: (Units=GPa)
#
#
# Indices 1 2 3 4 5 6 
#
# 1 101.4570 47.9973 31.2794 0.0000 1.7134 0.0000
# 2 47.9973 150.3852 46.7048 0.0000 -15.9400 0.0000
# 3 31.2794 46.7048 88.9516 0.0000 -0.6048 0.0000
# 4 0.0000 0.0000 0.0000 35.3531 0.0000 3.5302
# 5 1.7134 -15.9400 -0.6048 0.0000 38.6903 0.0000
# 6 0.0000 0.0000 0.0000 3.5302 0.0000 26.7245
#
#
#
# Elastic Compliance Matrix: (Units=1/GPa)
#
#
# Indices 1 2 3 4 5 6 
#
# 1 0.012254 -0.003316 -0.002581 0.000000 -0.001949 0.000000
# 2 -0.003316 0.009262 -0.003670 0.000000 0.003905 0.000000
# 3 -0.002581 -0.003670 0.014069 0.000000 -0.001178 0.000000
# 4 0.000000 0.000000 0.000000 0.028664 0.000000 -0.003786
# 5 -0.001949 0.003905 -0.001178 0.000000 0.027523 0.000000
# 6 0.000000 0.000000 0.000000 -0.003786 0.000000 0.037919
#
#
# Mechanical properties :
#
#
# Convention : Reuss Voigt Hill
#
# Bulk Modulus (GPa) = 60.79230 65.86188 63.32709
# Shear Modulus (GPa) = 32.40256 34.47439 33.43848
#
# Velocity S-wave (km/s) = 3.79565 3.91512 3.85585
# Velocity P-wave (km/s) = 6.79993 7.05134 6.92678
#
# Compressibility (1/GPa) = 0.01644945
#
# Stress axis : x y z
#
# Youngs Moduli (GPa) = 81.60747 107.97113 71.07882
#
# Poissons Ratio (x) = 0.35802 0.18347
# Poissons Ratio (y) = 0.27060 0.26089
# Poissons Ratio (z) = 0.21064 0.39630
#
# Static dielectric constant tensor:
#      x y z
#    x 4.237020 0.000000 0.143520 
#    y 0.000000 4.846730 0.000000 
#    z 0.143520 0.000000 4.171660 
# 
# 
# High freq. dielectric constant tensor:
#      x y z
#    x 1.879530 0.000000 -0.001950 
#    y 0.000000 1.912790 0.000000 
#    z -0.001950 0.000000 1.896300 
# 
# From -- ./inp_files/44791.got.cif
#   From: 2010.06.25/outbox.cif.g09.slc.cpg/sg15_23_cif.got.tgz:44791.got - 2010.06.28 07:06:18.
