data_PCOD8146531
_publ_section_title
;
Structure prediction by ZEFSAII (Michael W. Deem and Ramdas Pophale) SiO2 
 PCOD8146531
Probable space group: C 2/C
;
_chemical_formula_sum "Si O2"
_cell_formula_units_Z 56
_cell_length_a 21.137338
_cell_length_b 27.803279
_cell_length_c 9.255247
_cell_angle_alpha 90.000000
_cell_angle_beta 148.664867
_cell_angle_gamma 90.000000
_cell_volume 2828.613060
_symmetry_space_group_name_H-M "C 2/C"
_symmetry_group_IT_number 15
_symmetry_cell_setting 'monoclinic'
loop_
_space_group_symop_operation_xyz
x,y,z
-x,y,1/2-z
-x,-y,-z
x,-y,1/2+z
1/2+x,1/2+y,z
1/2-x,1/2+y,1/2-z
1/2-x,1/2-y,-z
1/2+x,1/2-y,1/2+z
loop_
_atom_site_type_symbol
_atom_site_label
_atom_site_fract_x
_atom_site_fract_y
_atom_site_fract_z
Si Si1 0.000000 0.749229 0.750000
Si Si2 0.666183 0.170636 0.938044
Si Si3 0.136769 0.131390 0.974819
Si Si4 0.000000 0.594643 0.750000
Si Si5 0.682336 0.703648 0.808366
Si Si6 0.138112 0.654462 0.561843
Si Si7 0.296169 0.043826 0.186666
Si Si8 0.858278 0.455545 0.477488
O O1 0.888737 0.718122 0.595831
O O2 0.942359 0.782586 0.514691
O O3 0.576525 0.126468 0.789249
O O4 0.675426 0.179535 0.785048
O O5 0.795804 0.156568 0.258462
O O6 0.142439 0.168787 0.856959
O O7 0.000000 0.120298 0.750000
O O8 0.192070 0.080228 0.035773
O O9 0.924572 0.562448 0.494172
O O10 0.775623 0.675087 0.891498
O O11 0.750000 0.750000 0.000000
O O12 0.159013 0.597729 0.617498
O O13 0.000000 0.667013 0.250000
O O14 0.278413 0.990775 0.219830
O O15 0.301287 0.040014 0.025031
O O16 0.000000 0.470187 0.750000
#
# Coordination Sequence:
#
# PCOD8146531 Si02
#       8
#     4   8   8   4   8   8   8   8
#     4  11  24  42  70  96 132 168 228 268 325 384
#     4  10  22  41  67  95 126 172 218 268 325 387
#     4  11  26  47  67  90 135 182 224 267 330 396
#     4   9  18  34  64  90 134 164 202 266 331 392
#     4  12  25  46  67  97 136 177 214 280 329 391
#     4  11  24  40  66 100 137 168 216 270 336 399
#     4  11  22  39  62  98 132 169 215 273 334 393
#     4  11  22  36  65 101 133 166 213 275 341 392
#
# _framework density 19.797688999999998
#
# number of rings (size 3 to 8) (size 9 to 14) (size 15 to 20)
#    0.000    1.143    3.571    3.000    8.000    2.286 
#    0.000    0.714    1.571    0.000    0.000    0.000 
#    0.000    0.000    0.000    0.000    0.000    0.000 
#
# Total GULP energy -347288.965714 kJ/mol
# GULP energy per Si atom -12403.177347 kJ/mol
# Density = 1.975263 g / cm^3
# Si number density = 19.797689 Si / 1000 Ang^3
#
#
#
# Elastic Constant Matrix: (Units=GPa)
#
#
# Indices 1 2 3 4 5 6 
#
# 1 109.9049 29.0585 51.1195 0.0000 -4.6884 0.0000
# 2 29.0585 90.9536 36.8123 0.0000 8.1065 0.0000
# 3 51.1195 36.8123 119.3538 0.0000 2.7148 0.0000
# 4 0.0000 0.0000 0.0000 29.5357 0.0000 -17.6176
# 5 -4.6884 8.1065 2.7148 0.0000 36.4080 0.0000
# 6 0.0000 0.0000 0.0000 -17.6176 0.0000 5.6294
#
#
#
# Elastic Compliance Matrix: (Units=1/GPa)
#
#
# Indices 1 2 3 4 5 6 
#
# 1 0.011849 -0.002193 -0.004452 0.000000 0.002346 0.000000
# 2 -0.002193 0.013202 -0.003065 0.000000 -0.002993 0.000000
# 3 -0.004452 -0.003065 0.011247 0.000000 -0.000730 0.000000
# 4 0.000000 0.000000 0.000000 -0.039064 0.000000 -0.122251
# 5 0.002346 -0.002993 -0.000730 0.000000 0.028490 0.000000
# 6 0.000000 0.000000 0.000000 -0.122251 0.000000 -0.204952
#
#
# Mechanical properties :
#
#
# Convention : Reuss Voigt Hill
#
# Bulk Modulus (GPa) = 59.24343 61.57699 60.41021
# Shear Modulus (GPa) = -32.42936 27.86275 -2.28330
#
# Velocity S-wave (km/s) = -4.05166 3.75557 -1.07509
# Velocity P-wave (km/s) = 2.84631 7.06940 5.38878
#
# Compressibility (1/GPa) = 0.01687951
#
# Stress axis : x y z
#
# Youngs Moduli (GPa) = 84.39197 75.74366 88.91131
#
# Poissons Ratio (x) = 0.16610 0.39585
# Poissons Ratio (y) = 0.18506 0.27249
# Poissons Ratio (z) = 0.37573 0.23213
#
# Static dielectric constant tensor:
#      x y z
#    x 3.548340 0.000000 -0.133600 
#    y 0.000000 3.892110 0.000000 
#    z -0.133600 0.000000 3.623360 
# 
# 
# High freq. dielectric constant tensor:
#      x y z
#    x 1.777100 0.000000 -0.015540 
#    y 0.000000 1.784240 0.000000 
#    z -0.015540 0.000000 1.761010 
# 
# From -- ./inp_files/59383.got.cif
#   From: 2010.06.25/outbox.cif.g09.slc.cpg/sg15_30_cif.got.tgz:59383.got - 2010.06.28 07:06:18.
