data_PCOD8146309
_publ_section_title
;
Structure prediction by ZEFSAII (Michael W. Deem and Ramdas Pophale) SiO2 
 PCOD8146309
Probable space group: C 2/C
;
_chemical_formula_sum "Si O2"
_cell_formula_units_Z 64
_cell_length_a 11.766917
_cell_length_b 12.314797
_cell_length_c 23.717254
_cell_angle_alpha 90.000000
_cell_angle_beta 120.968352
_cell_angle_gamma 90.000000
_cell_volume 2946.890482
_symmetry_space_group_name_H-M "C 2/C"
_symmetry_group_IT_number 15
_symmetry_cell_setting 'monoclinic'
loop_
_space_group_symop_operation_xyz
x,y,z
-x,y,1/2-z
-x,-y,-z
x,-y,1/2+z
1/2+x,1/2+y,z
1/2-x,1/2+y,1/2-z
1/2-x,1/2-y,-z
1/2+x,1/2-y,1/2+z
loop_
_atom_site_type_symbol
_atom_site_label
_atom_site_fract_x
_atom_site_fract_y
_atom_site_fract_z
Si Si1 0.423837 0.243614 0.599274
Si Si2 0.875682 0.065099 0.903832
Si Si3 0.846537 0.570658 0.211519
Si Si4 0.072243 0.479096 0.459373
Si Si5 0.858250 0.958908 0.529674
Si Si6 0.274903 0.746262 0.171372
Si Si7 0.212816 0.720256 0.694473
Si Si8 0.678567 0.979685 0.669728
O O1 0.397083 0.145648 0.549003
O O2 0.340145 0.347520 0.559287
O O3 0.384805 0.213892 0.654177
O O4 0.578791 0.271367 0.635424
O O5 0.859534 0.187748 0.876944
O O6 0.745097 0.992463 0.856431
O O7 0.888155 0.072099 0.973537
O O8 0.014488 0.023164 0.913109
O O9 0.830691 0.701855 0.202649
O O10 0.791739 0.539136 0.257979
O O11 0.000000 0.537407 0.250000
O O12 0.221380 0.529721 0.500731
O O13 0.000000 0.500000 0.500000
O O14 0.978059 0.528242 0.386247
O O15 0.309412 0.782022 0.243677
O O16 0.255660 0.616556 0.157192
O O17 0.235197 0.600699 0.672464
#
# Coordination Sequence:
#
# PCOD8146309 Si02
#       8
#     8   8   8   8   8   8   8   8
#     4  11  22  40  67  93 127 170 227 274 325 382
#     4  11  23  40  68  97 132 170 228 268 340 392
#     4  11  22  41  66  91 130 171 214 268 335 407
#     4  11  23  39  63  95 130 172 220 269 334 392
#     4  11  23  41  65  95 132 176 219 282 326 397
#     4  11  22  40  68  98 125 173 222 278 324 394
#     4  10  22  41  61  98 129 167 212 275 332 394
#     4  10  23  40  64  93 128 165 222 270 325 394
#
# _framework density 21.717808000000002
#
# number of rings (size 3 to 8) (size 9 to 14) (size 15 to 20)
#    0.000    1.250    3.750    2.250    3.500    0.000 
#    0.000   10.625    0.000    0.000    0.000    0.000 
#    0.000    0.000    0.000    0.000    0.000    0.000 
#
# Total GULP energy -396513.304483 kJ/mol
# GULP energy per Si atom -12391.040765 kJ/mol
# Density = 2.166838 g / cm^3
# Si number density = 21.717808 Si / 1000 Ang^3
#
#
#
# Elastic Constant Matrix: (Units=GPa)
#
#
# Indices 1 2 3 4 5 6 
#
# 1 72.7803 20.1851 14.2722 0.0000 12.7351 0.0000
# 2 20.1851 114.4444 23.6776 0.0000 2.4680 0.0000
# 3 14.2722 23.6776 75.2268 0.0000 10.3455 0.0000
# 4 0.0000 0.0000 0.0000 28.0910 0.0000 -1.5931
# 5 12.7351 2.4680 10.3455 0.0000 38.9233 0.0000
# 6 0.0000 0.0000 0.0000 -1.5931 0.0000 20.2387
#
#
#
# Elastic Compliance Matrix: (Units=1/GPa)
#
#
# Indices 1 2 3 4 5 6 
#
# 1 0.015478 -0.002303 -0.001593 0.000000 -0.004495 0.000000
# 2 -0.002303 0.009691 -0.002732 0.000000 0.000865 0.000000
# 3 -0.001593 -0.002732 0.014905 0.000000 -0.003267 0.000000
# 4 0.000000 0.000000 0.000000 0.035758 0.000000 0.002815
# 5 -0.004495 0.000865 -0.003267 0.000000 0.027976 0.000000
# 6 0.000000 0.000000 0.000000 0.002815 0.000000 0.049632
#
#
# Mechanical properties :
#
#
# Convention : Reuss Voigt Hill
#
# Bulk Modulus (GPa) = 37.29205 42.08016 39.68610
# Shear Modulus (GPa) = 28.46814 31.07171 29.76992
#
# Velocity S-wave (km/s) = 3.62445 3.78657 3.70640
# Velocity P-wave (km/s) = 5.89271 6.20769 6.05225
#
# Compressibility (1/GPa) = 0.02681537
#
# Stress axis : x y z
#
# Youngs Moduli (GPa) = 64.60912 103.19168 67.09306
#
# Poissons Ratio (x) = 0.23768 0.10691
# Poissons Ratio (y) = 0.14881 0.18331
# Poissons Ratio (z) = 0.10295 0.28194
#
# Static dielectric constant tensor:
#      x y z
#    x 3.834150 0.000000 0.286710 
#    y 0.000000 4.031260 0.000000 
#    z 0.286710 0.000000 4.111930 
# 
# 
# High freq. dielectric constant tensor:
#      x y z
#    x 1.831250 0.000000 0.015870 
#    y 0.000000 1.845200 0.000000 
#    z 0.015870 0.000000 1.870720 
# 
# From -- ./inp_files/269287.got.cif
#   From: 2010.06.25/outbox.cif.g09.slc.cpg/sg15_135_cif.got.tgz:269287.got - 2010.06.28 07:06:18.
