data_PCOD8146165
_publ_section_title
;
Structure prediction by ZEFSAII (Michael W. Deem and Ramdas Pophale) SiO2 
 PCOD8146165
Probable space group: C 2/C
;
_chemical_formula_sum "Si O2"
_cell_formula_units_Z 64
_cell_length_a 8.705430
_cell_length_b 15.662473
_cell_length_c 30.760957
_cell_angle_alpha 90.000000
_cell_angle_beta 132.928873
_cell_angle_gamma 90.000000
_cell_volume 3071.001258
_symmetry_space_group_name_H-M "C 2/C"
_symmetry_group_IT_number 15
_symmetry_cell_setting 'monoclinic'
loop_
_space_group_symop_operation_xyz
x,y,z
-x,y,1/2-z
-x,-y,-z
x,-y,1/2+z
1/2+x,1/2+y,z
1/2-x,1/2+y,1/2-z
1/2-x,1/2-y,-z
1/2+x,1/2-y,1/2+z
loop_
_atom_site_type_symbol
_atom_site_label
_atom_site_fract_x
_atom_site_fract_y
_atom_site_fract_z
Si Si1 0.779383 0.962504 0.971178
Si Si2 0.162084 0.548499 0.211271
Si Si3 0.175969 0.765708 0.748098
Si Si4 0.842469 0.462736 0.377118
Si Si5 0.419704 0.481805 0.088537
Si Si6 0.219327 0.778989 0.318671
Si Si7 0.747456 0.905983 0.292562
Si Si8 0.268378 0.387487 0.881866
O O1 0.741292 0.884906 0.929635
O O2 0.593647 0.032730 0.931325
O O3 0.795924 0.935159 0.025063
O O4 0.000000 0.000000 0.000000
O O5 0.208247 0.645127 0.232314
O O6 0.228595 0.527169 0.174797
O O7 0.287216 0.482838 0.266190
O O8 0.909603 0.545263 0.170175
O O9 0.103878 0.741760 0.684714
O O10 0.330168 0.686110 0.791121
O O11 0.000000 0.775575 0.750000
O O12 0.733123 0.494045 0.400159
O O13 0.768659 0.368197 0.350944
O O14 0.620586 0.423477 0.138825
O O15 0.506793 0.574620 0.089983
O O16 0.233982 0.707804 0.358733
O O17 0.000000 0.775037 0.250000
O O18 0.500000 0.894461 0.250000
#
# Coordination Sequence:
#
# PCOD8146165 Si02
#       8
#     8   8   8   8   8   8   8   8
#     4   9  22  46  68  91 123 182 227 264 325 402
#     4  11  22  40  58  91 132 170 212 256 336 400
#     4  11  25  36  57  92 136 166 214 264 320 400
#     4  11  25  40  69  94 133 166 221 281 334 381
#     4  11  22  39  69  95 126 168 225 275 318 384
#     4  12  23  42  61 101 137 171 209 275 339 400
#     4  11  22  39  62  95 128 176 212 262 336 401
#     4  10  22  40  68  88 129 178 212 257 327 401
#
# _framework density 20.840109000000002
#
# number of rings (size 3 to 8) (size 9 to 14) (size 15 to 20)
#    0.000    1.250    3.750    1.875    3.500    0.000 
#    0.000    3.125    2.750    0.000    0.000    0.000 
#    0.000    0.000    0.000    0.000    0.000    0.000 
#
# Total GULP energy -396443.117387 kJ/mol
# GULP energy per Si atom -12388.847418 kJ/mol
# Density = 2.079268 g / cm^3
# Si number density = 20.840109 Si / 1000 Ang^3
#
#
#
# Elastic Constant Matrix: (Units=GPa)
#
#
# Indices 1 2 3 4 5 6 
#
# 1 102.8244 33.7022 32.6361 0.0000 -15.4566 0.0000
# 2 33.7022 136.7615 57.9082 0.0000 -9.1129 0.0000
# 3 32.6361 57.9082 129.7870 0.0000 -18.0059 0.0000
# 4 0.0000 0.0000 0.0000 23.0869 0.0000 -0.6654
# 5 -15.4566 -9.1129 -18.0059 0.0000 36.2541 0.0000
# 6 0.0000 0.0000 0.0000 -0.6654 0.0000 15.7639
#
#
#
# Elastic Compliance Matrix: (Units=1/GPa)
#
#
# Indices 1 2 3 4 5 6 
#
# 1 0.011377 -0.001928 -0.001498 0.000000 0.003622 0.000000
# 2 -0.001928 0.009345 -0.003730 0.000000 -0.000325 0.000000
# 3 -0.001498 -0.003730 0.010232 0.000000 0.003506 0.000000
# 4 0.000000 0.000000 0.000000 0.043367 0.000000 0.001830
# 5 0.003622 -0.000325 0.003506 0.000000 0.030786 0.000000
# 6 0.000000 0.000000 0.000000 0.001830 0.000000 0.063513
#
#
# Mechanical properties :
#
#
# Convention : Reuss Voigt Hill
#
# Bulk Modulus (GPa) = 60.08828 68.65177 64.37002
# Shear Modulus (GPa) = 26.52795 31.36275 28.94535
#
# Velocity S-wave (km/s) = 3.57168 3.88354 3.73087
# Velocity P-wave (km/s) = 6.77531 7.28854 7.03661
#
# Compressibility (1/GPa) = 0.01664218
#
# Stress axis : x y z
#
# Youngs Moduli (GPa) = 87.89509 107.01269 97.73118
#
# Poissons Ratio (x) = 0.20632 0.14642
# Poissons Ratio (y) = 0.16946 0.36451
# Poissons Ratio (z) = 0.13168 0.39913
#
# Static dielectric constant tensor:
#      x y z
#    x 4.216750 0.000000 -0.291540 
#    y 0.000000 3.768620 0.000000 
#    z -0.291540 0.000000 4.241730 
# 
# 
# High freq. dielectric constant tensor:
#      x y z
#    x 1.835990 0.000000 -0.014180 
#    y 0.000000 1.799130 0.000000 
#    z -0.014180 0.000000 1.807270 
# 
# From -- ./inp_files/308289.got.cif
#   From: 2010.06.25/outbox.cif.g09.slc.cpg/sg15_155_cif.got.tgz:308289.got - 2010.06.28 07:06:18.
