data_PCOD8146259
_publ_section_title
;
Structure prediction by ZEFSAII (Michael W. Deem and Ramdas Pophale) SiO2 
 PCOD8146259
Probable space group: C 2/C
;
_chemical_formula_sum "Si O2"
_cell_formula_units_Z 40
_cell_length_a 24.265096
_cell_length_b 14.814569
_cell_length_c 5.287396
_cell_angle_alpha 90.000000
_cell_angle_beta 66.513791
_cell_angle_gamma 90.000000
_cell_volume 1743.235642
_symmetry_space_group_name_H-M "C 2/C"
_symmetry_group_IT_number 15
_symmetry_cell_setting 'monoclinic'
loop_
_space_group_symop_operation_xyz
x,y,z
-x,y,1/2-z
-x,-y,-z
x,-y,1/2+z
1/2+x,1/2+y,z
1/2-x,1/2+y,1/2-z
1/2-x,1/2-y,-z
1/2+x,1/2-y,1/2+z
loop_
_atom_site_type_symbol
_atom_site_label
_atom_site_fract_x
_atom_site_fract_y
_atom_site_fract_z
Si Si1 0.369273 0.132514 0.444383
Si Si2 0.429320 0.160769 0.841963
Si Si3 0.474999 0.398986 0.046801
Si Si4 0.140989 0.809986 0.297287
Si Si5 0.239884 0.054868 0.716570
O O1 0.413138 0.116165 0.603019
O O2 0.350384 0.238801 0.449334
O O3 0.310404 0.073060 0.590135
O O4 0.404116 0.100665 0.124759
O O5 0.500000 0.172882 0.750000
O O6 0.393878 0.256696 0.914691
O O7 0.500000 0.349305 0.750000
O O8 0.500000 0.347219 0.250000
O O9 0.500000 0.500000 0.000000
O O10 0.402690 0.394074 0.196617
O O11 0.204317 0.850195 0.271391
O O12 0.221618 0.996337 0.505756
#
# Coordination Sequence:
#
# PCOD8146259 Si02
#       5
#     8   8   8   8   8
#     4  10  24  44  69  95 138 173 233 274 325 399
#     4  10  22  40  72 101 129 167 225 270 334 398
#     4  10  23  36  56  88 143 173 207 253 314 388
#     4  10  26  38  71  94 139 180 225 255 332 404
#     4  12  28  45  68  96 136 179 229 284 340 381
#
# _framework density 22.945834999999999
#
# number of rings (size 3 to 8) (size 9 to 14) (size 15 to 20)
#    1.200    0.400    0.000    3.000   14.000    0.800 
#    0.000    0.000    0.000   12.000    0.000    0.000 
#    0.000    0.000    0.000    0.000    0.000    0.000 
#
# Total GULP energy -247776.049503 kJ/mol
# GULP energy per Si atom -12388.802475 kJ/mol
# Density = 2.289361 g / cm^3
# Si number density = 22.945835 Si / 1000 Ang^3
#
#
#
# Elastic Constant Matrix: (Units=GPa)
#
#
# Indices 1 2 3 4 5 6 
#
# 1 112.9860 4.1805 60.8320 0.0000 13.6808 0.0000
# 2 4.1805 21.8101 3.1025 0.0000 2.3909 0.0000
# 3 60.8320 3.1025 132.8338 0.0000 35.9098 0.0000
# 4 0.0000 0.0000 0.0000 19.5963 0.0000 -20.1157
# 5 13.6808 2.3909 35.9098 0.0000 50.4684 0.0000
# 6 0.0000 0.0000 0.0000 -20.1157 0.0000 37.0091
#
#
#
# Elastic Compliance Matrix: (Units=1/GPa)
#
#
# Indices 1 2 3 4 5 6 
#
# 1 0.011826 -0.001563 -0.005612 0.000000 0.000862 0.000000
# 2 -0.001563 0.046335 0.000139 0.000000 -0.001870 0.000000
# 3 -0.005612 0.000139 0.011992 0.000000 -0.007018 0.000000
# 4 0.000000 0.000000 0.000000 0.115437 0.000000 0.062744
# 5 0.000862 -0.001870 -0.007018 0.000000 0.024663 0.000000
# 6 0.000000 0.000000 0.000000 0.062744 0.000000 0.061124
#
#
# Mechanical properties :
#
#
# Convention : Reuss Voigt Hill
#
# Bulk Modulus (GPa) = 17.83117 44.87330 31.35223
# Shear Modulus (GPa) = 16.43965 34.71575 25.57770
#
# Velocity S-wave (km/s) = 2.67957 3.89388 3.34233
# Velocity P-wave (km/s) = 4.16669 6.30991 5.34679
#
# Compressibility (1/GPa) = 0.05608158
#
# Stress axis : x y z
#
# Youngs Moduli (GPa) = 84.56152 21.58192 83.38692
#
# Poissons Ratio (x) = 0.03373 0.46797
# Poissons Ratio (y) = 0.13216 -0.01160
# Poissons Ratio (z) = 0.47456 -0.00300
#
# Static dielectric constant tensor:
#      x y z
#    x 4.097120 0.000000 0.261120 
#    y 0.000000 4.104130 0.000000 
#    z 0.261120 0.000000 4.267560 
# 
# 
# High freq. dielectric constant tensor:
#      x y z
#    x 1.908200 0.000000 0.002790 
#    y 0.000000 1.879380 0.000000 
#    z 0.002790 0.000000 1.910770 
# 
# From -- ./inp_files/13054.got.cif
#   From: 2010.06.25/outbox.cif.g09.slc.cpg/sg15_7_cif.got.tgz:13054.got - 2010.06.28 07:06:18.
