data_PCOD8146532
_publ_section_title
;
Structure prediction by ZEFSAII (Michael W. Deem and Ramdas Pophale) SiO2 
 PCOD8146532
Probable space group: C 2/C
;
_chemical_formula_sum "Si O2"
_cell_formula_units_Z 52
_cell_length_a 25.013205
_cell_length_b 8.231621
_cell_length_c 10.863284
_cell_angle_alpha 90.000000
_cell_angle_beta 99.596145
_cell_angle_gamma 90.000000
_cell_volume 2205.443585
_symmetry_space_group_name_H-M "C 2/C"
_symmetry_group_IT_number 15
_symmetry_cell_setting 'monoclinic'
loop_
_space_group_symop_operation_xyz
x,y,z
-x,y,1/2-z
-x,-y,-z
x,-y,1/2+z
1/2+x,1/2+y,z
1/2-x,1/2+y,1/2-z
1/2-x,1/2-y,-z
1/2+x,1/2-y,1/2+z
loop_
_atom_site_type_symbol
_atom_site_label
_atom_site_fract_x
_atom_site_fract_y
_atom_site_fract_z
Si Si1 0.794377 0.870651 0.793090
Si Si2 0.930138 0.868072 0.585996
Si Si3 0.831434 0.657675 0.585593
Si Si4 0.895972 0.559154 0.273034
Si Si5 0.703708 0.955161 0.126533
Si Si6 0.500000 0.879526 0.250000
Si Si7 0.596635 0.564656 0.683476
O O1 0.801553 0.739061 0.687569
O O2 0.786316 0.737629 0.900905
O O3 0.742286 0.983201 0.753267
O O4 0.846714 0.981117 0.829245
O O5 0.870015 0.793552 0.538570
O O6 0.973632 0.728691 0.631302
O O7 0.941353 0.951404 0.455406
O O8 0.931047 0.982613 0.707621
O O9 0.869594 0.506056 0.637572
O O10 0.784377 0.576680 0.482851
O O11 0.860096 0.485812 0.370331
O O12 0.894476 0.751651 0.273767
O O13 0.957012 0.491534 0.305527
#
# Coordination Sequence:
#
# PCOD8146532 Si02
#       7
#     8   8   8   8   8   4   8
#     4  10  23  37  63  98 135 177 225 270 340 405
#     4  10  23  43  70  97 144 173 228 282 342 406
#     4   9  20  40  62  93 135 180 217 288 325 404
#     4  10  22  41  67  95 130 174 232 275 342 400
#     4  11  20  40  63  93 134 179 224 275 333 403
#     4  10  24  48  66 102 128 180 224 288 350 400
#     4  11  23  44  67 105 138 179 218 290 336 411
#
# _framework density 23.578023000000002
#
# number of rings (size 3 to 8) (size 9 to 14) (size 15 to 20)
#    0.000    1.846    1.538    2.308    2.154    1.846 
#    2.769    3.846    0.000    0.000    0.000    0.000 
#    0.000    0.000    0.000    0.000    0.000    0.000 
#
# Total GULP energy -322101.839891 kJ/mol
# GULP energy per Si atom -12388.532304 kJ/mol
# Density = 2.352436 g / cm^3
# Si number density = 23.578023 Si / 1000 Ang^3
#
#
#
# Elastic Constant Matrix: (Units=GPa)
#
#
# Indices 1 2 3 4 5 6 
#
# 1 67.4243 40.3898 7.0584 0.0000 15.9661 0.0000
# 2 40.3898 161.4807 50.7437 0.0000 7.0530 0.0000
# 3 7.0584 50.7437 103.1251 0.0000 -7.7835 0.0000
# 4 0.0000 0.0000 0.0000 35.5618 0.0000 5.6198
# 5 15.9661 7.0530 -7.7835 0.0000 23.9199 0.0000
# 6 0.0000 0.0000 0.0000 5.6198 0.0000 35.3727
#
#
#
# Elastic Compliance Matrix: (Units=1/GPa)
#
#
# Indices 1 2 3 4 5 6 
#
# 1 0.020501 -0.004558 -0.000094 0.000000 -0.012371 0.000000
# 2 -0.004558 0.008622 -0.003991 0.000000 -0.000798 0.000000
# 3 -0.000094 -0.003991 0.012057 0.000000 0.005163 0.000000
# 4 0.000000 0.000000 0.000000 0.028844 0.000000 -0.004583
# 5 -0.012371 -0.000798 0.005163 0.000000 0.051979 0.000000
# 6 0.000000 0.000000 0.000000 -0.004583 0.000000 0.028998
#
#
# Mechanical properties :
#
#
# Convention : Reuss Voigt Hill
#
# Bulk Modulus (GPa) = 41.85142 58.71264 50.28203
# Shear Modulus (GPa) = 28.36867 34.56008 31.46437
#
# Velocity S-wave (km/s) = 3.47246 3.83270 3.65702
# Velocity P-wave (km/s) = 5.81945 6.67395 6.26129
#
# Compressibility (1/GPa) = 0.02389405
#
# Stress axis : x y z
#
# Youngs Moduli (GPa) = 48.77811 115.98780 82.94139
#
# Poissons Ratio (x) = 0.52865 0.00781
# Poissons Ratio (y) = 0.22232 0.33099
# Poissons Ratio (z) = 0.00459 0.46287
#
# Static dielectric constant tensor:
#      x y z
#    x 4.074150 0.000000 0.050890 
#    y 0.000000 4.631800 0.000000 
#    z 0.050890 0.000000 4.388830 
# 
# 
# High freq. dielectric constant tensor:
#      x y z
#    x 1.919820 0.000000 0.002990 
#    y 0.000000 1.950050 0.000000 
#    z 0.002990 0.000000 1.926390 
# 
# From -- ./inp_files/125653.got.cif
#   From: 2010.06.25/outbox.cif.g09.slc.cpg/sg15_63_cif.got.tgz:125653.got - 2010.06.28 07:06:18.
