data_PCOD8146802
_publ_section_title
;
Structure prediction by ZEFSAII (Michael W. Deem and Ramdas Pophale) SiO2 
 PCOD8146802
Probable space group: C 2/C
;
_chemical_formula_sum "Si O2"
_cell_formula_units_Z 36
_cell_length_a 15.208433
_cell_length_b 10.105549
_cell_length_c 11.788652
_cell_angle_alpha 90.000000
_cell_angle_beta 76.706929
_cell_angle_gamma 90.000000
_cell_volume 1763.248864
_symmetry_space_group_name_H-M "C 2/C"
_symmetry_group_IT_number 15
_symmetry_cell_setting 'monoclinic'
loop_
_space_group_symop_operation_xyz
x,y,z
-x,y,1/2-z
-x,-y,-z
x,-y,1/2+z
1/2+x,1/2+y,z
1/2-x,1/2+y,1/2-z
1/2-x,1/2-y,-z
1/2+x,1/2-y,1/2+z
loop_
_atom_site_type_symbol
_atom_site_label
_atom_site_fract_x
_atom_site_fract_y
_atom_site_fract_z
Si Si1 0.144591 0.121707 0.076519
Si Si2 0.235257 0.134071 0.591366
Si Si3 0.000000 0.719513 0.750000
Si Si4 0.084340 0.515825 0.892383
Si Si5 0.687133 0.236822 0.341080
O O1 0.223494 0.174039 0.133358
O O2 0.051902 0.181971 0.150732
O O3 0.152616 0.961863 0.077376
O O4 0.148361 0.161209 0.944203
O O5 0.250000 0.250000 0.500000
O O6 0.330151 0.057647 0.558239
O O7 0.212662 0.184019 0.722395
O O8 0.066686 0.623168 0.799676
O O9 0.111407 0.373231 0.831323
O O10 0.000000 0.500000 0.000000
#
# Coordination Sequence:
#
# PCOD8146802 Si02
#       5
#     8   8   4   8   8
#     4  10  23  41  67  92 134 171 216 275 334 392
#     4  11  26  43  68  95 133 179 222 271 335 406
#     4  12  22  44  66 102 130 170 220 282 338 384
#     4  11  24  41  68  97 132 172 225 275 329 402
#     4  10  22  42  64  96 127 177 220 267 335 403
#
# _framework density 20.416858000000001
#
# number of rings (size 3 to 8) (size 9 to 14) (size 15 to 20)
#    0.000    1.333    4.444    0.000    9.333    0.000 
#    4.000    2.222    0.000    0.000    0.000    0.000 
#    0.000    0.000    0.000    0.000    0.000    0.000 
#
# Total GULP energy -223172.286723 kJ/mol
# GULP energy per Si atom -12398.460373 kJ/mol
# Density = 2.037039 g / cm^3
# Si number density = 20.416858 Si / 1000 Ang^3
#
#
#
# Elastic Constant Matrix: (Units=GPa)
#
#
# Indices 1 2 3 4 5 6 
#
# 1 66.7137 41.5866 32.9887 0.0000 -12.3219 0.0000
# 2 41.5866 146.4884 75.1593 0.0000 -2.0415 0.0000
# 3 32.9887 75.1593 150.1131 0.0000 -16.3542 0.0000
# 4 0.0000 0.0000 0.0000 29.8198 0.0000 -3.4049
# 5 -12.3219 -2.0415 -16.3542 0.0000 30.5510 0.0000
# 6 0.0000 0.0000 0.0000 -3.4049 0.0000 39.9662
#
#
#
# Elastic Compliance Matrix: (Units=1/GPa)
#
#
# Indices 1 2 3 4 5 6 
#
# 1 0.019972 -0.005002 -0.001108 0.000000 0.007128 0.000000
# 2 -0.005002 0.010551 -0.004595 0.000000 -0.003772 0.000000
# 3 -0.001108 -0.004595 0.009688 0.000000 0.004432 0.000000
# 4 0.000000 0.000000 0.000000 0.033864 0.000000 0.002885
# 5 0.007128 -0.003772 0.004432 0.000000 0.037728 0.000000
# 6 0.000000 0.000000 0.000000 0.002885 0.000000 0.025267
#
#
# Mechanical properties :
#
#
# Convention : Reuss Voigt Hill
#
# Bulk Modulus (GPa) = 53.18468 73.64272 63.41370
# Shear Modulus (GPa) = 30.34960 34.30611 32.32786
#
# Velocity S-wave (km/s) = 3.85969 4.10357 3.98350
# Velocity P-wave (km/s) = 6.78004 7.65508 7.23081
#
# Compressibility (1/GPa) = 0.01880241
#
# Stress axis : x y z
#
# Youngs Moduli (GPa) = 50.07061 94.77541 103.21559
#
# Poissons Ratio (x) = 0.47406 0.11437
# Poissons Ratio (y) = 0.25045 0.47423
# Poissons Ratio (z) = 0.05548 0.43545
#
# Static dielectric constant tensor:
#      x y z
#    x 3.698920 0.000000 -0.137530 
#    y 0.000000 4.100520 0.000000 
#    z -0.137530 0.000000 3.443920 
# 
# 
# High freq. dielectric constant tensor:
#      x y z
#    x 1.786370 0.000000 -0.010940 
#    y 0.000000 1.810820 0.000000 
#    z -0.010940 0.000000 1.804610 
# 
# From -- ./inp_files/45857.got.cif
#   From: 2010.06.25/outbox.cif.g09.slc.cpg/sg15_23_cif.got.tgz:45857.got - 2010.06.28 07:06:18.
