data_PCOD8146225
_publ_section_title
;
Structure prediction by ZEFSAII (Michael W. Deem and Ramdas Pophale) SiO2 
 PCOD8146225
Probable space group: C 2/C
;
_chemical_formula_sum "Si O2"
_cell_formula_units_Z 60
_cell_length_a 6.197629
_cell_length_b 17.000604
_cell_length_c 25.397941
_cell_angle_alpha 90.000000
_cell_angle_beta 89.585255
_cell_angle_gamma 90.000000
_cell_volume 2675.944231
_symmetry_space_group_name_H-M "C 2/C"
_symmetry_group_IT_number 15
_symmetry_cell_setting 'monoclinic'
loop_
_space_group_symop_operation_xyz
x,y,z
-x,y,1/2-z
-x,-y,-z
x,-y,1/2+z
1/2+x,1/2+y,z
1/2-x,1/2+y,1/2-z
1/2-x,1/2-y,-z
1/2+x,1/2-y,1/2+z
loop_
_atom_site_type_symbol
_atom_site_label
_atom_site_fract_x
_atom_site_fract_y
_atom_site_fract_z
Si Si1 0.500000 0.365733 0.750000
Si Si2 0.948570 0.833830 0.122192
Si Si3 0.326190 0.865652 0.046319
Si Si4 0.678940 0.381705 0.929095
Si Si5 0.885502 0.439879 0.699686
Si Si6 0.872406 0.466021 0.386452
Si Si7 0.664304 0.797643 0.672159
Si Si8 0.149517 0.233774 0.055957
O O1 0.632498 0.426178 0.711908
O O2 0.360713 0.308682 0.712762
O O3 0.776632 0.899641 0.141708
O O4 0.816139 0.758955 0.100214
O O5 0.098853 0.873150 0.077133
O O6 0.087922 0.794733 0.169723
O O7 0.498608 0.930777 0.064586
O O8 0.423836 0.780759 0.059525
O O9 0.301863 0.875360 0.984136
O O10 0.702235 0.469408 0.906989
O O11 0.776222 0.321228 0.887092
O O12 0.424399 0.357736 0.936815
O O13 0.000000 0.478618 0.750000
O O14 0.943050 0.498082 0.651845
O O15 0.970110 0.351626 0.691638
O O16 0.250000 0.250000 0.000000
#
# Coordination Sequence:
#
# PCOD8146225 Si02
#       8
#     4   8   8   8   8   8   8   8
#     4  10  22  42  74 106 118 156 228 298 330 390
#     4  11  23  41  63  98 141 176 215 268 334 398
#     4  11  22  40  60  96 144 181 224 270 325 394
#     4  11  21  41  64  98 131 183 234 268 320 384
#     4   9  21  44  72  98 122 162 227 275 338 402
#     4  10  25  41  65 101 139 179 215 273 337 402
#     4  10  22  40  70 101 126 168 223 283 331 390
#     4  11  21  37  63  91 132 183 231 271 313 382
#
# _framework density 22.421991999999999
#
# number of rings (size 3 to 8) (size 9 to 14) (size 15 to 20)
#    0.000    1.600    2.667    1.600    1.867    3.733 
#    4.800    0.000   11.733    0.000    0.000    0.000 
#    0.000    0.000    0.000    0.000    0.000    0.000 
#
# Total GULP energy -371810.889289 kJ/mol
# GULP energy per Si atom -12393.696310 kJ/mol
# Density = 2.237096 g / cm^3
# Si number density = 22.421992 Si / 1000 Ang^3
#
#
#
# Elastic Constant Matrix: (Units=GPa)
#
#
# Indices 1 2 3 4 5 6 
#
# 1 128.5004 64.5088 46.3588 0.0000 -6.9337 0.0000
# 2 64.5088 116.1304 50.9784 0.0000 6.7239 0.0000
# 3 46.3588 50.9784 103.2042 0.0000 -3.0249 0.0000
# 4 0.0000 0.0000 0.0000 21.6360 0.0000 5.3574
# 5 -6.9337 6.7239 -3.0249 0.0000 33.9394 0.0000
# 6 0.0000 0.0000 0.0000 5.3574 0.0000 27.4455
#
#
#
# Elastic Compliance Matrix: (Units=1/GPa)
#
#
# Indices 1 2 3 4 5 6 
#
# 1 0.011627 -0.005616 -0.002353 0.000000 0.003278 0.000000
# 2 -0.005616 0.013954 -0.004497 0.000000 -0.004312 0.000000
# 3 -0.002353 -0.004497 0.013014 0.000000 0.001570 0.000000
# 4 0.000000 0.000000 0.000000 0.048567 0.000000 -0.009480
# 5 0.003278 -0.004312 0.001570 0.000000 0.031128 0.000000
# 6 0.000000 0.000000 0.000000 -0.009480 0.000000 0.038286
#
#
# Mechanical properties :
#
#
# Convention : Reuss Voigt Hill
#
# Bulk Modulus (GPa) = 73.18241 74.61414 73.89827
# Shear Modulus (GPa) = 26.87300 29.00344 27.93822
#
# Velocity S-wave (km/s) = 3.46571 3.60046 3.53373
# Velocity P-wave (km/s) = 6.98028 7.11575 7.04834
#
# Compressibility (1/GPa) = 0.01366449
#
# Stress axis : x y z
#
# Youngs Moduli (GPa) = 86.00790 71.66442 76.84309
#
# Poissons Ratio (x) = 0.40243 0.18080
# Poissons Ratio (y) = 0.48298 0.34553
# Poissons Ratio (z) = 0.20236 0.32224
#
# Static dielectric constant tensor:
#      x y z
#    x 6.135280 0.000000 -1.382360 
#    y 0.000000 4.191320 0.000000 
#    z -1.382360 0.000000 4.917710 
# 
# 
# High freq. dielectric constant tensor:
#      x y z
#    x 1.893450 0.000000 -0.006050 
#    y 0.000000 1.867740 0.000000 
#    z -0.006050 0.000000 1.876080 
# 
# From -- ./inp_files/286090.got.cif
#   From: 2010.06.25/outbox.cif.g09.slc.cpg/sg15_144_cif.got.tgz:286090.got - 2010.06.28 07:06:18.
