data_PCOD8146098
_publ_section_title
;
Structure prediction by ZEFSAII (Michael W. Deem and Ramdas Pophale) SiO2 
 PCOD8146098
Probable space group: C 2/C
;
_chemical_formula_sum "Si O2"
_cell_formula_units_Z 48
_cell_length_a 12.486083
_cell_length_b 22.455020
_cell_length_c 11.332635
_cell_angle_alpha 90.000000
_cell_angle_beta 132.607776
_cell_angle_gamma 90.000000
_cell_volume 2338.575835
_symmetry_space_group_name_H-M "C 2/C"
_symmetry_group_IT_number 15
_symmetry_cell_setting 'monoclinic'
loop_
_space_group_symop_operation_xyz
x,y,z
-x,y,1/2-z
-x,-y,-z
x,-y,1/2+z
1/2+x,1/2+y,z
1/2-x,1/2+y,1/2-z
1/2-x,1/2-y,-z
1/2+x,1/2-y,1/2+z
loop_
_atom_site_type_symbol
_atom_site_label
_atom_site_fract_x
_atom_site_fract_y
_atom_site_fract_z
Si Si1 0.738281 0.816135 0.720782
Si Si2 0.860727 0.899698 0.214939
Si Si3 0.432912 0.302537 0.455094
Si Si4 0.667062 0.485171 0.102389
Si Si5 0.841711 0.113219 0.084749
Si Si6 0.838635 0.404245 0.649029
O O1 0.638880 0.761361 0.610188
O O2 0.739833 0.864322 0.615088
O O3 0.656172 0.844964 0.769515
O O4 0.899804 0.795714 0.879638
O O5 0.918891 0.840267 0.323907
O O6 0.787836 0.946547 0.250322
O O7 0.000000 0.927733 0.250000
O O8 0.734430 0.885419 0.028363
O O9 0.341877 0.335087 0.488121
O O10 0.750783 0.546923 0.158170
O O11 0.500000 0.500000 0.000000
O O12 0.707336 0.448642 0.013082
O O13 0.000000 0.099308 0.250000
O O14 0.000000 0.428760 0.750000
#
# Coordination Sequence:
#
# PCOD8146098 Si02
#       6
#     8   8   8   8   8   8
#     4  11  23  42  65  94 128 171 215 266 323 381
#     4  11  22  43  66  93 126 164 223 260 314 394
#     4  10  22  40  66  95 125 168 214 268 317 381
#     4  11  22  40  70  94 125 175 214 263 318 385
#     4   9  20  39  65  97 125 164 219 263 313 382
#     4  12  28  42  61 100 131 168 213 271 329 377
#
# _framework density 20.525312
#
# number of rings (size 3 to 8) (size 9 to 14) (size 15 to 20)
#    0.000    1.333    3.333    2.500    7.000    2.000 
#    0.000    0.000    0.000    0.000    0.000    0.000 
#    0.000    0.000    0.000    0.000    0.000    0.000 
#
# Total GULP energy -297593.135323 kJ/mol
# GULP energy per Si atom -12399.713972 kJ/mol
# Density = 2.047860 g / cm^3
# Si number density = 20.525312 Si / 1000 Ang^3
#
#
#
# Elastic Constant Matrix: (Units=GPa)
#
#
# Indices 1 2 3 4 5 6 
#
# 1 81.6580 18.6367 46.6030 0.0000 -0.4602 0.0000
# 2 18.6367 74.8532 30.8175 0.0000 -3.4443 0.0000
# 3 46.6030 30.8175 93.1904 0.0000 -11.1266 0.0000
# 4 0.0000 0.0000 0.0000 23.5130 0.0000 2.4321
# 5 -0.4602 -3.4443 -11.1266 0.0000 39.5141 0.0000
# 6 0.0000 0.0000 0.0000 2.4321 0.0000 19.7438
#
#
#
# Elastic Compliance Matrix: (Units=1/GPa)
#
#
# Indices 1 2 3 4 5 6 
#
# 1 0.017387 -0.000859 -0.008688 0.000000 -0.002319 0.000000
# 2 -0.000859 0.015508 -0.004697 0.000000 0.000019 0.000000
# 3 -0.008688 -0.004697 0.017144 0.000000 0.004317 0.000000
# 4 0.000000 0.000000 0.000000 0.043079 0.000000 -0.005306
# 5 -0.002319 0.000019 0.004317 0.000000 0.026498 0.000000
# 6 0.000000 0.000000 0.000000 -0.005306 0.000000 0.051302
#
#
# Mechanical properties :
#
#
# Convention : Reuss Voigt Hill
#
# Bulk Modulus (GPa) = 46.39846 49.09066 47.74456
# Shear Modulus (GPa) = 24.20265 26.79715 25.49990
#
# Velocity S-wave (km/s) = 3.43762 3.61718 3.52854
# Velocity P-wave (km/s) = 6.19765 6.43540 6.31764
#
# Compressibility (1/GPa) = 0.02155244
#
# Stress axis : x y z
#
# Youngs Moduli (GPa) = 57.51260 64.48375 58.32944
#
# Poissons Ratio (x) = 0.05538 0.50677
# Poissons Ratio (y) = 0.04940 0.27395
# Poissons Ratio (z) = 0.49967 0.30285
#
# Static dielectric constant tensor:
#      x y z
#    x 4.003580 0.000000 -0.424320 
#    y 0.000000 3.697510 0.000000 
#    z -0.424320 0.000000 3.874880 
# 
# 
# High freq. dielectric constant tensor:
#      x y z
#    x 1.798070 0.000000 -0.026470 
#    y 0.000000 1.804860 0.000000 
#    z -0.026470 0.000000 1.802980 
# 
# From -- ./inp_files/89800.got.cif
#   From: 2010.06.25/outbox.cif.g09.slc.cpg/sg15_45_cif.got.tgz:89800.got - 2010.06.28 07:06:18.
