data_PCOD8146059
_publ_section_title
;
Structure prediction by ZEFSAII (Michael W. Deem and Ramdas Pophale) SiO2 
 PCOD8146059
Probable space group: C 2/C
;
_chemical_formula_sum "Si O2"
_cell_formula_units_Z 60
_cell_length_a 11.742834
_cell_length_b 29.482673
_cell_length_c 17.493344
_cell_angle_alpha 90.000000
_cell_angle_beta 151.305747
_cell_angle_gamma 90.000000
_cell_volume 2907.879755
_symmetry_space_group_name_H-M "C 2/C"
_symmetry_group_IT_number 15
_symmetry_cell_setting 'monoclinic'
loop_
_space_group_symop_operation_xyz
x,y,z
-x,y,1/2-z
-x,-y,-z
x,-y,1/2+z
1/2+x,1/2+y,z
1/2-x,1/2+y,1/2-z
1/2-x,1/2-y,-z
1/2+x,1/2-y,1/2+z
loop_
_atom_site_type_symbol
_atom_site_label
_atom_site_fract_x
_atom_site_fract_y
_atom_site_fract_z
Si Si1 0.804241 0.877673 0.193008
Si Si2 0.000000 0.291550 0.750000
Si Si3 0.792817 0.727357 0.687925
Si Si4 0.952856 0.149969 0.511589
Si Si5 0.353507 0.778415 0.392765
Si Si6 0.396109 0.437038 0.892336
Si Si7 0.952942 0.541104 0.028008
Si Si8 0.743428 0.004463 0.437046
O O1 0.714662 0.827826 0.116630
O O2 0.000000 0.893753 0.250000
O O3 0.911352 0.876591 0.341176
O O4 0.608327 0.916593 0.063836
O O5 0.216646 0.324167 0.907069
O O6 0.131672 0.257059 0.769172
O O7 0.634966 0.683335 0.576177
O O8 0.598825 0.767450 0.579852
O O9 0.921420 0.720752 0.843996
O O10 0.000000 0.736545 0.750000
O O11 0.888051 0.116384 0.404722
O O12 0.391463 0.460474 0.972942
O O13 0.181588 0.446644 0.710642
O O14 0.628794 0.455267 0.985248
O O15 0.763968 0.525379 0.981700
O O16 0.000000 0.500000 0.000000
O O17 0.500000 0.996372 0.250000
#
# Coordination Sequence:
#
# PCOD8146059 Si02
#       8
#     8   4   8   8   8   8   8   8
#     4  11  24  37  64  95 128 162 206 267 331 377
#     4  10  22  40  66 102 130 154 216 266 330 380
#     4  10  22  41  63  91 127 173 212 247 306 381
#     4  10  24  37  64  95 128 169 211 264 314 392
#     4  10  22  40  66  94 129 166 205 266 321 376
#     4  10  22  42  62  92 120 169 213 251 326 380
#     4  11  26  41  63  94 129 162 215 271 324 372
#     4   9  21  40  67  87 119 166 212 267 314 382
#
# _framework density 20.633589000000001
#
# number of rings (size 3 to 8) (size 9 to 14) (size 15 to 20)
#    0.000    1.867    0.667    1.200   14.000    3.200 
#    2.400    0.000    0.000    0.000    0.000    0.000 
#    0.000    0.000    0.000    0.000    0.000    0.000 
#
# Total GULP energy -371661.627130 kJ/mol
# GULP energy per Si atom -12388.720904 kJ/mol
# Density = 2.058663 g / cm^3
# Si number density = 20.633589 Si / 1000 Ang^3
#
#
#
# Elastic Constant Matrix: (Units=GPa)
#
#
# Indices 1 2 3 4 5 6 
#
# 1 70.1503 31.0446 32.4121 0.0000 0.5680 -0.0003
# 2 31.0446 135.9975 53.2454 -0.0005 -5.1301 0.0003
# 3 32.4121 53.2454 69.4129 -0.0004 -0.7517 -0.0014
# 4 0.0000 -0.0005 -0.0004 38.0174 -0.0002 -5.4183
# 5 0.5680 -5.1301 -0.7517 -0.0002 31.7077 -0.0006
# 6 -0.0003 0.0003 -0.0014 -5.4183 -0.0006 28.7274
#
#
#
# Elastic Compliance Matrix: (Units=1/GPa)
#
#
# Indices 1 2 3 4 5 6 
#
# 1 0.018326 -0.001224 -0.007626 0.000000 -0.000707 0.000000
# 2 -0.001224 0.010664 -0.007591 0.000000 0.001567 0.000000
# 3 -0.007626 -0.007591 0.023785 0.000000 -0.000528 0.000001
# 4 0.000000 0.000000 0.000000 0.027030 0.000000 0.005098
# 5 -0.000707 0.001567 -0.000528 0.000000 0.031792 0.000001
# 6 0.000000 0.000000 0.000001 0.005098 0.000001 0.035772
#
#
# Mechanical properties :
#
#
# Convention : Reuss Voigt Hill
#
# Bulk Modulus (GPa) = 50.27203 56.55164 53.41184
# Shear Modulus (GPa) = 26.75486 30.28107 28.51797
#
# Velocity S-wave (km/s) = 3.60483 3.83503 3.72171
# Velocity P-wave (km/s) = 6.46092 6.86127 6.66410
#
# Compressibility (1/GPa) = 0.01989178
#
# Stress axis : x y z
#
# Youngs Moduli (GPa) = 54.56707 93.77490 42.04372
#
# Poissons Ratio (x) = 0.11482 0.32061
# Poissons Ratio (y) = 0.06681 0.31917
# Poissons Ratio (z) = 0.41611 0.71187
#
# Static dielectric constant tensor:
#      x y z
#    x 4.072840 0.000010 -0.591920 
#    y 0.000010 3.764430 -0.000020 
#    z -0.591920 -0.000020 4.673570 
# 
# 
# High freq. dielectric constant tensor:
#      x y z
#    x 1.792110 0.000000 -0.000860 
#    y 0.000000 1.812230 0.000000 
#    z -0.000860 0.000000 1.810390 
# 
# From -- ./inp_files/201422.got.cif
#   From: 2010.06.25/outbox.cif.g09.slc.cpg/sg15_101_cif.got.tgz:201422.got - 2010.06.28 07:06:18.
