data_PCOD8146665
_publ_section_title
;
Structure prediction by ZEFSAII (Michael W. Deem and Ramdas Pophale) SiO2 
 PCOD8146665
Probable space group: C 2/C
;
_chemical_formula_sum "Si O2"
_cell_formula_units_Z 36
_cell_length_a 20.194524
_cell_length_b 7.721381
_cell_length_c 11.108606
_cell_angle_alpha 90.000000
_cell_angle_beta 84.173500
_cell_angle_gamma 90.000000
_cell_volume 1723.212065
_symmetry_space_group_name_H-M "C 2/C"
_symmetry_group_IT_number 15
_symmetry_cell_setting 'monoclinic'
loop_
_space_group_symop_operation_xyz
x,y,z
-x,y,1/2-z
-x,-y,-z
x,-y,1/2+z
1/2+x,1/2+y,z
1/2-x,1/2+y,1/2-z
1/2-x,1/2-y,-z
1/2+x,1/2-y,1/2+z
loop_
_atom_site_type_symbol
_atom_site_label
_atom_site_fract_x
_atom_site_fract_y
_atom_site_fract_z
Si Si1 0.207174 0.294320 0.673327
Si Si2 0.000000 0.653553 0.250000
Si Si3 0.156239 0.161825 0.449718
Si Si4 0.612779 0.301691 0.386533
Si Si5 0.896375 0.488086 0.939925
O O1 0.191654 0.145971 0.575022
O O2 0.286118 0.329373 0.662870
O O3 0.183935 0.232609 0.809276
O O4 0.165347 0.467418 0.642717
O O5 0.945178 0.778175 0.200703
O O6 0.966436 0.533070 0.357593
O O7 0.110633 0.335969 0.456674
O O8 0.109490 0.996997 0.435999
O O9 0.604504 0.175429 0.500955
#
# Coordination Sequence:
#
# PCOD8146665 Si02
#       5
#     8   4   8   8   8
#     4   8  20  39  53  93 122 134 201 249 271 373
#     4  10  22  42  56  88 124 146 214 244 268 358
#     4   9  20  39  57  89 120 147 198 240 293 353
#     4  11  21  38  63  82 119 164 185 243 301 334
#     4   9  20  40  58  84 119 155 195 243 287 346
#
# _framework density 20.891219
#
# number of rings (size 3 to 8) (size 9 to 14) (size 15 to 20)
#    1.333    1.333    0.000    0.667    3.111    1.778 
#    8.000    2.222    0.000    0.000    0.000    0.000 
#    0.000    0.000    0.000    0.000    0.000    0.000 
#
# Total GULP energy -223087.119982 kJ/mol
# GULP energy per Si atom -12393.728888 kJ/mol
# Density = 2.084367 g / cm^3
# Si number density = 20.891219 Si / 1000 Ang^3
#
#
#
# Elastic Constant Matrix: (Units=GPa)
#
#
# Indices 1 2 3 4 5 6 
#
# 1 77.0081 25.1798 33.2152 0.0000 -34.5295 0.0000
# 2 25.1798 79.2842 18.4181 0.0000 -5.3642 0.0000
# 3 33.2152 18.4181 61.8540 0.0000 -25.4225 0.0000
# 4 0.0000 0.0000 0.0000 17.6513 0.0000 2.7347
# 5 -34.5295 -5.3642 -25.4225 0.0000 38.6531 0.0000
# 6 0.0000 0.0000 0.0000 2.7347 0.0000 18.1592
#
#
#
# Elastic Compliance Matrix: (Units=1/GPa)
#
#
# Indices 1 2 3 4 5 6 
#
# 1 0.025108 -0.005771 -0.003940 0.000000 0.019037 0.000000
# 2 -0.005771 0.014908 -0.003575 0.000000 -0.005438 0.000000
# 3 -0.003940 -0.003575 0.024253 0.000000 0.011936 0.000000
# 4 0.000000 0.000000 0.000000 0.058007 0.000000 -0.008736
# 5 0.019037 -0.005438 0.011936 0.000000 0.049973 0.000000
# 6 0.000000 0.000000 0.000000 -0.008736 0.000000 0.056384
#
#
# Mechanical properties :
#
#
# Convention : Reuss Voigt Hill
#
# Bulk Modulus (GPa) = 26.52714 41.30806 33.91760
# Shear Modulus (GPa) = 18.67269 24.31493 21.49381
#
# Velocity S-wave (km/s) = 2.99290 3.41527 3.21104
# Velocity P-wave (km/s) = 4.96675 5.94710 5.47889
#
# Compressibility (1/GPa) = 0.03769724
#
# Stress axis : x y z
#
# Youngs Moduli (GPa) = 39.82793 67.07710 41.23181
#
# Poissons Ratio (x) = 0.38708 0.16246
# Poissons Ratio (y) = 0.22984 0.14741
# Poissons Ratio (z) = 0.15693 0.23982
#
# Static dielectric constant tensor:
#      x y z
#    x 3.658060 0.000000 -0.296290 
#    y 0.000000 3.315180 0.000000 
#    z -0.296290 0.000000 3.656830 
# 
# 
# High freq. dielectric constant tensor:
#      x y z
#    x 1.808390 0.000000 -0.025210 
#    y 0.000000 1.785150 0.000000 
#    z -0.025210 0.000000 1.811400 
# 
# From -- ./inp_files/109330.got.cif
#   From: 2010.06.25/outbox.cif.g09.slc.cpg/sg15_55_cif.got.tgz:109330.got - 2010.06.28 07:06:18.
