data_PCOD8146711
_publ_section_title
;
Structure prediction by ZEFSAII (Michael W. Deem and Ramdas Pophale) SiO2 
 PCOD8146711
Probable space group: C 2/C
;
_chemical_formula_sum "Si O2"
_cell_formula_units_Z 44
_cell_length_a 18.937822
_cell_length_b 5.417585
_cell_length_c 26.265905
_cell_angle_alpha 90.000000
_cell_angle_beta 131.871633
_cell_angle_gamma 90.000000
_cell_volume 2006.668892
_symmetry_space_group_name_H-M "C 2/C"
_symmetry_group_IT_number 15
_symmetry_cell_setting 'monoclinic'
loop_
_space_group_symop_operation_xyz
x,y,z
-x,y,1/2-z
-x,-y,-z
x,-y,1/2+z
1/2+x,1/2+y,z
1/2-x,1/2+y,1/2-z
1/2-x,1/2-y,-z
1/2+x,1/2-y,1/2+z
loop_
_atom_site_type_symbol
_atom_site_label
_atom_site_fract_x
_atom_site_fract_y
_atom_site_fract_z
Si Si1 0.500000 0.747449 0.250000
Si Si2 0.718761 0.183010 0.674636
Si Si3 0.965003 0.903273 0.138371
Si Si4 0.650524 0.685218 0.669234
Si Si5 0.661943 0.096912 0.349526
Si Si6 0.289855 0.502976 0.995932
O O1 0.494887 0.599213 0.195143
O O2 0.597817 0.898204 0.289308
O O3 0.652439 0.429404 0.637584
O O4 0.758078 0.175103 0.750616
O O5 0.804410 0.196075 0.674599
O O6 0.659908 0.928560 0.637490
O O7 0.905157 0.695820 0.138234
O O8 0.902438 0.014952 0.061732
O O9 0.056037 0.782259 0.156619
O O10 0.758646 0.988537 0.421509
O O11 0.250000 0.250000 0.000000
O O12 0.250000 0.750000 0.000000
#
# Coordination Sequence:
#
# PCOD8146711 Si02
#       6
#     4   8   8   8   8   8
#     4  12  22  34  72  98 132 154 236 280 322 382
#     4  10  23  39  60  90 132 165 208 267 328 379
#     4  11  24  40  65  97 128 170 221 270 326 389
#     4  10  23  39  60  90 132 165 208 267 328 379
#     4  11  24  40  65  97 128 170 221 270 326 389
#     4  10  22  42  62  92 134 172 209 265 334 388
#
# _framework density 21.926884999999999
#
# number of rings (size 3 to 8) (size 9 to 14) (size 15 to 20)
#    0.000    1.455    1.818    2.727   12.727    0.000 
#    0.000    1.818    0.000    0.000    0.000    0.000 
#    0.000    0.000    0.000    0.000    0.000    0.000 
#
# Total GULP energy -272604.207137 kJ/mol
# GULP energy per Si atom -12391.100324 kJ/mol
# Density = 2.187698 g / cm^3
# Si number density = 21.926885 Si / 1000 Ang^3
#
#
#
# Elastic Constant Matrix: (Units=GPa)
#
#
# Indices 1 2 3 4 5 6 
#
# 1 104.1948 42.1390 12.2786 -0.1000 20.2459 -0.0427
# 2 42.1390 153.7639 35.7468 -0.1347 16.5165 -0.0566
# 3 12.2786 35.7468 130.5262 0.0171 12.9450 0.0051
# 4 -0.1000 -0.1347 0.0171 -112.3155 0.0364 -46.1337
# 5 20.2459 16.5165 12.9450 0.0364 12.3416 0.0164
# 6 -0.0427 -0.0566 0.0051 -46.1337 0.0164 27.5786
#
#
#
# Elastic Compliance Matrix: (Units=1/GPa)
#
#
# Indices 1 2 3 4 5 6 
#
# 1 0.014664 -0.001874 0.001418 -0.000019 -0.023036 0.000001
# 2 -0.001874 0.008006 -0.001405 -0.000010 -0.006166 0.000000
# 3 0.001418 -0.001405 0.008881 -0.000002 -0.009762 0.000001
# 4 -0.000019 -0.000010 -0.000002 -0.005277 0.000073 -0.008828
# 5 -0.023036 -0.006166 -0.009762 0.000073 0.137306 -0.000006
# 6 0.000001 0.000000 0.000001 -0.008828 -0.000006 0.021492
#
#
# Mechanical properties :
#
#
# Convention : Reuss Voigt Hill
#
# Bulk Modulus (GPa) = 35.93257 63.20152 49.56705
# Shear Modulus (GPa) = 25.24362 5.40899 15.32630
#
# Velocity S-wave (km/s) = 3.39671 1.57232 2.64668
# Velocity P-wave (km/s) = 5.63973 5.67297 5.65637
#
# Compressibility (1/GPa) = 0.02782990
#
# Stress axis : x y z
#
# Youngs Moduli (GPa) = 68.19328 124.90642 112.60375
#
# Poissons Ratio (x) = 0.23409 -0.15971
# Poissons Ratio (y) = 0.12780 0.15818
# Poissons Ratio (z) = -0.09672 0.17546
#
# Static dielectric constant tensor:
#      x y z
#    x 3.688320 0.000000 0.174640 
#    y 0.000000 4.256310 0.000000 
#    z 0.174640 0.000000 4.967490 
# 
# 
# High freq. dielectric constant tensor:
#      x y z
#    x 1.841330 0.000000 0.006110 
#    y 0.000000 1.874640 0.000000 
#    z 0.006110 0.000000 1.850480 
# 
# From -- ./inp_files/226929.got.cif
#   From: 2010.06.25/outbox.cif.g09.slc.cpg/sg15_114_cif.got.tgz:226929.got - 2010.06.28 07:06:18.
