data_PCOD8146961
_publ_section_title
;
Structure prediction by ZEFSAII (Michael W. Deem and Ramdas Pophale) SiO2 
 PCOD8146961
Probable space group: C 2/C
;
_chemical_formula_sum "Si O2"
_cell_formula_units_Z 36
_cell_length_a 13.159122
_cell_length_b 21.033803
_cell_length_c 8.999557
_cell_angle_alpha 90.000000
_cell_angle_beta 45.545999
_cell_angle_gamma 90.000000
_cell_volume 1778.075753
_symmetry_space_group_name_H-M "C 2/C"
_symmetry_group_IT_number 15
_symmetry_cell_setting 'monoclinic'
loop_
_space_group_symop_operation_xyz
x,y,z
-x,y,1/2-z
-x,-y,-z
x,-y,1/2+z
1/2+x,1/2+y,z
1/2-x,1/2+y,1/2-z
1/2-x,1/2-y,-z
1/2+x,1/2-y,1/2+z
loop_
_atom_site_type_symbol
_atom_site_label
_atom_site_fract_x
_atom_site_fract_y
_atom_site_fract_z
Si Si1 0.885541 0.747883 0.263093
Si Si2 0.856229 0.795938 0.968116
Si Si3 0.833766 0.942287 0.948383
Si Si4 0.000000 0.625687 0.250000
Si Si5 0.151915 0.521601 0.912609
O O1 0.750000 0.750000 0.500000
O O2 0.930621 0.672938 0.195562
O O3 0.000000 0.784264 0.250000
O O4 0.860984 0.786639 0.139230
O O5 0.820174 0.867017 0.959371
O O6 0.000000 0.772868 0.750000
O O7 0.750000 0.750000 0.000000
O O8 0.000000 0.963274 0.750000
O O9 0.723993 0.966993 0.937148
O O10 0.774027 0.965383 0.167222
O O11 0.878754 0.583092 0.453118
O O12 0.000000 0.500000 0.000000
#
# Coordination Sequence:
#
# PCOD8146961 Si02
#       5
#     8   8   8   4   8
#     4  10  22  42  67  96 134 175 227 274 336 412
#     4  11  25  41  65 101 138 178 221 285 342 397
#     4  11  26  44  66 100 139 177 229 282 351 398
#     4  10  24  40  72  98 132 174 242 270 338 406
#     4  12  23  45  69  99 134 182 229 281 335 417
#
# _framework density 20.246606
#
# number of rings (size 3 to 8) (size 9 to 14) (size 15 to 20)
#    0.667    0.444    2.222    3.333    6.222    0.000 
#    0.000    2.222    0.000    0.000    0.000    0.000 
#    0.000    0.000    0.000    0.000    0.000    0.000 
#
# Total GULP energy -223000.102291 kJ/mol
# GULP energy per Si atom -12388.894572 kJ/mol
# Density = 2.020052 g / cm^3
# Si number density = 20.246606 Si / 1000 Ang^3
#
#
#
# Elastic Constant Matrix: (Units=GPa)
#
#
# Indices 1 2 3 4 5 6 
#
# 1 145.1553 55.8053 50.2111 0.0000 -8.5695 0.0000
# 2 55.8053 98.0944 38.3251 0.0000 -14.7305 0.0000
# 3 50.2111 38.3251 168.9759 0.0000 -7.9190 0.0000
# 4 0.0000 0.0000 0.0000 35.0480 0.0000 -2.6550
# 5 -8.5695 -14.7305 -7.9190 0.0000 32.7861 0.0000
# 6 0.0000 0.0000 0.0000 -2.6550 0.0000 44.1965
#
#
#
# Elastic Compliance Matrix: (Units=1/GPa)
#
#
# Indices 1 2 3 4 5 6 
#
# 1 0.009245 -0.004602 -0.001706 0.000000 -0.000063 0.000000
# 2 -0.004602 0.014162 -0.001621 0.000000 0.004768 0.000000
# 3 -0.001706 -0.001621 0.006815 0.000000 0.000472 0.000000
# 4 0.000000 0.000000 0.000000 0.028663 0.000000 0.001722
# 5 -0.000063 0.004768 0.000472 0.000000 0.032740 0.000000
# 6 0.000000 0.000000 0.000000 0.001722 0.000000 0.022730
#
#
# Mechanical properties :
#
#
# Convention : Reuss Voigt Hill
#
# Bulk Modulus (GPa) = 69.62588 77.87875 73.75232
# Shear Modulus (GPa) = 37.03669 40.26504 38.65087
#
# Velocity S-wave (km/s) = 4.28165 4.46436 4.37396
# Velocity P-wave (km/s) = 7.67508 8.06986 7.87494
#
# Compressibility (1/GPa) = 0.01436248
#
# Stress axis : x y z
#
# Youngs Moduli (GPa) = 108.16617 70.61218 146.73975
#
# Poissons Ratio (x) = 0.32498 0.25038
# Poissons Ratio (y) = 0.49782 0.23786
# Poissons Ratio (z) = 0.18456 0.11446
#
# Static dielectric constant tensor:
#      x y z
#    x 3.276620 0.000000 -0.126810 
#    y 0.000000 3.889460 0.000000 
#    z -0.126810 0.000000 3.924540 
# 
# 
# High freq. dielectric constant tensor:
#      x y z
#    x 1.792700 0.000000 -0.007080 
#    y 0.000000 1.790610 0.000000 
#    z -0.007080 0.000000 1.815790 
# 
# From -- ./inp_files/31687.got.cif
#   From: 2010.06.25/outbox.cif.g09.slc.cpg/sg15_16_cif.got.tgz:31687.got - 2010.06.28 07:06:18.
