data_PCOD8146276
_publ_section_title
;
Structure prediction by ZEFSAII (Michael W. Deem and Ramdas Pophale) SiO2 
 PCOD8146276
Probable space group: C 2/C
;
_chemical_formula_sum "Si O2"
_cell_formula_units_Z 60
_cell_length_a 21.675092
_cell_length_b 8.315066
_cell_length_c 17.651383
_cell_angle_alpha 90.000000
_cell_angle_beta 127.511496
_cell_angle_gamma 90.000000
_cell_volume 2523.510789
_symmetry_space_group_name_H-M "C 2/C"
_symmetry_group_IT_number 15
_symmetry_cell_setting 'monoclinic'
loop_
_space_group_symop_operation_xyz
x,y,z
-x,y,1/2-z
-x,-y,-z
x,-y,1/2+z
1/2+x,1/2+y,z
1/2-x,1/2+y,1/2-z
1/2-x,1/2-y,-z
1/2+x,1/2-y,1/2+z
loop_
_atom_site_type_symbol
_atom_site_label
_atom_site_fract_x
_atom_site_fract_y
_atom_site_fract_z
Si Si1 0.525792 0.214947 0.103213
Si Si2 0.224880 0.223171 0.177893
Si Si3 0.723608 0.586665 0.017556
Si Si4 0.000000 0.613763 0.250000
Si Si5 0.369566 0.895626 0.087884
Si Si6 0.408449 0.456559 0.670028
Si Si7 0.606803 0.023362 0.555300
Si Si8 0.144262 0.047089 0.708151
O O1 0.561496 0.392033 0.110475
O O2 0.522420 0.216169 0.192530
O O3 0.576110 0.064813 0.107296
O O4 0.442317 0.185545 0.002700
O O5 0.233176 0.103206 0.114080
O O6 0.189830 0.399683 0.133970
O O7 0.306994 0.287129 0.271072
O O8 0.174903 0.121213 0.199580
O O9 0.778683 0.439434 0.031847
O O10 0.750000 0.750000 0.000000
O O11 0.632438 0.556281 0.928987
O O12 0.922614 0.516574 0.174229
O O13 0.392116 0.726762 0.139317
O O14 0.390181 0.901440 0.013748
O O15 0.500000 0.490655 0.750000
O O16 0.361054 0.512055 0.707375
#
# Coordination Sequence:
#
# PCOD8146276 Si02
#       8
#     8   8   8   4   8   8   8   8
#     4  10  24  42  69 100 137 187 232 292 364 431
#     4  12  27  46  70 105 143 193 243 301 371 439
#     4  12  25  48  74 103 142 199 249 302 367 447
#     4  10  22  40  76 102 140 192 240 300 364 440
#     4  11  23  45  73 103 145 191 245 298 367 444
#     4  12  29  46  73 111 149 190 255 312 368 440
#     4  10  23  44  70 100 140 183 241 288 365 445
#     4  12  28  44  71 104 149 188 242 309 364 435
#
# _framework density 23.776398
#
# number of rings (size 3 to 8) (size 9 to 14) (size 15 to 20)
#    0.000    0.800    3.333    2.000    8.400    1.600 
#    0.000    0.000    0.000    0.000    0.000    0.000 
#    0.000    0.000    0.000    0.000    0.000    0.000 
#
# Total GULP energy -371800.718029 kJ/mol
# GULP energy per Si atom -12393.357268 kJ/mol
# Density = 2.372228 g / cm^3
# Si number density = 23.776398 Si / 1000 Ang^3
#
#
#
# Elastic Constant Matrix: (Units=GPa)
#
#
# Indices 1 2 3 4 5 6 
#
# 1 72.8797 15.3156 17.9072 0.0000 1.5025 0.0000
# 2 15.3156 82.5330 6.6956 0.0000 4.0460 0.0000
# 3 17.9072 6.6956 70.1037 0.0000 13.1889 0.0000
# 4 0.0000 0.0000 0.0000 35.5656 0.0000 1.5687
# 5 1.5025 4.0460 13.1889 0.0000 37.3794 0.0000
# 6 0.0000 0.0000 0.0000 1.5687 0.0000 43.1138
#
#
#
# Elastic Compliance Matrix: (Units=1/GPa)
#
#
# Indices 1 2 3 4 5 6 
#
# 1 0.015177 -0.002556 -0.003824 0.000000 0.001016 0.000000
# 2 -0.002556 0.012675 -0.000342 0.000000 -0.001149 0.000000
# 3 -0.003824 -0.000342 0.016322 0.000000 -0.005568 0.000000
# 4 0.000000 0.000000 0.000000 0.028162 0.000000 -0.001025
# 5 0.001016 -0.001149 -0.005568 0.000000 0.028801 0.000000
# 6 0.000000 0.000000 0.000000 -0.001025 0.000000 0.023232
#
#
# Mechanical properties :
#
#
# Convention : Reuss Voigt Hill
#
# Bulk Modulus (GPa) = 32.54088 33.92813 33.23451
# Shear Modulus (GPa) = 33.77143 35.58495 34.67819
#
# Velocity S-wave (km/s) = 3.77288 3.87285 3.82319
# Velocity P-wave (km/s) = 5.71799 5.85656 5.78769
#
# Compressibility (1/GPa) = 0.03073058
#
# Stress axis : x y z
#
# Youngs Moduli (GPa) = 65.88928 78.89735 61.26885
#
# Poissons Ratio (x) = 0.20166 0.23428
# Poissons Ratio (y) = 0.16841 0.02093
# Poissons Ratio (z) = 0.25195 0.02695
#
# Static dielectric constant tensor:
#      x y z
#    x 6.272060 0.000000 1.816060 
#    y 0.000000 3.995730 0.000000 
#    z 1.816060 0.000000 6.957480 
# 
# 
# High freq. dielectric constant tensor:
#      x y z
#    x 1.953690 0.000000 0.010630 
#    y 0.000000 1.939600 0.000000 
#    z 0.010630 0.000000 1.946370 
# 
# From -- ./inp_files/214322.got.cif
#   From: 2010.06.25/outbox.cif.g09.slc.cpg/sg15_108_cif.got.tgz:214322.got - 2010.06.28 07:06:18.
