data_PCOD8146307
_publ_section_title
;
Structure prediction by ZEFSAII (Michael W. Deem and Ramdas Pophale) SiO2 
 PCOD8146307
Probable space group: C 2/C
;
_chemical_formula_sum "Si O2"
_cell_formula_units_Z 60
_cell_length_a 23.557827
_cell_length_b 11.816735
_cell_length_c 9.199265
_cell_angle_alpha 90.000000
_cell_angle_beta 92.837482
_cell_angle_gamma 90.000000
_cell_volume 2557.720403
_symmetry_space_group_name_H-M "C 2/C"
_symmetry_group_IT_number 15
_symmetry_cell_setting 'monoclinic'
loop_
_space_group_symop_operation_xyz
x,y,z
-x,y,1/2-z
-x,-y,-z
x,-y,1/2+z
1/2+x,1/2+y,z
1/2-x,1/2+y,1/2-z
1/2-x,1/2-y,-z
1/2+x,1/2-y,1/2+z
loop_
_atom_site_type_symbol
_atom_site_label
_atom_site_fract_x
_atom_site_fract_y
_atom_site_fract_z
Si Si1 0.921788 0.794481 0.327199
Si Si2 0.808126 0.910780 0.333108
Si Si3 0.184695 0.883642 0.845413
Si Si4 0.000000 0.996203 0.250000
Si Si5 0.220493 0.706100 0.642475
Si Si6 0.936937 0.204896 0.136277
Si Si7 0.405544 0.116827 0.850744
Si Si8 0.558347 0.073696 0.330292
O O1 0.854017 0.811048 0.324070
O O2 0.951514 0.916419 0.310147
O O3 0.948048 0.739157 0.479063
O O4 0.933179 0.706565 0.200950
O O5 0.788318 0.928059 0.498554
O O6 0.754563 0.897045 0.218368
O O7 0.836403 0.023593 0.273009
O O8 0.228268 0.803033 0.765894
O O9 0.129870 0.813571 0.880675
O O10 0.970188 0.085229 0.136576
O O11 0.250000 0.750000 0.500000
O O12 0.154964 0.669899 0.607984
O O13 0.946507 0.287369 0.277394
O O14 0.395597 0.012389 0.736570
O O15 0.438297 0.067099 0.995034
O O16 0.500000 0.030344 0.250000
#
# Coordination Sequence:
#
# PCOD8146307 Si02
#       8
#     8   8   8   4   8   8   8   8
#     4  11  24  42  65 105 138 179 225 278 338 408
#     4  11  22  40  66  93 134 172 215 273 337 398
#     4  10  22  41  61  96 131 169 217 274 329 403
#     4  12  22  40  70 102 138 178 226 276 344 396
#     4  11  24  44  68  98 129 175 224 280 343 399
#     4  10  24  41  67  98 139 175 225 276 339 402
#     4  11  27  47  69 100 135 179 231 283 336 410
#     4  12  26  45  70  97 138 177 229 278 340 404
#
# _framework density 23.458387999999999
#
# number of rings (size 3 to 8) (size 9 to 14) (size 15 to 20)
#    0.000    1.067    2.000    3.600    2.800    5.333 
#    0.000    0.000    0.000    0.000    0.000    0.000 
#    0.000    0.000    0.000    0.000    0.000    0.000 
#
# Total GULP energy -371727.045841 kJ/mol
# GULP energy per Si atom -12390.901528 kJ/mol
# Density = 2.340500 g / cm^3
# Si number density = 23.458388 Si / 1000 Ang^3
#
#
#
# Elastic Constant Matrix: (Units=GPa)
#
#
# Indices 1 2 3 4 5 6 
#
# 1 61.1528 10.1110 5.3227 0.0000 6.0691 0.0000
# 2 10.1110 104.1115 43.2946 0.0000 -6.4607 0.0000
# 3 5.3227 43.2946 126.8910 0.0000 17.3335 0.0000
# 4 0.0000 0.0000 0.0000 43.3209 0.0000 -2.3729
# 5 6.0691 -6.4607 17.3335 0.0000 22.6425 0.0000
# 6 0.0000 0.0000 0.0000 -2.3729 0.0000 30.1458
#
#
#
# Elastic Compliance Matrix: (Units=1/GPa)
#
#
# Indices 1 2 3 4 5 6 
#
# 1 0.017274 -0.002441 0.000933 0.000000 -0.006041 0.000000
# 2 -0.002441 0.012572 -0.005323 0.000000 0.008316 0.000000
# 3 0.000933 -0.005323 0.011056 0.000000 -0.010232 0.000000
# 4 0.000000 0.000000 0.000000 0.023183 0.000000 0.001825
# 5 -0.006041 0.008316 -0.010232 0.000000 0.055990 0.000000
# 6 0.000000 0.000000 0.000000 0.001825 0.000000 0.033316
#
#
# Mechanical properties :
#
#
# Convention : Reuss Voigt Hill
#
# Bulk Modulus (GPa) = 36.70941 45.51243 41.11092
# Shear Modulus (GPa) = 28.38775 34.78365 31.58570
#
# Velocity S-wave (km/s) = 3.48247 3.85487 3.67339
# Velocity P-wave (km/s) = 5.64383 6.26552 5.96279
#
# Compressibility (1/GPa) = 0.02724097
#
# Stress axis : x y z
#
# Youngs Moduli (GPa) = 57.88941 79.54317 90.45178
#
# Poissons Ratio (x) = 0.19414 -0.08442
# Poissons Ratio (y) = 0.14129 0.48148
# Poissons Ratio (z) = -0.05403 0.42342
#
# Static dielectric constant tensor:
#      x y z
#    x 4.085850 0.000000 -0.137320 
#    y 0.000000 4.095600 0.000000 
#    z -0.137320 0.000000 4.497120 
# 
# 
# High freq. dielectric constant tensor:
#      x y z
#    x 1.919540 0.000000 -0.005790 
#    y 0.000000 1.924970 0.000000 
#    z -0.005790 0.000000 1.942720 
# 
# From -- ./inp_files/65516.got.cif
#   From: 2010.06.25/outbox.cif.g09.slc.cpg/sg15_33_cif.got.tgz:65516.got - 2010.06.28 07:06:18.
