data_PCOD8146516
_publ_section_title
;
Structure prediction by ZEFSAII (Michael W. Deem and Ramdas Pophale) SiO2 
 PCOD8146516
Probable space group: C 2/C
;
_chemical_formula_sum "Si O2"
_cell_formula_units_Z 44
_cell_length_a 21.127470
_cell_length_b 9.470357
_cell_length_c 11.490317
_cell_angle_alpha 90.000000
_cell_angle_beta 109.882083
_cell_angle_gamma 90.000000
_cell_volume 2162.001272
_symmetry_space_group_name_H-M "C 2/C"
_symmetry_group_IT_number 15
_symmetry_cell_setting 'monoclinic'
loop_
_space_group_symop_operation_xyz
x,y,z
-x,y,1/2-z
-x,-y,-z
x,-y,1/2+z
1/2+x,1/2+y,z
1/2-x,1/2+y,1/2-z
1/2-x,1/2-y,-z
1/2+x,1/2-y,1/2+z
loop_
_atom_site_type_symbol
_atom_site_label
_atom_site_fract_x
_atom_site_fract_y
_atom_site_fract_z
Si Si1 0.617614 0.588654 0.925299
Si Si2 0.211008 0.732388 0.354226
Si Si3 0.500000 0.592346 0.250000
Si Si4 0.389268 0.278599 0.828483
Si Si5 0.297750 0.042474 0.793212
Si Si6 0.721479 0.617216 0.417415
O O1 0.636648 0.702906 0.835233
O O2 0.549584 0.508218 0.851831
O O3 0.680535 0.481207 0.981083
O O4 0.607298 0.662345 0.040755
O O5 0.250000 0.750000 0.500000
O O6 0.244591 0.824565 0.269241
O O7 0.210288 0.566916 0.319058
O O8 0.539199 0.696531 0.187302
O O9 0.371960 0.111224 0.826368
O O10 0.330193 0.354453 0.719869
O O11 0.288016 0.959410 0.908204
O O12 0.750000 0.750000 0.500000
#
# Coordination Sequence:
#
# PCOD8146516 Si02
#       6
#     8   8   4   8   8   8
#     4  10  22  41  67  90 131 175 227 272 323 400
#     4  11  22  39  65 100 138 168 210 278 349 405
#     4  10  24  44  66  94 124 190 234 266 320 400
#     4  11  22  40  63  92 129 174 222 277 318 400
#     4  11  22  36  62  98 135 165 213 263 341 395
#     4  10  23  33  62  98 131 164 207 269 346 396
#
# _framework density 20.351514999999999
#
# number of rings (size 3 to 8) (size 9 to 14) (size 15 to 20)
#    0.000    1.455    3.636    0.545    7.636    1.455 
#    0.000    0.909    0.000    6.545    0.000    0.000 
#    0.000    0.000    0.000    0.000    0.000    0.000 
#
# Total GULP energy -272553.378112 kJ/mol
# GULP energy per Si atom -12388.789914 kJ/mol
# Density = 2.030519 g / cm^3
# Si number density = 20.351515 Si / 1000 Ang^3
#
#
#
# Elastic Constant Matrix: (Units=GPa)
#
#
# Indices 1 2 3 4 5 6 
#
# 1 150.6405 84.3222 57.4826 0.0000 -19.3253 0.0000
# 2 84.3222 158.0673 61.4096 0.0000 -9.1088 0.0000
# 3 57.4826 61.4096 83.7998 0.0000 -9.9014 0.0000
# 4 0.0000 0.0000 0.0000 36.6353 0.0000 -10.9699
# 5 -19.3253 -9.1088 -9.9014 0.0000 28.0747 0.0000
# 6 0.0000 0.0000 0.0000 -10.9699 0.0000 44.9114
#
#
#
# Elastic Compliance Matrix: (Units=1/GPa)
#
#
# Indices 1 2 3 4 5 6 
#
# 1 0.011081 -0.004056 -0.004052 0.000000 0.004883 0.000000
# 2 -0.004056 0.010339 -0.004933 0.000000 -0.001177 0.000000
# 3 -0.004052 -0.004933 0.018584 0.000000 0.002164 0.000000
# 4 0.000000 0.000000 0.000000 0.029450 0.000000 0.007193
# 5 0.004883 -0.001177 0.002164 0.000000 0.039362 0.000000
# 6 0.000000 0.000000 0.000000 0.007193 0.000000 0.024023
#
#
# Mechanical properties :
#
#
# Convention : Reuss Voigt Hill
#
# Bulk Modulus (GPa) = 71.83338 88.77070 80.30204
# Shear Modulus (GPa) = 30.56951 34.54382 32.55666
#
# Velocity S-wave (km/s) = 3.87987 4.12437 4.00399
# Velocity P-wave (km/s) = 7.44608 8.14825 7.80507
#
# Compressibility (1/GPa) = 0.01392110
#
# Stress axis : x y z
#
# Youngs Moduli (GPa) = 90.24305 96.72305 53.81021
#
# Poissons Ratio (x) = 0.39228 0.21805
# Poissons Ratio (y) = 0.36600 0.26547
# Poissons Ratio (z) = 0.36568 0.47718
#
# Static dielectric constant tensor:
#      x y z
#    x 42.716330 0.000000 40.332620 
#    y 0.000000 4.262670 0.000000 
#    z 40.332620 0.000000 46.174000 
# 
# 
# High freq. dielectric constant tensor:
#      x y z
#    x 1.783670 0.000000 -0.034880 
#    y 0.000000 1.809090 0.000000 
#    z -0.034880 0.000000 1.783500 
# 
# From -- ./inp_files/109968.got.cif
#   From: 2010.06.25/outbox.cif.g09.slc.cpg/sg15_55_cif.got.tgz:109968.got - 2010.06.28 07:06:18.
