data_PCOD8146630
_publ_section_title
;
Structure prediction by ZEFSAII (Michael W. Deem and Ramdas Pophale) SiO2 
 PCOD8146630
Probable space group: C 2/C
;
_chemical_formula_sum "Si O2"
_cell_formula_units_Z 44
_cell_length_a 5.520730
_cell_length_b 26.634276
_cell_length_c 15.400981
_cell_angle_alpha 90.000000
_cell_angle_beta 64.069340
_cell_angle_gamma 90.000000
_cell_volume 2036.582129
_symmetry_space_group_name_H-M "C 2/C"
_symmetry_group_IT_number 15
_symmetry_cell_setting 'monoclinic'
loop_
_space_group_symop_operation_xyz
x,y,z
-x,y,1/2-z
-x,-y,-z
x,-y,1/2+z
1/2+x,1/2+y,z
1/2-x,1/2+y,1/2-z
1/2-x,1/2-y,-z
1/2+x,1/2-y,1/2+z
loop_
_atom_site_type_symbol
_atom_site_label
_atom_site_fract_x
_atom_site_fract_y
_atom_site_fract_z
Si Si1 0.487599 0.625212 0.869211
Si Si2 0.484009 0.050296 0.557488
Si Si3 0.676375 0.301219 0.807857
Si Si4 0.000000 0.425864 0.250000
Si Si5 0.136997 0.715616 0.940394
Si Si6 0.822709 0.859564 0.972650
O O1 0.305139 0.575838 0.910275
O O2 0.331723 0.674762 0.862781
O O3 0.738360 0.608927 0.768232
O O4 0.617249 0.644725 0.936614
O O5 0.546844 0.042797 0.652438
O O6 0.702969 0.085319 0.475152
O O7 0.500000 0.000000 0.500000
O O8 0.500000 0.304257 0.750000
O O9 0.562271 0.252358 0.874168
O O10 0.595492 0.351247 0.874939
O O11 0.000000 0.300427 0.750000
O O12 0.250000 0.750000 0.000000
O O13 0.885693 0.685017 0.019048
#
# Coordination Sequence:
#
# PCOD8146630 Si02
#       6
#     8   8   8   4   8   8
#     4  10  22  41  70  93 134 170 230 287 340 413
#     4  10  23  45  73  94 133 174 225 287 364 418
#     4  12  27  41  63 100 147 185 239 284 342 421
#     4  10  22  42  66 108 132 162 234 290 348 424
#     4  11  22  42  67  92 135 190 234 275 347 412
#     4  10  23  43  66  93 131 178 230 282 349 409
#
# _framework density 21.604825000000002
#
# number of rings (size 3 to 8) (size 9 to 14) (size 15 to 20)
#    0.000    1.455    1.818    2.182    5.091    7.273 
#    6.545    3.636    2.000    0.000    0.000    0.000 
#    0.000    0.000    0.000    0.000    0.000    0.000 
#
# Total GULP energy -272560.082191 kJ/mol
# GULP energy per Si atom -12389.094645 kJ/mol
# Density = 2.155565 g / cm^3
# Si number density = 21.604825 Si / 1000 Ang^3
#
#
#
# Elastic Constant Matrix: (Units=GPa)
#
#
# Indices 1 2 3 4 5 6 
#
# 1 83.5331 46.2603 22.1673 0.0000 -11.8512 0.0000
# 2 46.2603 145.0797 72.6696 0.0000 -4.2785 0.0000
# 3 22.1673 72.6696 92.1210 0.0000 -4.2737 0.0000
# 4 0.0000 0.0000 0.0000 27.6827 0.0000 10.3425
# 5 -11.8512 -4.2785 -4.2737 0.0000 13.8781 0.0000
# 6 0.0000 0.0000 0.0000 10.3425 0.0000 27.1454
#
#
#
# Elastic Compliance Matrix: (Units=1/GPa)
#
#
# Indices 1 2 3 4 5 6 
#
# 1 0.016485 -0.005274 0.000782 0.000000 0.012692 0.000000
# 2 -0.005274 0.013091 -0.009211 0.000000 -0.003305 0.000000
# 3 0.000782 -0.009211 0.018091 0.000000 0.003400 0.000000
# 4 0.000000 0.000000 0.000000 0.042119 0.000000 -0.016048
# 5 0.012692 -0.003305 0.003400 0.000000 0.082923 0.000000
# 6 0.000000 0.000000 0.000000 -0.016048 0.000000 0.042953
#
#
# Mechanical properties :
#
#
# Convention : Reuss Voigt Hill
#
# Bulk Modulus (GPa) = 49.35434 66.99203 58.17318
# Shear Modulus (GPa) = 20.01443 25.71701 22.86572
#
# Velocity S-wave (km/s) = 3.04696 3.45387 3.25678
# Velocity P-wave (km/s) = 5.93905 6.85426 6.41300
#
# Compressibility (1/GPa) = 0.02026164
#
# Stress axis : x y z
#
# Youngs Moduli (GPa) = 60.66057 76.39066 55.27738
#
# Poissons Ratio (x) = 0.40289 -0.04325
# Poissons Ratio (y) = 0.31993 0.50914
# Poissons Ratio (z) = -0.04746 0.70361
#
# Static dielectric constant tensor:
#      x y z
#    x 4.865530 0.000000 -0.799550 
#    y 0.000000 3.223440 0.000000 
#    z -0.799550 0.000000 4.827730 
# 
# 
# High freq. dielectric constant tensor:
#      x y z
#    x 1.870000 0.000000 0.000700 
#    y 0.000000 1.827100 0.000000 
#    z 0.000700 0.000000 1.848810 
# 
# From -- ./inp_files/129392.got.cif
#   From: 2010.06.25/outbox.cif.g09.slc.cpg/sg15_65_cif.got.tgz:129392.got - 2010.06.28 07:06:18.
