data_PCOD8146644
_publ_section_title
;
Structure prediction by ZEFSAII (Michael W. Deem and Ramdas Pophale) SiO2 
 PCOD8146644
Probable space group: C 2/C
;
_chemical_formula_sum "Si O2"
_cell_formula_units_Z 40
_cell_length_a 14.318646
_cell_length_b 17.675557
_cell_length_c 10.391263
_cell_angle_alpha 90.000000
_cell_angle_beta 141.146126
_cell_angle_gamma 90.000000
_cell_volume 1649.847624
_symmetry_space_group_name_H-M "C 2/C"
_symmetry_group_IT_number 15
_symmetry_cell_setting 'monoclinic'
loop_
_space_group_symop_operation_xyz
x,y,z
-x,y,1/2-z
-x,-y,-z
x,-y,1/2+z
1/2+x,1/2+y,z
1/2-x,1/2+y,1/2-z
1/2-x,1/2-y,-z
1/2+x,1/2-y,1/2+z
loop_
_atom_site_type_symbol
_atom_site_label
_atom_site_fract_x
_atom_site_fract_y
_atom_site_fract_z
Si Si1 0.830381 0.102679 0.852487
Si Si2 0.847135 0.696817 0.017155
Si Si3 0.152675 0.164336 0.144827
Si Si4 0.336784 0.466055 0.017326
Si Si5 0.675794 0.898864 0.439170
O O1 0.742347 0.121280 0.624291
O O2 0.743630 0.138872 0.882221
O O3 0.994682 0.135135 0.022985
O O4 0.840766 0.012461 0.885427
O O5 0.871125 0.747640 0.914452
O O6 0.750000 0.750000 0.000000
O O7 0.000000 0.672814 0.250000
O O8 0.271832 0.151550 0.384688
O O9 0.212774 0.118356 0.080620
O O10 0.500000 0.460132 0.250000
O O11 0.229822 0.512278 0.001276
O O12 0.500000 0.897461 0.250000
#
# Coordination Sequence:
#
# PCOD8146644 Si02
#       5
#     8   8   8   8   8
#     4  10  23  45  68  95 137 177 230 269 330 410
#     4  12  27  44  67 105 137 181 226 277 347 399
#     4  12  23  44  74  98 137 179 230 275 333 414
#     4  10  22  41  72 103 129 177 229 276 328 410
#     4  10  24  41  66 106 136 174 220 278 351 387
#
# _framework density 24.244664
#
# number of rings (size 3 to 8) (size 9 to 14) (size 15 to 20)
#    1.200    0.000    4.000    1.800    2.800    1.600 
#    0.000    3.000    0.000    0.000    0.000    0.000 
#    0.000    0.000    0.000    0.000    0.000    0.000 
#
# Total GULP energy -247828.406427 kJ/mol
# GULP energy per Si atom -12391.420321 kJ/mol
# Density = 2.418948 g / cm^3
# Si number density = 24.244664 Si / 1000 Ang^3
#
#
#
# Elastic Constant Matrix: (Units=GPa)
#
#
# Indices 1 2 3 4 5 6 
#
# 1 38.3739 -28.9777 12.8207 0.0000 2.0168 0.0000
# 2 -28.9777 65.3118 21.9907 0.0000 -4.7787 0.0000
# 3 12.8207 21.9907 185.3559 0.0000 4.4958 0.0000
# 4 0.0000 0.0000 0.0000 36.1337 0.0000 -10.8847
# 5 2.0168 -4.7787 4.4958 0.0000 49.3239 0.0000
# 6 0.0000 0.0000 0.0000 -10.8847 0.0000 9.9355
#
#
#
# Elastic Compliance Matrix: (Units=1/GPa)
#
#
# Indices 1 2 3 4 5 6 
#
# 1 0.044176 0.021555 -0.005632 0.000000 0.000795 0.000000
# 2 0.021555 0.026613 -0.004700 0.000000 0.002125 0.000000
# 3 -0.005632 -0.004700 0.006362 0.000000 -0.000805 0.000000
# 4 0.000000 0.000000 0.000000 0.041306 0.000000 0.045252
# 5 0.000795 0.002125 -0.000805 0.000000 0.020521 0.000000
# 6 0.000000 0.000000 0.000000 0.045252 0.000000 0.150224
#
#
# Mechanical properties :
#
#
# Convention : Reuss Voigt Hill
#
# Bulk Modulus (GPa) = 10.04058 33.41213 21.72636
# Shear Modulus (GPa) = 16.66918 37.95916 27.31417
#
# Velocity S-wave (km/s) = 2.62494 3.96115 3.36014
# Velocity P-wave (km/s) = 3.65205 5.89339 4.90253
#
# Compressibility (1/GPa) = 0.09959580
#
# Stress axis : x y z
#
# Youngs Moduli (GPa) = 22.63670 37.57630 157.19071
#
# Poissons Ratio (x) = -0.80994 0.88532
# Poissons Ratio (y) = -0.48793 0.73876
# Poissons Ratio (z) = 0.12749 0.17660
#
# Static dielectric constant tensor:
#      x y z
#    x 4.487740 0.000000 -0.114400 
#    y 0.000000 4.823580 0.000000 
#    z -0.114400 0.000000 4.008740 
# 
# 
# High freq. dielectric constant tensor:
#      x y z
#    x 1.970620 0.000000 -0.012970 
#    y 0.000000 1.959540 0.000000 
#    z -0.012970 0.000000 1.964010 
# 
# From -- ./inp_files/106896.got.cif
#   From: 2010.06.25/outbox.cif.g09.slc.cpg/sg15_54_cif.got.tgz:106896.got - 2010.06.28 07:06:18.
