data_PCOD8146464
_publ_section_title
;
Structure prediction by ZEFSAII (Michael W. Deem and Ramdas Pophale) SiO2 
 PCOD8146464
Probable space group: C 2/C
;
_chemical_formula_sum "Si O2"
_cell_formula_units_Z 28
_cell_length_a 10.106284
_cell_length_b 18.874064
_cell_length_c 7.419994
_cell_angle_alpha 90.000000
_cell_angle_beta 86.868872
_cell_angle_gamma 90.000000
_cell_volume 1413.226107
_symmetry_space_group_name_H-M "C 2/C"
_symmetry_group_IT_number 15
_symmetry_cell_setting 'monoclinic'
loop_
_space_group_symop_operation_xyz
x,y,z
-x,y,1/2-z
-x,-y,-z
x,-y,1/2+z
1/2+x,1/2+y,z
1/2-x,1/2+y,1/2-z
1/2-x,1/2-y,-z
1/2+x,1/2-y,1/2+z
loop_
_atom_site_type_symbol
_atom_site_label
_atom_site_fract_x
_atom_site_fract_y
_atom_site_fract_z
Si Si1 0.500000 0.391648 0.750000
Si Si2 0.354131 0.915093 0.209834
Si Si3 0.219573 0.168170 0.017593
Si Si4 0.723592 0.070574 0.183967
O O1 0.434025 0.342415 0.910988
O O2 0.615527 0.439986 0.831562
O O3 0.500000 0.887530 0.250000
O O4 0.245362 0.869687 0.325320
O O5 0.344559 0.997660 0.257430
O O6 0.329622 0.901962 0.001667
O O7 0.312480 0.130064 0.162875
O O8 0.250000 0.250000 0.000000
#
# Coordination Sequence:
#
# PCOD8146464 Si02
#       4
#     4   8   8   8
#     4   8  22  44  62  92 128 164 228 250 340 368
#     4  12  24  39  68  99 132 172 220 262 326 382
#     4  10  24  43  65  97 131 169 214 272 327 383
#     4  10  22  41  65  97 128 171 215 269 318 377
#
# _framework density 19.812823999999999
#
# number of rings (size 3 to 8) (size 9 to 14) (size 15 to 20)
#    1.714    0.000    2.857    0.857    2.000    6.857 
#    0.000    2.857    0.000    0.000    0.000    0.000 
#    0.000    0.000    0.000    0.000    0.000    0.000 
#
# Total GULP energy -173508.318184 kJ/mol
# GULP energy per Si atom -12393.451299 kJ/mol
# Density = 1.976773 g / cm^3
# Si number density = 19.812824 Si / 1000 Ang^3
#
#
#
# Elastic Constant Matrix: (Units=GPa)
#
#
# Indices 1 2 3 4 5 6 
#
# 1 80.1269 -5.8294 -2.0046 0.0000 1.0444 0.0000
# 2 -5.8294 105.6256 33.8154 0.0000 -11.1260 0.0000
# 3 -2.0046 33.8154 106.4670 0.0000 10.7735 0.0000
# 4 0.0000 0.0000 0.0000 31.5987 0.0000 -2.5984
# 5 1.0444 -11.1260 10.7735 0.0000 41.1309 0.0000
# 6 0.0000 0.0000 0.0000 -2.5984 0.0000 17.6025
#
#
#
# Elastic Compliance Matrix: (Units=1/GPa)
#
#
# Indices 1 2 3 4 5 6 
#
# 1 0.012531 0.000663 0.000041 0.000000 -0.000150 0.000000
# 2 0.000663 0.011196 -0.003953 0.000000 0.004047 0.000000
# 3 0.000041 -0.003953 0.011050 0.000000 -0.003965 0.000000
# 4 0.000000 0.000000 0.000000 0.032036 0.000000 0.004729
# 5 -0.000150 0.004047 -0.003965 0.000000 0.026450 0.000000
# 6 0.000000 0.000000 0.000000 0.004729 0.000000 0.057508
#
#
# Mechanical properties :
#
#
# Convention : Reuss Voigt Hill
#
# Bulk Modulus (GPa) = 35.36306 38.24248 36.80277
# Shear Modulus (GPa) = 29.99470 35.81562 32.90516
#
# Velocity S-wave (km/s) = 3.89511 4.25632 4.07971
# Velocity P-wave (km/s) = 6.17386 6.59536 6.38809
#
# Compressibility (1/GPa) = 0.02827810
#
# Stress axis : x y z
#
# Youngs Moduli (GPa) = 79.79957 89.31919 90.49720
#
# Poissons Ratio (x) = -0.05921 -0.00367
# Poissons Ratio (y) = -0.05290 0.35773
# Poissons Ratio (z) = -0.00323 0.35308
#
# Static dielectric constant tensor:
#      x y z
#    x 3.633830 0.000000 0.103760 
#    y 0.000000 3.298790 0.000000 
#    z 0.103760 0.000000 4.420720 
# 
# 
# High freq. dielectric constant tensor:
#      x y z
#    x 1.766710 0.000000 -0.013650 
#    y 0.000000 1.750150 0.000000 
#    z -0.013650 0.000000 1.782950 
# 
# From -- ./inp_files/21672.got.cif
#   From: 2010.06.25/outbox.cif.g09.slc.cpg/sg15_11_cif.got.tgz:21672.got - 2010.06.28 07:06:18.
