data_PCOD8146239
_publ_section_title
;
Structure prediction by ZEFSAII (Michael W. Deem and Ramdas Pophale) SiO2 
 PCOD8146239
Probable space group: C 2/C
;
_chemical_formula_sum "Si O2"
_cell_formula_units_Z 52
_cell_length_a 20.291840
_cell_length_b 14.482324
_cell_length_c 17.034011
_cell_angle_alpha 90.000000
_cell_angle_beta 149.268020
_cell_angle_gamma 90.000000
_cell_volume 2558.096149
_symmetry_space_group_name_H-M "C 2/C"
_symmetry_group_IT_number 15
_symmetry_cell_setting 'monoclinic'
loop_
_space_group_symop_operation_xyz
x,y,z
-x,y,1/2-z
-x,-y,-z
x,-y,1/2+z
1/2+x,1/2+y,z
1/2-x,1/2+y,1/2-z
1/2-x,1/2-y,-z
1/2+x,1/2-y,1/2+z
loop_
_atom_site_type_symbol
_atom_site_label
_atom_site_fract_x
_atom_site_fract_y
_atom_site_fract_z
Si Si1 0.000000 0.919107 0.250000
Si Si2 0.906299 0.368145 0.031649
Si Si3 0.203107 0.928133 0.947026
Si Si4 0.000000 0.227016 0.250000
Si Si5 0.180803 0.320662 0.722270
Si Si6 0.500000 0.877300 0.750000
Si Si7 0.130200 0.500970 0.259348
Si Si8 0.940847 0.765294 0.066716
O O1 0.962741 0.860301 0.135413
O O2 0.882763 0.982602 0.158472
O O3 0.982742 0.289687 0.156153
O O4 0.009507 0.442320 0.103645
O O5 0.812593 0.424388 0.992976
O O6 0.830937 0.319088 0.883549
O O7 0.125154 0.833577 0.861781
O O8 0.258939 0.933282 0.093506
O O9 0.179481 0.429206 0.743536
O O10 0.065186 0.262163 0.642536
O O11 0.316146 0.273937 0.883768
O O12 0.400000 0.938919 0.694358
O O13 0.585267 0.814316 0.895962
#
# Coordination Sequence:
#
# PCOD8146239 Si02
#       8
#     4   8   8   4   8   4   8   8
#     4  10  22  40  70  94 128 166 216 262 326 378
#     4  12  24  42  65  87 131 169 214 260 318 383
#     4  11  22  40  67  91 122 162 223 266 304 381
#     4  11  25  39  63  94 112 174 213 265 311 377
#     4  11  26  39  64  99 136 166 208 264 332 382
#     4   9  19  35  67  92 120 162 217 251 317 375
#     4  11  20  40  64  94 120 166 215 263 311 379
#     4  10  23  40  64 100 133 168 205 269 325 389
#
# _framework density 20.327618000000001
#
# number of rings (size 3 to 8) (size 9 to 14) (size 15 to 20)
#    0.000    1.231    4.615    0.923    4.308    1.846 
#    0.000    2.308    0.000    0.000    0.000    0.000 
#    0.000    0.000    0.000    0.000    0.000    0.000 
#
# Total GULP energy -322445.448482 kJ/mol
# GULP energy per Si atom -12401.748019 kJ/mol
# Density = 2.028135 g / cm^3
# Si number density = 20.327618 Si / 1000 Ang^3
#
#
#
# Elastic Constant Matrix: (Units=GPa)
#
#
# Indices 1 2 3 4 5 6 
#
# 1 50.6662 26.7105 37.0626 0.0000 -11.8352 0.0000
# 2 26.7105 98.2033 51.2899 0.0000 -3.5110 0.0000
# 3 37.0626 51.2899 154.3772 -0.0002 -9.9943 -0.0002
# 4 0.0000 0.0000 -0.0002 23.8468 -0.0001 6.0265
# 5 -11.8352 -3.5110 -9.9943 -0.0001 37.8431 -0.0001
# 6 0.0000 0.0000 -0.0002 6.0265 -0.0001 17.6226
#
#
#
# Elastic Compliance Matrix: (Units=1/GPa)
#
#
# Indices 1 2 3 4 5 6 
#
# 1 0.027146 -0.004799 -0.004478 0.000000 0.006862 0.000000
# 2 -0.004799 0.013169 -0.003298 0.000000 -0.001150 0.000000
# 3 -0.004478 -0.003298 0.008686 0.000000 0.000588 0.000000
# 4 0.000000 0.000000 0.000000 0.045901 0.000000 -0.015697
# 5 0.006862 -0.001150 0.000588 0.000000 0.028619 0.000000
# 6 0.000000 0.000000 0.000000 -0.015697 0.000000 0.062113
#
#
# Mechanical properties :
#
#
# Convention : Reuss Voigt Hill
#
# Bulk Modulus (GPa) = 41.92640 59.26364 50.59502
# Shear Modulus (GPa) = 22.85854 28.40809 25.63331
#
# Velocity S-wave (km/s) = 3.35700 3.74239 3.55492
# Velocity P-wave (km/s) = 5.97462 6.92037 6.46481
#
# Compressibility (1/GPa) = 0.02385132
#
# Stress axis : x y z
#
# Youngs Moduli (GPa) = 36.83800 75.93312 115.12150
#
# Poissons Ratio (x) = 0.36441 0.51557
# Poissons Ratio (y) = 0.17679 0.37963
# Poissons Ratio (z) = 0.16498 0.25040
#
# Static dielectric constant tensor:
#      x y z
#    x 3.422390 0.000000 -0.040500 
#    y 0.000000 3.873100 0.000000 
#    z -0.040500 0.000000 3.845840 
# 
# 
# High freq. dielectric constant tensor:
#      x y z
#    x 1.770830 0.000000 0.000030 
#    y 0.000000 1.807950 0.000000 
#    z 0.000030 0.000000 1.806640 
# 
# From -- ./inp_files/112678.got.cif
#   From: 2010.06.25/outbox.cif.g09.slc.cpg/sg15_57_cif.got.tgz:112678.got - 2010.06.28 07:06:18.
