data_PCOD8146411
_publ_section_title
;
Structure prediction by ZEFSAII (Michael W. Deem and Ramdas Pophale) SiO2 
 PCOD8146411
Probable space group: C 2/C
;
_chemical_formula_sum "Si O2"
_cell_formula_units_Z 40
_cell_length_a 8.518840
_cell_length_b 10.708328
_cell_length_c 20.331169
_cell_angle_alpha 90.000000
_cell_angle_beta 62.317947
_cell_angle_gamma 90.000000
_cell_volume 1642.374757
_symmetry_space_group_name_H-M "C 2/C"
_symmetry_group_IT_number 15
_symmetry_cell_setting 'monoclinic'
loop_
_space_group_symop_operation_xyz
x,y,z
-x,y,1/2-z
-x,-y,-z
x,-y,1/2+z
1/2+x,1/2+y,z
1/2-x,1/2+y,1/2-z
1/2-x,1/2-y,-z
1/2+x,1/2-y,1/2+z
loop_
_atom_site_type_symbol
_atom_site_label
_atom_site_fract_x
_atom_site_fract_y
_atom_site_fract_z
Si Si1 0.007296 0.286754 0.023855
Si Si2 0.580340 0.396506 0.396952
Si Si3 0.244852 0.862068 0.847411
Si Si4 0.132390 0.658479 0.319051
Si Si5 0.227044 0.517752 0.430307
O O1 0.918651 0.235756 0.108219
O O2 0.886271 0.401178 0.019993
O O3 0.997297 0.170197 0.976459
O O4 0.201510 0.357968 0.984519
O O5 0.720079 0.503944 0.387639
O O6 0.688511 0.296252 0.332407
O O7 0.429815 0.476218 0.387963
O O8 0.257801 0.879750 0.766455
O O9 0.425690 0.814637 0.843987
O O10 0.166369 0.555306 0.368284
#
# Coordination Sequence:
#
# PCOD8146411 Si02
#       5
#     8   8   8   8   8
#     4  10  22  41  65 100 126 167 210 270 316 380
#     4  11  23  44  66  96 127 168 217 263 318 382
#     4  11  24  42  66  90 135 169 211 262 323 377
#     4  10  25  44  61  95 129 174 210 263 315 385
#     4  10  22  41  72  91 130 167 215 262 324 370
#
# _framework density 24.354976000000001
#
# number of rings (size 3 to 8) (size 9 to 14) (size 15 to 20)
#    0.000    1.600    2.000    1.200    8.400    1.600 
#    7.200    0.000    0.000    0.000    0.000    0.000 
#    0.000    0.000    0.000    0.000    0.000    0.000 
#
# Total GULP energy -247825.893028 kJ/mol
# GULP energy per Si atom -12391.294651 kJ/mol
# Density = 2.429954 g / cm^3
# Si number density = 24.354976 Si / 1000 Ang^3
#
#
#
# Elastic Constant Matrix: (Units=GPa)
#
#
# Indices 1 2 3 4 5 6 
#
# 1 32.2850 4.5131 22.5529 0.0000 -5.2997 0.0000
# 2 4.5131 140.4017 59.9377 0.0000 -16.8937 0.0000
# 3 22.5529 59.9377 143.5427 0.0000 -8.7877 0.0000
# 4 0.0000 0.0000 0.0000 41.0827 0.0000 -3.3909
# 5 -5.2997 -16.8937 -8.7877 0.0000 23.1543 0.0000
# 6 0.0000 0.0000 0.0000 -3.3909 0.0000 27.5360
#
#
#
# Elastic Compliance Matrix: (Units=1/GPa)
#
#
# Indices 1 2 3 4 5 6 
#
# 1 0.036256 0.002424 -0.006237 0.000000 0.007700 0.000000
# 2 0.002424 0.009452 -0.003964 0.000000 0.005947 0.000000
# 3 -0.006237 -0.003964 0.009559 0.000000 -0.000691 0.000000
# 4 0.000000 0.000000 0.000000 0.024591 0.000000 0.003028
# 5 0.007700 0.005947 -0.000691 0.000000 0.049027 0.000000
# 6 0.000000 0.000000 0.000000 0.003028 0.000000 0.036689
#
#
# Mechanical properties :
#
#
# Convention : Reuss Voigt Hill
#
# Bulk Modulus (GPa) = 25.18026 54.47076 39.82551
# Shear Modulus (GPa) = 25.72453 33.63630 29.68041
#
# Velocity S-wave (km/s) = 3.25350 3.72033 3.49472
# Velocity P-wave (km/s) = 4.94722 6.39284 5.71591
#
# Compressibility (1/GPa) = 0.03971364
#
# Stress axis : x y z
#
# Youngs Moduli (GPa) = 27.58142 105.79647 104.61116
#
# Poissons Ratio (x) = -0.25642 0.65247
# Poissons Ratio (y) = -0.06685 0.41463
# Poissons Ratio (z) = 0.17203 0.41933
#
# Static dielectric constant tensor:
#      x y z
#    x 4.139690 0.000000 -0.242640 
#    y 0.000000 4.674630 0.000000 
#    z -0.242640 0.000000 4.284540 
# 
# 
# High freq. dielectric constant tensor:
#      x y z
#    x 1.945980 0.000000 -0.015840 
#    y 0.000000 1.997150 0.000000 
#    z -0.015840 0.000000 1.959850 
# 
# From -- ./inp_files/229795.got.cif
#   From: 2010.06.25/outbox.cif.g09.slc.cpg/sg15_115_cif.got.tgz:229795.got - 2010.06.28 07:06:18.
