data_PCOD8146792
_publ_section_title
;
Structure prediction by ZEFSAII (Michael W. Deem and Ramdas Pophale) SiO2 
 PCOD8146792
Probable space group: C 2/C
;
_chemical_formula_sum "Si O2"
_cell_formula_units_Z 36
_cell_length_a 13.945886
_cell_length_b 7.621442
_cell_length_c 21.306836
_cell_angle_alpha 90.000000
_cell_angle_beta 39.117616
_cell_angle_gamma 90.000000
_cell_volume 1428.803969
_symmetry_space_group_name_H-M "C 2/C"
_symmetry_group_IT_number 15
_symmetry_cell_setting 'monoclinic'
loop_
_space_group_symop_operation_xyz
x,y,z
-x,y,1/2-z
-x,-y,-z
x,-y,1/2+z
1/2+x,1/2+y,z
1/2-x,1/2+y,1/2-z
1/2-x,1/2-y,-z
1/2+x,1/2-y,1/2+z
loop_
_atom_site_type_symbol
_atom_site_label
_atom_site_fract_x
_atom_site_fract_y
_atom_site_fract_z
Si Si1 0.257104 0.461532 0.469122
Si Si2 0.537312 0.751414 0.894343
Si Si3 0.172470 0.084864 0.273540
Si Si4 0.000000 0.977407 0.750000
Si Si5 0.927270 0.800324 0.979295
O O1 0.381809 0.408918 0.352970
O O2 0.158056 0.621560 0.492960
O O3 0.342532 0.528036 0.490125
O O4 0.136800 0.296931 0.538645
O O5 0.645144 0.918943 0.826663
O O6 0.618799 0.614722 0.807382
O O7 0.553980 0.676890 0.956056
O O8 0.099530 0.205881 0.365085
O O9 0.097806 0.150494 0.245524
#
# Coordination Sequence:
#
# PCOD8146792 Si02
#       5
#     8   8   8   4   8
#     4  10  22  42  71  99 136 185 229 283 353 415
#     4  12  24  44  70 102 141 181 232 291 347 422
#     4  11  25  42  67 104 133 179 232 281 353 419
#     4  10  22  42  64  94 132 178 222 276 342 424
#     4  10  22  43  70  98 138 181 230 288 350 418
#
# _framework density 25.195898
#
# number of rings (size 3 to 8) (size 9 to 14) (size 15 to 20)
#    0.000    1.333    2.222    2.667    3.111    3.556 
#    4.000    0.000    0.000    0.000    0.000    0.000 
#    0.000    0.000    0.000    0.000    0.000    0.000 
#
# Total GULP energy -222987.812424 kJ/mol
# GULP energy per Si atom -12388.211801 kJ/mol
# Density = 2.513855 g / cm^3
# Si number density = 25.195898 Si / 1000 Ang^3
#
#
#
# Elastic Constant Matrix: (Units=GPa)
#
#
# Indices 1 2 3 4 5 6 
#
# 1 171.6846 31.0001 90.6809 0.0000 -19.0712 0.0001
# 2 31.0001 76.1720 59.2161 0.0000 1.5926 0.0002
# 3 90.6809 59.2161 204.1338 0.0000 -30.1505 0.0000
# 4 0.0000 0.0000 0.0000 42.7154 0.0000 -8.4743
# 5 -19.0712 1.5926 -30.1505 0.0000 39.8304 0.0000
# 6 0.0001 0.0002 0.0000 -8.4743 0.0000 24.8532
#
#
#
# Elastic Compliance Matrix: (Units=1/GPa)
#
#
# Indices 1 2 3 4 5 6 
#
# 1 0.007706 -0.000875 -0.002949 0.000000 0.001492 0.000000
# 2 -0.000875 0.017965 -0.005619 0.000000 -0.005391 0.000000
# 3 -0.002949 -0.005619 0.008628 0.000000 0.005344 0.000000
# 4 0.000000 0.000000 0.000000 0.025109 0.000000 0.008562
# 5 0.001492 -0.005391 0.005344 0.000000 0.030082 0.000000
# 6 0.000000 0.000000 0.000000 0.008562 0.000000 0.043156
#
#
# Mechanical properties :
#
#
# Convention : Reuss Voigt Hill
#
# Bulk Modulus (GPa) = 64.87794 90.42050 77.64922
# Shear Modulus (GPa) = 31.91440 39.55268 35.73354
#
# Velocity S-wave (km/s) = 3.56286 3.96638 3.77002
# Velocity P-wave (km/s) = 6.53687 7.54593 7.05945
#
# Compressibility (1/GPa) = 0.01541356
#
# Stress axis : x y z
#
# Youngs Moduli (GPa) = 129.76954 55.66342 115.90153
#
# Poissons Ratio (x) = 0.04870 0.34179
# Poissons Ratio (y) = 0.11352 0.65125
# Poissons Ratio (z) = 0.38269 0.31277
#
# Static dielectric constant tensor:
#      x y z
#    x 5.312330 0.000000 -0.397580 
#    y 0.000000 4.557660 0.000000 
#    z -0.397580 0.000000 4.843110 
# 
# 
# High freq. dielectric constant tensor:
#      x y z
#    x 2.030790 0.000000 -0.015590 
#    y 0.000000 1.994530 0.000000 
#    z -0.015590 0.000000 2.020570 
# 
# From -- ./inp_files/125233.got.cif
#   From: 2010.06.25/outbox.cif.g09.slc.cpg/sg15_63_cif.got.tgz:125233.got - 2010.06.28 07:06:18.
