data_PCOD8146784
_publ_section_title
;
Structure prediction by ZEFSAII (Michael W. Deem and Ramdas Pophale) SiO2 
 PCOD8146784
Probable space group: C 2/C
;
_chemical_formula_sum "Si O2"
_cell_formula_units_Z 48
_cell_length_a 22.923574
_cell_length_b 6.300461
_cell_length_c 20.200585
_cell_angle_alpha 90.000000
_cell_angle_beta 131.994763
_cell_angle_gamma 90.000000
_cell_volume 2168.342092
_symmetry_space_group_name_H-M "C 2/C"
_symmetry_group_IT_number 15
_symmetry_cell_setting 'monoclinic'
loop_
_space_group_symop_operation_xyz
x,y,z
-x,y,1/2-z
-x,-y,-z
x,-y,1/2+z
1/2+x,1/2+y,z
1/2-x,1/2+y,1/2-z
1/2-x,1/2-y,-z
1/2+x,1/2-y,1/2+z
loop_
_atom_site_type_symbol
_atom_site_label
_atom_site_fract_x
_atom_site_fract_y
_atom_site_fract_z
Si Si1 0.087006 0.858741 0.683604
Si Si2 0.647515 0.380512 0.353480
Si Si3 0.706903 0.898235 0.566867
Si Si4 0.324864 0.704423 0.382654
Si Si5 0.679580 0.984530 0.310337
Si Si6 0.091877 0.935899 0.942026
O O1 0.131587 0.883762 0.648212
O O2 0.102422 0.614043 0.717327
O O3 0.117594 0.026786 0.760658
O O4 0.995910 0.895025 0.600847
O O5 0.738071 0.451474 0.437258
O O6 0.648180 0.123228 0.348873
O O7 0.590761 0.459069 0.368476
O O8 0.764514 0.712873 0.633202
O O9 0.635420 0.793009 0.472270
O O10 0.672554 0.040406 0.602047
O O11 0.232606 0.641608 0.305432
O O12 0.364311 0.594315 0.475853
#
# Coordination Sequence:
#
# PCOD8146784 Si02
#       6
#     8   8   8   8   8   8
#     4  11  24  39  64  96 133 172 217 275 334 389
#     4  10  22  42  64  92 128 176 224 270 322 393
#     4   9  21  40  64  91 122 168 220 266 323 390
#     4  10  23  39  65  94 131 171 219 274 328 393
#     4   9  22  39  66  92 122 172 223 266 321 389
#     4  11  23  41  62  95 135 171 217 272 332 392
#
# _framework density 22.136725999999999
#
# number of rings (size 3 to 8) (size 9 to 14) (size 15 to 20)
#    0.000    2.000    0.000    1.500    7.000   12.000 
#    0.000    3.333    0.000    0.000    0.000    0.000 
#    0.000    0.000    0.000    0.000    0.000    0.000 
#
# Total GULP energy -297371.629426 kJ/mol
# GULP energy per Si atom -12390.484559 kJ/mol
# Density = 2.208634 g / cm^3
# Si number density = 22.136726 Si / 1000 Ang^3
#
#
#
# Elastic Constant Matrix: (Units=GPa)
#
#
# Indices 1 2 3 4 5 6 
#
# 1 82.7229 30.6486 16.3907 0.0002 -15.0609 0.0001
# 2 30.6486 129.6079 36.7837 0.0023 -4.3662 -0.0003
# 3 16.3907 36.7837 57.1753 0.0001 -5.5290 -0.0001
# 4 0.0002 0.0023 0.0001 27.4330 0.0002 -8.3335
# 5 -15.0609 -4.3662 -5.5290 0.0002 39.9616 0.0000
# 6 0.0001 -0.0003 -0.0001 -8.3335 0.0000 26.2230
#
#
#
# Elastic Compliance Matrix: (Units=1/GPa)
#
#
# Indices 1 2 3 4 5 6 
#
# 1 0.014346 -0.002685 -0.001916 0.000000 0.004848 0.000000
# 2 -0.002685 0.009943 -0.005696 -0.000001 -0.000714 0.000000
# 3 -0.001916 -0.005696 0.021867 0.000000 0.001681 0.000000
# 4 0.000000 -0.000001 0.000000 0.040348 0.000000 0.012822
# 5 0.004848 -0.000714 0.001681 0.000000 0.027006 0.000000
# 6 0.000000 0.000000 0.000000 0.012822 0.000000 0.042209
#
#
# Mechanical properties :
#
#
# Convention : Reuss Voigt Hill
#
# Bulk Modulus (GPa) = 39.12313 48.57246 43.84780
# Shear Modulus (GPa) = 27.05140 31.10239 29.07689
#
# Velocity S-wave (km/s) = 3.49952 3.75242 3.62817
# Velocity P-wave (km/s) = 5.83444 6.38466 6.11574
#
# Compressibility (1/GPa) = 0.02556032
#
# Stress axis : x y z
#
# Youngs Moduli (GPa) = 69.70689 100.57211 45.73199
#
# Poissons Ratio (x) = 0.27006 0.08763
# Poissons Ratio (y) = 0.18718 0.26050
# Poissons Ratio (z) = 0.13357 0.57287
#
# Static dielectric constant tensor:
#      x y z
#    x 3.951240 0.000000 0.254530 
#    y 0.000000 4.570510 0.000000 
#    z 0.254530 0.000000 3.950790 
# 
# 
# High freq. dielectric constant tensor:
#      x y z
#    x 1.862330 0.000000 0.006400 
#    y 0.000000 1.886940 0.000000 
#    z 0.006400 0.000000 1.851500 
# 
# From -- ./inp_files/254443.got.cif
#   From: 2010.06.25/outbox.cif.g09.slc.cpg/sg15_128_cif.got.tgz:254443.got - 2010.06.28 07:06:18.
