data_PCOD8146345
_publ_section_title
;
Structure prediction by ZEFSAII (Michael W. Deem and Ramdas Pophale) SiO2 
 PCOD8146345
Probable space group: C 2/C
;
_chemical_formula_sum "Si O2"
_cell_formula_units_Z 32
_cell_length_a 5.032334
_cell_length_b 23.056249
_cell_length_c 13.173027
_cell_angle_alpha 90.000000
_cell_angle_beta 102.213834
_cell_angle_gamma 90.000000
_cell_volume 1493.827348
_symmetry_space_group_name_H-M "C 2/C"
_symmetry_group_IT_number 15
_symmetry_cell_setting 'monoclinic'
loop_
_space_group_symop_operation_xyz
x,y,z
-x,y,1/2-z
-x,-y,-z
x,-y,1/2+z
1/2+x,1/2+y,z
1/2-x,1/2+y,1/2-z
1/2-x,1/2-y,-z
1/2+x,1/2-y,1/2+z
loop_
_atom_site_type_symbol
_atom_site_label
_atom_site_fract_x
_atom_site_fract_y
_atom_site_fract_z
Si Si1 0.856841 0.862442 0.129722
Si Si2 0.209925 0.480928 0.180441
Si Si3 0.795601 0.391575 0.821836
Si Si4 0.687902 0.183357 0.979689
O O1 0.740523 0.928152 0.102877
O O2 0.598380 0.819940 0.103194
O O3 0.000000 0.856103 0.250000
O O4 0.072127 0.848797 0.060285
O O5 0.500000 0.493398 0.250000
O O6 0.127578 0.543740 0.128027
O O7 0.000000 0.460277 0.250000
O O8 0.500000 0.386759 0.750000
O O9 0.000000 0.373971 0.750000
O O10 0.841563 0.346013 0.913999
O O11 0.750000 0.250000 0.000000
#
# Coordination Sequence:
#
# PCOD8146345 Si02
#       4
#     8   8   8   8
#     4  11  23  42  65  90 123 158 199 258 309 352
#     4   9  18  36  62  91 119 153 200 247 307 371
#     4  10  22  41  63  89 125 161 198 255 309 355
#     4  12  26  41  61  93 123 163 216 243 289 372
#
# _framework density 21.421485000000001
#
# number of rings (size 3 to 8) (size 9 to 14) (size 15 to 20)
#    0.000    1.500    0.000    6.000    0.000    5.000 
#    0.000    0.000    0.000    0.000    0.000    0.000 
#    0.000    0.000    0.000    0.000    0.000    0.000 
#
# Total GULP energy -198348.745206 kJ/mol
# GULP energy per Si atom -12396.796575 kJ/mol
# Density = 2.137273 g / cm^3
# Si number density = 21.421485 Si / 1000 Ang^3
#
#
#
# Elastic Constant Matrix: (Units=GPa)
#
#
# Indices 1 2 3 4 5 6 
#
# 1 172.4727 64.5592 52.7496 0.0000 -18.4599 0.0000
# 2 64.5592 171.6991 91.7389 0.0000 -19.5193 0.0000
# 3 52.7496 91.7389 89.8900 0.0000 -8.0067 0.0000
# 4 0.0000 0.0000 0.0000 29.2247 0.0000 5.6813
# 5 -18.4599 -19.5193 -8.0067 0.0000 45.6934 0.0000
# 6 0.0000 0.0000 0.0000 5.6813 0.0000 24.4133
#
#
#
# Elastic Compliance Matrix: (Units=1/GPa)
#
#
# Indices 1 2 3 4 5 6 
#
# 1 0.007320 -0.000706 -0.003392 0.000000 0.002061 0.000000
# 2 -0.000706 0.013364 -0.012944 0.000000 0.003156 0.000000
# 3 -0.003392 -0.012944 0.026118 0.000000 -0.002323 0.000000
# 4 0.000000 0.000000 0.000000 0.035839 0.000000 -0.008340
# 5 0.002061 0.003156 -0.002323 0.000000 0.023659 0.000000
# 6 0.000000 0.000000 0.000000 -0.008340 0.000000 0.042902
#
#
# Mechanical properties :
#
#
# Convention : Reuss Voigt Hill
#
# Bulk Modulus (GPa) = 78.61698 94.68414 86.65056
# Shear Modulus (GPa) = 26.66317 34.86723 30.76520
#
# Velocity S-wave (km/s) = 3.53185 4.03882 3.79381
# Velocity P-wave (km/s) = 7.30833 8.12687 7.72844
#
# Compressibility (1/GPa) = 0.01271990
#
# Stress axis : x y z
#
# Youngs Moduli (GPa) = 136.60835 74.82718 38.28778
#
# Poissons Ratio (x) = 0.05282 0.12986
# Poissons Ratio (y) = 0.09643 0.49558
# Poissons Ratio (z) = 0.46332 0.96854
#
# Static dielectric constant tensor:
#      x y z
#    x 3.783930 0.000000 0.166810 
#    y 0.000000 4.163470 0.000000 
#    z 0.166810 0.000000 3.544060 
# 
# 
# High freq. dielectric constant tensor:
#      x y z
#    x 1.870280 0.000000 0.001080 
#    y 0.000000 1.849200 0.000000 
#    z 0.001080 0.000000 1.815810 
# 
# From -- ./inp_files/72117.got.cif
#   From: 2010.06.25/outbox.cif.g09.slc.cpg/sg15_37_cif.got.tgz:72117.got - 2010.06.28 07:06:18.
