data_PCOD8146739
_publ_section_title
;
Structure prediction by ZEFSAII (Michael W. Deem and Ramdas Pophale) SiO2 
 PCOD8146739
Probable space group: C 2/C
;
_chemical_formula_sum "Si O2"
_cell_formula_units_Z 56
_cell_length_a 8.377765
_cell_length_b 11.711938
_cell_length_c 28.874706
_cell_angle_alpha 90.000000
_cell_angle_beta 66.874625
_cell_angle_gamma 90.000000
_cell_volume 2605.529383
_symmetry_space_group_name_H-M "C 2/C"
_symmetry_group_IT_number 15
_symmetry_cell_setting 'monoclinic'
loop_
_space_group_symop_operation_xyz
x,y,z
-x,y,1/2-z
-x,-y,-z
x,-y,1/2+z
1/2+x,1/2+y,z
1/2-x,1/2+y,1/2-z
1/2-x,1/2-y,-z
1/2+x,1/2-y,1/2+z
loop_
_atom_site_type_symbol
_atom_site_label
_atom_site_fract_x
_atom_site_fract_y
_atom_site_fract_z
Si Si1 0.999888 0.905297 0.111717
Si Si2 0.250354 0.795881 0.635265
Si Si3 0.979820 0.610974 0.639997
Si Si4 0.253620 0.937127 0.908401
Si Si5 0.644247 0.802856 0.436112
Si Si6 0.373199 0.489785 0.307018
Si Si7 0.990599 0.396743 0.965323
O O1 0.895468 0.790693 0.136433
O O2 0.181467 0.869033 0.069791
O O3 0.908052 0.977976 0.081373
O O4 0.020468 0.973041 0.157495
O O5 0.206442 0.882997 0.681645
O O6 0.330772 0.868809 0.582767
O O7 0.073881 0.726808 0.644785
O O8 0.966289 0.615020 0.585495
O O9 0.785001 0.600439 0.682570
O O10 0.089568 0.495273 0.639410
O O11 0.187448 0.811492 0.901445
O O12 0.322455 0.919160 0.952553
O O13 0.543951 0.786875 0.496501
O O14 0.500000 0.474911 0.250000
O O15 0.000000 0.500000 0.000000
#
# Coordination Sequence:
#
# PCOD8146739 Si02
#       7
#     8   8   8   8   8   8   8
#     4  10  23  41  63  91 126 168 208 257 318 371
#     4  11  23  43  64  90 132 170 198 259 327 368
#     4  10  22  42  63  90 127 164 206 257 314 380
#     4  11  21  40  59  87 130 167 208 257 299 362
#     4  11  21  38  59  89 128 170 214 251 300 357
#     4  11  23  44  69  93 120 153 208 268 323 387
#     4  12  22  39  62  92 133 171 219 259 296 367
#
# _framework density 21.492753
#
# number of rings (size 3 to 8) (size 9 to 14) (size 15 to 20)
#    0.000    1.143    4.286    2.143    0.000    2.286 
#    2.571    2.143    0.000    0.000    0.000    0.000 
#    0.000    0.000    0.000    0.000    0.000    0.000 
#
# Total GULP energy -346886.699728 kJ/mol
# GULP energy per Si atom -12388.810705 kJ/mol
# Density = 2.144383 g / cm^3
# Si number density = 21.492753 Si / 1000 Ang^3
#
#
#
# Elastic Constant Matrix: (Units=GPa)
#
#
# Indices 1 2 3 4 5 6 
#
# 1 73.7318 26.6820 11.9135 0.0000 -10.0864 0.0000
# 2 26.6820 104.9915 28.9392 0.0000 -7.9173 0.0000
# 3 11.9135 28.9392 93.0841 0.0000 -18.8627 0.0000
# 4 0.0000 0.0000 0.0000 18.0756 0.0000 -2.7871
# 5 -10.0864 -7.9173 -18.8627 0.0000 19.4383 0.0000
# 6 0.0000 0.0000 0.0000 -2.7871 0.0000 33.8710
#
#
#
# Elastic Compliance Matrix: (Units=1/GPa)
#
#
# Indices 1 2 3 4 5 6 
#
# 1 0.015774 -0.003620 0.000581 0.000000 0.007274 0.000000
# 2 -0.003620 0.011278 -0.003103 0.000000 -0.000296 0.000000
# 3 0.000581 -0.003103 0.014238 0.000000 0.012854 0.000000
# 4 0.000000 0.000000 0.000000 0.056034 0.000000 0.004611
# 5 0.007274 -0.000296 0.012854 0.000000 0.067572 0.000000
# 6 0.000000 0.000000 0.000000 0.004611 0.000000 0.029903
#
#
# Mechanical properties :
#
#
# Convention : Reuss Voigt Hill
#
# Bulk Modulus (GPa) = 34.47698 45.20854 39.84276
# Shear Modulus (GPa) = 23.06789 27.89518 25.48154
#
# Velocity S-wave (km/s) = 3.27966 3.60653 3.44697
# Velocity P-wave (km/s) = 5.51521 6.19861 5.86687
#
# Compressibility (1/GPa) = 0.02900486
#
# Stress axis : x y z
#
# Youngs Moduli (GPa) = 63.39544 88.67202 70.23455
#
# Poissons Ratio (x) = 0.32102 -0.04078
# Poissons Ratio (y) = 0.22951 0.21792
# Poissons Ratio (z) = -0.03681 0.27513
#
# Static dielectric constant tensor:
#      x y z
#    x 4.236580 0.000000 -0.134340 
#    y 0.000000 4.225700 0.000000 
#    z -0.134340 0.000000 3.505180 
# 
# 
# High freq. dielectric constant tensor:
#      x y z
#    x 1.858510 0.000000 -0.012310 
#    y 0.000000 1.862170 0.000000 
#    z -0.012310 0.000000 1.794900 
# 
# From -- ./inp_files/307384.got.cif
#   From: 2010.06.25/outbox.cif.g09.slc.cpg/sg15_154_cif.got.tgz:307384.got - 2010.06.28 07:06:18.
