data_PCOD8146798
_publ_section_title
;
Structure prediction by ZEFSAII (Michael W. Deem and Ramdas Pophale) SiO2 
 PCOD8146798
Probable space group: C 2/C
;
_chemical_formula_sum "Si O2"
_cell_formula_units_Z 40
_cell_length_a 18.722920
_cell_length_b 22.354490
_cell_length_c 7.883961
_cell_angle_alpha 90.000000
_cell_angle_beta 145.708001
_cell_angle_gamma 90.000000
_cell_volume 1859.122014
_symmetry_space_group_name_H-M "C 2/C"
_symmetry_group_IT_number 15
_symmetry_cell_setting 'monoclinic'
loop_
_space_group_symop_operation_xyz
x,y,z
-x,y,1/2-z
-x,-y,-z
x,-y,1/2+z
1/2+x,1/2+y,z
1/2-x,1/2+y,1/2-z
1/2-x,1/2-y,-z
1/2+x,1/2-y,1/2+z
loop_
_atom_site_type_symbol
_atom_site_label
_atom_site_fract_x
_atom_site_fract_y
_atom_site_fract_z
Si Si1 0.500000 0.504914 0.750000
Si Si2 0.863330 0.794093 0.770618
Si Si3 0.125210 0.752474 0.357658
Si Si4 0.558097 0.060792 0.679135
Si Si5 0.155165 0.929047 0.824229
Si Si6 0.000000 0.355011 0.750000
O O1 0.620168 0.463102 0.930952
O O2 0.455652 0.549852 0.517562
O O3 0.750000 0.750000 0.500000
O O4 0.849090 0.857899 0.652279
O O5 0.860676 0.803331 0.969843
O O6 0.001714 0.765197 0.997262
O O7 0.250000 0.750000 0.500000
O O8 0.117665 0.688526 0.439171
O O9 0.500000 0.078795 0.750000
O O10 0.528437 0.108699 0.475785
O O11 0.500000 0.000000 0.500000
O O12 0.709066 0.052621 0.986513
#
# Coordination Sequence:
#
# PCOD8146798 Si02
#       6
#     4   8   8   8   8   4
#     4  10  24  41  68  94 133 182 224 292 336 420
#     4  10  22  42  64  95 134 170 226 280 337 419
#     4  10  23  43  65  99 132 177 221 281 350 399
#     4  12  25  43  68 101 137 183 230 288 349 413
#     4  11  23  44  64  99 133 176 237 275 356 416
#     4  10  24  45  64 102 139 174 234 282 346 424
#
# _framework density 21.515532
#
# number of rings (size 3 to 8) (size 9 to 14) (size 15 to 20)
#    0.000    1.600    1.000    4.800    2.800    4.000 
#    3.600    0.000    0.000    0.000    0.000    0.000 
#    0.000    0.000    0.000    0.000    0.000    0.000 
#
# Total GULP energy -247840.377683 kJ/mol
# GULP energy per Si atom -12392.018884 kJ/mol
# Density = 2.146656 g / cm^3
# Si number density = 21.515532 Si / 1000 Ang^3
#
#
#
# Elastic Constant Matrix: (Units=GPa)
#
#
# Indices 1 2 3 4 5 6 
#
# 1 155.4155 38.0602 44.5438 0.0000 32.6711 0.0000
# 2 38.0602 138.2963 38.6494 0.0000 5.4975 0.0000
# 3 44.5438 38.6494 110.0400 0.0000 24.8627 0.0000
# 4 0.0000 0.0000 0.0000 31.4359 0.0000 -6.5073
# 5 32.6711 5.4975 24.8627 0.0000 52.0323 0.0000
# 6 0.0000 0.0000 0.0000 -6.5073 0.0000 31.6104
#
#
#
# Elastic Compliance Matrix: (Units=1/GPa)
#
#
# Indices 1 2 3 4 5 6 
#
# 1 0.008214 -0.001583 -0.001840 0.000000 -0.004111 0.000000
# 2 -0.001583 0.008337 -0.002593 0.000000 0.001352 0.000000
# 3 -0.001840 -0.002593 0.011681 0.000000 -0.004152 0.000000
# 4 0.000000 0.000000 0.000000 0.033227 0.000000 0.006840
# 5 -0.004111 0.001352 -0.004152 0.000000 0.023641 0.000000
# 6 0.000000 0.000000 0.000000 0.006840 0.000000 0.033043
#
#
# Mechanical properties :
#
#
# Convention : Reuss Voigt Hill
#
# Bulk Modulus (GPa) = 61.72682 71.80652 66.76667
# Shear Modulus (GPa) = 36.87980 41.84897 39.36439
#
# Velocity S-wave (km/s) = 4.14466 4.41507 4.28200
# Velocity P-wave (km/s) = 7.18721 7.70955 7.45296
#
# Compressibility (1/GPa) = 0.01620041
#
# Stress axis : x y z
#
# Youngs Moduli (GPa) = 121.75036 119.94165 85.60586
#
# Poissons Ratio (x) = 0.18984 0.15752
# Poissons Ratio (y) = 0.19270 0.22199
# Poissons Ratio (z) = 0.22403 0.31102
#
# Static dielectric constant tensor:
#      x y z
#    x 4.101010 0.000000 0.031900 
#    y 0.000000 4.005960 0.000000 
#    z 0.031900 0.000000 3.855440 
# 
# 
# High freq. dielectric constant tensor:
#      x y z
#    x 1.841940 0.000000 0.006520 
#    y 0.000000 1.848060 0.000000 
#    z 0.006520 0.000000 1.852780 
# 
# From -- ./inp_files/58713.got.cif
#   From: 2010.06.25/outbox.cif.g09.slc.cpg/sg15_30_cif.got.tgz:58713.got - 2010.06.28 07:06:18.
