data_PCOD8146947
_publ_section_title
;
Structure prediction by ZEFSAII (Michael W. Deem and Ramdas Pophale) SiO2 
 PCOD8146947
Probable space group: C 2/C
;
_chemical_formula_sum "Si O2"
_cell_formula_units_Z 48
_cell_length_a 12.446993
_cell_length_b 18.708743
_cell_length_c 16.893056
_cell_angle_alpha 90.000000
_cell_angle_beta 35.973697
_cell_angle_gamma 90.000000
_cell_volume 2310.794979
_symmetry_space_group_name_H-M "C 2/C"
_symmetry_group_IT_number 15
_symmetry_cell_setting 'monoclinic'
loop_
_space_group_symop_operation_xyz
x,y,z
-x,y,1/2-z
-x,-y,-z
x,-y,1/2+z
1/2+x,1/2+y,z
1/2-x,1/2+y,1/2-z
1/2-x,1/2-y,-z
1/2+x,1/2-y,1/2+z
loop_
_atom_site_type_symbol
_atom_site_label
_atom_site_fract_x
_atom_site_fract_y
_atom_site_fract_z
Si Si1 0.513773 0.074051 0.647399
Si Si2 0.272360 0.556608 0.961757
Si Si3 0.214539 0.246783 0.787029
Si Si4 0.595846 0.194227 0.113869
Si Si5 0.822494 0.088277 0.751492
Si Si6 0.109873 0.725289 0.520316
O O1 0.500000 0.089684 0.750000
O O2 0.316634 0.049943 0.728080
O O3 0.566081 0.142582 0.563389
O O4 0.671303 0.017446 0.536791
O O5 0.248643 0.583060 0.885462
O O6 0.482042 0.547983 0.865195
O O7 0.177069 0.615359 0.074371
O O8 0.149760 0.170484 0.790754
O O9 0.416462 0.267291 0.635706
O O10 0.066598 0.306817 0.853156
O O11 0.219720 0.251383 0.877691
O O12 0.500000 0.221460 0.250000
O O13 0.750000 0.250000 0.000000
O O14 0.250000 0.750000 0.500000
#
# Coordination Sequence:
#
# PCOD8146947 Si02
#       6
#     8   8   8   8   8   8
#     4  11  24  45  66  93 136 179 222 278 335 399
#     4  11  23  42  66  97 134 177 222 274 340 408
#     4  11  22  39  66  96 127 172 213 276 335 384
#     4  12  22  37  62  96 130 164 216 270 332 399
#     4  10  22  42  67  92 135 175 215 277 342 388
#     4  11  23  44  66  93 129 174 225 274 326 391
#
# _framework density 20.772072999999999
#
# number of rings (size 3 to 8) (size 9 to 14) (size 15 to 20)
#    0.000    1.000    1.667    7.500    0.000    0.667 
#    9.000    0.000    0.000    0.000    0.000    0.000 
#    0.000    0.000    0.000    0.000    0.000    0.000 
#
# Total GULP energy -297500.583969 kJ/mol
# GULP energy per Si atom -12395.857665 kJ/mol
# Density = 2.072480 g / cm^3
# Si number density = 20.772073 Si / 1000 Ang^3
#
#
#
# Elastic Constant Matrix: (Units=GPa)
#
#
# Indices 1 2 3 4 5 6 
#
# 1 129.6628 19.7007 23.5889 -0.0012 -15.5080 -0.0038
# 2 19.7007 67.3056 42.0667 0.0054 -8.4407 0.0021
# 3 23.5889 42.0667 96.2589 0.0198 -0.2690 0.0042
# 4 -0.0012 0.0054 0.0198 28.0773 0.0096 -3.3333
# 5 -15.5080 -8.4407 -0.2690 0.0096 53.0526 -0.0017
# 6 -0.0038 0.0021 0.0042 -3.3333 -0.0017 33.0249
#
#
#
# Elastic Compliance Matrix: (Units=1/GPa)
#
#
# Indices 1 2 3 4 5 6 
#
# 1 0.008448 -0.001237 -0.001524 0.000001 0.002265 0.000001
# 2 -0.001237 0.021182 -0.008946 0.000001 0.002963 0.000000
# 3 -0.001524 -0.008946 0.014666 -0.000008 -0.001794 -0.000002
# 4 0.000001 0.000001 -0.000008 0.036048 -0.000006 0.003638
# 5 0.002265 0.002963 -0.001794 -0.000006 0.019974 0.000001
# 6 0.000001 0.000000 -0.000002 0.003638 0.000001 0.030647
#
#
# Mechanical properties :
#
#
# Convention : Reuss Voigt Hill
#
# Bulk Modulus (GPa) = 47.88045 51.54888 49.71466
# Shear Modulus (GPa) = 30.99054 36.68903 33.83979
#
# Velocity S-wave (km/s) = 3.86675 4.20726 4.04059
# Velocity P-wave (km/s) = 6.56019 6.96216 6.76416
#
# Compressibility (1/GPa) = 0.02088535
#
# Stress axis : x y z
#
# Youngs Moduli (GPa) = 118.36728 47.20913 68.18292
#
# Poissons Ratio (x) = 0.05838 0.10388
# Poissons Ratio (y) = 0.14637 0.60995
# Poissons Ratio (z) = 0.18034 0.42232
#
# Static dielectric constant tensor:
#      x y z
#    x 4.194200 -0.000090 -0.065940 
#    y -0.000090 3.741230 -0.000340 
#    z -0.065940 -0.000340 4.130610 
# 
# 
# High freq. dielectric constant tensor:
#      x y z
#    x 1.838520 0.000000 -0.007510 
#    y 0.000000 1.786230 0.000000 
#    z -0.007510 0.000000 1.825490 
# 
# From -- ./inp_files/147361.got.cif
#   From: 2010.06.25/outbox.cif.g09.slc.cpg/sg15_74_cif.got.tgz:147361.got - 2010.06.28 07:06:18.
