data_PCOD8146060
_publ_section_title
;
Structure prediction by ZEFSAII (Michael W. Deem and Ramdas Pophale) SiO2 
 PCOD8146060
Probable space group: C 2/C
;
_chemical_formula_sum "Si O2"
_cell_formula_units_Z 36
_cell_length_a 10.369288
_cell_length_b 24.405621
_cell_length_c 15.177928
_cell_angle_alpha 90.000000
_cell_angle_beta 24.784645
_cell_angle_gamma 90.000000
_cell_volume 1610.206834
_symmetry_space_group_name_H-M "C 2/C"
_symmetry_group_IT_number 15
_symmetry_cell_setting 'monoclinic'
loop_
_space_group_symop_operation_xyz
x,y,z
-x,y,1/2-z
-x,-y,-z
x,-y,1/2+z
1/2+x,1/2+y,z
1/2-x,1/2+y,1/2-z
1/2-x,1/2-y,-z
1/2+x,1/2-y,1/2+z
loop_
_atom_site_type_symbol
_atom_site_label
_atom_site_fract_x
_atom_site_fract_y
_atom_site_fract_z
Si Si1 0.578763 0.669740 0.466547
Si Si2 0.367234 0.953679 0.019331
Si Si3 0.000000 0.425554 0.750000
Si Si4 0.788380 0.853216 0.800137
Si Si5 0.763297 0.214494 0.825484
O O1 0.484006 0.651244 0.425874
O O2 0.818220 0.719893 0.299181
O O3 0.315382 0.691614 0.694401
O O4 0.712164 0.615779 0.430112
O O5 0.000000 0.952238 0.250000
O O6 0.476760 0.964408 0.850272
O O7 0.514137 0.896799 0.958878
O O8 0.500000 0.000000 0.000000
O O9 0.000000 0.869773 0.750000
O O10 0.597525 0.797096 0.932357
O O11 0.000000 0.187611 0.750000
#
# Coordination Sequence:
#
# PCOD8146060 Si02
#       5
#     8   8   4   8   8
#     4  11  21  37  62  94 131 174 219 264 311 376
#     4  11  24  46  72  98 125 165 213 273 332 384
#     4  10  22  40  66 102 130 162 220 260 320 392
#     4  11  25  42  61  93 136 174 218 266 319 383
#     4  12  21  37  63  92 127 175 222 264 311 372
#
# _framework density 22.357377
#
# number of rings (size 3 to 8) (size 9 to 14) (size 15 to 20)
#    0.000    0.889    3.333    6.000    0.000    2.667 
#    0.000    2.222    0.000    0.000    0.000    0.000 
#    0.000    0.000    0.000    0.000    0.000    0.000 
#
# Total GULP energy -222985.582224 kJ/mol
# GULP energy per Si atom -12388.087901 kJ/mol
# Density = 2.230649 g / cm^3
# Si number density = 22.357377 Si / 1000 Ang^3
#
#
#
# Elastic Constant Matrix: (Units=GPa)
#
#
# Indices 1 2 3 4 5 6 
#
# 1 178.8265 49.2289 62.1751 0.0246 16.4092 0.1028
# 2 49.2289 75.7811 25.6465 0.1327 15.8246 0.1244
# 3 62.1751 25.6465 91.9684 -0.6274 12.4829 0.5910
# 4 0.0246 0.1327 -0.6274 24.3711 -0.1396 7.8852
# 5 16.4092 15.8246 12.4829 -0.1396 43.5496 -0.0576
# 6 0.1028 0.1244 0.5910 7.8852 -0.0576 32.7058
#
#
#
# Elastic Compliance Matrix: (Units=1/GPa)
#
#
# Indices 1 2 3 4 5 6 
#
# 1 0.008208 -0.003730 -0.004447 -0.000138 -0.000463 0.000101
# 2 -0.003730 0.017083 -0.001656 -0.000159 -0.004328 0.000007
# 3 -0.004447 -0.001656 0.014606 0.000497 -0.001908 -0.000367
# 4 -0.000138 -0.000159 0.000497 0.044522 0.000096 -0.010742
# 5 -0.000463 -0.004328 -0.001908 0.000096 0.025257 0.000074
# 6 0.000101 0.000007 -0.000367 -0.010742 0.000074 0.033172
#
#
# Mechanical properties :
#
#
# Convention : Reuss Voigt Hill
#
# Bulk Modulus (GPa) = 49.42939 68.96412 59.19675
# Shear Modulus (GPa) = 29.54069 34.09366 31.81717
#
# Velocity S-wave (km/s) = 3.63891 3.90928 3.77652
# Velocity P-wave (km/s) = 6.30970 7.16170 6.74915
#
# Compressibility (1/GPa) = 0.02023088
#
# Stress axis : x y z
#
# Youngs Moduli (GPa) = 121.83960 58.53620 68.46298
#
# Poissons Ratio (x) = 0.21834 0.30448
# Poissons Ratio (y) = 0.45446 0.11337
# Poissons Ratio (z) = 0.54186 0.09693
#
# Static dielectric constant tensor:
#      x y z
#    x 4.256010 -0.000640 0.322740 
#    y -0.000640 3.916780 0.001530 
#    z 0.322740 0.001530 3.654550 
# 
# 
# High freq. dielectric constant tensor:
#      x y z
#    x 1.892940 -0.000020 0.030330 
#    y -0.000020 1.867050 0.000100 
#    z 0.030330 0.000100 1.858200 
# 
# From -- ./inp_files/138867.got.cif
#   From: 2010.06.25/outbox.cif.g09.slc.cpg/sg15_70_cif.got.tgz:138867.got - 2010.06.28 07:06:18.
