data_PCOD8146868
_publ_section_title
;
Structure prediction by ZEFSAII (Michael W. Deem and Ramdas Pophale) SiO2 
 PCOD8146868
Probable space group: C 2/C
;
_chemical_formula_sum "Si O2"
_cell_formula_units_Z 56
_cell_length_a 11.918918
_cell_length_b 14.028280
_cell_length_c 17.151976
_cell_angle_alpha 90.000000
_cell_angle_beta 65.792564
_cell_angle_gamma 90.000000
_cell_volume 2615.664972
_symmetry_space_group_name_H-M "C 2/C"
_symmetry_group_IT_number 15
_symmetry_cell_setting 'monoclinic'
loop_
_space_group_symop_operation_xyz
x,y,z
-x,y,1/2-z
-x,-y,-z
x,-y,1/2+z
1/2+x,1/2+y,z
1/2-x,1/2+y,1/2-z
1/2-x,1/2-y,-z
1/2+x,1/2-y,1/2+z
loop_
_atom_site_type_symbol
_atom_site_label
_atom_site_fract_x
_atom_site_fract_y
_atom_site_fract_z
Si Si1 0.676490 0.439768 0.457866
Si Si2 0.262561 0.270829 0.334764
Si Si3 0.676778 0.060078 0.956729
Si Si4 0.759707 0.268033 0.338599
Si Si5 0.573108 0.395544 0.891845
Si Si6 0.500000 0.841178 0.750000
Si Si7 0.000000 0.843444 0.750000
Si Si8 0.433060 0.104469 0.106766
O O1 0.746770 0.495432 0.505669
O O2 0.759155 0.356780 0.397648
O O3 0.553712 0.390327 0.524997
O O4 0.649122 0.512586 0.396057
O O5 0.261706 0.361565 0.391665
O O6 0.255454 0.301817 0.246349
O O7 0.150064 0.200077 0.386846
O O8 0.392610 0.223134 0.317075
O O9 0.626826 0.993693 0.902547
O O10 0.566650 0.116165 0.030279
O O11 0.651259 0.194437 0.391809
O O12 0.891712 0.221159 0.315771
O O13 0.550628 0.408670 0.805656
O O14 0.554954 0.905848 0.803200
#
# Coordination Sequence:
#
# PCOD8146868 Si02
#       8
#     8   8   8   8   8   4   4   8
#     4  11  24  40  64  94 125 162 205 253 307 367
#     4  10  23  42  62  88 123 163 204 252 309 365
#     4  11  24  40  64  94 125 162 205 253 307 367
#     4  10  23  42  62  88 123 163 204 252 309 365
#     4  10  23  42  63  90 124 162 204 255 308 364
#     4  10  22  42  66  88 122 164 206 256 304 362
#     4  10  22  42  66  88 122 164 206 256 304 362
#     4  10  23  42  63  90 124 162 204 255 308 364
#
# _framework density 21.409469999999999
#
# number of rings (size 3 to 8) (size 9 to 14) (size 15 to 20)
#    0.000    1.714    0.000    2.571    0.000   19.429 
#    0.000    2.857    0.000    0.000    0.000    0.000 
#    0.000    0.000    0.000    0.000    0.000    0.000 
#
# Total GULP energy -347293.672497 kJ/mol
# GULP energy per Si atom -12403.345446 kJ/mol
# Density = 2.136074 g / cm^3
# Si number density = 21.409470 Si / 1000 Ang^3
#
#
#
# Elastic Constant Matrix: (Units=GPa)
#
#
# Indices 1 2 3 4 5 6 
#
# 1 90.4515 22.2312 26.1440 0.0000 -0.4375 0.0000
# 2 22.2312 79.2454 57.0603 0.0000 2.6937 0.0000
# 3 26.1440 57.0603 89.1057 0.0000 0.5907 0.0000
# 4 0.0000 0.0000 0.0000 49.8556 0.0000 9.9749
# 5 -0.4375 2.6937 0.5907 0.0000 35.3200 0.0000
# 6 0.0000 0.0000 0.0000 9.9749 0.0000 15.3433
#
#
#
# Elastic Compliance Matrix: (Units=1/GPa)
#
#
# Indices 1 2 3 4 5 6 
#
# 1 0.012187 -0.001584 -0.002564 0.000000 0.000315 0.000000
# 2 -0.001584 0.023705 -0.014705 0.000000 -0.001582 0.000000
# 3 -0.002564 -0.014705 0.021387 0.000000 0.000732 0.000000
# 4 0.000000 0.000000 0.000000 0.023057 0.000000 -0.014990
# 5 0.000315 -0.001582 0.000732 0.000000 0.028425 0.000000
# 6 0.000000 0.000000 0.000000 -0.014990 0.000000 0.074920
#
#
# Mechanical properties :
#
#
# Convention : Reuss Voigt Hill
#
# Bulk Modulus (GPa) = 51.08692 52.18596 51.63644
# Shear Modulus (GPa) = 21.93844 30.32827 26.13335
#
# Velocity S-wave (km/s) = 3.20458 3.76783 3.49756
# Velocity P-wave (km/s) = 6.13238 6.58459 6.36250
#
# Compressibility (1/GPa) = 0.01957448
#
# Stress axis : x y z
#
# Youngs Moduli (GPa) = 82.05168 42.18468 46.75834
#
# Poissons Ratio (x) = 0.06681 0.11988
# Poissons Ratio (y) = 0.12994 0.68758
# Poissons Ratio (z) = 0.21037 0.62032
#
# Static dielectric constant tensor:
#      x y z
#    x 4.004800 0.000000 -0.066200 
#    y 0.000000 3.649580 0.000000 
#    z -0.066200 0.000000 3.990570 
# 
# 
# High freq. dielectric constant tensor:
#      x y z
#    x 1.853050 0.000000 -0.001270 
#    y 0.000000 1.828430 0.000000 
#    z -0.001270 0.000000 1.851650 
# 
# From -- ./inp_files/198242.got.cif
#   From: 2010.06.25/outbox.cif.g09.slc.cpg/sg15_100_cif.got.tgz:198242.got - 2010.06.28 07:06:18.
