data_PCOD8146332
_publ_section_title
;
Structure prediction by ZEFSAII (Michael W. Deem and Ramdas Pophale) SiO2 
 PCOD8146332
Probable space group: C 2/C
;
_chemical_formula_sum "Si O2"
_cell_formula_units_Z 36
_cell_length_a 12.199723
_cell_length_b 14.775781
_cell_length_c 14.193567
_cell_angle_alpha 90.000000
_cell_angle_beta 137.454033
_cell_angle_gamma 90.000000
_cell_volume 1730.036419
_symmetry_space_group_name_H-M "C 2/C"
_symmetry_group_IT_number 15
_symmetry_cell_setting 'monoclinic'
loop_
_space_group_symop_operation_xyz
x,y,z
-x,y,1/2-z
-x,-y,-z
x,-y,1/2+z
1/2+x,1/2+y,z
1/2-x,1/2+y,1/2-z
1/2-x,1/2-y,-z
1/2+x,1/2-y,1/2+z
loop_
_atom_site_type_symbol
_atom_site_label
_atom_site_fract_x
_atom_site_fract_y
_atom_site_fract_z
Si Si1 0.991869 0.139959 0.443436
Si Si2 0.000000 0.566274 0.750000
Si Si3 0.824153 0.187344 0.625832
Si Si4 0.177951 0.030575 0.004236
Si Si5 0.806292 0.299157 0.251842
O O1 0.866880 0.100796 0.440784
O O2 0.894529 0.201170 0.305963
O O3 0.138108 0.196810 0.586448
O O4 0.062237 0.056258 0.429547
O O5 0.137578 0.499864 0.873501
O O6 0.067212 0.627802 0.707642
O O7 0.750000 0.250000 0.500000
O O8 0.841925 0.083269 0.605604
O O9 0.721684 0.182253 0.656025
O O10 0.000000 0.230818 0.750000
#
# Coordination Sequence:
#
# PCOD8146332 Si02
#       5
#     8   4   8   8   8
#     4  10  22  43  66  91 135 168 214 262 324 378
#     4  10  26  42  64  96 134 166 216 264 330 372
#     4  12  23  40  67  96 126 167 217 259 319 381
#     4  10  22  41  62  94 134 167 206 271 316 374
#     4  11  22  44  64  96 126 173 215 260 318 395
#
# _framework density 20.808810999999999
#
# number of rings (size 3 to 8) (size 9 to 14) (size 15 to 20)
#    0.000    1.333    4.444    0.000    1.556    6.222 
#    6.000    0.000    0.000    0.000    0.000    0.000 
#    0.000    0.000    0.000    0.000    0.000    0.000 
#
# Total GULP energy -223155.428916 kJ/mol
# GULP energy per Si atom -12397.523829 kJ/mol
# Density = 2.076145 g / cm^3
# Si number density = 20.808811 Si / 1000 Ang^3
#
#
#
# Elastic Constant Matrix: (Units=GPa)
#
#
# Indices 1 2 3 4 5 6 
#
# 1 115.4809 31.3752 50.0821 -0.0005 12.7329 -0.0002
# 2 31.3752 108.7675 66.8599 -0.0006 5.1877 -0.0004
# 3 50.0821 66.8599 95.8621 -0.0015 13.3299 -0.0009
# 4 -0.0005 -0.0006 -0.0015 44.2321 -0.0006 -1.2696
# 5 12.7329 5.1877 13.3299 -0.0006 35.2964 -0.0003
# 6 -0.0002 -0.0004 -0.0009 -1.2696 -0.0003 34.4475
#
#
#
# Elastic Compliance Matrix: (Units=1/GPa)
#
#
# Indices 1 2 3 4 5 6 
#
# 1 0.011339 0.000524 -0.006026 0.000000 -0.001892 0.000000
# 2 0.000524 0.016250 -0.011872 0.000000 0.001906 0.000000
# 3 -0.006026 -0.011872 0.022497 0.000000 -0.004577 0.000000
# 4 0.000000 0.000000 0.000000 0.022632 0.000000 0.000834
# 5 -0.001892 0.001906 -0.004577 0.000000 0.030462 0.000000
# 6 0.000000 0.000000 0.000000 0.000834 0.000000 0.029060
#
#
# Mechanical properties :
#
#
# Convention : Reuss Voigt Hill
#
# Bulk Modulus (GPa) = 65.20495 68.52722 66.86608
# Shear Modulus (GPa) = 29.05241 34.24806 31.65023
#
# Velocity S-wave (km/s) = 3.74057 4.06130 3.90423
# Velocity P-wave (km/s) = 7.07525 7.41590 7.24758
#
# Compressibility (1/GPa) = 0.01533626
#
# Stress axis : x y z
#
# Youngs Moduli (GPa) = 88.18946 61.53881 44.45050
#
# Poissons Ratio (x) = -0.03223 0.26787
# Poissons Ratio (y) = -0.04618 0.52773
# Poissons Ratio (z) = 0.53145 0.73061
#
# Static dielectric constant tensor:
#      x y z
#    x 4.233010 0.000000 0.377770 
#    y 0.000000 4.038160 0.000000 
#    z 0.377770 0.000000 3.885760 
# 
# 
# High freq. dielectric constant tensor:
#      x y z
#    x 1.826140 0.000000 0.016890 
#    y 0.000000 1.823530 0.000000 
#    z 0.016890 0.000000 1.807030 
# 
# From -- ./inp_files/28732.got.cif
#   From: 2010.06.25/outbox.cif.g09.slc.cpg/sg15_15_cif.got.tgz:28732.got - 2010.06.28 07:06:18.
