data_PCOD8146406
_publ_section_title
;
Structure prediction by ZEFSAII (Michael W. Deem and Ramdas Pophale) SiO2 
 PCOD8146406
Probable space group: C 2/C
;
_chemical_formula_sum "Si O2"
_cell_formula_units_Z 52
_cell_length_a 29.837494
_cell_length_b 5.562115
_cell_length_c 14.231868
_cell_angle_alpha 90.000000
_cell_angle_beta 107.110684
_cell_angle_gamma 90.000000
_cell_volume 2257.372063
_symmetry_space_group_name_H-M "C 2/C"
_symmetry_group_IT_number 15
_symmetry_cell_setting 'monoclinic'
loop_
_space_group_symop_operation_xyz
x,y,z
-x,y,1/2-z
-x,-y,-z
x,-y,1/2+z
1/2+x,1/2+y,z
1/2-x,1/2+y,1/2-z
1/2-x,1/2-y,-z
1/2+x,1/2-y,1/2+z
loop_
_atom_site_type_symbol
_atom_site_label
_atom_site_fract_x
_atom_site_fract_y
_atom_site_fract_z
Si Si1 0.000000 0.803114 0.250000
Si Si2 0.745472 0.696742 0.869875
Si Si3 0.075043 0.125719 0.363728
Si Si4 0.918354 0.500629 0.277902
Si Si5 0.849745 0.251752 0.594149
Si Si6 0.791826 0.804668 0.361799
Si Si7 0.884548 0.581404 0.458637
O O1 0.035171 0.657868 0.205725
O O2 0.031151 0.947691 0.345530
O O3 0.706002 0.724521 0.926226
O O4 0.770011 0.435315 0.898100
O O5 0.720172 0.698920 0.754541
O O6 0.777648 0.937740 0.898240
O O7 0.069199 0.243038 0.257536
O O8 0.074008 0.313298 0.449478
O O9 0.126360 0.007439 0.396114
O O10 0.873108 0.600162 0.194099
O O11 0.907545 0.466391 0.380594
O O12 0.857157 0.376445 0.498408
O O13 0.848015 0.788826 0.406028
#
# Coordination Sequence:
#
# PCOD8146406 Si02
#       7
#     4   8   8   8   8   8   8
#     4  10  22  46  70  98 126 178 214 274 360 426
#     4  10  22  41  64  97 139 195 237 290 333 413
#     4  10  24  43  69  99 133 171 222 283 348 425
#     4  10  22  44  69  94 137 172 220 284 347 419
#     4  10  23  40  64  99 135 181 231 275 347 395
#     4  10  23  39  66  97 140 188 243 283 348 397
#     4  11  24  41  66 104 133 177 228 285 341 408
#
# _framework density 23.035637999999999
#
# number of rings (size 3 to 8) (size 9 to 14) (size 15 to 20)
#    0.000    1.846    1.538    0.462    6.462    5.538 
#    0.000   10.769    0.000    0.000    0.000    0.000 
#    0.000    0.000    0.000    0.000    0.000    0.000 
#
# Total GULP energy -322340.056569 kJ/mol
# GULP energy per Si atom -12397.694483 kJ/mol
# Density = 2.298321 g / cm^3
# Si number density = 23.035638 Si / 1000 Ang^3
#
#
#
# Elastic Constant Matrix: (Units=GPa)
#
#
# Indices 1 2 3 4 5 6 
#
# 1 106.0547 26.4265 39.2047 0.0000 -2.0321 0.0000
# 2 26.4265 118.4651 30.6945 0.0000 -2.1230 0.0000
# 3 39.2047 30.6945 97.6032 0.0000 -30.0125 0.0000
# 4 0.0000 0.0000 0.0000 15.2269 0.0000 -3.2143
# 5 -2.0321 -2.1230 -30.0125 0.0000 37.0103 0.0000
# 6 0.0000 0.0000 0.0000 -3.2143 0.0000 9.9281
#
#
#
# Elastic Compliance Matrix: (Units=1/GPa)
#
#
# Indices 1 2 3 4 5 6 
#
# 1 0.011701 -0.001254 -0.005502 0.000000 -0.003891 0.000000
# 2 -0.001254 0.009490 -0.003110 0.000000 -0.002046 0.000000
# 3 -0.005502 -0.003110 0.017699 0.000000 0.013872 0.000000
# 4 0.000000 0.000000 0.000000 0.070491 0.000000 0.022822
# 5 -0.003891 -0.002046 0.013872 0.000000 0.037938 0.000000
# 6 0.000000 0.000000 0.000000 0.022822 0.000000 0.108113
#
#
# Mechanical properties :
#
#
# Convention : Reuss Voigt Hill
#
# Bulk Modulus (GPa) = 52.19797 57.19716 54.69757
# Shear Modulus (GPa) = 17.75882 27.48623 22.62253
#
# Velocity S-wave (km/s) = 2.77957 3.45803 3.13719
# Velocity P-wave (km/s) = 5.74545 6.38966 6.07610
#
# Compressibility (1/GPa) = 0.01915783
#
# Stress axis : x y z
#
# Youngs Moduli (GPa) = 85.46275 105.37150 56.49955
#
# Poissons Ratio (x) = 0.13217 0.31086
# Poissons Ratio (y) = 0.10720 0.17571
# Poissons Ratio (z) = 0.47022 0.32770
#
# Static dielectric constant tensor:
#      x y z
#    x 4.007920 0.000000 0.155090 
#    y 0.000000 4.258860 0.000000 
#    z 0.155090 0.000000 4.153350 
# 
# 
# High freq. dielectric constant tensor:
#      x y z
#    x 1.898390 0.000000 0.014080 
#    y 0.000000 1.914080 0.000000 
#    z 0.014080 0.000000 1.922380 
# 
# From -- ./inp_files/180162.got.cif
#   From: 2010.06.25/outbox.cif.g09.slc.cpg/sg15_91_cif.got.tgz:180162.got - 2010.06.28 07:06:18.
