data_PCOD8146242
_publ_section_title
;
Structure prediction by ZEFSAII (Michael W. Deem and Ramdas Pophale) SiO2 
 PCOD8146242
Probable space group: C 2/C
;
_chemical_formula_sum "Si O2"
_cell_formula_units_Z 52
_cell_length_a 17.702897
_cell_length_b 8.626909
_cell_length_c 18.789044
_cell_angle_alpha 90.000000
_cell_angle_beta 120.161734
_cell_angle_gamma 90.000000
_cell_volume 2480.988655
_symmetry_space_group_name_H-M "C 2/C"
_symmetry_group_IT_number 15
_symmetry_cell_setting 'monoclinic'
loop_
_space_group_symop_operation_xyz
x,y,z
-x,y,1/2-z
-x,-y,-z
x,-y,1/2+z
1/2+x,1/2+y,z
1/2-x,1/2+y,1/2-z
1/2-x,1/2-y,-z
1/2+x,1/2-y,1/2+z
loop_
_atom_site_type_symbol
_atom_site_label
_atom_site_fract_x
_atom_site_fract_y
_atom_site_fract_z
Si Si1 0.500000 0.216877 0.250000
Si Si2 0.979182 0.739324 0.957168
Si Si3 0.308823 0.590257 0.326413
Si Si4 0.664845 0.641389 0.540022
Si Si5 0.318818 0.643948 0.704227
Si Si6 0.766359 0.537256 0.457617
Si Si7 0.949118 0.438059 0.581766
O O1 0.582608 0.325307 0.273543
O O2 0.514439 0.107821 0.324605
O O3 0.896779 0.815398 0.880888
O O4 0.997890 0.586195 0.920441
O O5 0.959984 0.700800 0.030426
O O6 0.059963 0.858697 0.995332
O O7 0.291999 0.470095 0.381894
O O8 0.318260 0.499373 0.257517
O O9 0.225469 0.704243 0.282131
O O10 0.687377 0.582766 0.471786
O O11 0.702748 0.812781 0.572552
O O12 0.262745 0.597900 0.608812
O O13 0.846933 0.475558 0.542657
#
# Coordination Sequence:
#
# PCOD8146242 Si02
#       7
#     4   8   8   8   8   8   8
#     4  12  28  42  68 106 142 174 226 296 332 408
#     4  10  22  41  71  96 131 178 224 278 330 420
#     4  12  25  43  68  97 135 183 224 281 338 414
#     4  10  22  40  70  96 129 170 225 277 341 404
#     4  12  28  43  68  99 141 177 230 284 340 404
#     4  10  22  45  66  97 130 177 221 280 342 406
#     4  10  22  45  68  99 133 179 227 271 346 399
#
# _framework density 20.959388000000001
#
# number of rings (size 3 to 8) (size 9 to 14) (size 15 to 20)
#    0.000    1.231    1.538    3.231    6.462    1.231 
#    8.308    0.000    0.000    0.000    0.000    0.000 
#    0.000    0.000    0.000    0.000    0.000    0.000 
#
# Total GULP energy -322571.262694 kJ/mol
# GULP energy per Si atom -12406.587027 kJ/mol
# Density = 2.091168 g / cm^3
# Si number density = 20.959388 Si / 1000 Ang^3
#
#
#
# Elastic Constant Matrix: (Units=GPa)
#
#
# Indices 1 2 3 4 5 6 
#
# 1 127.5773 44.1190 36.3541 0.0000 8.6924 0.0000
# 2 44.1190 77.0015 47.4186 0.0000 0.6016 0.0000
# 3 36.3541 47.4186 113.7313 0.0000 -3.2637 0.0000
# 4 0.0000 0.0000 0.0000 45.6541 0.0000 -2.5196
# 5 8.6924 0.6016 -3.2637 0.0000 28.1577 0.0000
# 6 0.0000 0.0000 0.0000 -2.5196 0.0000 29.7106
#
#
#
# Elastic Compliance Matrix: (Units=1/GPa)
#
#
# Indices 1 2 3 4 5 6 
#
# 1 0.010145 -0.005025 -0.001239 0.000000 -0.003168 0.000000
# 2 -0.005025 0.020004 -0.006724 0.000000 0.000345 0.000000
# 3 -0.001239 -0.006724 0.012047 0.000000 0.001922 0.000000
# 4 0.000000 0.000000 0.000000 0.022007 0.000000 0.001866
# 5 -0.003168 0.000345 0.001922 0.000000 0.036708 0.000000
# 6 0.000000 0.000000 0.000000 0.001866 0.000000 0.033816
#
#
# Mechanical properties :
#
#
# Convention : Reuss Voigt Hill
#
# Bulk Modulus (GPa) = 61.65068 63.78816 62.71942
# Shear Modulus (GPa) = 30.10045 33.39904 31.74975
#
# Velocity S-wave (km/s) = 3.79374 3.99621 3.89629
# Velocity P-wave (km/s) = 6.97626 7.19675 7.08736
#
# Compressibility (1/GPa) = 0.01622042
#
# Stress axis : x y z
#
# Youngs Moduli (GPa) = 98.57064 49.98934 83.00607
#
# Poissons Ratio (x) = 0.25121 0.10281
# Poissons Ratio (y) = 0.49534 0.55816
# Poissons Ratio (z) = 0.12208 0.33614
#
# Static dielectric constant tensor:
#      x y z
#    x 3.952910 0.000000 0.009610 
#    y 0.000000 3.901540 0.000000 
#    z 0.009610 0.000000 3.616410 
# 
# 
# High freq. dielectric constant tensor:
#      x y z
#    x 1.836040 0.000000 0.000910 
#    y 0.000000 1.830590 0.000000 
#    z 0.000910 0.000000 1.815560 
# 
# From -- ./inp_files/209700.got.cif
#   From: 2010.06.25/outbox.cif.g09.slc.cpg/sg15_105_cif.got.tgz:209700.got - 2010.06.28 07:06:18.
