data_PCOD8146581
_publ_section_title
;
Structure prediction by ZEFSAII (Michael W. Deem and Ramdas Pophale) SiO2 
 PCOD8146581
Probable space group: C 2/C
;
_chemical_formula_sum "Si O2"
_cell_formula_units_Z 56
_cell_length_a 8.852319
_cell_length_b 25.185892
_cell_length_c 11.146106
_cell_angle_alpha 90.000000
_cell_angle_beta 73.392627
_cell_angle_gamma 90.000000
_cell_volume 2381.401460
_symmetry_space_group_name_H-M "C 2/C"
_symmetry_group_IT_number 15
_symmetry_cell_setting 'monoclinic'
loop_
_space_group_symop_operation_xyz
x,y,z
-x,y,1/2-z
-x,-y,-z
x,-y,1/2+z
1/2+x,1/2+y,z
1/2-x,1/2+y,1/2-z
1/2-x,1/2-y,-z
1/2+x,1/2-y,1/2+z
loop_
_atom_site_type_symbol
_atom_site_label
_atom_site_fract_x
_atom_site_fract_y
_atom_site_fract_z
Si Si1 0.857937 0.184669 0.195139
Si Si2 0.052476 0.075200 0.375695
Si Si3 0.603455 0.800212 0.347981
Si Si4 0.343373 0.948352 0.940448
Si Si5 0.241697 0.559111 0.563479
Si Si6 0.092578 0.362557 0.921265
Si Si7 0.686786 0.397537 0.204964
O O1 0.916975 0.137427 0.093927
O O2 0.830369 0.241083 0.136924
O O3 0.698180 0.165675 0.297186
O O4 0.000000 0.197808 0.250000
O O5 0.222232 0.047626 0.354388
O O6 0.000000 0.071478 0.250000
O O7 0.923425 0.046853 0.488211
O O8 0.500000 0.804238 0.250000
O O9 0.510158 0.818131 0.488570
O O10 0.756740 0.836930 0.299626
O O11 0.490455 0.909777 0.881410
O O12 0.380545 0.011595 0.946725
O O13 0.245794 0.926443 0.073649
O O14 0.199995 0.611541 0.498751
O O15 0.230470 0.570448 0.706335
O O16 0.500000 0.399688 0.250000
#
# Coordination Sequence:
#
# PCOD8146581 Si02
#       7
#     8   8   8   8   8   8   8
#     4  10  22  42  70  97 133 184 227 279 341 411
#     4  11  23  43  66 100 133 173 235 270 329 414
#     4  10  22  41  68  98 131 179 229 277 347 400
#     4  11  27  41  67 103 136 179 227 281 341 399
#     4  12  23  42  71  95 137 187 219 279 339 404
#     4  11  23  46  64 104 140 170 232 288 333 409
#     4  11  24  43  65 102 142 174 229 280 337 412
#
# _framework density 23.515564000000001
#
# number of rings (size 3 to 8) (size 9 to 14) (size 15 to 20)
#    0.000    1.143    5.714    0.857    2.000    4.000 
#    2.571    4.286    0.000    0.000    0.000    0.000 
#    0.000    0.000    0.000    0.000    0.000    0.000 
#
# Total GULP energy -347047.266488 kJ/mol
# GULP energy per Si atom -12394.545232 kJ/mol
# Density = 2.346204 g / cm^3
# Si number density = 23.515564 Si / 1000 Ang^3
#
#
#
# Elastic Constant Matrix: (Units=GPa)
#
#
# Indices 1 2 3 4 5 6 
#
# 1 79.7042 11.4674 29.0208 0.0000 -18.9513 0.0000
# 2 11.4674 136.0254 32.1427 0.0000 -24.1272 0.0000
# 3 29.0208 32.1427 58.0301 0.0000 -13.6165 0.0000
# 4 0.0000 0.0000 0.0000 9.5129 0.0000 1.5728
# 5 -18.9513 -24.1272 -13.6165 0.0000 35.2521 0.0000
# 6 0.0000 0.0000 0.0000 1.5728 0.0000 13.6225
#
#
#
# Elastic Compliance Matrix: (Units=1/GPa)
#
#
# Indices 1 2 3 4 5 6 
#
# 1 0.016804 0.001669 -0.007632 0.000000 0.007228 0.000000
# 2 0.001669 0.009286 -0.004703 0.000000 0.005436 0.000000
# 3 -0.007632 -0.004703 0.024122 0.000000 0.001996 0.000000
# 4 0.000000 0.000000 0.000000 0.107166 0.000000 -0.012373
# 5 0.007228 0.005436 0.001996 0.000000 0.036745 0.000000
# 6 0.000000 0.000000 0.000000 -0.012373 0.000000 0.074836
#
#
# Mechanical properties :
#
#
# Convention : Reuss Voigt Hill
#
# Bulk Modulus (GPa) = 34.62490 46.55793 40.59141
# Shear Modulus (GPa) = 16.67123 25.08610 20.87867
#
# Velocity S-wave (km/s) = 2.66549 3.26971 2.98294
# Velocity P-wave (km/s) = 4.92233 5.83922 5.40027
#
# Compressibility (1/GPa) = 0.02888095
#
# Stress axis : x y z
#
# Youngs Moduli (GPa) = 59.51082 107.68444 41.45546
#
# Poissons Ratio (x) = -0.17971 0.31638
# Poissons Ratio (y) = -0.09931 0.19495
# Poissons Ratio (z) = 0.45418 0.50640
#
# Static dielectric constant tensor:
#      x y z
#    x 4.381820 0.000000 0.005730 
#    y 0.000000 4.688970 0.000000 
#    z 0.005730 0.000000 4.069060 
# 
# 
# High freq. dielectric constant tensor:
#      x y z
#    x 1.937160 0.000000 0.000010 
#    y 0.000000 1.942380 0.000000 
#    z 0.000010 0.000000 1.917060 
# 
# From -- ./inp_files/81255.got.cif
#   From: 2010.06.25/outbox.cif.g09.slc.cpg/sg15_41_cif.got.tgz:81255.got - 2010.06.28 07:06:18.
