data_PCOD8146863
_publ_section_title
;
Structure prediction by ZEFSAII (Michael W. Deem and Ramdas Pophale) SiO2 
 PCOD8146863
Probable space group: C 2/C
;
_chemical_formula_sum "Si O2"
_cell_formula_units_Z 44
_cell_length_a 12.094401
_cell_length_b 8.142877
_cell_length_c 23.435853
_cell_angle_alpha 90.000000
_cell_angle_beta 61.663581
_cell_angle_gamma 90.000000
_cell_volume 2031.479492
_symmetry_space_group_name_H-M "C 2/C"
_symmetry_group_IT_number 15
_symmetry_cell_setting 'monoclinic'
loop_
_space_group_symop_operation_xyz
x,y,z
-x,y,1/2-z
-x,-y,-z
x,-y,1/2+z
1/2+x,1/2+y,z
1/2-x,1/2+y,1/2-z
1/2-x,1/2-y,-z
1/2+x,1/2-y,1/2+z
loop_
_atom_site_type_symbol
_atom_site_label
_atom_site_fract_x
_atom_site_fract_y
_atom_site_fract_z
Si Si1 0.327575 0.889665 0.014252
Si Si2 0.000000 0.743472 0.750000
Si Si3 0.005427 0.666732 0.568438
Si Si4 0.921296 0.190123 0.713318
Si Si5 0.336893 0.956956 0.207931
Si Si6 0.404202 0.551872 0.379397
O O1 0.441926 0.808700 0.021975
O O2 0.238118 0.988406 0.080091
O O3 0.250000 0.750000 0.000000
O O4 0.389874 0.022000 0.955929
O O5 0.893409 0.626896 0.750291
O O6 0.927779 0.852830 0.814464
O O7 0.069167 0.836976 0.571614
O O8 0.894564 0.628188 0.638960
O O9 0.812762 0.062565 0.757359
O O10 0.861852 0.350628 0.700683
O O11 0.000000 0.235631 0.750000
O O12 0.005611 0.107386 0.643296
#
# Coordination Sequence:
#
# PCOD8146863 Si02
#       6
#     8   4   8   8   8   8
#     4  11  24  45  68  91 129 172 226 273 322 384
#     4  10  22  42  66 102 130 174 214 268 334 402
#     4  10  24  43  65  94 127 171 220 271 321 385
#     4  12  24  40  64  99 136 176 211 266 327 398
#     4  11  23  42  66  98 135 171 218 267 333 396
#     4  11  23  43  66  97 135 169 214 269 331 387
#
# _framework density 21.659091
#
# number of rings (size 3 to 8) (size 9 to 14) (size 15 to 20)
#    0.000    1.091    1.818    4.909    2.545    0.727 
#    6.545    0.000    0.000    0.000    0.000    0.000 
#    0.000    0.000    0.000    0.000    0.000    0.000 
#
# Total GULP energy -272881.641127 kJ/mol
# GULP energy per Si atom -12403.710960 kJ/mol
# Density = 2.160979 g / cm^3
# Si number density = 21.659091 Si / 1000 Ang^3
#
#
#
# Elastic Constant Matrix: (Units=GPa)
#
#
# Indices 1 2 3 4 5 6 
#
# 1 92.9724 28.7580 17.2432 0.0000 -1.4541 0.0000
# 2 28.7580 93.3613 -0.1447 0.0000 13.9405 0.0000
# 3 17.2432 -0.1447 62.6644 0.0000 -4.6551 0.0000
# 4 0.0000 0.0000 0.0000 28.0079 0.0000 -1.6201
# 5 -1.4541 13.9405 -4.6551 0.0000 32.2062 0.0000
# 6 0.0000 0.0000 0.0000 -1.6201 0.0000 43.3023
#
#
#
# Elastic Compliance Matrix: (Units=1/GPa)
#
#
# Indices 1 2 3 4 5 6 
#
# 1 0.012711 -0.004205 -0.003366 0.000000 0.001908 0.000000
# 2 -0.004205 0.012850 0.000768 0.000000 -0.005641 0.000000
# 3 -0.003366 0.000768 0.017033 0.000000 0.001978 0.000000
# 4 0.000000 0.000000 0.000000 0.035782 0.000000 0.001339
# 5 0.001908 -0.005641 0.001978 0.000000 0.033864 0.000000
# 6 0.000000 0.000000 0.000000 0.001339 0.000000 0.023144
#
#
# Mechanical properties :
#
#
# Convention : Reuss Voigt Hill
#
# Bulk Modulus (GPa) = 34.49796 37.85679 36.17738
# Shear Modulus (GPa) = 31.51575 34.24605 32.88090
#
# Velocity S-wave (km/s) = 3.81869 3.98067 3.90052
# Velocity P-wave (km/s) = 5.95025 6.21643 6.08480
#
# Compressibility (1/GPa) = 0.02898722
#
# Stress axis : x y z
#
# Youngs Moduli (GPa) = 78.67385 77.82139 58.71027
#
# Poissons Ratio (x) = 0.32727 0.19759
# Poissons Ratio (y) = 0.33085 -0.04508
# Poissons Ratio (z) = 0.26478 -0.05975
#
# Static dielectric constant tensor:
#      x y z
#    x 4.104760 0.000000 -0.121100 
#    y 0.000000 4.028270 0.000000 
#    z -0.121100 0.000000 3.878870 
# 
# 
# High freq. dielectric constant tensor:
#      x y z
#    x 1.858340 0.000000 -0.010330 
#    y 0.000000 1.858500 0.000000 
#    z -0.010330 0.000000 1.847860 
# 
# From -- ./inp_files/236075.got.cif
#   From: 2010.06.25/outbox.cif.g09.slc.cpg/sg15_119_cif.got.tgz:236075.got - 2010.06.28 07:06:18.
