data_PCOD8146086
_publ_section_title
;
Structure prediction by ZEFSAII (Michael W. Deem and Ramdas Pophale) SiO2 
 PCOD8146086
Probable space group: C 2/C
;
_chemical_formula_sum "Si O2"
_cell_formula_units_Z 52
_cell_length_a 16.123878
_cell_length_b 17.337140
_cell_length_c 14.658653
_cell_angle_alpha 90.000000
_cell_angle_beta 37.496444
_cell_angle_gamma 90.000000
_cell_volume 2494.324901
_symmetry_space_group_name_H-M "C 2/C"
_symmetry_group_IT_number 15
_symmetry_cell_setting 'monoclinic'
loop_
_space_group_symop_operation_xyz
x,y,z
-x,y,1/2-z
-x,-y,-z
x,-y,1/2+z
1/2+x,1/2+y,z
1/2-x,1/2+y,1/2-z
1/2-x,1/2-y,-z
1/2+x,1/2-y,1/2+z
loop_
_atom_site_type_symbol
_atom_site_label
_atom_site_fract_x
_atom_site_fract_y
_atom_site_fract_z
Si Si1 0.500000 0.585540 0.250000
Si Si2 0.744700 0.682911 0.620272
Si Si3 0.116648 0.746830 0.838902
Si Si4 0.156917 0.090589 0.386559
Si Si5 0.861624 0.666260 0.327352
Si Si6 0.658426 0.286100 0.501701
Si Si7 0.602884 0.465578 0.297000
O O1 0.403213 0.634816 0.402709
O O2 0.595277 0.529478 0.225235
O O3 0.877066 0.708963 0.565187
O O4 0.761097 0.678522 0.498553
O O5 0.630415 0.750957 0.733427
O O6 0.712795 0.597852 0.679033
O O7 0.131153 0.839699 0.837213
O O8 0.240178 0.706682 0.673584
O O9 0.970889 0.732835 0.916270
O O10 0.299864 0.102218 0.313789
O O11 0.035437 0.082727 0.565915
O O12 0.161151 0.007952 0.334943
O O13 0.000000 0.635507 0.250000
O O14 0.750000 0.250000 0.500000
#
# Coordination Sequence:
#
# PCOD8146086 Si02
#       7
#     4   8   8   8   8   8   8
#     4  12  24  40  68 100 134 176 214 288 326 404
#     4  10  24  38  66  96 123 173 215 272 325 390
#     4  11  23  40  69  97 133 171 228 275 332 387
#     4  10  22  40  66  93 127 168 212 278 316 389
#     4  10  23  40  62  93 133 164 214 266 329 389
#     4  12  22  42  65 101 132 175 223 276 331 392
#     4  11  22  41  68  97 129 165 231 265 335 388
#
# _framework density 20.847324
#
# number of rings (size 3 to 8) (size 9 to 14) (size 15 to 20)
#    0.000    1.231    3.077    1.846   14.000    0.000 
#    0.000    0.769    3.385    0.000    0.000    0.000 
#    0.000    0.000    0.000    0.000    0.000    0.000 
#
# Total GULP energy -322092.998378 kJ/mol
# GULP energy per Si atom -12388.192245 kJ/mol
# Density = 2.079987 g / cm^3
# Si number density = 20.847324 Si / 1000 Ang^3
#
#
#
# Elastic Constant Matrix: (Units=GPa)
#
#
# Indices 1 2 3 4 5 6 
#
# 1 153.1722 44.5232 20.2745 0.0001 -26.9691 0.0002
# 2 44.5232 110.2272 25.7347 0.0003 -10.7554 0.0001
# 3 20.2745 25.7347 51.7303 0.0009 -11.6920 0.0001
# 4 0.0001 0.0003 0.0009 23.0004 -0.0004 2.6851
# 5 -26.9691 -10.7554 -11.6920 -0.0004 34.8910 -0.0001
# 6 0.0002 0.0001 0.0001 2.6851 -0.0001 33.4490
#
#
#
# Elastic Compliance Matrix: (Units=1/GPa)
#
#
# Indices 1 2 3 4 5 6 
#
# 1 0.008352 -0.002679 -0.000723 0.000000 0.005387 0.000000
# 2 -0.002679 0.011204 -0.004556 0.000000 -0.000144 0.000000
# 3 -0.000723 -0.004556 0.023194 -0.000001 0.005809 0.000000
# 4 0.000000 0.000000 -0.000001 0.043889 0.000000 -0.003523
# 5 0.005387 -0.000144 0.005809 0.000000 0.034727 0.000000
# 6 0.000000 0.000000 0.000000 -0.003523 0.000000 0.030179
#
#
# Mechanical properties :
#
#
# Convention : Reuss Voigt Hill
#
# Bulk Modulus (GPa) = 37.26711 55.13271 46.19991
# Shear Modulus (GPa) = 28.34384 33.24122 30.79253
#
# Velocity S-wave (km/s) = 3.69126 3.99746 3.84741
# Velocity P-wave (km/s) = 6.00685 6.91445 6.47657
#
# Compressibility (1/GPa) = 0.02683331
#
# Stress axis : x y z
#
# Youngs Moduli (GPa) = 119.73858 89.25395 43.11465
#
# Poissons Ratio (x) = 0.23911 0.03116
# Poissons Ratio (y) = 0.32077 0.19644
# Poissons Ratio (z) = 0.08655 0.40667
#
# Static dielectric constant tensor:
#      x y z
#    x 3.814770 0.000000 -0.176520 
#    y 0.000000 3.780280 0.000000 
#    z -0.176520 0.000000 2.965890 
# 
# 
# High freq. dielectric constant tensor:
#      x y z
#    x 1.841430 0.000000 0.017260 
#    y 0.000000 1.804330 0.000000 
#    z 0.017260 0.000000 1.792770 
# 
# From -- ./inp_files/155407.got.cif
#   From: 2010.06.25/outbox.cif.g09.slc.cpg/sg15_78_cif.got.tgz:155407.got - 2010.06.28 07:06:18.
