data_PCOD8146467
_publ_section_title
;
Structure prediction by ZEFSAII (Michael W. Deem and Ramdas Pophale) SiO2 
 PCOD8146467
Probable space group: C 2/C
;
_chemical_formula_sum "Si O2"
_cell_formula_units_Z 64
_cell_length_a 14.603872
_cell_length_b 30.505790
_cell_length_c 8.448687
_cell_angle_alpha 90.000000
_cell_angle_beta 50.006923
_cell_angle_gamma 90.000000
_cell_volume 2883.616543
_symmetry_space_group_name_H-M "C 2/C"
_symmetry_group_IT_number 15
_symmetry_cell_setting 'monoclinic'
loop_
_space_group_symop_operation_xyz
x,y,z
-x,y,1/2-z
-x,-y,-z
x,-y,1/2+z
1/2+x,1/2+y,z
1/2-x,1/2+y,1/2-z
1/2-x,1/2-y,-z
1/2+x,1/2-y,1/2+z
loop_
_atom_site_type_symbol
_atom_site_label
_atom_site_fract_x
_atom_site_fract_y
_atom_site_fract_z
Si Si1 0.282776 0.407732 0.207155
Si Si2 0.316721 0.169610 0.850682
Si Si3 0.707029 0.437804 0.813924
Si Si4 0.926505 0.311144 0.560788
Si Si5 0.574353 0.283111 0.515193
Si Si6 0.138969 0.982889 0.576730
Si Si7 0.982438 0.134326 0.954846
Si Si8 0.623263 0.108642 0.182514
O O1 0.213511 0.381399 0.146161
O O2 0.417941 0.392519 0.065134
O O3 0.225019 0.397651 0.439608
O O4 0.294251 0.458305 0.143100
O O5 0.432790 0.180866 0.618358
O O6 0.344493 0.175476 0.003341
O O7 0.204231 0.198519 0.918043
O O8 0.706354 0.468312 0.660950
O O9 0.842080 0.423108 0.708645
O O10 0.651442 0.465543 0.024046
O O11 0.638566 0.391507 0.869301
O O12 0.905303 0.259580 0.618247
O O13 0.884413 0.340367 0.756683
O O14 0.500000 0.266321 0.750000
O O15 0.486901 0.316973 0.523053
O O16 0.000000 0.970739 0.750000
O O17 0.000000 0.138323 0.750000
O O18 0.500000 0.090947 0.250000
#
# Coordination Sequence:
#
# PCOD8146467 Si02
#       8
#     8   8   8   8   8   8   8   8
#     4  11  23  43  67 100 140 179 236 277 348 427
#     4  10  22  41  65  97 135 186 235 297 352 423
#     4  12  26  45  73 108 145 182 226 287 361 428
#     4  11  23  43  67  95 135 191 247 293 352 415
#     4  11  25  39  68 105 139 182 240 303 359 425
#     4  12  25  44  76 114 143 177 224 288 363 440
#     4  11  24  41  63 102 143 180 218 287 359 419
#     4  12  26  45  69  95 139 198 241 288 344 412
#
# _framework density 22.194351999999999
#
# number of rings (size 3 to 8) (size 9 to 14) (size 15 to 20)
#    0.000    0.750    5.000    2.625    5.250    0.500 
#    0.000    3.750    0.000    0.000    0.000    0.000 
#    0.000    0.000    0.000    0.000    0.000    0.000 
#
# Total GULP energy -396727.009228 kJ/mol
# GULP energy per Si atom -12397.719038 kJ/mol
# Density = 2.214384 g / cm^3
# Si number density = 22.194352 Si / 1000 Ang^3
#
#
#
# Elastic Constant Matrix: (Units=GPa)
#
#
# Indices 1 2 3 4 5 6 
#
# 1 129.5205 62.9110 18.6069 0.0000 -4.7840 0.0000
# 2 62.9110 132.1075 41.6898 0.0000 -0.8095 0.0000
# 3 18.6069 41.6898 71.2851 0.0000 1.2524 0.0000
# 4 0.0000 0.0000 0.0000 39.3686 0.0000 1.2595
# 5 -4.7840 -0.8095 1.2524 0.0000 30.9203 0.0000
# 6 0.0000 0.0000 0.0000 1.2595 0.0000 15.6970
#
#
#
# Elastic Compliance Matrix: (Units=1/GPa)
#
#
# Indices 1 2 3 4 5 6 
#
# 1 0.010109 -0.004862 0.000180 0.000000 0.001430 0.000000
# 2 -0.004862 0.011628 -0.005527 0.000000 -0.000224 0.000000
# 3 0.000180 -0.005527 0.017228 0.000000 -0.000815 0.000000
# 4 0.000000 0.000000 0.000000 0.025466 0.000000 -0.002043
# 5 0.001430 -0.000224 -0.000815 0.000000 0.032589 0.000000
# 6 0.000000 0.000000 0.000000 -0.002043 0.000000 0.063870
#
#
# Mechanical properties :
#
#
# Convention : Reuss Voigt Hill
#
# Bulk Modulus (GPa) = 53.92037 64.36983 59.14510
# Shear Modulus (GPa) = 26.66760 31.17754 28.92257
#
# Velocity S-wave (km/s) = 3.47010 3.75207 3.61383
# Velocity P-wave (km/s) = 6.35632 6.91639 6.64226
#
# Compressibility (1/GPa) = 0.01854587
#
# Stress axis : x y z
#
# Youngs Moduli (GPa) = 98.91739 85.99986 58.04454
#
# Poissons Ratio (x) = 0.41815 -0.01043
# Poissons Ratio (y) = 0.48095 0.32083
# Poissons Ratio (z) = -0.01777 0.47535
#
# Static dielectric constant tensor:
#      x y z
#    x 4.311430 0.000000 0.011350 
#    y 0.000000 4.183070 0.000000 
#    z 0.011350 0.000000 3.774120 
# 
# 
# High freq. dielectric constant tensor:
#      x y z
#    x 1.888850 0.000000 0.005040 
#    y 0.000000 1.880640 0.000000 
#    z 0.005040 0.000000 1.852120 
# 
# From -- ./inp_files/44830.got.cif
#   From: 2010.06.25/outbox.cif.g09.slc.cpg/sg15_23_cif.got.tgz:44830.got - 2010.06.28 07:06:18.
