data_PCOD8146443
_publ_section_title
;
Structure prediction by ZEFSAII (Michael W. Deem and Ramdas Pophale) SiO2 
 PCOD8146443
Probable space group: C 2/C
;
_chemical_formula_sum "Si O2"
_cell_formula_units_Z 48
_cell_length_a 7.966589
_cell_length_b 14.069322
_cell_length_c 26.535562
_cell_angle_alpha 90.000000
_cell_angle_beta 136.787990
_cell_angle_gamma 90.000000
_cell_volume 2036.451782
_symmetry_space_group_name_H-M "C 2/C"
_symmetry_group_IT_number 15
_symmetry_cell_setting 'monoclinic'
loop_
_space_group_symop_operation_xyz
x,y,z
-x,y,1/2-z
-x,-y,-z
x,-y,1/2+z
1/2+x,1/2+y,z
1/2-x,1/2+y,1/2-z
1/2-x,1/2-y,-z
1/2+x,1/2-y,1/2+z
loop_
_atom_site_type_symbol
_atom_site_label
_atom_site_fract_x
_atom_site_fract_y
_atom_site_fract_z
Si Si1 0.206789 0.401046 0.006928
Si Si2 0.441719 0.914648 0.084937
Si Si3 0.086283 0.506197 0.211892
Si Si4 0.545970 0.209588 0.318929
Si Si5 0.014761 0.216799 0.016153
Si Si6 0.538521 0.595072 0.840475
O O1 0.020950 0.326178 0.995372
O O2 0.400183 0.441330 0.090177
O O3 0.077707 0.494773 0.956892
O O4 0.353754 0.350172 0.995288
O O5 0.720951 0.882120 0.140318
O O6 0.411457 0.944566 0.136828
O O7 0.258707 0.826019 0.032852
O O8 0.370225 0.477047 0.273053
O O9 0.000000 0.492779 0.250000
O O10 0.080647 0.613186 0.189868
O O11 0.500000 0.217638 0.250000
O O12 0.833413 0.207865 0.398632
O O13 0.414274 0.299415 0.317346
#
# Coordination Sequence:
#
# PCOD8146443 Si02
#       6
#     8   8   8   8   8   8
#     4  10  22  41  66 102 133 177 228 279 344 421
#     4  12  23  42  70 100 137 179 223 297 345 410
#     4  11  24  43  67  94 128 185 227 272 346 412
#     4  10  22  41  65  93 131 176 218 272 340 409
#     4  10  22  41  69  99 137 174 231 283 347 412
#     4  11  25  45  64  98 139 169 228 284 339 417
#
# _framework density 23.570406999999999
#
# number of rings (size 3 to 8) (size 9 to 14) (size 15 to 20)
#    0.000    1.333    1.667    3.500    4.667    2.667 
#    9.000    0.000    0.000    0.000    0.000    0.000 
#    0.000    0.000    0.000    0.000    0.000    0.000 
#
# Total GULP energy -297375.586443 kJ/mol
# GULP energy per Si atom -12390.649435 kJ/mol
# Density = 2.351676 g / cm^3
# Si number density = 23.570407 Si / 1000 Ang^3
#
#
#
# Elastic Constant Matrix: (Units=GPa)
#
#
# Indices 1 2 3 4 5 6 
#
# 1 61.8978 30.8636 46.8144 0.0000 11.7164 0.0000
# 2 30.8636 151.0238 68.5838 0.0000 17.3489 0.0000
# 3 46.8144 68.5838 158.1505 0.0000 -8.0651 0.0000
# 4 0.0000 0.0000 0.0000 39.8558 0.0000 -4.0313
# 5 11.7164 17.3489 -8.0651 0.0000 44.6840 0.0000
# 6 0.0000 0.0000 0.0000 -4.0313 0.0000 25.9077
#
#
#
# Elastic Compliance Matrix: (Units=1/GPa)
#
#
# Indices 1 2 3 4 5 6 
#
# 1 0.023037 -0.000810 -0.006822 0.000000 -0.006957 0.000000
# 2 -0.000810 0.009000 -0.003866 0.000000 -0.003980 0.000000
# 3 -0.006822 -0.003866 0.010282 0.000000 0.005146 0.000000
# 4 0.000000 0.000000 0.000000 0.025492 0.000000 0.003967
# 5 -0.006957 -0.003980 0.005146 0.000000 0.026677 0.000000
# 6 0.000000 0.000000 0.000000 0.003967 0.000000 0.039216
#
#
# Mechanical properties :
#
#
# Convention : Reuss Voigt Hill
#
# Bulk Modulus (GPa) = 51.75876 73.73286 62.74581
# Shear Modulus (GPa) = 30.64846 37.07686 33.86266
#
# Velocity S-wave (km/s) = 3.60987 3.97044 3.79444
# Velocity P-wave (km/s) = 6.27549 7.23665 6.77314
#
# Compressibility (1/GPa) = 0.01932040
#
# Stress axis : x y z
#
# Youngs Moduli (GPa) = 43.40933 111.11274 97.26170
#
# Poissons Ratio (x) = 0.09004 0.66356
# Poissons Ratio (y) = 0.03518 0.37601
# Poissons Ratio (z) = 0.29616 0.42956
#
# Static dielectric constant tensor:
#      x y z
#    x 3.968840 0.000000 -0.220510 
#    y 0.000000 4.805950 0.000000 
#    z -0.220510 0.000000 4.544330 
# 
# 
# High freq. dielectric constant tensor:
#      x y z
#    x 1.904110 0.000000 -0.025420 
#    y 0.000000 1.954790 0.000000 
#    z -0.025420 0.000000 1.951200 
# 
# From -- ./inp_files/289070.got.cif
#   From: 2010.06.25/outbox.cif.g09.slc.cpg/sg15_145_cif.got.tgz:289070.got - 2010.06.28 07:06:18.
