data_PCOD8146525
_publ_section_title
;
Structure prediction by ZEFSAII (Michael W. Deem and Ramdas Pophale) SiO2 
 PCOD8146525
Probable space group: C 2/C
;
_chemical_formula_sum "Si O2"
_cell_formula_units_Z 64
_cell_length_a 29.042667
_cell_length_b 11.747328
_cell_length_c 9.251658
_cell_angle_alpha 90.000000
_cell_angle_beta 95.064218
_cell_angle_gamma 90.000000
_cell_volume 3144.101264
_symmetry_space_group_name_H-M "C 2/C"
_symmetry_group_IT_number 15
_symmetry_cell_setting 'monoclinic'
loop_
_space_group_symop_operation_xyz
x,y,z
-x,y,1/2-z
-x,-y,-z
x,-y,1/2+z
1/2+x,1/2+y,z
1/2-x,1/2+y,1/2-z
1/2-x,1/2-y,-z
1/2+x,1/2-y,1/2+z
loop_
_atom_site_type_symbol
_atom_site_label
_atom_site_fract_x
_atom_site_fract_y
_atom_site_fract_z
Si Si1 0.454572 0.575668 0.833538
Si Si2 0.128912 0.313882 0.414162
Si Si3 0.371865 0.263972 0.268296
Si Si4 0.288052 0.570556 0.715962
Si Si5 0.842162 0.429133 0.572634
Si Si6 0.047359 0.857313 0.834512
Si Si7 0.260138 0.394473 0.900085
Si Si8 0.800922 0.679173 0.795339
O O1 0.500000 0.595148 0.750000
O O2 0.421290 0.677832 0.782085
O O3 0.433439 0.453787 0.772990
O O4 0.462116 0.582395 0.010754
O O5 0.141581 0.287496 0.581126
O O6 0.131396 0.451065 0.395615
O O7 0.080895 0.252303 0.356653
O O8 0.168277 0.262582 0.319861
O O9 0.333930 0.357302 0.221097
O O10 0.375651 0.167330 0.147248
O O11 0.295316 0.449340 0.793122
O O12 0.270035 0.544497 0.552293
O O13 0.244234 0.623669 0.793045
O O14 0.794203 0.415358 0.650613
O O15 0.832747 0.406705 0.399711
O O16 0.000000 0.810753 0.750000
O O17 0.276684 0.263499 0.905100
#
# Coordination Sequence:
#
# PCOD8146525 Si02
#       8
#     8   8   8   8   8   8   8   8
#     4  10  22  41  67  94 122 161 191 250 320 369
#     4  11  25  38  63  94 118 167 207 253 313 361
#     4  11  24  40  60  90 127 155 207 258 305 371
#     4  11  23  38  57  87 124 163 207 263 298 364
#     4  11  21  43  59  83 126 169 209 254 299 362
#     4  10  22  43  66  96 126 152 203 253 308 378
#     4  11  23  37  58  86 122 169 214 252 312 346
#     4  11  22  39  58  86 124 170 213 245 306 366
#
# _framework density 20.355578999999999
#
# number of rings (size 3 to 8) (size 9 to 14) (size 15 to 20)
#    0.000    1.250    3.750    3.000    5.250    3.500 
#    0.000    0.625    0.000    3.750    0.000    0.000 
#    0.000    0.000    0.000    0.000    0.000    0.000 
#
# Total GULP energy -396467.494405 kJ/mol
# GULP energy per Si atom -12389.609200 kJ/mol
# Density = 2.030925 g / cm^3
# Si number density = 20.355579 Si / 1000 Ang^3
#
#
#
# Elastic Constant Matrix: (Units=GPa)
#
#
# Indices 1 2 3 4 5 6 
#
# 1 64.2482 30.9465 27.4703 0.0000 6.5806 0.0000
# 2 30.9465 79.2631 12.2795 0.0000 9.3345 0.0000
# 3 27.4703 12.2795 61.0533 0.0000 10.4544 0.0000
# 4 0.0000 0.0000 0.0000 26.1661 0.0000 -1.1707
# 5 6.5806 9.3345 10.4544 0.0000 29.0881 0.0000
# 6 0.0000 0.0000 0.0000 -1.1707 0.0000 38.5831
#
#
#
# Elastic Compliance Matrix: (Units=1/GPa)
#
#
# Indices 1 2 3 4 5 6 
#
# 1 0.023008 -0.007659 -0.008888 0.000000 0.000447 0.000000
# 2 -0.007659 0.015904 0.000878 0.000000 -0.003687 0.000000
# 3 -0.008888 0.000878 0.021211 0.000000 -0.005894 0.000000
# 4 0.000000 0.000000 0.000000 0.038269 0.000000 0.001161
# 5 0.000447 -0.003687 -0.005894 0.000000 0.037579 0.000000
# 6 0.000000 0.000000 0.000000 0.001161 0.000000 0.025953
#
#
# Mechanical properties :
#
#
# Convention : Reuss Voigt Hill
#
# Bulk Modulus (GPa) = 34.73879 38.43969 36.58924
# Shear Modulus (GPa) = 24.64779 27.69203 26.16991
#
# Velocity S-wave (km/s) = 3.48352 3.69238 3.58947
# Velocity P-wave (km/s) = 5.76913 6.09125 5.93238
#
# Compressibility (1/GPa) = 0.02878627
#
# Stress axis : x y z
#
# Youngs Moduli (GPa) = 43.46276 62.87544 47.14520
#
# Poissons Ratio (x) = 0.48154 0.41905
# Poissons Ratio (y) = 0.33287 -0.04141
# Poissons Ratio (z) = 0.38632 -0.05523
#
# Static dielectric constant tensor:
#      x y z
#    x 3.558400 0.000000 0.055820 
#    y 0.000000 3.837780 0.000000 
#    z 0.055820 0.000000 3.812270 
# 
# 
# High freq. dielectric constant tensor:
#      x y z
#    x 1.773690 0.000000 0.001810 
#    y 0.000000 1.797620 0.000000 
#    z 0.001810 0.000000 1.810220 
# 
# From -- ./inp_files/69376.got.cif
#   From: 2010.06.25/outbox.cif.g09.slc.cpg/sg15_35_cif.got.tgz:69376.got - 2010.06.28 07:06:18.
