data_PCOD8146398
_publ_section_title
;
Structure prediction by ZEFSAII (Michael W. Deem and Ramdas Pophale) SiO2 
 PCOD8146398
Probable space group: C 2/C
;
_chemical_formula_sum "Si O2"
_cell_formula_units_Z 56
_cell_length_a 26.650789
_cell_length_b 16.898646
_cell_length_c 9.474804
_cell_angle_alpha 90.000000
_cell_angle_beta 138.916551
_cell_angle_gamma 90.000000
_cell_volume 2804.153008
_symmetry_space_group_name_H-M "C 2/C"
_symmetry_group_IT_number 15
_symmetry_cell_setting 'monoclinic'
loop_
_space_group_symop_operation_xyz
x,y,z
-x,y,1/2-z
-x,-y,-z
x,-y,1/2+z
1/2+x,1/2+y,z
1/2-x,1/2+y,1/2-z
1/2-x,1/2-y,-z
1/2+x,1/2-y,1/2+z
loop_
_atom_site_type_symbol
_atom_site_label
_atom_site_fract_x
_atom_site_fract_y
_atom_site_fract_z
Si Si1 0.974930 0.706477 0.357175
Si Si2 0.715496 0.459476 0.256297
Si Si3 0.345979 0.040157 0.370818
Si Si4 0.501691 0.380952 0.087295
Si Si5 0.879013 0.014254 0.200827
Si Si6 0.697076 0.824507 0.928984
Si Si7 0.933944 0.439316 0.337721
O O1 0.989123 0.792849 0.453497
O O2 0.883678 0.694724 0.169690
O O3 0.000000 0.700163 0.250000
O O4 0.029718 0.646644 0.557746
O O5 0.772132 0.518449 0.301453
O O6 0.697136 0.495450 0.371446
O O7 0.752846 0.373251 0.351574
O O8 0.639767 0.458076 0.998235
O O9 0.324938 0.122371 0.251698
O O10 0.410807 0.057006 0.624762
O O11 0.368272 0.969529 0.307951
O O12 0.500000 0.379868 0.250000
O O13 0.571281 0.434877 0.183815
O O14 0.421818 0.412450 0.861077
O O15 0.750000 0.750000 0.000000
O O16 0.000000 0.500000 0.500000
#
# Coordination Sequence:
#
# PCOD8146398 Si02
#       7
#     8   8   8   8   8   8   8
#     4  11  24  41  67  94 136 175 218 275 338 389
#     4  12  22  41  65  93 132 172 219 265 333 401
#     4  12  24  41  66  99 131 175 224 271 331 408
#     4  10  22  41  64  96 129 168 222 274 331 385
#     4  11  22  39  68  95 124 175 221 271 323 404
#     4  12  26  43  65 101 138 176 220 281 342 392
#     4  12  22  41  67  94 128 169 223 271 322 392
#
# _framework density 19.970379000000001
#
# number of rings (size 3 to 8) (size 9 to 14) (size 15 to 20)
#    0.000    0.571    5.714    3.000    0.000    1.143 
#    0.000    1.429    0.000    6.000    0.000    0.000 
#    0.000    0.000    0.000    0.000    0.000    0.000 
#
# Total GULP energy -347123.155557 kJ/mol
# GULP energy per Si atom -12397.255556 kJ/mol
# Density = 1.992493 g / cm^3
# Si number density = 19.970379 Si / 1000 Ang^3
#
#
#
# Elastic Constant Matrix: (Units=GPa)
#
#
# Indices 1 2 3 4 5 6 
#
# 1 113.2584 42.6182 16.7523 0.0000 12.1176 0.0000
# 2 42.6182 154.5331 61.7901 0.0000 3.2777 0.0000
# 3 16.7523 61.7901 107.1599 0.0000 -7.5027 0.0000
# 4 0.0000 0.0000 0.0000 38.5833 0.0000 5.9416
# 5 12.1176 3.2777 -7.5027 0.0000 32.3588 0.0000
# 6 0.0000 0.0000 0.0000 5.9416 0.0000 21.4551
#
#
#
# Elastic Compliance Matrix: (Units=1/GPa)
#
#
# Indices 1 2 3 4 5 6 
#
# 1 0.010255 -0.002609 -0.000355 0.000000 -0.003658 0.000000
# 2 -0.002609 0.009204 -0.004977 0.000000 -0.001109 0.000000
# 3 -0.000355 -0.004977 0.012505 0.000000 0.003537 0.000000
# 4 0.000000 0.000000 0.000000 0.027073 0.000000 -0.007497
# 5 -0.003658 -0.001109 0.003537 0.000000 0.033206 0.000000
# 6 0.000000 0.000000 0.000000 -0.007497 0.000000 0.048685
#
#
# Mechanical properties :
#
#
# Convention : Reuss Voigt Hill
#
# Bulk Modulus (GPa) = 62.18049 68.58585 65.38317
# Shear Modulus (GPa) = 30.83187 35.39882 33.11534
#
# Velocity S-wave (km/s) = 3.93349 4.21475 4.07655
# Velocity P-wave (km/s) = 7.19956 7.62259 7.41409
#
# Compressibility (1/GPa) = 0.01608221
#
# Stress axis : x y z
#
# Youngs Moduli (GPa) = 97.51448 108.64658 79.96884
#
# Poissons Ratio (x) = 0.28341 0.02840
# Poissons Ratio (y) = 0.25437 0.39802
# Poissons Ratio (z) = 0.03463 0.54075
#
# Static dielectric constant tensor:
#      x y z
#    x 3.736100 0.000000 -0.061220 
#    y 0.000000 3.833280 0.000000 
#    z -0.061220 0.000000 3.887440 
# 
# 
# High freq. dielectric constant tensor:
#      x y z
#    x 1.793930 0.000000 0.005150 
#    y 0.000000 1.775160 0.000000 
#    z 0.005150 0.000000 1.791510 
# 
# From -- ./inp_files/67187.got.cif
#   From: 2010.06.25/outbox.cif.g09.slc.cpg/sg15_34_cif.got.tgz:67187.got - 2010.06.28 07:06:18.
