data_PCOD8146051
_publ_section_title
;
Structure prediction by ZEFSAII (Michael W. Deem and Ramdas Pophale) SiO2 
 PCOD8146051
Probable space group: C 2/C
;
_chemical_formula_sum "Si O2"
_cell_formula_units_Z 56
_cell_length_a 9.593769
_cell_length_b 11.198953
_cell_length_c 25.942754
_cell_angle_alpha 90.000000
_cell_angle_beta 67.228226
_cell_angle_gamma 90.000000
_cell_volume 2570.035289
_symmetry_space_group_name_H-M "C 2/C"
_symmetry_group_IT_number 15
_symmetry_cell_setting 'monoclinic'
loop_
_space_group_symop_operation_xyz
x,y,z
-x,y,1/2-z
-x,-y,-z
x,-y,1/2+z
1/2+x,1/2+y,z
1/2-x,1/2+y,1/2-z
1/2-x,1/2-y,-z
1/2+x,1/2-y,1/2+z
loop_
_atom_site_type_symbol
_atom_site_label
_atom_site_fract_x
_atom_site_fract_y
_atom_site_fract_z
Si Si1 0.203458 0.625377 0.483913
Si Si2 0.316386 0.022723 0.419939
Si Si3 0.959342 0.713749 0.093284
Si Si4 0.550272 0.372868 0.816324
Si Si5 0.744689 0.580849 0.196210
Si Si6 0.007481 0.600772 0.810956
Si Si7 0.514700 0.494408 0.420477
O O1 0.250000 0.750000 0.500000
O O2 0.116726 0.553475 0.541474
O O3 0.097139 0.649470 0.450640
O O4 0.348854 0.547679 0.447826
O O5 0.379702 0.156252 0.414859
O O6 0.364334 0.962115 0.358777
O O7 0.131855 0.024606 0.450504
O O8 0.839491 0.686578 0.155592
O O9 0.990304 0.852686 0.084531
O O10 0.407736 0.446650 0.813733
O O11 0.697153 0.371229 0.758975
O O12 0.501426 0.236249 0.831295
O O13 0.597516 0.439677 0.861188
O O14 0.840906 0.460167 0.188350
O O15 0.000000 0.590865 0.750000
#
# Coordination Sequence:
#
# PCOD8146051 Si02
#       7
#     8   8   8   8   8   8   8
#     4  12  24  46  71  99 134 182 225 279 337 402
#     4  11  25  43  69 102 133 175 227 278 336 401
#     4  11  25  46  67  97 142 173 225 281 334 404
#     4  11  22  39  67  96 130 175 219 273 335 391
#     4  10  22  40  65  97 125 174 220 266 334 398
#     4  11  22  42  69  93 132 175 217 275 339 397
#     4  12  25  44  70  99 134 181 224 276 337 403
#
# _framework density 21.789584000000001
#
# number of rings (size 3 to 8) (size 9 to 14) (size 15 to 20)
#    0.000    0.857    4.286    3.429    2.000    1.714 
#    2.571    0.000    0.000    0.000    0.000    0.000 
#    0.000    0.000    0.000    0.000    0.000    0.000 
#
# Total GULP energy -347159.270829 kJ/mol
# GULP energy per Si atom -12398.545387 kJ/mol
# Density = 2.173999 g / cm^3
# Si number density = 21.789584 Si / 1000 Ang^3
#
#
#
# Elastic Constant Matrix: (Units=GPa)
#
#
# Indices 1 2 3 4 5 6 
#
# 1 68.2380 64.6288 11.8975 0.0000 -3.1252 0.0000
# 2 64.6288 139.8841 43.1807 0.0000 9.3104 0.0000
# 3 11.8975 43.1807 83.7098 0.0000 7.4234 0.0000
# 4 0.0000 0.0000 0.0000 33.4681 0.0000 2.5739
# 5 -3.1252 9.3104 7.4234 0.0000 29.0618 0.0000
# 6 0.0000 0.0000 0.0000 2.5739 0.0000 28.2948
#
#
#
# Elastic Compliance Matrix: (Units=1/GPa)
#
#
# Indices 1 2 3 4 5 6 
#
# 1 0.027962 -0.014226 0.002756 0.000000 0.006861 0.000000
# 2 -0.014226 0.015818 -0.005681 0.000000 -0.005146 0.000000
# 3 0.002756 -0.005681 0.014629 0.000000 -0.001620 0.000000
# 4 0.000000 0.000000 0.000000 0.030090 0.000000 -0.002737
# 5 0.006861 -0.005146 -0.001620 0.000000 0.037210 0.000000
# 6 0.000000 0.000000 0.000000 -0.002737 0.000000 0.035591
#
#
# Mechanical properties :
#
#
# Convention : Reuss Voigt Hill
#
# Bulk Modulus (GPa) = 41.48444 59.02733 50.25588
# Shear Modulus (GPa) = 24.55344 29.63993 27.09669
#
# Velocity S-wave (km/s) = 3.36049 3.69220 3.53024
# Velocity P-wave (km/s) = 5.84270 6.73238 6.30326
#
# Compressibility (1/GPa) = 0.02410542
#
# Stress axis : x y z
#
# Youngs Moduli (GPa) = 35.76258 63.21995 68.35945
#
# Poissons Ratio (x) = 0.89939 -0.18839
# Poissons Ratio (y) = 0.50877 0.38836
# Poissons Ratio (z) = -0.09856 0.35916
#
# Static dielectric constant tensor:
#      x y z
#    x 4.085430 0.000000 -0.049580 
#    y 0.000000 3.951360 0.000000 
#    z -0.049580 0.000000 4.606740 
# 
# 
# High freq. dielectric constant tensor:
#      x y z
#    x 1.854310 0.000000 -0.001060 
#    y 0.000000 1.853860 0.000000 
#    z -0.001060 0.000000 1.875980 
# 
# From -- ./inp_files/287932.got.cif
#   From: 2010.06.25/outbox.cif.g09.slc.cpg/sg15_144_cif.got.tgz:287932.got - 2010.06.28 07:06:18.
