data_PCOD8146045
_publ_section_title
;
Structure prediction by ZEFSAII (Michael W. Deem and Ramdas Pophale) SiO2 
 PCOD8146045
Probable space group: C 2/C
;
_chemical_formula_sum "Si O2"
_cell_formula_units_Z 32
_cell_length_a 11.682032
_cell_length_b 23.528923
_cell_length_c 5.037602
_cell_angle_alpha 90.000000
_cell_angle_beta 93.003531
_cell_angle_gamma 90.000000
_cell_volume 1382.761552
_symmetry_space_group_name_H-M "C 2/C"
_symmetry_group_IT_number 15
_symmetry_cell_setting 'monoclinic'
loop_
_space_group_symop_operation_xyz
x,y,z
-x,y,1/2-z
-x,-y,-z
x,-y,1/2+z
1/2+x,1/2+y,z
1/2-x,1/2+y,1/2-z
1/2-x,1/2-y,-z
1/2+x,1/2-y,1/2+z
loop_
_atom_site_type_symbol
_atom_site_label
_atom_site_fract_x
_atom_site_fract_y
_atom_site_fract_z
Si Si1 0.500000 0.913316 0.750000
Si Si2 0.000000 0.774084 0.750000
Si Si3 0.729321 0.036076 0.136808
Si Si4 0.646548 0.819507 0.004203
Si Si5 0.207520 0.159889 0.468090
O O1 0.407150 0.951261 0.894162
O O2 0.436494 0.874124 0.523383
O O3 0.927332 0.735862 0.943347
O O4 0.918415 0.813652 0.562185
O O5 0.801443 0.093387 0.104478
O O6 0.762715 0.010707 0.424977
O O7 0.743450 0.831812 0.232728
O O8 0.707535 0.808389 0.728619
#
# Coordination Sequence:
#
# PCOD8146045 Si02
#       5
#     4   4   8   8   8
#     4  10  22  40  65  96 125 160 200 256 328 380
#     4  12  24  44  69  90 127 178 202 250 324 370
#     4  11  22  39  61  90 124 163 207 260 308 361
#     4  11  24  42  64  98 131 158 204 263 311 381
#     4  11  26  43  63  96 128 162 215 259 304 378
#
# _framework density 23.142095999999999
#
# number of rings (size 3 to 8) (size 9 to 14) (size 15 to 20)
#    0.000    1.000    0.000    8.250    0.000    9.000 
#    0.000    1.250    0.000    0.000    0.000    0.000 
#    0.000    0.000    0.000    0.000    0.000    0.000 
#
# Total GULP energy -198507.769017 kJ/mol
# GULP energy per Si atom -12406.735564 kJ/mol
# Density = 2.308942 g / cm^3
# Si number density = 23.142096 Si / 1000 Ang^3
#
#
#
# Elastic Constant Matrix: (Units=GPa)
#
#
# Indices 1 2 3 4 5 6 
#
# 1 47.3946 41.4635 17.2618 0.0000 22.0809 0.0000
# 2 41.4635 117.2099 18.5664 0.0000 10.7636 0.0000
# 3 17.2618 18.5664 104.9228 0.0000 17.2860 0.0000
# 4 0.0000 0.0000 0.0000 26.1744 0.0000 7.8106
# 5 22.0809 10.7636 17.2860 0.0000 26.1387 0.0000
# 6 0.0000 0.0000 0.0000 7.8106 0.0000 13.4762
#
#
#
# Elastic Compliance Matrix: (Units=1/GPa)
#
#
# Indices 1 2 3 4 5 6 
#
# 1 0.051425 -0.014796 0.000349 0.000000 -0.037579 0.000000
# 2 -0.014796 0.013236 -0.001200 0.000000 0.007842 0.000000
# 3 0.000349 -0.001200 0.010833 0.000000 -0.006965 0.000000
# 4 0.000000 0.000000 0.000000 0.046195 0.000000 -0.026774
# 5 -0.037579 0.007842 -0.006965 0.000000 0.071380 0.000000
# 6 0.000000 0.000000 0.000000 -0.026774 0.000000 0.089723
#
#
# Mechanical properties :
#
#
# Convention : Reuss Voigt Hill
#
# Bulk Modulus (GPa) = 22.62443 47.12340 34.87391
# Shear Modulus (GPa) = 15.20598 25.97356 20.58977
#
# Velocity S-wave (km/s) = 2.56612 3.35379 2.98604
# Velocity P-wave (km/s) = 4.31016 5.95013 5.19526
#
# Compressibility (1/GPa) = 0.04420001
#
# Stress axis : x y z
#
# Youngs Moduli (GPa) = 19.44586 75.55282 92.30904
#
# Poissons Ratio (x) = 1.11788 -0.03222
# Poissons Ratio (y) = 0.28772 0.11076
# Poissons Ratio (z) = -0.00679 0.09065
#
# Static dielectric constant tensor:
#      x y z
#    x 4.061570 0.000000 0.045590 
#    y 0.000000 4.395820 0.000000 
#    z 0.045590 0.000000 4.089530 
# 
# 
# High freq. dielectric constant tensor:
#      x y z
#    x 1.889930 0.000000 -0.002060 
#    y 0.000000 1.928670 0.000000 
#    z -0.002060 0.000000 1.921310 
# 
# From -- ./inp_files/4026.got.cif
#   From: 2010.06.25/outbox.cif.g09.slc.cpg/sg15_3_cif.got.tgz:4026.got - 2010.06.28 07:06:18.
