data_PCOD8146499
_publ_section_title
;
Structure prediction by ZEFSAII (Michael W. Deem and Ramdas Pophale) SiO2 
 PCOD8146499
Probable space group: C 2/C
;
_chemical_formula_sum "Si O2"
_cell_formula_units_Z 44
_cell_length_a 6.502282
_cell_length_b 16.386385
_cell_length_c 19.713900
_cell_angle_alpha 90.000000
_cell_angle_beta 98.028448
_cell_angle_gamma 90.000000
_cell_volume 2079.907017
_symmetry_space_group_name_H-M "C 2/C"
_symmetry_group_IT_number 15
_symmetry_cell_setting 'monoclinic'
loop_
_space_group_symop_operation_xyz
x,y,z
-x,y,1/2-z
-x,-y,-z
x,-y,1/2+z
1/2+x,1/2+y,z
1/2-x,1/2+y,1/2-z
1/2-x,1/2-y,-z
1/2+x,1/2-y,1/2+z
loop_
_atom_site_type_symbol
_atom_site_label
_atom_site_fract_x
_atom_site_fract_y
_atom_site_fract_z
Si Si1 0.104075 0.164656 0.826589
Si Si2 0.630559 0.310332 0.693905
Si Si3 0.580573 0.572898 0.421316
Si Si4 0.500000 0.079870 0.250000
Si Si5 0.836847 0.089547 0.926185
Si Si6 0.413917 0.972307 0.369569
O O1 0.253641 0.242250 0.846401
O O2 0.234881 0.082300 0.828204
O O3 0.000000 0.179779 0.750000
O O4 0.932145 0.155997 0.878250
O O5 0.500000 0.270183 0.750000
O O6 0.479657 0.360439 0.637295
O O7 0.793029 0.366923 0.741106
O O8 0.591046 0.616105 0.495341
O O9 0.409333 0.502112 0.413184
O O10 0.807839 0.533590 0.418469
O O11 0.520575 0.024323 0.316555
O O12 0.586271 0.086805 0.911065
#
# Coordination Sequence:
#
# PCOD8146499 Si02
#       6
#     8   8   8   4   8   8
#     4  11  26  40  63  95 130 166 215 263 326 382
#     4  12  25  42  62  95 130 170 212 272 322 384
#     4  10  22  41  66  95 129 164 221 260 320 384
#     4  12  22  38  66  92 124 170 214 260 324 374
#     4  10  22  42  65  94 128 171 209 268 318 388
#     4  11  22  39  67  95 124 169 214 266 316 384
#
# _framework density 21.154792
#
# number of rings (size 3 to 8) (size 9 to 14) (size 15 to 20)
#    0.000    1.091    4.545    1.636    6.364    0.727 
#    0.000    0.909    0.000    0.000    0.000    0.000 
#    0.000    0.000    0.000    0.000    0.000    0.000 
#
# Total GULP energy -272835.123101 kJ/mol
# GULP energy per Si atom -12401.596505 kJ/mol
# Density = 2.110664 g / cm^3
# Si number density = 21.154792 Si / 1000 Ang^3
#
#
#
# Elastic Constant Matrix: (Units=GPa)
#
#
# Indices 1 2 3 4 5 6 
#
# 1 117.8034 30.4022 45.6590 0.0000 -2.8249 0.0000
# 2 30.4022 70.2338 35.8744 0.0000 -4.8740 0.0000
# 3 45.6590 35.8744 121.1799 0.0000 -9.8030 0.0000
# 4 0.0000 0.0000 0.0000 16.1926 0.0000 -5.1814
# 5 -2.8249 -4.8740 -9.8030 0.0000 27.2553 0.0000
# 6 0.0000 0.0000 0.0000 -5.1814 0.0000 39.6727
#
#
#
# Elastic Compliance Matrix: (Units=1/GPa)
#
#
# Indices 1 2 3 4 5 6 
#
# 1 0.010445 -0.002977 -0.003100 0.000000 -0.000565 0.000000
# 2 -0.002977 0.017665 -0.003993 0.000000 0.001414 0.000000
# 3 -0.003100 -0.003993 0.010834 0.000000 0.002861 0.000000
# 4 0.000000 0.000000 0.000000 0.064450 0.000000 0.008417
# 5 -0.000565 0.001414 0.002861 0.000000 0.037914 0.000000
# 6 0.000000 0.000000 0.000000 0.008417 0.000000 0.026306
#
#
# Mechanical properties :
#
#
# Convention : Reuss Voigt Hill
#
# Bulk Modulus (GPa) = 53.18351 59.23204 56.20777
# Shear Modulus (GPa) = 25.77037 29.77621 27.77329
#
# Velocity S-wave (km/s) = 3.49403 3.75579 3.62727
# Velocity P-wave (km/s) = 6.43991 6.84603 6.64607
#
# Compressibility (1/GPa) = 0.01880282
#
# Stress axis : x y z
#
# Youngs Moduli (GPa) = 95.73985 56.60983 92.30331
#
# Poissons Ratio (x) = 0.16854 0.28613
# Poissons Ratio (y) = 0.28503 0.36860
# Poissons Ratio (z) = 0.29678 0.22606
#
# Static dielectric constant tensor:
#      x y z
#    x 4.000830 0.000000 -0.116350 
#    y 0.000000 3.644150 0.000000 
#    z -0.116350 0.000000 3.714200 
# 
# 
# High freq. dielectric constant tensor:
#      x y z
#    x 1.844610 0.000000 -0.000190 
#    y 0.000000 1.808740 0.000000 
#    z -0.000190 0.000000 1.826730 
# 
# From -- ./inp_files/226905.got.cif
#   From: 2010.06.25/outbox.cif.g09.slc.cpg/sg15_114_cif.got.tgz:226905.got - 2010.06.28 07:06:18.
