data_PCOD8146886
_publ_section_title
;
Structure prediction by ZEFSAII (Michael W. Deem and Ramdas Pophale) SiO2 
 PCOD8146886
Probable space group: C 2/C
;
_chemical_formula_sum "Si O2"
_cell_formula_units_Z 60
_cell_length_a 15.364343
_cell_length_b 15.529844
_cell_length_c 11.804087
_cell_angle_alpha 90.000000
_cell_angle_beta 97.241813
_cell_angle_gamma 90.000000
_cell_volume 2794.056719
_symmetry_space_group_name_H-M "C 2/C"
_symmetry_group_IT_number 15
_symmetry_cell_setting 'monoclinic'
loop_
_space_group_symop_operation_xyz
x,y,z
-x,y,1/2-z
-x,-y,-z
x,-y,1/2+z
1/2+x,1/2+y,z
1/2-x,1/2+y,1/2-z
1/2-x,1/2-y,-z
1/2+x,1/2-y,1/2+z
loop_
_atom_site_type_symbol
_atom_site_label
_atom_site_fract_x
_atom_site_fract_y
_atom_site_fract_z
Si Si1 0.650116 0.983307 0.294656
Si Si2 0.000000 0.377947 0.750000
Si Si3 0.503990 0.751816 0.537184
Si Si4 0.681224 0.450990 0.566647
Si Si5 0.221251 0.109444 0.839137
Si Si6 0.332052 0.262255 0.862885
Si Si7 0.415164 0.805140 0.167181
Si Si8 0.563613 0.417522 0.162322
O O1 0.588089 0.064958 0.262405
O O2 0.727182 0.002080 0.395991
O O3 0.695311 0.948322 0.186294
O O4 0.591168 0.908466 0.339968
O O5 0.003438 0.318503 0.639974
O O6 0.414584 0.762891 0.453394
O O7 0.583199 0.770611 0.461697
O O8 0.512696 0.654286 0.581768
O O9 0.670593 0.439189 0.431150
O O10 0.688213 0.362410 0.636979
O O11 0.594336 0.502527 0.590373
O O12 0.251681 0.202313 0.893067
O O13 0.151484 0.125078 0.728197
O O14 0.337631 0.236568 0.729628
O O15 0.500000 0.775411 0.250000
O O16 0.500000 0.453169 0.250000
#
# Coordination Sequence:
#
# PCOD8146886 Si02
#       8
#     8   4   8   8   8   8   8   8
#     4  10  23  40  61 100 129 160 212 267 322 388
#     4  12  24  38  68  98 128 168 210 264 332 388
#     4  11  24  39  67  95 128 174 216 265 324 381
#     4  11  24  39  67  91 124 181 217 259 323 382
#     4  10  23  43  64  92 136 163 212 274 325 382
#     4  10  22  42  66  92 128 177 217 262 320 387
#     4   9  20  42  63  94 132 162 211 267 322 381
#     4  11  25  44  62  95 133 165 221 278 314 376
#
# _framework density 21.474152
#
# number of rings (size 3 to 8) (size 9 to 14) (size 15 to 20)
#    0.000    1.600    1.333    2.000    3.733    6.400 
#    0.000    6.000    0.000    0.000    0.000    0.000 
#    0.000    0.000    0.000    0.000    0.000    0.000 
#
# Total GULP energy -371988.493251 kJ/mol
# GULP energy per Si atom -12399.616442 kJ/mol
# Density = 2.142528 g / cm^3
# Si number density = 21.474152 Si / 1000 Ang^3
#
#
#
# Elastic Constant Matrix: (Units=GPa)
#
#
# Indices 1 2 3 4 5 6 
#
# 1 65.3930 14.6882 20.3974 0.0000 -13.3738 0.0000
# 2 14.6882 99.4444 34.6979 0.0000 -21.0538 0.0000
# 3 20.3974 34.6979 106.4843 0.0000 -24.8048 0.0000
# 4 0.0000 0.0000 0.0000 26.0037 0.0000 -4.9994
# 5 -13.3738 -21.0538 -24.8048 0.0000 31.2908 0.0000
# 6 0.0000 0.0000 0.0000 -4.9994 0.0000 29.9336
#
#
#
# Elastic Compliance Matrix: (Units=1/GPa)
#
#
# Indices 1 2 3 4 5 6 
#
# 1 0.017121 -0.000768 -0.001772 0.000000 0.005396 0.000000
# 2 -0.000768 0.012298 -0.002464 0.000000 0.005993 0.000000
# 3 -0.001772 -0.002464 0.012229 0.000000 0.007279 0.000000
# 4 0.000000 0.000000 0.000000 0.039732 0.000000 0.006636
# 5 0.005396 0.005993 0.007279 0.000000 0.044067 0.000000
# 6 0.000000 0.000000 0.000000 0.006636 0.000000 0.034516
#
#
# Mechanical properties :
#
#
# Convention : Reuss Voigt Hill
#
# Bulk Modulus (GPa) = 31.60675 45.65429 38.63052
# Shear Modulus (GPa) = 27.69813 30.88149 29.28981
#
# Velocity S-wave (km/s) = 3.59532 3.79631 3.69718
# Velocity P-wave (km/s) = 5.65558 6.36571 6.02112
#
# Compressibility (1/GPa) = 0.03163882
#
# Stress axis : x y z
#
# Youngs Moduli (GPa) = 58.40763 81.31491 81.77268
#
# Poissons Ratio (x) = 0.06245 0.14494
# Poissons Ratio (y) = 0.04486 0.20150
# Poissons Ratio (z) = 0.10352 0.20037
#
# Static dielectric constant tensor:
#      x y z
#    x 4.006800 0.000000 -0.263130 
#    y 0.000000 3.882720 0.000000 
#    z -0.263130 0.000000 3.912190 
# 
# 
# High freq. dielectric constant tensor:
#      x y z
#    x 1.850380 0.000000 -0.009660 
#    y 0.000000 1.842160 0.000000 
#    z -0.009660 0.000000 1.841950 
# 
# From -- ./inp_files/105382.got.cif
#   From: 2010.06.25/outbox.cif.g09.slc.cpg/sg15_53_cif.got.tgz:105382.got - 2010.06.28 07:06:18.
