data_PCOD8146030
_publ_section_title
;
Structure prediction by ZEFSAII (Michael W. Deem and Ramdas Pophale) SiO2 
 PCOD8146030
Probable space group: C 2/C
;
_chemical_formula_sum "Si O2"
_cell_formula_units_Z 48
_cell_length_a 8.336599
_cell_length_b 18.972751
_cell_length_c 17.008440
_cell_angle_alpha 90.000000
_cell_angle_beta 131.283925
_cell_angle_gamma 90.000000
_cell_volume 2021.544804
_symmetry_space_group_name_H-M "C 2/C"
_symmetry_group_IT_number 15
_symmetry_cell_setting 'monoclinic'
loop_
_space_group_symop_operation_xyz
x,y,z
-x,y,1/2-z
-x,-y,-z
x,-y,1/2+z
1/2+x,1/2+y,z
1/2-x,1/2+y,1/2-z
1/2-x,1/2-y,-z
1/2+x,1/2-y,1/2+z
loop_
_atom_site_type_symbol
_atom_site_label
_atom_site_fract_x
_atom_site_fract_y
_atom_site_fract_z
Si Si1 0.490757 0.280784 0.990584
Si Si2 0.117274 0.992538 0.711803
Si Si3 0.269446 0.909313 0.134160
Si Si4 0.551122 0.166664 0.405310
Si Si5 0.908245 0.834828 0.802182
Si Si6 0.060678 0.487477 0.930319
O O1 0.655483 0.334974 0.083659
O O2 0.532404 0.203333 0.040198
O O3 0.240785 0.292490 0.925433
O O4 0.511463 0.284504 0.902544
O O5 0.015147 0.916096 0.658159
O O6 0.361994 0.982118 0.809075
O O7 0.000000 0.025809 0.750000
O O8 0.104256 0.045997 0.634868
O O9 0.500000 0.896450 0.250000
O O10 0.288724 0.951981 0.057594
O O11 0.349221 0.166437 0.281025
O O12 0.656695 0.090827 0.458108
O O13 0.000000 0.806450 0.750000
O O14 0.000000 0.500000 0.000000
#
# Coordination Sequence:
#
# PCOD8146030 Si02
#       6
#     8   8   8   8   8   8
#     4  11  24  43  69  94 132 179 219 272 341 399
#     4   9  20  38  61  95 132 167 218 276 331 390
#     4  10  23  42  66 101 133 175 226 284 330 395
#     4  10  24  44  63  97 131 172 221 268 338 403
#     4  10  22  41  65  95 130 173 219 271 329 405
#     4  10  22  40  65  93 131 171 218 278 330 397
#
# _framework density 23.744218
#
# number of rings (size 3 to 8) (size 9 to 14) (size 15 to 20)
#    0.000    2.000    0.000    1.500    9.333    5.333 
#    6.000    0.000    0.000    0.000    0.000    0.000 
#    0.000    0.000    0.000    0.000    0.000    0.000 
#
# Total GULP energy -297438.938428 kJ/mol
# GULP energy per Si atom -12393.289101 kJ/mol
# Density = 2.369018 g / cm^3
# Si number density = 23.744218 Si / 1000 Ang^3
#
#
#
# Elastic Constant Matrix: (Units=GPa)
#
#
# Indices 1 2 3 4 5 6 
#
# 1 98.6070 17.1983 21.2203 0.0000 -24.4396 0.0000
# 2 17.1983 78.8390 31.7292 0.0000 -3.8535 0.0000
# 3 21.2203 31.7292 99.5480 0.0000 -13.5309 0.0000
# 4 0.0000 0.0000 0.0000 23.3028 0.0000 -4.2867
# 5 -24.4396 -3.8535 -13.5309 0.0000 39.1183 0.0000
# 6 0.0000 0.0000 0.0000 -4.2867 0.0000 30.0660
#
#
#
# Elastic Compliance Matrix: (Units=1/GPa)
#
#
# Indices 1 2 3 4 5 6 
#
# 1 0.012507 -0.001947 -0.001059 0.000000 0.007256 0.000000
# 2 -0.001947 0.014855 -0.004498 0.000000 -0.001309 0.000000
# 3 -0.001059 -0.004498 0.012125 0.000000 0.003089 0.000000
# 4 0.000000 0.000000 0.000000 0.044069 0.000000 0.006283
# 5 0.007256 -0.001309 0.003089 0.000000 0.031036 0.000000
# 6 0.000000 0.000000 0.000000 0.006283 0.000000 0.034156
#
#
# Mechanical properties :
#
#
# Convention : Reuss Voigt Hill
#
# Bulk Modulus (GPa) = 40.85235 46.36550 43.60892
# Shear Modulus (GPa) = 29.08395 32.28715 30.68555
#
# Velocity S-wave (km/s) = 3.50363 3.69153 3.59881
# Velocity P-wave (km/s) = 5.79740 6.14324 5.97282
#
# Compressibility (1/GPa) = 0.02447840
#
# Stress axis : x y z
#
# Youngs Moduli (GPa) = 79.95387 67.31744 82.47703
#
# Poissons Ratio (x) = 0.13110 0.08736
# Poissons Ratio (y) = 0.15571 0.37095
# Poissons Ratio (z) = 0.08468 0.30276
#
# Static dielectric constant tensor:
#      x y z
#    x 4.355460 0.000000 -0.063150 
#    y 0.000000 4.705750 0.000000 
#    z -0.063150 0.000000 4.128330 
# 
# 
# High freq. dielectric constant tensor:
#      x y z
#    x 1.949020 0.000000 0.005020 
#    y 0.000000 1.924230 0.000000 
#    z 0.005020 0.000000 1.944310 
# 
# From -- ./inp_files/192291.got.cif
#   From: 2010.06.25/outbox.cif.g09.slc.cpg/sg15_97_cif.got.tgz:192291.got - 2010.06.28 07:06:18.
