data_PCOD8146178
_publ_section_title
;
Structure prediction by ZEFSAII (Michael W. Deem and Ramdas Pophale) SiO2 
 PCOD8146178
Probable space group: C 2/C
;
_chemical_formula_sum "Si O2"
_cell_formula_units_Z 52
_cell_length_a 16.169957
_cell_length_b 28.374607
_cell_length_c 5.561603
_cell_angle_alpha 90.000000
_cell_angle_beta 114.566054
_cell_angle_gamma 90.000000
_cell_volume 2320.775288
_symmetry_space_group_name_H-M "C 2/C"
_symmetry_group_IT_number 15
_symmetry_cell_setting 'monoclinic'
loop_
_space_group_symop_operation_xyz
x,y,z
-x,y,1/2-z
-x,-y,-z
x,-y,1/2+z
1/2+x,1/2+y,z
1/2-x,1/2+y,1/2-z
1/2-x,1/2-y,-z
1/2+x,1/2-y,1/2+z
loop_
_atom_site_type_symbol
_atom_site_label
_atom_site_fract_x
_atom_site_fract_y
_atom_site_fract_z
Si Si1 0.156026 0.353189 0.736818
Si Si2 0.375597 0.971740 0.348974
Si Si3 0.760472 0.100979 0.982681
Si Si4 0.000000 0.588515 0.250000
Si Si5 0.392989 0.523507 0.133979
Si Si6 0.751241 0.799343 0.242455
Si Si7 0.396251 0.233206 0.594869
O O1 0.209215 0.396170 0.676082
O O2 0.097051 0.320564 0.488135
O O3 0.086271 0.378231 0.828427
O O4 0.227339 0.317935 0.949793
O O5 0.475160 0.945981 0.492885
O O6 0.363365 0.001210 0.582963
O O7 0.298802 0.931077 0.269060
O O8 0.859185 0.077141 0.122251
O O9 0.772933 0.155044 0.926913
O O10 0.500000 0.523592 0.250000
O O11 0.356780 0.497377 0.333966
O O12 0.664816 0.768799 0.235822
O O13 0.842581 0.767730 0.345104
O O14 0.500000 0.251794 0.750000
#
# Coordination Sequence:
#
# PCOD8146178 Si02
#       7
#     8   8   8   4   8   8   8
#     4  11  23  40  65  97 134 181 225 282 349 426
#     4  12  26  43  62  96 140 182 229 284 335 403
#     4  11  24  40  66  93 133 177 226 281 355 409
#     4  12  24  42  66  98 138 184 238 278 348 414
#     4  10  23  43  69  98 132 177 235 290 346 415
#     4  10  22  42  62  97 132 169 230 285 342 432
#     4  10  22  40  68  94 131 175 223 286 356 420
#
# _framework density 22.406306000000001
#
# number of rings (size 3 to 8) (size 9 to 14) (size 15 to 20)
#    0.000    1.231    1.538    3.692    4.308    1.846 
#    0.000    0.000    0.000    0.000    0.000    0.000 
#    0.000    0.000    0.000    0.000    0.000    0.000 
#
# Total GULP energy -322126.317623 kJ/mol
# GULP energy per Si atom -12389.473755 kJ/mol
# Density = 2.235531 g / cm^3
# Si number density = 22.406306 Si / 1000 Ang^3
#
#
#
# Elastic Constant Matrix: (Units=GPa)
#
#
# Indices 1 2 3 4 5 6 
#
# 1 81.5917 49.4758 44.9636 0.0000 -1.5842 0.0000
# 2 49.4758 109.4747 42.1966 0.0000 0.9704 0.0000
# 3 44.9636 42.1966 110.8787 0.0000 -8.7980 0.0000
# 4 0.0000 0.0000 0.0000 37.8775 0.0000 3.2636
# 5 -1.5842 0.9704 -8.7980 0.0000 28.5509 0.0000
# 6 0.0000 0.0000 0.0000 3.2636 0.0000 36.6300
#
#
#
# Elastic Compliance Matrix: (Units=1/GPa)
#
#
# Indices 1 2 3 4 5 6 
#
# 1 0.019180 -0.006629 -0.005282 0.000000 -0.000338 0.000000
# 2 -0.006629 0.013073 -0.002410 0.000000 -0.001555 0.000000
# 3 -0.005282 -0.002410 0.012364 0.000000 0.003599 0.000000
# 4 0.000000 0.000000 0.000000 0.026605 0.000000 -0.002370
# 5 -0.000338 -0.001555 0.003599 0.000000 0.036168 0.000000
# 6 0.000000 0.000000 0.000000 -0.002370 0.000000 0.027511
#
#
# Mechanical properties :
#
#
# Convention : Reuss Voigt Hill
#
# Bulk Modulus (GPa) = 62.60139 63.91302 63.25720
# Shear Modulus (GPa) = 29.60859 31.63231 30.62045
#
# Velocity S-wave (km/s) = 3.63911 3.76141 3.70077
# Velocity P-wave (km/s) = 6.75702 6.88845 6.82305
#
# Compressibility (1/GPa) = 0.01597409
#
# Stress axis : x y z
#
# Youngs Moduli (GPa) = 52.13679 76.49086 80.88256
#
# Poissons Ratio (x) = 0.50709 0.42721
# Poissons Ratio (y) = 0.34564 0.19495
# Poissons Ratio (z) = 0.27538 0.18437
#
# Static dielectric constant tensor:
#      x y z
#    x 3.968540 0.000000 -0.000610 
#    y 0.000000 4.216190 0.000000 
#    z -0.000610 0.000000 4.235790 
# 
# 
# High freq. dielectric constant tensor:
#      x y z
#    x 1.866500 0.000000 0.001340 
#    y 0.000000 1.893580 0.000000 
#    z 0.001340 0.000000 1.887800 
# 
# From -- ./inp_files/9000.got.cif
#   From: 2010.06.25/outbox.cif.g09.slc.cpg/sg15_5_cif.got.tgz:9000.got - 2010.06.28 07:06:18.
