data_PCOD8146384
_publ_section_title
;
Structure prediction by ZEFSAII (Michael W. Deem and Ramdas Pophale) SiO2 
 PCOD8146384
Probable space group: C 2/C
;
_chemical_formula_sum "Si O2"
_cell_formula_units_Z 24
_cell_length_a 8.596886
_cell_length_b 11.170519
_cell_length_c 11.954111
_cell_angle_alpha 90.000000
_cell_angle_beta 130.276757
_cell_angle_gamma 90.000000
_cell_volume 875.824047
_symmetry_space_group_name_H-M "C 2/C"
_symmetry_group_IT_number 15
_symmetry_cell_setting 'monoclinic'
loop_
_space_group_symop_operation_xyz
x,y,z
-x,y,1/2-z
-x,-y,-z
x,-y,1/2+z
1/2+x,1/2+y,z
1/2-x,1/2+y,1/2-z
1/2-x,1/2-y,-z
1/2+x,1/2-y,1/2+z
loop_
_atom_site_type_symbol
_atom_site_label
_atom_site_fract_x
_atom_site_fract_y
_atom_site_fract_z
Si Si1 0.836459 0.104746 0.546443
Si Si2 0.500000 0.995048 0.750000
Si Si3 0.500000 0.388220 0.750000
Si Si4 0.775064 0.313782 0.274467
O O1 0.742872 0.193960 0.598198
O O2 0.058742 0.154256 0.614969
O O3 0.682580 0.093486 0.371349
O O4 0.857530 0.971688 0.607850
O O5 0.569695 0.078481 0.679977
O O6 0.645443 0.310008 0.738458
#
# Coordination Sequence:
#
# PCOD8146384 Si02
#       4
#     8   4   4   8
#     4  10  22  41  64  92 127 165 207 264 317 372
#     4  11  20  38  66  93 128 165 204 262 326 373
#     4   9  20  42  66  91 124 163 216 260 308 381
#     4   9  20  38  64  91 121 169 213 252 314 377
#
# _framework density 27.402764000000001
#
# number of rings (size 3 to 8) (size 9 to 14) (size 15 to 20)
#    0.000    2.667    0.000    2.000    0.000    5.333 
#    0.000   30.000    0.000   32.000    0.000    0.000 
#    0.000    0.000    0.000    0.000    0.000    0.000 
#
# Total GULP energy -148866.062429 kJ/mol
# GULP energy per Si atom -12405.505202 kJ/mol
# Density = 2.734039 g / cm^3
# Si number density = 27.402764 Si / 1000 Ang^3
#
#
#
# Elastic Constant Matrix: (Units=GPa)
#
#
# Indices 1 2 3 4 5 6 
#
# 1 126.1224 34.1363 -10.4268 0.0000 11.3249 0.0000
# 2 34.1363 147.6267 -5.8546 0.0000 5.9899 0.0000
# 3 -10.4268 -5.8546 123.2687 0.0000 6.1400 0.0000
# 4 0.0000 0.0000 0.0000 -5.2532 0.0000 8.5284
# 5 11.3249 5.9899 6.1400 0.0000 31.8485 0.0000
# 6 0.0000 0.0000 0.0000 8.5284 0.0000 44.7825
#
#
#
# Elastic Compliance Matrix: (Units=1/GPa)
#
#
# Indices 1 2 3 4 5 6 
#
# 1 0.008765 -0.001877 0.000798 0.000000 -0.002917 0.000000
# 2 -0.001877 0.007247 0.000222 0.000000 -0.000738 0.000000
# 3 0.000798 0.000222 0.008286 0.000000 -0.001923 0.000000
# 4 0.000000 0.000000 0.000000 -0.145405 0.000000 0.027691
# 5 -0.002917 -0.000738 -0.001923 0.000000 0.032946 0.000000
# 6 0.000000 0.000000 0.000000 0.027691 0.000000 0.017057
#
#
# Mechanical properties :
#
#
# Convention : Reuss Voigt Hill
#
# Bulk Modulus (GPa) = 44.28006 48.08085 46.18046
# Shear Modulus (GPa) = -80.82345 39.55309 -20.63518
#
# Velocity S-wave (km/s) = -5.43679 3.80333 -2.74712
# Velocity P-wave (km/s) = 4.81845 6.07216 2.61282
#
# Compressibility (1/GPa) = 0.02258353
#
# Stress axis : x y z
#
# Youngs Moduli (GPa) = 114.09480 137.99637 120.68328
#
# Poissons Ratio (x) = 0.25898 -0.09625
# Poissons Ratio (y) = 0.21412 -0.02682
# Poissons Ratio (z) = -0.09100 -0.03066
#
# Static dielectric constant tensor:
#      x y z
#    x 5.121100 0.000000 0.192920 
#    y 0.000000 5.167440 0.000000 
#    z 0.192920 0.000000 4.653200 
# 
# 
# High freq. dielectric constant tensor:
#      x y z
#    x 2.112090 0.000000 0.009710 
#    y 0.000000 2.142980 0.000000 
#    z 0.009710 0.000000 2.088680 
# 
# From -- ./inp_files/131621.got.cif
#   From: 2010.06.25/outbox.cif.g09.slc.cpg/sg15_66_cif.got.tgz:131621.got - 2010.06.28 07:06:18.
