data_PCOD8146619
_publ_section_title
;
Structure prediction by ZEFSAII (Michael W. Deem and Ramdas Pophale) SiO2 
 PCOD8146619
Probable space group: C 2/C
;
_chemical_formula_sum "Si O2"
_cell_formula_units_Z 64
_cell_length_a 15.033953
_cell_length_b 17.573906
_cell_length_c 16.974938
_cell_angle_alpha 90.000000
_cell_angle_beta 139.951592
_cell_angle_gamma 90.000000
_cell_volume 2885.719350
_symmetry_space_group_name_H-M "C 2/C"
_symmetry_group_IT_number 15
_symmetry_cell_setting 'monoclinic'
loop_
_space_group_symop_operation_xyz
x,y,z
-x,y,1/2-z
-x,-y,-z
x,-y,1/2+z
1/2+x,1/2+y,z
1/2-x,1/2+y,1/2-z
1/2-x,1/2-y,-z
1/2+x,1/2-y,1/2+z
loop_
_atom_site_type_symbol
_atom_site_label
_atom_site_fract_x
_atom_site_fract_y
_atom_site_fract_z
Si Si1 0.256109 0.579506 0.422122
Si Si2 0.126407 0.696470 0.438760
Si Si3 0.121060 0.453144 0.243100
Si Si4 0.275784 0.314299 0.403379
Si Si5 0.812782 0.469976 0.000770
Si Si6 0.537207 0.669078 0.621800
Si Si7 0.789041 0.405106 0.363421
Si Si8 0.356256 0.327102 0.627581
O O1 0.130686 0.631393 0.373771
O O2 0.201855 0.534614 0.307279
O O3 0.291646 0.515485 0.512148
O O4 0.395229 0.627049 0.499524
O O5 0.250000 0.750000 0.500000
O O6 0.143404 0.660603 0.537329
O O7 0.991104 0.750862 0.351299
O O8 0.187432 0.392752 0.349795
O O9 0.135614 0.412276 0.168843
O O10 0.959201 0.468165 0.146524
O O11 0.376487 0.312328 0.397423
O O12 0.367439 0.302766 0.543812
O O13 0.169603 0.243575 0.330777
O O14 0.814533 0.513599 0.919456
O O15 0.767083 0.386301 0.946490
O O16 0.626890 0.615319 0.740257
O O17 0.500000 0.365524 0.750000
#
# Coordination Sequence:
#
# PCOD8146619 Si02
#       8
#     8   8   8   8   8   8   8   8
#     4  10  22  41  70 100 130 183 226 275 347 414
#     4   9  21  43  64 100 133 179 224 279 347 412
#     4  11  23  44  67  98 137 180 227 283 343 419
#     4  10  25  43  68  99 132 182 223 286 345 406
#     4  11  24  42  68  93 138 177 224 282 342 411
#     4  10  23  45  71  97 141 171 232 292 342 412
#     4  10  24  42  67  99 134 179 224 293 343 410
#     4  11  26  41  67 100 131 180 231 280 345 417
#
# _framework density 22.178179
#
# number of rings (size 3 to 8) (size 9 to 14) (size 15 to 20)
#    0.000    1.750    1.250    0.750    7.000    8.000 
#   15.750    1.250    0.000    0.000    0.000    0.000 
#    0.000    0.000    0.000    0.000    0.000    0.000 
#
# Total GULP energy -396617.411907 kJ/mol
# GULP energy per Si atom -12394.294122 kJ/mol
# Density = 2.212770 g / cm^3
# Si number density = 22.178179 Si / 1000 Ang^3
#
#
#
# Elastic Constant Matrix: (Units=GPa)
#
#
# Indices 1 2 3 4 5 6 
#
# 1 84.7432 38.8066 27.1294 0.0000 4.0351 0.0000
# 2 38.8066 131.6576 40.9608 -0.0001 4.8889 0.0000
# 3 27.1294 40.9608 101.0498 -0.0001 13.8288 0.0000
# 4 0.0000 -0.0001 -0.0001 33.5928 0.0000 -3.5356
# 5 4.0351 4.8889 13.8288 0.0000 27.2776 0.0000
# 6 0.0000 0.0000 0.0000 -3.5356 0.0000 34.1788
#
#
#
# Elastic Compliance Matrix: (Units=1/GPa)
#
#
# Indices 1 2 3 4 5 6 
#
# 1 0.014139 -0.003419 -0.002372 0.000000 -0.000276 0.000000
# 2 -0.003419 0.009520 -0.002984 0.000000 0.000312 0.000000
# 3 -0.002372 -0.002984 0.012488 0.000000 -0.005445 0.000000
# 4 0.000000 0.000000 0.000000 0.030096 0.000000 0.003113
# 5 -0.000276 0.000312 -0.005445 0.000000 0.039405 0.000000
# 6 0.000000 0.000000 0.000000 0.003113 0.000000 0.029580
#
#
# Mechanical properties :
#
#
# Convention : Reuss Voigt Hill
#
# Bulk Modulus (GPa) = 53.77439 59.02713 56.40076
# Shear Modulus (GPa) = 31.45125 33.04677 32.24901
#
# Velocity S-wave (km/s) = 3.76987 3.86431 3.81739
# Velocity P-wave (km/s) = 6.57635 6.82520 6.70193
#
# Compressibility (1/GPa) = 0.01859621
#
# Stress axis : x y z
#
# Youngs Moduli (GPa) = 70.72809 105.04251 80.07957
#
# Poissons Ratio (x) = 0.35916 0.18996
# Poissons Ratio (y) = 0.24183 0.23893
# Poissons Ratio (z) = 0.16778 0.31342
#
# Static dielectric constant tensor:
#      x y z
#    x 3.950570 0.000000 -0.114690 
#    y 0.000000 3.972720 0.000000 
#    z -0.114690 0.000000 3.974570 
# 
# 
# High freq. dielectric constant tensor:
#      x y z
#    x 1.867130 0.000000 -0.009250 
#    y 0.000000 1.889020 0.000000 
#    z -0.009250 0.000000 1.864520 
# 
# From -- ./inp_files/206478.got.cif
#   From: 2010.06.25/outbox.cif.g09.slc.cpg/sg15_104_cif.got.tgz:206478.got - 2010.06.28 07:06:18.
