data_PCOD8146277
_publ_section_title
;
Structure prediction by ZEFSAII (Michael W. Deem and Ramdas Pophale) SiO2 
 PCOD8146277
Probable space group: C 2/C
;
_chemical_formula_sum "Si O2"
_cell_formula_units_Z 44
_cell_length_a 8.408844
_cell_length_b 25.937717
_cell_length_c 8.743831
_cell_angle_alpha 90.000000
_cell_angle_beta 97.437409
_cell_angle_gamma 90.000000
_cell_volume 1891.039327
_symmetry_space_group_name_H-M "C 2/C"
_symmetry_group_IT_number 15
_symmetry_cell_setting 'monoclinic'
loop_
_space_group_symop_operation_xyz
x,y,z
-x,y,1/2-z
-x,-y,-z
x,-y,1/2+z
1/2+x,1/2+y,z
1/2-x,1/2+y,1/2-z
1/2-x,1/2-y,-z
1/2+x,1/2-y,1/2+z
loop_
_atom_site_type_symbol
_atom_site_label
_atom_site_fract_x
_atom_site_fract_y
_atom_site_fract_z
Si Si1 0.181704 0.357046 0.033464
Si Si2 0.026181 0.145005 0.421188
Si Si3 0.651123 0.536592 0.505888
Si Si4 0.660956 0.702216 0.699363
Si Si5 0.344595 0.036176 0.822566
Si Si6 0.000000 0.699032 0.250000
O O1 0.354572 0.360617 0.978733
O O2 0.051463 0.335472 0.899157
O O3 0.188553 0.319591 0.184402
O O4 0.118452 0.412894 0.074758
O O5 0.106013 0.088989 0.414852
O O6 0.153196 0.183109 0.522449
O O7 0.000000 0.168487 0.250000
O O8 0.500000 0.500000 0.500000
O O9 0.704586 0.549466 0.684969
O O10 0.793610 0.509886 0.428439
O O11 0.500000 0.676584 0.750000
O O12 0.649306 0.764476 0.714550
O O13 0.500000 0.017314 0.750000
#
# Coordination Sequence:
#
# PCOD8146277 Si02
#       6
#     8   8   8   8   8   4
#     4  11  22  44  70  99 145 189 238 292 364 426
#     4  11  22  39  68 104 135 182 248 299 335 426
#     4  12  24  44  73 102 133 195 249 287 349 441
#     4   8  19  39  70  96 134 184 237 286 352 423
#     4  12  27  46  68 105 152 186 234 306 371 419
#     4  10  22  40  76 104 138 194 230 302 376 422
#
# _framework density 23.26763
#
# number of rings (size 3 to 8) (size 9 to 14) (size 15 to 20)
#    0.545    0.727    3.636    2.727    0.000    1.455 
#    1.636    1.818    0.000    0.000    0.000    0.000 
#    0.000    0.000    0.000    0.000    0.000    0.000 
#
# Total GULP energy -272780.774063 kJ/mol
# GULP energy per Si atom -12399.126094 kJ/mol
# Density = 2.321467 g / cm^3
# Si number density = 23.267630 Si / 1000 Ang^3
#
#
#
# Elastic Constant Matrix: (Units=GPa)
#
#
# Indices 1 2 3 4 5 6 
#
# 1 56.3605 31.0214 27.5068 0.0000 -1.2660 0.0000
# 2 31.0214 112.5148 67.6812 0.0000 5.5996 0.0000
# 3 27.5068 67.6812 177.1173 0.0000 34.4047 0.0000
# 4 0.0000 0.0000 0.0000 44.3754 0.0000 11.9016
# 5 -1.2660 5.5996 34.4047 0.0000 48.3796 0.0000
# 6 0.0000 0.0000 0.0000 11.9016 0.0000 14.3690
#
#
#
# Elastic Compliance Matrix: (Units=1/GPa)
#
#
# Indices 1 2 3 4 5 6 
#
# 1 0.021428 -0.004853 -0.001963 0.000000 0.002518 0.000000
# 2 -0.004853 0.012824 -0.004448 0.000000 0.001552 0.000000
# 3 -0.001963 -0.004448 0.008772 0.000000 -0.005775 0.000000
# 4 0.000000 0.000000 0.000000 0.028971 0.000000 -0.023996
# 5 0.002518 0.001552 -0.005775 0.000000 0.024663 0.000000
# 6 0.000000 0.000000 0.000000 -0.023996 0.000000 0.089469
#
#
# Mechanical properties :
#
#
# Convention : Reuss Voigt Hill
#
# Bulk Modulus (GPa) = 48.78636 66.49015 57.63826
# Shear Modulus (GPa) = 23.20317 36.07704 29.64010
#
# Velocity S-wave (km/s) = 3.16132 3.94194 3.57301
# Velocity P-wave (km/s) = 5.85989 7.02544 6.46897
#
# Compressibility (1/GPa) = 0.02049753
#
# Stress axis : x y z
#
# Youngs Moduli (GPa) = 46.66713 77.97741 113.99432
#
# Poissons Ratio (x) = 0.37840 0.22373
# Poissons Ratio (y) = 0.22646 0.50708
# Poissons Ratio (z) = 0.09159 0.34687
#
# Static dielectric constant tensor:
#      x y z
#    x 3.858910 0.000000 0.180060 
#    y 0.000000 3.981080 0.000000 
#    z 0.180060 0.000000 4.522200 
# 
# 
# High freq. dielectric constant tensor:
#      x y z
#    x 1.898200 0.000000 0.015760 
#    y 0.000000 1.913910 0.000000 
#    z 0.015760 0.000000 1.935950 
# 
# From -- ./inp_files/25607.got.cif
#   From: 2010.06.25/outbox.cif.g09.slc.cpg/sg15_13_cif.got.tgz:25607.got - 2010.06.28 07:06:18.
