data_PCOD8146070
_publ_section_title
;
Structure prediction by ZEFSAII (Michael W. Deem and Ramdas Pophale) SiO2 
 PCOD8146070
Probable space group: C 2/C
;
_chemical_formula_sum "Si O2"
_cell_formula_units_Z 52
_cell_length_a 16.593710
_cell_length_b 25.409174
_cell_length_c 8.624343
_cell_angle_alpha 90.000000
_cell_angle_beta 42.987557
_cell_angle_gamma 90.000000
_cell_volume 2479.375071
_symmetry_space_group_name_H-M "C 2/C"
_symmetry_group_IT_number 15
_symmetry_cell_setting 'monoclinic'
loop_
_space_group_symop_operation_xyz
x,y,z
-x,y,1/2-z
-x,-y,-z
x,-y,1/2+z
1/2+x,1/2+y,z
1/2-x,1/2+y,1/2-z
1/2-x,1/2-y,-z
1/2+x,1/2-y,1/2+z
loop_
_atom_site_type_symbol
_atom_site_label
_atom_site_fract_x
_atom_site_fract_y
_atom_site_fract_z
Si Si1 0.219125 0.830379 0.616444
Si Si2 0.868750 0.063851 0.719695
Si Si3 0.619751 0.072098 0.641026
Si Si4 0.000000 0.015911 0.250000
Si Si5 0.374349 0.742589 0.505251
Si Si6 0.027889 0.174410 0.877756
Si Si7 0.883159 0.464796 0.007205
O O1 0.273160 0.887224 0.504507
O O2 0.302555 0.797321 0.616544
O O3 0.206461 0.799175 0.473326
O O4 0.091183 0.839808 0.865361
O O5 0.904762 0.019562 0.793490
O O6 0.902206 0.120347 0.739782
O O7 0.728276 0.067511 0.899224
O O8 0.929369 0.053046 0.468051
O O9 0.500000 0.100946 0.750000
O O10 0.597966 0.045062 0.837614
O O11 0.646546 0.026311 0.478653
O O12 0.394817 0.718919 0.646341
O O13 0.500000 0.753653 0.250000
O O14 0.000000 0.198700 0.750000
O O15 0.000000 0.446726 0.750000
#
# Coordination Sequence:
#
# PCOD8146070 Si02
#       7
#     8   8   8   4   8   8   8
#     4  10  22  40  66  89 116 162 210 259 314 374
#     4  11  23  40  59  93 130 165 215 250 315 369
#     4  11  23  39  61  89 125 168 214 254 311 374
#     4  10  24  36  62  90 132 174 202 262 302 372
#     4   9  20  41  65  89 117 154 208 260 315 380
#     4  11  24  38  62  95 125 159 203 259 325 375
#     4  11  24  39  60  89 131 174 210 260 306 368
#
# _framework density 20.973026999999998
#
# number of rings (size 3 to 8) (size 9 to 14) (size 15 to 20)
#    0.000    1.538    0.769    4.154    9.692    3.077 
#    0.000    0.000    0.000   14.769    0.000    0.000 
#    0.000    0.000    0.000    0.000    0.000    0.000 
#
# Total GULP energy -322486.438235 kJ/mol
# GULP energy per Si atom -12403.324548 kJ/mol
# Density = 2.092529 g / cm^3
# Si number density = 20.973027 Si / 1000 Ang^3
#
#
#
# Elastic Constant Matrix: (Units=GPa)
#
#
# Indices 1 2 3 4 5 6 
#
# 1 132.9166 41.7858 41.1747 0.0000 3.3438 0.0000
# 2 41.7858 85.7784 31.5131 0.0000 0.0106 0.0000
# 3 41.1747 31.5131 62.5889 0.0000 -1.5364 0.0000
# 4 0.0000 0.0000 0.0000 18.9298 0.0000 -1.1582
# 5 3.3438 0.0106 -1.5364 0.0000 44.1873 0.0000
# 6 0.0000 0.0000 0.0000 -1.1582 0.0000 24.7033
#
#
#
# Elastic Compliance Matrix: (Units=1/GPa)
#
#
# Indices 1 2 3 4 5 6 
#
# 1 0.010090 -0.003028 -0.005136 0.000000 -0.000941 0.000000
# 2 -0.003028 0.015215 -0.005668 0.000000 0.000028 0.000000
# 3 -0.005136 -0.005668 0.022239 0.000000 0.001163 0.000000
# 4 0.000000 0.000000 0.000000 0.052979 0.000000 0.002484
# 5 -0.000941 0.000028 0.001163 0.000000 0.022743 0.000000
# 6 0.000000 0.000000 0.000000 0.002484 0.000000 0.040597
#
#
# Mechanical properties :
#
#
# Convention : Reuss Voigt Hill
#
# Bulk Modulus (GPa) = 50.30417 56.69236 53.49827
# Shear Modulus (GPa) = 25.23284 28.68477 26.95880
#
# Velocity S-wave (km/s) = 3.47235 3.70225 3.58914
# Velocity P-wave (km/s) = 6.33352 6.73538 6.53754
#
# Compressibility (1/GPa) = 0.01987907
#
# Stress axis : x y z
#
# Youngs Moduli (GPa) = 99.10434 65.72284 44.96667
#
# Poissons Ratio (x) = 0.19903 0.23097
# Poissons Ratio (y) = 0.30011 0.25487
# Poissons Ratio (z) = 0.50904 0.37252
#
# Static dielectric constant tensor:
#      x y z
#    x 4.188130 0.000000 -0.105870 
#    y 0.000000 3.584170 0.000000 
#    z -0.105870 0.000000 3.676440 
# 
# 
# High freq. dielectric constant tensor:
#      x y z
#    x 1.848060 0.000000 -0.009920 
#    y 0.000000 1.807100 0.000000 
#    z -0.009920 0.000000 1.808310 
# 
# From -- ./inp_files/52144.got.cif
#   From: 2010.06.25/outbox.cif.g09.slc.cpg/sg15_27_cif.got.tgz:52144.got - 2010.06.28 07:06:18.
