data_PCOD8146585
_publ_section_title
;
Structure prediction by ZEFSAII (Michael W. Deem and Ramdas Pophale) SiO2 
 PCOD8146585
Probable space group: C 2/C
;
_chemical_formula_sum "Si O2"
_cell_formula_units_Z 32
_cell_length_a 4.867702
_cell_length_b 18.126928
_cell_length_c 14.425167
_cell_angle_alpha 90.000000
_cell_angle_beta 79.297289
_cell_angle_gamma 90.000000
_cell_volume 1250.683945
_symmetry_space_group_name_H-M "C 2/C"
_symmetry_group_IT_number 15
_symmetry_cell_setting 'monoclinic'
loop_
_space_group_symop_operation_xyz
x,y,z
-x,y,1/2-z
-x,-y,-z
x,-y,1/2+z
1/2+x,1/2+y,z
1/2-x,1/2+y,1/2-z
1/2-x,1/2-y,-z
1/2+x,1/2-y,1/2+z
loop_
_atom_site_type_symbol
_atom_site_label
_atom_site_fract_x
_atom_site_fract_y
_atom_site_fract_z
Si Si1 0.858481 0.224642 0.350440
Si Si2 0.960109 0.825921 0.473504
Si Si3 0.971754 0.425036 0.445830
Si Si4 0.000000 0.914962 0.750000
Si Si5 0.000000 0.512157 0.750000
O O1 0.052954 0.223717 0.431320
O O2 0.576340 0.270705 0.386212
O O3 0.813400 0.137028 0.330614
O O4 0.000000 0.261420 0.250000
O O5 0.154881 0.897641 0.470938
O O6 0.654035 0.856864 0.471896
O O7 0.066840 0.437981 0.334362
O O8 0.000000 0.500000 0.500000
O O9 0.224584 0.963875 0.791404
#
# Coordination Sequence:
#
# PCOD8146585 Si02
#       5
#     8   8   8   4   4
#     4   9  23  45  73 103 141 188 232 302 358 420
#     4  11  24  46  69 108 139 182 241 295 354 425
#     4  12  26  44  71 102 146 185 236 295 349 429
#     4  10  22  41  68  99 136 184 240 274 360 422
#     4  12  24  43  68 103 138 194 232 292 354 426
#
# _framework density 25.586002000000001
#
# number of rings (size 3 to 8) (size 9 to 14) (size 15 to 20)
#    0.750    0.500    0.000    5.250    1.750    6.000 
#    0.000    0.000    0.000    0.000    0.000    0.000 
#    0.000    0.000    0.000    0.000    0.000    0.000 
#
# Total GULP energy -198306.267098 kJ/mol
# GULP energy per Si atom -12394.141694 kJ/mol
# Density = 2.552777 g / cm^3
# Si number density = 25.586002 Si / 1000 Ang^3
#
#
#
# Elastic Constant Matrix: (Units=GPa)
#
#
# Indices 1 2 3 4 5 6 
#
# 1 78.7163 41.3798 5.5706 0.0000 2.7275 0.0000
# 2 41.3798 128.6692 35.9975 0.0000 -4.4114 0.0000
# 3 5.5706 35.9975 165.7199 0.0000 3.3518 0.0000
# 4 0.0000 0.0000 0.0000 27.4398 0.0000 -20.2275
# 5 2.7275 -4.4114 3.3518 0.0000 21.6058 0.0000
# 6 0.0000 0.0000 0.0000 -20.2275 0.0000 38.4737
#
#
#
# Elastic Compliance Matrix: (Units=1/GPa)
#
#
# Indices 1 2 3 4 5 6 
#
# 1 0.015552 -0.005304 0.000693 0.000000 -0.003154 0.000000
# 2 -0.005304 0.010168 -0.002093 0.000000 0.003070 0.000000
# 3 0.000693 -0.002093 0.006496 0.000000 -0.001523 0.000000
# 4 0.000000 0.000000 0.000000 0.059505 0.000000 0.031285
# 5 -0.003154 0.003070 -0.001523 0.000000 0.047545 0.000000
# 6 0.000000 0.000000 0.000000 0.031285 0.000000 0.042440
#
#
# Mechanical properties :
#
#
# Convention : Reuss Voigt Hill
#
# Bulk Modulus (GPa) = 53.16190 59.88903 56.52546
# Shear Modulus (GPa) = 24.82831 36.84770 30.83800
#
# Velocity S-wave (km/s) = 3.11848 3.79905 3.47546
# Velocity P-wave (km/s) = 5.81287 6.53464 6.18429
#
# Compressibility (1/GPa) = 0.01881046
#
# Stress axis : x y z
#
# Youngs Moduli (GPa) = 64.30018 98.34616 153.93342
#
# Poissons Ratio (x) = 0.52158 -0.10668
# Poissons Ratio (y) = 0.34102 0.32211
# Poissons Ratio (z) = -0.04456 0.20579
#
# Static dielectric constant tensor:
#      x y z
#    x 4.289550 0.000000 0.111040 
#    y 0.000000 4.687460 0.000000 
#    z 0.111040 0.000000 4.950990 
# 
# 
# High freq. dielectric constant tensor:
#      x y z
#    x 2.008940 0.000000 0.000080 
#    y 0.000000 2.042460 0.000000 
#    z 0.000080 0.000000 2.025930 
# 
# From -- ./inp_files/184015.got.cif
#   From: 2010.06.25/outbox.cif.g09.slc.cpg/sg15_93_cif.got.tgz:184015.got - 2010.06.28 07:06:18.
