data_PCOD8146849
_publ_section_title
;
Structure prediction by ZEFSAII (Michael W. Deem and Ramdas Pophale) SiO2 
 PCOD8146849
Probable space group: C 2/C
;
_chemical_formula_sum "Si O2"
_cell_formula_units_Z 56
_cell_length_a 10.613887
_cell_length_b 9.540240
_cell_length_c 24.532054
_cell_angle_alpha 90.000000
_cell_angle_beta 58.353386
_cell_angle_gamma 90.000000
_cell_volume 2114.708378
_symmetry_space_group_name_H-M "C 2/C"
_symmetry_group_IT_number 15
_symmetry_cell_setting 'monoclinic'
loop_
_space_group_symop_operation_xyz
x,y,z
-x,y,1/2-z
-x,-y,-z
x,-y,1/2+z
1/2+x,1/2+y,z
1/2-x,1/2+y,1/2-z
1/2-x,1/2-y,-z
1/2+x,1/2-y,1/2+z
loop_
_atom_site_type_symbol
_atom_site_label
_atom_site_fract_x
_atom_site_fract_y
_atom_site_fract_z
Si Si1 0.031831 0.852707 0.036618
Si Si2 0.282065 0.053750 0.849165
Si Si3 0.654619 0.631717 0.685762
Si Si4 0.747840 0.659127 0.259563
Si Si5 0.545621 0.160858 0.128058
Si Si6 0.115011 0.856127 0.538388
Si Si7 0.419586 0.657324 0.328451
O O1 0.061148 0.706215 0.061081
O O2 0.884210 0.927751 0.093323
O O3 0.011370 0.814615 0.977518
O O4 0.153603 0.977383 0.018646
O O5 0.291969 0.962389 0.792130
O O6 0.381824 0.989281 0.875511
O O7 0.349757 0.204188 0.818488
O O8 0.500000 0.654697 0.750000
O O9 0.772319 0.693408 0.702863
O O10 0.650134 0.723963 0.632671
O O11 0.690135 0.472469 0.660666
O O12 0.874636 0.667591 0.185183
O O13 0.588090 0.626829 0.266737
O O14 0.250000 0.750000 0.500000
O O15 0.054721 0.832458 0.612656
#
# Coordination Sequence:
#
# PCOD8146849 Si02
#       7
#     8   8   8   8   8   8   8
#     4  11  23  44  73  89 132 183 215 276 339 380
#     4  11  23  40  66  99 132 170 219 272 327 391
#     4   9  20  39  62  89 129 173 210 258 321 393
#     4  10  23  42  62  95 141 170 213 270 325 401
#     4  10  22  42  65  97 135 175 212 264 336 401
#     4  11  23  45  71  95 127 175 230 278 328 390
#     4  12  23  41  67  97 129 172 229 269 326 394
#
# _framework density 26.481193999999999
#
# number of rings (size 3 to 8) (size 9 to 14) (size 15 to 20)
#    0.000    1.429    4.286    1.286    0.000    8.000 
#    0.000    5.000    0.000    0.000    0.000    0.000 
#    0.000    0.000    0.000    0.000    0.000    0.000 
#
# Total GULP energy -347086.546081 kJ/mol
# GULP energy per Si atom -12395.948074 kJ/mol
# Density = 2.642092 g / cm^3
# Si number density = 26.481194 Si / 1000 Ang^3
#
#
#
# Elastic Constant Matrix: (Units=GPa)
#
#
# Indices 1 2 3 4 5 6 
#
# 1 97.5734 43.0468 -1.7994 0.0000 7.7752 0.0000
# 2 43.0468 129.6442 1.0556 0.0000 6.7624 0.0000
# 3 -1.7994 1.0556 55.7863 0.0000 14.4833 0.0000
# 4 0.0000 0.0000 0.0000 39.2773 0.0000 7.3525
# 5 7.7752 6.7624 14.4833 0.0000 39.9899 0.0000
# 6 0.0000 0.0000 0.0000 7.3525 0.0000 53.9845
#
#
#
# Elastic Compliance Matrix: (Units=1/GPa)
#
#
# Indices 1 2 3 4 5 6 
#
# 1 0.012171 -0.003942 0.001003 0.000000 -0.002063 0.000000
# 2 -0.003942 0.009061 -0.000110 0.000000 -0.000726 0.000000
# 3 0.001003 -0.000110 0.019875 0.000000 -0.007374 0.000000
# 4 0.000000 0.000000 0.000000 0.026126 0.000000 -0.003558
# 5 -0.002063 -0.000726 -0.007374 0.000000 0.028201 0.000000
# 6 0.000000 0.000000 0.000000 -0.003558 0.000000 0.019008
#
#
# Mechanical properties :
#
#
# Convention : Reuss Voigt Hill
#
# Bulk Modulus (GPa) = 28.56495 40.84556 34.70525
# Shear Modulus (GPa) = 37.81893 42.69705 40.25799
#
# Velocity S-wave (km/s) = 3.78318 4.01977 3.90327
# Velocity P-wave (km/s) = 5.46750 6.08297 5.78343
#
# Compressibility (1/GPa) = 0.03500794
#
# Stress axis : x y z
#
# Youngs Moduli (GPa) = 82.16579 110.36362 50.31566
#
# Poissons Ratio (x) = 0.43501 -0.05045
# Poissons Ratio (y) = 0.32387 0.00554
# Poissons Ratio (z) = -0.08239 0.01215
#
# Static dielectric constant tensor:
#      x y z
#    x 4.958570 0.000000 0.381270 
#    y 0.000000 5.039300 0.000000 
#    z 0.381270 0.000000 4.871450 
# 
# 
# High freq. dielectric constant tensor:
#      x y z
#    x 2.061640 0.000000 0.031100 
#    y 0.000000 2.068530 0.000000 
#    z 0.031100 0.000000 2.059870 
# 
# From -- ./inp_files/310230.got.cif
#   From: 2010.06.25/outbox.cif.g09.slc.cpg/sg15_156_cif.got.tgz:310230.got - 2010.06.28 07:06:18.
