data_PCOD8146540
_publ_section_title
;
Structure prediction by ZEFSAII (Michael W. Deem and Ramdas Pophale) SiO2 
 PCOD8146540
Probable space group: C 2/C
;
_chemical_formula_sum "Si O2"
_cell_formula_units_Z 56
_cell_length_a 16.825537
_cell_length_b 20.363043
_cell_length_c 14.837235
_cell_angle_alpha 90.000000
_cell_angle_beta 148.129699
_cell_angle_gamma 90.000000
_cell_volume 2684.089742
_symmetry_space_group_name_H-M "C 2/C"
_symmetry_group_IT_number 15
_symmetry_cell_setting 'monoclinic'
loop_
_space_group_symop_operation_xyz
x,y,z
-x,y,1/2-z
-x,-y,-z
x,-y,1/2+z
1/2+x,1/2+y,z
1/2-x,1/2+y,1/2-z
1/2-x,1/2-y,-z
1/2+x,1/2-y,1/2+z
loop_
_atom_site_type_symbol
_atom_site_label
_atom_site_fract_x
_atom_site_fract_y
_atom_site_fract_z
Si Si1 0.844528 0.102959 0.642672
Si Si2 0.369369 0.922062 0.935622
Si Si3 0.207682 0.541820 0.761527
Si Si4 0.837955 0.695137 0.135692
Si Si5 0.663163 0.990604 0.421672
Si Si6 0.728174 0.295667 0.724662
Si Si7 0.121431 0.165893 0.637864
O O1 0.742514 0.126814 0.461521
O O2 0.855483 0.156507 0.732373
O O3 0.000000 0.083815 0.750000
O O4 0.763065 0.034849 0.586804
O O5 0.301801 0.849898 0.858628
O O6 0.280154 0.974864 0.786133
O O7 0.547006 0.925151 0.083335
O O8 0.355408 0.928332 0.030607
O O9 0.234196 0.525803 0.892916
O O10 0.340124 0.594387 0.866901
O O11 0.832336 0.703852 0.236264
O O12 0.000000 0.695262 0.250000
O O13 0.750000 0.750000 0.000000
O O14 0.500000 0.023942 0.250000
O O15 0.762756 0.220725 0.791474
O O16 0.550872 0.310842 0.544098
#
# Coordination Sequence:
#
# PCOD8146540 Si02
#       7
#     8   8   8   8   8   8   8
#     4  12  23  38  58  94 130 167 208 262 317 385
#     4  10  22  41  67  97 128 170 216 266 323 383
#     4  10  22  41  69  96 128 169 218 266 322 385
#     4  12  23  35  56  84 124 166 206 248 316 384
#     4  10  22  43  67  96 129 169 214 267 322 383
#     4  12  25  41  62  92 132 173 215 271 320 387
#     4  12  25  41  62  93 133 171 220 265 325 381
#
# _framework density 20.863685
#
# number of rings (size 3 to 8) (size 9 to 14) (size 15 to 20)
#    0.000    0.857    4.286    3.429    2.000    1.714 
#    0.000    0.714    0.000    0.000    0.000    0.000 
#    0.000    0.000    0.000    0.000    0.000    0.000 
#
# Total GULP energy -346896.979209 kJ/mol
# GULP energy per Si atom -12389.177829 kJ/mol
# Density = 2.081620 g / cm^3
# Si number density = 20.863685 Si / 1000 Ang^3
#
#
#
# Elastic Constant Matrix: (Units=GPa)
#
#
# Indices 1 2 3 4 5 6 
#
# 1 78.9633 23.0160 30.5534 0.0000 0.6935 0.0000
# 2 23.0160 99.8975 43.9404 0.0000 11.4963 0.0000
# 3 30.5534 43.9404 97.7861 0.0000 13.9504 0.0000
# 4 0.0000 0.0000 0.0000 24.8865 0.0000 8.5967
# 5 0.6935 11.4963 13.9504 0.0000 35.7083 0.0000
# 6 0.0000 0.0000 0.0000 8.5967 0.0000 27.6469
#
#
#
# Elastic Compliance Matrix: (Units=1/GPa)
#
#
# Indices 1 2 3 4 5 6 
#
# 1 0.014751 -0.001832 -0.004055 0.000000 0.001888 0.000000
# 2 -0.001832 0.012831 -0.004881 0.000000 -0.002189 0.000000
# 3 -0.004055 -0.004881 0.014245 0.000000 -0.003915 0.000000
# 4 0.000000 0.000000 0.000000 0.045018 0.000000 -0.013998
# 5 0.001888 -0.002189 -0.003915 0.000000 0.030202 0.000000
# 6 0.000000 0.000000 0.000000 -0.013998 0.000000 0.040523
#
#
# Mechanical properties :
#
#
# Convention : Reuss Voigt Hill
#
# Bulk Modulus (GPa) = 49.28330 52.40739 50.84535
# Shear Modulus (GPa) = 26.90060 29.59081 28.24571
#
# Velocity S-wave (km/s) = 3.59465 3.77011 3.68342
# Velocity P-wave (km/s) = 6.39543 6.64267 6.52022
#
# Compressibility (1/GPa) = 0.02029085
#
# Stress axis : x y z
#
# Youngs Moduli (GPa) = 67.79427 77.93511 70.19917
#
# Poissons Ratio (x) = 0.14279 0.28464
# Poissons Ratio (y) = 0.12421 0.34265
# Poissons Ratio (z) = 0.27489 0.38041
#
# Static dielectric constant tensor:
#      x y z
#    x 3.785240 0.000000 -0.142150 
#    y 0.000000 4.095750 0.000000 
#    z -0.142150 0.000000 3.906620 
# 
# 
# High freq. dielectric constant tensor:
#      x y z
#    x 1.804800 0.000000 0.008020 
#    y 0.000000 1.820630 0.000000 
#    z 0.008020 0.000000 1.815690 
# 
# From -- ./inp_files/50128.got.cif
#   From: 2010.06.25/outbox.cif.g09.slc.cpg/sg15_26_cif.got.tgz:50128.got - 2010.06.28 07:06:18.
