data_PCOD8146366
_publ_section_title
;
Structure prediction by ZEFSAII (Michael W. Deem and Ramdas Pophale) SiO2 
 PCOD8146366
Probable space group: C 2/C
;
_chemical_formula_sum "Si O2"
_cell_formula_units_Z 40
_cell_length_a 12.536084
_cell_length_b 29.114257
_cell_length_c 5.117531
_cell_angle_alpha 90.000000
_cell_angle_beta 76.872090
_cell_angle_gamma 90.000000
_cell_volume 1818.976312
_symmetry_space_group_name_H-M "C 2/C"
_symmetry_group_IT_number 15
_symmetry_cell_setting 'monoclinic'
loop_
_space_group_symop_operation_xyz
x,y,z
-x,y,1/2-z
-x,-y,-z
x,-y,1/2+z
1/2+x,1/2+y,z
1/2-x,1/2+y,1/2-z
1/2-x,1/2-y,-z
1/2+x,1/2-y,1/2+z
loop_
_atom_site_type_symbol
_atom_site_label
_atom_site_fract_x
_atom_site_fract_y
_atom_site_fract_z
Si Si1 0.070969 0.736409 0.464431
Si Si2 0.375376 0.329556 0.223296
Si Si3 0.807611 0.118948 0.250198
Si Si4 0.877817 0.979508 0.587450
Si Si5 0.927710 0.365584 0.533362
O O1 0.157438 0.777263 0.347641
O O2 0.120207 0.686097 0.502162
O O3 0.000000 0.726937 0.250000
O O4 0.000000 0.754223 0.750000
O O5 0.500000 0.329629 0.250000
O O6 0.302615 0.345001 0.510860
O O7 0.364080 0.362455 0.980613
O O8 0.878012 0.075209 0.118950
O O9 0.682148 0.104119 0.379179
O O10 0.815306 0.995101 0.360036
O O11 0.000000 0.000000 0.500000
O O12 0.000000 0.369823 0.750000
O O13 0.000000 0.382920 0.250000
#
# Coordination Sequence:
#
# PCOD8146366 Si02
#       5
#     8   8   8   8   8
#     4   9  18  36  54  83 123 169 200 248 316 336
#     4  11  23  35  57  91 133 158 200 258 295 382
#     4  12  24  38  64  93 115 168 213 242 316 370
#     4  10  23  40  60  86 123 159 185 247 314 387
#     4  10  22  41  64  85 122 163 215 264 290 353
#
# _framework density 21.990392
#
# number of rings (size 3 to 8) (size 9 to 14) (size 15 to 20)
#    0.000    1.600    0.000    5.400    8.400    1.600 
#    0.000    0.000    0.000    3.600    0.000    0.000 
#    0.000    0.000    0.000    0.000    0.000    0.000 
#
# Total GULP energy -247853.517803 kJ/mol
# GULP energy per Si atom -12392.675890 kJ/mol
# Density = 2.194034 g / cm^3
# Si number density = 21.990392 Si / 1000 Ang^3
#
#
#
# Elastic Constant Matrix: (Units=GPa)
#
#
# Indices 1 2 3 4 5 6 
#
# 1 54.7692 24.5074 22.2188 0.0000 -6.7989 0.0000
# 2 24.5074 63.7697 21.9781 0.0000 -4.6497 0.0000
# 3 22.2188 21.9781 170.3571 0.0000 15.5324 0.0000
# 4 0.0000 0.0000 0.0000 -2.9303 0.0000 -20.9440
# 5 -6.7989 -4.6497 15.5324 0.0000 37.7781 0.0000
# 6 0.0000 0.0000 0.0000 -20.9440 0.0000 3.6637
#
#
#
# Elastic Compliance Matrix: (Units=1/GPa)
#
#
# Indices 1 2 3 4 5 6 
#
# 1 0.023248 -0.007796 -0.002411 0.000000 0.004216 0.000000
# 2 -0.007796 0.019360 -0.001631 0.000000 0.001650 0.000000
# 3 -0.002411 -0.001631 0.006704 0.000000 -0.003391 0.000000
# 4 0.000000 0.000000 0.000000 -0.008153 0.000000 -0.046606
# 5 0.004216 0.001650 -0.003391 0.000000 0.028826 0.000000
# 6 0.000000 0.000000 0.000000 -0.046606 0.000000 0.006521
#
#
# Mechanical properties :
#
#
# Convention : Reuss Voigt Hill
#
# Bulk Modulus (GPa) = 39.00790 47.36718 43.18754
# Shear Modulus (GPa) = 45.98585 22.38175 34.18380
#
# Velocity S-wave (km/s) = 4.57790 3.19375 3.94698
# Velocity P-wave (km/s) = 6.76166 5.93185 6.36030
#
# Compressibility (1/GPa) = 0.02563583
#
# Stress axis : x y z
#
# Youngs Moduli (GPa) = 43.01387 51.65229 149.16301
#
# Poissons Ratio (x) = 0.40270 0.35959
# Poissons Ratio (y) = 0.33535 0.24334
# Poissons Ratio (z) = 0.10369 0.08426
#
# Static dielectric constant tensor:
#      x y z
#    x 3.469670 0.000000 0.078810 
#    y 0.000000 3.947320 0.000000 
#    z 0.078810 0.000000 4.172500 
# 
# 
# High freq. dielectric constant tensor:
#      x y z
#    x 1.826210 0.000000 0.022440 
#    y 0.000000 1.843980 0.000000 
#    z 0.022440 0.000000 1.898220 
# 
# From -- ./inp_files/5704.got.cif
#   From: 2010.06.25/outbox.cif.g09.slc.cpg/sg15_3_cif.got.tgz:5704.got - 2010.06.28 07:06:18.
