data_PCOD8146137
_publ_section_title
;
Structure prediction by ZEFSAII (Michael W. Deem and Ramdas Pophale) SiO2 
 PCOD8146137
Probable space group: C 2/C
;
_chemical_formula_sum "Si O2"
_cell_formula_units_Z 56
_cell_length_a 8.783481
_cell_length_b 17.382542
_cell_length_c 23.907470
_cell_angle_alpha 90.000000
_cell_angle_beta 49.043490
_cell_angle_gamma 90.000000
_cell_volume 2756.638234
_symmetry_space_group_name_H-M "C 2/C"
_symmetry_group_IT_number 15
_symmetry_cell_setting 'monoclinic'
loop_
_space_group_symop_operation_xyz
x,y,z
-x,y,1/2-z
-x,-y,-z
x,-y,1/2+z
1/2+x,1/2+y,z
1/2-x,1/2+y,1/2-z
1/2-x,1/2-y,-z
1/2+x,1/2-y,1/2+z
loop_
_atom_site_type_symbol
_atom_site_label
_atom_site_fract_x
_atom_site_fract_y
_atom_site_fract_z
Si Si1 0.758595 0.437561 0.941026
Si Si2 0.451269 0.202340 0.446480
Si Si3 0.463287 0.529832 0.419909
Si Si4 0.351102 0.831944 0.489324
Si Si5 0.893413 0.931428 0.215808
Si Si6 0.229353 0.316321 0.177338
Si Si7 0.966507 0.417608 0.360982
O O1 0.900289 0.364318 0.914994
O O2 0.657208 0.433311 0.904226
O O3 0.898443 0.510665 0.912874
O O4 0.599907 0.452902 0.029714
O O5 0.250000 0.250000 0.500000
O O6 0.493351 0.170442 0.497612
O O7 0.654029 0.245592 0.378431
O O8 0.307168 0.600679 0.456951
O O9 0.510604 0.499260 0.345617
O O10 0.250000 0.750000 0.500000
O O11 0.491639 0.851019 0.401608
O O12 0.880178 0.847092 0.189651
O O13 0.659180 0.947951 0.281791
O O14 0.000000 0.926019 0.250000
O O15 0.204290 0.388036 0.140958
O O16 0.000000 0.290284 0.250000
#
# Coordination Sequence:
#
# PCOD8146137 Si02
#       7
#     8   8   8   8   8   8   8
#     4  10  22  40  67  96 127 166 222 283 329 392
#     4  12  25  39  68 100 131 169 229 284 334 405
#     4  10  22  42  66  93 133 174 223 276 341 401
#     4  11  23  41  66  99 134 175 219 282 345 403
#     4  11  24  40  69  96 128 176 232 276 331 415
#     4  10  22  46  66  91 137 186 216 270 353 422
#     4  10  22  42  68  91 132 178 220 271 343 404
#
# _framework density 20.314599000000001
#
# number of rings (size 3 to 8) (size 9 to 14) (size 15 to 20)
#    0.000    1.429    2.857    1.714    8.000    1.143 
#    2.571    0.000    0.000    0.000    0.000    0.000 
#    0.000    0.000    0.000    0.000    0.000    0.000 
#
# Total GULP energy -346891.687860 kJ/mol
# GULP energy per Si atom -12388.988852 kJ/mol
# Density = 2.026836 g / cm^3
# Si number density = 20.314599 Si / 1000 Ang^3
#
#
#
# Elastic Constant Matrix: (Units=GPa)
#
#
# Indices 1 2 3 4 5 6 
#
# 1 115.9754 50.0718 24.6705 -0.0020 19.5472 0.0014
# 2 50.0718 95.2994 49.5192 -0.0021 -6.0640 0.0010
# 3 24.6705 49.5192 107.4673 -0.0041 5.7108 0.0014
# 4 -0.0020 -0.0021 -0.0041 31.6681 0.0003 2.8585
# 5 19.5472 -6.0640 5.7108 0.0003 35.8278 -0.0005
# 6 0.0014 0.0010 0.0014 2.8585 -0.0005 29.7100
#
#
#
# Elastic Compliance Matrix: (Units=1/GPa)
#
#
# Indices 1 2 3 4 5 6 
#
# 1 0.013429 -0.008240 0.001188 0.000001 -0.008911 -0.000001
# 2 -0.008240 0.019270 -0.007463 0.000000 0.008947 0.000000
# 3 0.001188 -0.007463 0.012680 0.000001 -0.003932 -0.000001
# 4 0.000001 0.000000 0.000001 0.031854 -0.000001 -0.003065
# 5 -0.008911 0.008947 -0.003932 -0.000001 0.034914 0.000001
# 6 -0.000001 0.000000 -0.000001 -0.003065 0.000001 0.033954
#
#
# Mechanical properties :
#
#
# Convention : Reuss Voigt Hill
#
# Bulk Modulus (GPa) = 61.16797 63.02947 62.09872
# Shear Modulus (GPa) = 27.68821 32.40655 30.04738
#
# Velocity S-wave (km/s) = 3.69585 3.99837 3.85008
# Velocity P-wave (km/s) = 6.95616 7.23948 7.09923
#
# Compressibility (1/GPa) = 0.01634843
#
# Stress axis : x y z
#
# Youngs Moduli (GPa) = 74.46337 51.89419 78.86199
#
# Poissons Ratio (x) = 0.42761 -0.09365
# Poissons Ratio (y) = 0.61359 0.58856
# Poissons Ratio (z) = -0.08843 0.38729
#
# Static dielectric constant tensor:
#      x y z
#    x 3.777550 0.000000 0.183160 
#    y 0.000000 3.538210 0.000000 
#    z 0.183160 0.000000 3.839230 
# 
# 
# High freq. dielectric constant tensor:
#      x y z
#    x 1.801240 0.000000 0.004990 
#    y 0.000000 1.784560 0.000000 
#    z 0.004990 0.000000 1.796300 
# 
# From -- ./inp_files/265453.got.cif
#   From: 2010.06.25/outbox.cif.g09.slc.cpg/sg15_133_cif.got.tgz:265453.got - 2010.06.28 07:06:18.
