data_PCOD8146497
_publ_section_title
;
Structure prediction by ZEFSAII (Michael W. Deem and Ramdas Pophale) SiO2 
 PCOD8146497
Probable space group: C 2/C
;
_chemical_formula_sum "Si O2"
_cell_formula_units_Z 64
_cell_length_a 16.967798
_cell_length_b 15.818719
_cell_length_c 17.350185
_cell_angle_alpha 90.000000
_cell_angle_beta 37.859612
_cell_angle_gamma 90.000000
_cell_volume 2858.100026
_symmetry_space_group_name_H-M "C 2/C"
_symmetry_group_IT_number 15
_symmetry_cell_setting 'monoclinic'
loop_
_space_group_symop_operation_xyz
x,y,z
-x,y,1/2-z
-x,-y,-z
x,-y,1/2+z
1/2+x,1/2+y,z
1/2-x,1/2+y,1/2-z
1/2-x,1/2-y,-z
1/2+x,1/2-y,1/2+z
loop_
_atom_site_type_symbol
_atom_site_label
_atom_site_fract_x
_atom_site_fract_y
_atom_site_fract_z
Si Si1 0.218971 0.404405 0.387951
Si Si2 0.747194 0.094049 0.170258
Si Si3 0.640957 0.556638 0.159450
Si Si4 0.595649 0.867624 0.321012
Si Si5 0.680219 0.428433 0.457835
Si Si6 0.653458 0.246627 0.145291
Si Si7 0.987736 0.476628 0.851132
Si Si8 0.578865 0.327892 0.835445
O O1 0.298434 0.491452 0.326330
O O2 0.143663 0.395388 0.367476
O O3 0.314516 0.325881 0.324517
O O4 0.120915 0.412399 0.535970
O O5 0.689907 0.158905 0.154107
O O6 0.815028 0.146394 0.184441
O O7 0.839740 0.024034 0.059029
O O8 0.619956 0.044340 0.295308
O O9 0.500000 0.520646 0.250000
O O10 0.629666 0.646873 0.211270
O O11 0.718770 0.565217 0.019001
O O12 0.707516 0.877834 0.171360
O O13 0.472000 0.924891 0.390578
O O14 0.549951 0.771116 0.359704
O O15 0.550402 0.377495 0.544568
O O16 0.500000 0.248692 0.250000
O O17 0.750000 0.250000 0.000000
O O18 0.000000 0.469048 0.750000
#
# Coordination Sequence:
#
# PCOD8146497 Si02
#       8
#     8   8   8   8   8   8   8   8
#     4  12  23  43  66 101 134 174 229 276 339 407
#     4  11  22  44  63  97 132 176 225 271 344 405
#     4  10  22  41  66  95 127 173 225 274 327 399
#     4  11  25  43  65 101 132 176 224 276 343 398
#     4  10  23  42  68  92 133 177 223 276 337 401
#     4  12  25  41  68 102 141 180 220 280 341 413
#     4  11  24  43  68  94 136 182 226 277 335 404
#     4  11  24  43  66  98 132 174 225 277 340 401
#
# _framework density 22.392499000000001
#
# number of rings (size 3 to 8) (size 9 to 14) (size 15 to 20)
#    0.000    1.000    1.250    6.750    0.000    7.000 
#    0.000    0.000    0.000    0.000    0.000    0.000 
#    0.000    0.000    0.000    0.000    0.000    0.000 
#
# Total GULP energy -396675.062353 kJ/mol
# GULP energy per Si atom -12396.095699 kJ/mol
# Density = 2.234153 g / cm^3
# Si number density = 22.392499 Si / 1000 Ang^3
#
#
#
# Elastic Constant Matrix: (Units=GPa)
#
#
# Indices 1 2 3 4 5 6 
#
# 1 76.8912 44.8582 31.2688 -0.0001 2.1116 0.0000
# 2 44.8582 148.9113 37.8137 0.0000 -3.6221 0.0000
# 3 31.2688 37.8137 102.6905 -0.0002 6.7531 0.0001
# 4 -0.0001 0.0000 -0.0002 27.9287 0.0001 -6.0272
# 5 2.1116 -3.6221 6.7531 0.0001 32.1981 0.0000
# 6 0.0000 0.0000 0.0001 -6.0272 0.0000 43.1082
#
#
#
# Elastic Compliance Matrix: (Units=1/GPa)
#
#
# Indices 1 2 3 4 5 6 
#
# 1 0.016933 -0.004221 -0.003546 0.000000 -0.000842 0.000000
# 2 -0.004221 0.008525 -0.001962 0.000000 0.001647 0.000000
# 3 -0.003546 -0.001962 0.011701 0.000000 -0.002442 0.000000
# 4 0.000000 0.000000 0.000000 0.036920 0.000000 0.005162
# 5 -0.000842 0.001647 -0.002442 0.000000 0.031810 0.000000
# 6 0.000000 0.000000 0.000000 0.005162 0.000000 0.023919
#
#
# Mechanical properties :
#
#
# Convention : Reuss Voigt Hill
#
# Bulk Modulus (GPa) = 56.49678 61.81937 59.15807
# Shear Modulus (GPa) = 32.22310 34.95048 33.58679
#
# Velocity S-wave (km/s) = 3.79755 3.95500 3.87707
# Velocity P-wave (km/s) = 6.67184 6.96585 6.82043
#
# Compressibility (1/GPa) = 0.01770013
#
# Stress axis : x y z
#
# Youngs Moduli (GPa) = 59.05574 117.29806 85.46198
#
# Poissons Ratio (x) = 0.49510 0.30309
# Poissons Ratio (y) = 0.24927 0.16771
# Poissons Ratio (z) = 0.20944 0.23018
#
# Static dielectric constant tensor:
#      x y z
#    x 4.154270 0.000000 -0.043340 
#    y 0.000000 4.032450 0.000000 
#    z -0.043340 0.000000 4.009920 
# 
# 
# High freq. dielectric constant tensor:
#      x y z
#    x 1.895020 0.000000 0.000210 
#    y 0.000000 1.896540 0.000000 
#    z 0.000210 0.000000 1.875760 
# 
# From -- ./inp_files/211396.got.cif
#   From: 2010.06.25/outbox.cif.g09.slc.cpg/sg15_106_cif.got.tgz:211396.got - 2010.06.28 07:06:18.
