data_PCOD8146669
_publ_section_title
;
Structure prediction by ZEFSAII (Michael W. Deem and Ramdas Pophale) SiO2 
 PCOD8146669
Probable space group: C 2/C
;
_chemical_formula_sum "Si O2"
_cell_formula_units_Z 44
_cell_length_a 15.446433
_cell_length_b 7.904852
_cell_length_c 16.273949
_cell_angle_alpha 90.000000
_cell_angle_beta 71.340343
_cell_angle_gamma 90.000000
_cell_volume 1882.628749
_symmetry_space_group_name_H-M "C 2/C"
_symmetry_group_IT_number 15
_symmetry_cell_setting 'monoclinic'
loop_
_space_group_symop_operation_xyz
x,y,z
-x,y,1/2-z
-x,-y,-z
x,-y,1/2+z
1/2+x,1/2+y,z
1/2-x,1/2+y,1/2-z
1/2-x,1/2-y,-z
1/2+x,1/2-y,1/2+z
loop_
_atom_site_type_symbol
_atom_site_label
_atom_site_fract_x
_atom_site_fract_y
_atom_site_fract_z
Si Si1 0.103577 0.931975 0.099826
Si Si2 0.890339 0.309717 0.424808
Si Si3 0.909742 0.153555 0.583023
Si Si4 0.858018 0.724753 0.267420
Si Si5 0.738424 0.406751 0.935608
Si Si6 0.000000 0.445682 0.250000
O O1 0.086266 0.863902 0.196591
O O2 0.008092 0.912374 0.081601
O O3 0.143996 0.122427 0.091072
O O4 0.188035 0.814649 0.032582
O O5 0.921174 0.303672 0.511533
O O6 0.814763 0.454743 0.436251
O O7 0.976191 0.339433 0.338534
O O8 0.845726 0.214876 0.678034
O O9 0.857037 0.000930 0.556560
O O10 0.762519 0.696007 0.345086
O O11 0.913296 0.552107 0.248358
#
# Coordination Sequence:
#
# PCOD8146669 Si02
#       6
#     8   8   8   8   8   4
#     4  11  21  42  67  89 127 162 211 252 315 369
#     4  10  23  40  66  88 127 165 207 255 315 368
#     4  11  22  40  65  95 123 158 216 250 308 372
#     4  11  23  42  62  94 129 163 208 259 309 367
#     4  10  23  42  61  93 127 165 206 256 310 370
#     4  10  22  42  58  92 126 162 210 260 306 364
#
# _framework density 23.371576999999998
#
# number of rings (size 3 to 8) (size 9 to 14) (size 15 to 20)
#    0.000    1.455    1.818    4.909    2.545    3.636 
#    9.818    0.000    0.000    0.000    0.000    0.000 
#    0.000    0.000    0.000    0.000    0.000    0.000 
#
# Total GULP energy -272556.215516 kJ/mol
# GULP energy per Si atom -12388.918887 kJ/mol
# Density = 2.331838 g / cm^3
# Si number density = 23.371577 Si / 1000 Ang^3
#
#
#
# Elastic Constant Matrix: (Units=GPa)
#
#
# Indices 1 2 3 4 5 6 
#
# 1 52.9639 -6.4853 29.1500 0.0000 -8.5144 0.0000
# 2 -6.4853 30.3457 28.5209 0.0000 -9.1853 0.0000
# 3 29.1500 28.5209 221.1140 0.0000 -10.7217 0.0000
# 4 0.0000 0.0000 0.0000 33.6860 0.0000 -11.4244
# 5 -8.5144 -9.1853 -10.7217 0.0000 39.6710 0.0000
# 6 0.0000 0.0000 0.0000 -11.4244 0.0000 15.1372
#
#
#
# Elastic Compliance Matrix: (Units=1/GPa)
#
#
# Indices 1 2 3 4 5 6 
#
# 1 0.023574 0.010947 -0.004207 0.000000 0.006457 0.000000
# 2 0.010947 0.044905 -0.006705 0.000000 0.010934 0.000000
# 3 -0.004207 -0.006705 0.005900 0.000000 -0.000861 0.000000
# 4 0.000000 0.000000 0.000000 0.039898 0.000000 0.030112
# 5 0.006457 0.010934 -0.000861 0.000000 0.028892 0.000000
# 6 0.000000 0.000000 0.000000 0.030112 0.000000 0.088789
#
#
# Mechanical properties :
#
#
# Convention : Reuss Voigt Hill
#
# Bulk Modulus (GPa) = 13.43203 45.19941 29.31572
# Shear Modulus (GPa) = 19.47754 34.58137 27.02946
#
# Velocity S-wave (km/s) = 2.88997 3.85077 3.40444
# Velocity P-wave (km/s) = 4.11042 6.25722 5.29378
#
# Compressibility (1/GPa) = 0.07444889
#
# Stress axis : x y z
#
# Youngs Moduli (GPa) = 42.41875 22.26944 169.48393
#
# Poissons Ratio (x) = -0.24377 0.71297
# Poissons Ratio (y) = -0.46434 1.13639
# Poissons Ratio (z) = 0.17844 0.14932
#
# Static dielectric constant tensor:
#      x y z
#    x 3.899210 0.000000 -0.231180 
#    y 0.000000 4.352530 0.000000 
#    z -0.231180 0.000000 5.264070 
# 
# 
# High freq. dielectric constant tensor:
#      x y z
#    x 1.906910 0.000000 -0.019570 
#    y 0.000000 1.921600 0.000000 
#    z -0.019570 0.000000 1.975940 
# 
# From -- ./inp_files/202591.got.cif
#   From: 2010.06.25/outbox.cif.g09.slc.cpg/sg15_102_cif.got.tgz:202591.got - 2010.06.28 07:06:18.
