data_PCOD8146636
_publ_section_title
;
Structure prediction by ZEFSAII (Michael W. Deem and Ramdas Pophale) SiO2 
 PCOD8146636
Probable space group: C 2/C
;
_chemical_formula_sum "Si O2"
_cell_formula_units_Z 48
_cell_length_a 28.256724
_cell_length_b 14.140127
_cell_length_c 9.007305
_cell_angle_alpha 90.000000
_cell_angle_beta 35.730275
_cell_angle_gamma 90.000000
_cell_volume 2101.651486
_symmetry_space_group_name_H-M "C 2/C"
_symmetry_group_IT_number 15
_symmetry_cell_setting 'monoclinic'
loop_
_space_group_symop_operation_xyz
x,y,z
-x,y,1/2-z
-x,-y,-z
x,-y,1/2+z
1/2+x,1/2+y,z
1/2-x,1/2+y,1/2-z
1/2-x,1/2-y,-z
1/2+x,1/2-y,1/2+z
loop_
_atom_site_type_symbol
_atom_site_label
_atom_site_fract_x
_atom_site_fract_y
_atom_site_fract_z
Si Si1 0.873464 0.770362 0.969579
Si Si2 0.581248 0.048816 0.342501
Si Si3 0.826534 0.437724 0.611351
Si Si4 0.945100 0.239254 0.601647
Si Si5 0.827428 0.054089 0.413159
Si Si6 0.083329 0.075417 0.610496
O O1 0.816915 0.848817 0.033933
O O2 0.958026 0.759573 0.666718
O O3 0.819529 0.674688 0.100425
O O4 0.895665 0.797692 0.082978
O O5 0.594048 0.046559 0.487084
O O6 0.582804 0.156190 0.283323
O O7 0.500000 0.000000 0.500000
O O8 0.657656 0.993163 0.080443
O O9 0.747119 0.481352 0.888824
O O10 0.921952 0.178242 0.803165
O O11 0.903244 0.001916 0.296072
O O12 0.845195 0.075827 0.194956
O O13 0.000000 0.044429 0.750000
#
# Coordination Sequence:
#
# PCOD8146636 Si02
#       6
#     8   8   8   8   8   8
#     4  10  22  44  70  98 136 181 233 284 347 410
#     4  11  22  43  71 101 134 184 234 285 340 411
#     4  11  25  44  67 102 142 183 226 286 355 415
#     4  10  22  41  71 102 133 178 239 291 332 408
#     4  12  26  44  69 102 147 183 225 291 351 417
#     4  12  25  43  68 103 137 185 234 282 341 410
#
# _framework density 22.839182000000001
#
# number of rings (size 3 to 8) (size 9 to 14) (size 15 to 20)
#    0.000    1.000    3.333    3.000    2.333    4.000 
#    0.000    6.667    0.000    0.000    0.000    0.000 
#    0.000    0.000    0.000    0.000    0.000    0.000 
#
# Total GULP energy -297642.415315 kJ/mol
# GULP energy per Si atom -12401.767305 kJ/mol
# Density = 2.278720 g / cm^3
# Si number density = 22.839182 Si / 1000 Ang^3
#
#
#
# Elastic Constant Matrix: (Units=GPa)
#
#
# Indices 1 2 3 4 5 6 
#
# 1 66.6673 51.7531 20.7059 0.0000 10.7069 0.0000
# 2 51.7531 145.7810 51.0659 0.0000 7.7976 0.0000
# 3 20.7059 51.0659 102.5531 0.0000 10.4396 0.0000
# 4 0.0000 0.0000 0.0000 43.5638 0.0000 2.9060
# 5 10.7069 7.7976 10.4396 0.0000 31.6447 0.0000
# 6 0.0000 0.0000 0.0000 2.9060 0.0000 38.4430
#
#
#
# Elastic Compliance Matrix: (Units=1/GPa)
#
#
# Indices 1 2 3 4 5 6 
#
# 1 0.021611 -0.007324 -0.000161 0.000000 -0.005454 0.000000
# 2 -0.007324 0.010806 -0.004018 0.000000 0.001141 0.000000
# 3 -0.000161 -0.004018 0.012084 0.000000 -0.002942 0.000000
# 4 0.000000 0.000000 0.000000 0.023071 0.000000 -0.001744
# 5 -0.005454 0.001141 -0.002942 0.000000 0.034136 0.000000
# 6 0.000000 0.000000 0.000000 -0.001744 0.000000 0.026144
#
#
# Mechanical properties :
#
#
# Convention : Reuss Voigt Hill
#
# Bulk Modulus (GPa) = 46.52349 62.45013 54.48681
# Shear Modulus (GPa) = 31.64063 35.49540 33.56802
#
# Velocity S-wave (km/s) = 3.72609 3.94654 3.83790
# Velocity P-wave (km/s) = 6.23906 6.94044 6.59908
#
# Compressibility (1/GPa) = 0.02149452
#
# Stress axis : x y z
#
# Youngs Moduli (GPa) = 46.27191 92.53946 82.75419
#
# Poissons Ratio (x) = 0.67775 0.01335
# Poissons Ratio (y) = 0.33889 0.33253
# Poissons Ratio (z) = 0.00746 0.37185
#
# Static dielectric constant tensor:
#      x y z
#    x 4.699760 0.000000 1.082870 
#    y 0.000000 4.227380 0.000000 
#    z 1.082870 0.000000 5.699350 
# 
# 
# High freq. dielectric constant tensor:
#      x y z
#    x 1.907300 0.000000 0.007110 
#    y 0.000000 1.911120 0.000000 
#    z 0.007110 0.000000 1.891290 
# 
# From -- ./inp_files/66390.got.cif
#   From: 2010.06.25/outbox.cif.g09.slc.cpg/sg15_34_cif.got.tgz:66390.got - 2010.06.28 07:06:18.
