data_PCOD8146247
_publ_section_title
;
Structure prediction by ZEFSAII (Michael W. Deem and Ramdas Pophale) SiO2 
 PCOD8146247
Probable space group: C 2/C
;
_chemical_formula_sum "Si O2"
_cell_formula_units_Z 52
_cell_length_a 19.803315
_cell_length_b 17.642272
_cell_length_c 10.202518
_cell_angle_alpha 90.000000
_cell_angle_beta 42.874667
_cell_angle_gamma 90.000000
_cell_volume 2425.281272
_symmetry_space_group_name_H-M "C 2/C"
_symmetry_group_IT_number 15
_symmetry_cell_setting 'monoclinic'
loop_
_space_group_symop_operation_xyz
x,y,z
-x,y,1/2-z
-x,-y,-z
x,-y,1/2+z
1/2+x,1/2+y,z
1/2-x,1/2+y,1/2-z
1/2-x,1/2-y,-z
1/2+x,1/2-y,1/2+z
loop_
_atom_site_type_symbol
_atom_site_label
_atom_site_fract_x
_atom_site_fract_y
_atom_site_fract_z
Si Si1 0.660686 0.660750 0.781207
Si Si2 0.335165 0.752167 0.144320
Si Si3 0.000000 0.327141 0.750000
Si Si4 0.212409 0.895381 0.919514
Si Si5 0.563015 0.479627 0.538497
Si Si6 0.501714 0.227377 0.895097
Si Si7 0.563955 0.076989 0.400392
O O1 0.746716 0.689537 0.753314
O O2 0.696969 0.645304 0.581774
O O3 0.637872 0.582973 0.884265
O O4 0.570115 0.721183 0.910740
O O5 0.290672 0.668675 0.187741
O O6 0.385351 0.761484 0.215554
O O7 0.417509 0.770535 0.919422
O O8 0.046288 0.383605 0.788181
O O9 0.317825 0.939319 0.757974
O O10 0.122134 0.950275 0.015538
O O11 0.500000 0.447185 0.750000
O O12 0.500000 0.500000 0.500000
O O13 0.500000 0.257394 0.750000
O O14 0.470210 0.138620 0.942332
O O15 0.500000 0.000000 0.500000
#
# Coordination Sequence:
#
# PCOD8146247 Si02
#       7
#     8   8   4   8   8   8   8
#     4  12  24  47  74 105 137 184 247 293 355 431
#     4  11  23  43  74 103 132 182 239 290 345 424
#     4  10  22  40  70  98 132 180 228 288 338 408
#     4  12  24  45  74 105 137 187 241 296 359 427
#     4  12  27  47  69 103 145 188 236 302 367 423
#     4  11  26  47  69 102 145 184 232 298 358 419
#     4  11  25  43  68 103 144 185 227 285 355 427
#
# _framework density 21.440812000000001
#
# number of rings (size 3 to 8) (size 9 to 14) (size 15 to 20)
#    0.000    0.615    4.615    3.692    6.462    0.615 
#    2.769    0.000    0.000    0.000    0.000    0.000 
#    0.000    0.000    0.000    0.000    0.000    0.000 
#
# Total GULP energy -322367.804618 kJ/mol
# GULP energy per Si atom -12398.761716 kJ/mol
# Density = 2.139201 g / cm^3
# Si number density = 21.440812 Si / 1000 Ang^3
#
#
#
# Elastic Constant Matrix: (Units=GPa)
#
#
# Indices 1 2 3 4 5 6 
#
# 1 134.0159 34.3367 47.2463 0.0000 -15.7133 0.0000
# 2 34.3367 105.8967 25.1405 0.0000 -11.3884 0.0000
# 3 47.2463 25.1405 55.8106 0.0000 -10.6200 0.0000
# 4 0.0000 0.0000 0.0000 22.4111 0.0000 -9.9701
# 5 -15.7133 -11.3884 -10.6200 0.0000 42.1789 0.0000
# 6 0.0000 0.0000 0.0000 -9.9701 0.0000 26.6160
#
#
#
# Elastic Compliance Matrix: (Units=1/GPa)
#
#
# Indices 1 2 3 4 5 6 
#
# 1 0.010945 -0.001399 -0.008330 0.000000 0.001602 0.000000
# 2 -0.001399 0.010876 -0.003419 0.000000 0.001554 0.000000
# 3 -0.008330 -0.003419 0.027039 0.000000 0.002782 0.000000
# 4 0.000000 0.000000 0.000000 0.053544 0.000000 0.020057
# 5 0.001602 0.001554 0.002782 0.000000 0.025426 0.000000
# 6 0.000000 0.000000 0.000000 0.020057 0.000000 0.045085
#
#
# Mechanical properties :
#
#
# Convention : Reuss Voigt Hill
#
# Bulk Modulus (GPa) = 44.31995 56.57446 50.44720
# Shear Modulus (GPa) = 24.18601 30.84116 27.51358
#
# Velocity S-wave (km/s) = 3.36227 3.79678 3.58611
# Velocity P-wave (km/s) = 5.98238 6.75754 6.38174
#
# Compressibility (1/GPa) = 0.02256320
#
# Stress axis : x y z
#
# Youngs Moduli (GPa) = 91.36716 91.94880 36.98340
#
# Poissons Ratio (x) = 0.12862 0.30808
# Poissons Ratio (y) = 0.12781 0.12645
# Poissons Ratio (z) = 0.76112 0.31438
#
# Static dielectric constant tensor:
#      x y z
#    x 4.220070 0.000000 -0.351500 
#    y 0.000000 3.982330 0.000000 
#    z -0.351500 0.000000 4.135770 
# 
# 
# High freq. dielectric constant tensor:
#      x y z
#    x 1.858760 0.000000 -0.010600 
#    y 0.000000 1.845490 0.000000 
#    z -0.010600 0.000000 1.837510 
# 
# From -- ./inp_files/113628.got.cif
#   From: 2010.06.25/outbox.cif.g09.slc.cpg/sg15_57_cif.got.tgz:113628.got - 2010.06.28 07:06:18.
