data_PCOD8146418
_publ_section_title
;
Structure prediction by ZEFSAII (Michael W. Deem and Ramdas Pophale) SiO2 
 PCOD8146418
Probable space group: C 2/C
;
_chemical_formula_sum "Si O2"
_cell_formula_units_Z 48
_cell_length_a 21.870938
_cell_length_b 23.216053
_cell_length_c 13.224082
_cell_angle_alpha 90.000000
_cell_angle_beta 21.394439
_cell_angle_gamma 90.000000
_cell_volume 2449.401546
_symmetry_space_group_name_H-M "C 2/C"
_symmetry_group_IT_number 15
_symmetry_cell_setting 'monoclinic'
loop_
_space_group_symop_operation_xyz
x,y,z
-x,y,1/2-z
-x,-y,-z
x,-y,1/2+z
1/2+x,1/2+y,z
1/2-x,1/2+y,1/2-z
1/2-x,1/2-y,-z
1/2+x,1/2-y,1/2+z
loop_
_atom_site_type_symbol
_atom_site_label
_atom_site_fract_x
_atom_site_fract_y
_atom_site_fract_z
Si Si1 0.067577 0.577434 0.418132
Si Si2 0.562519 0.686114 0.266982
Si Si3 0.048001 0.315211 0.293524
Si Si4 0.968892 0.070706 0.492699
Si Si5 0.392734 0.468908 0.316927
Si Si6 0.388979 0.029327 0.517546
O O1 0.066329 0.536025 0.517913
O O2 0.066914 0.642751 0.461038
O O3 0.910311 0.569177 0.584812
O O4 0.216085 0.560379 0.112267
O O5 0.500000 0.681113 0.250000
O O6 0.514727 0.749634 0.381149
O O7 0.458117 0.638092 0.486952
O O8 0.757304 0.671429 0.985432
O O9 0.000000 0.323260 0.250000
O O10 0.988854 0.066800 0.582236
O O11 0.803237 0.035771 0.715936
O O12 0.119413 0.036280 0.202280
O O13 0.500000 0.463468 0.250000
O O14 0.500000 0.047195 0.250000
#
# Coordination Sequence:
#
# PCOD8146418 Si02
#       6
#     8   8   8   8   8   8
#     4  11  23  36  60  86 121 150 193 246 300 352
#     4  10  22  41  65  87 115 160 203 248 294 351
#     4  10  23  40  63  91 117 154 205 250 295 351
#     4  11  23  38  60  82 122 154 199 241 298 362
#     4  11  23  36  54  89 118 154 188 240 300 358
#     4  11  22  37  57  87 115 156 191 240 299 357
#
# _framework density 19.596623999999998
#
# number of rings (size 3 to 8) (size 9 to 14) (size 15 to 20)
#    0.000    1.333    3.333    2.000    7.000    0.000 
#    0.000    0.833    0.000    0.000    0.000    0.000 
#    0.000    0.000    0.000    0.000    0.000    0.000 
#
# Total GULP energy -297415.788513 kJ/mol
# GULP energy per Si atom -12392.324521 kJ/mol
# Density = 1.955202 g / cm^3
# Si number density = 19.596624 Si / 1000 Ang^3
#
#
#
# Elastic Constant Matrix: (Units=GPa)
#
#
# Indices 1 2 3 4 5 6 
#
# 1 116.3517 49.8393 35.0048 -0.0113 19.0048 -0.0001
# 2 49.8393 158.3243 51.3211 -0.0048 18.0126 0.0153
# 3 35.0048 51.3211 77.4918 0.0240 9.5465 0.0399
# 4 -0.0113 -0.0048 0.0240 28.2262 0.0011 10.5908
# 5 19.0048 18.0126 9.5465 0.0011 16.0855 -0.0181
# 6 -0.0001 0.0153 0.0399 10.5908 -0.0181 25.3043
#
#
#
# Elastic Compliance Matrix: (Units=1/GPa)
#
#
# Indices 1 2 3 4 5 6 
#
# 1 0.011895 -0.001563 -0.003045 0.000010 -0.010496 -0.000006
# 2 -0.001563 0.008888 -0.004512 0.000007 -0.005429 -0.000005
# 3 -0.003045 -0.004512 0.017480 -0.000008 -0.001725 -0.000023
# 4 0.000010 0.000007 -0.000008 0.042028 -0.000037 -0.017590
# 5 -0.010496 -0.005429 -0.001725 -0.000037 0.081671 0.000080
# 6 -0.000006 -0.000005 -0.000023 -0.017590 0.000080 0.046881
#
#
# Mechanical properties :
#
#
# Convention : Reuss Voigt Hill
#
# Bulk Modulus (GPa) = 49.93971 69.38868 59.66420
# Shear Modulus (GPa) = 21.38964 28.32337 24.85651
#
# Velocity S-wave (km/s) = 3.30736 3.80586 3.56533
# Velocity P-wave (km/s) = 6.33435 7.40257 6.88920
#
# Compressibility (1/GPa) = 0.02002414
#
# Stress axis : x y z
#
# Youngs Moduli (GPa) = 84.07144 112.50723 57.20693
#
# Poissons Ratio (x) = 0.17588 0.17418
# Poissons Ratio (y) = 0.13143 0.25809
# Poissons Ratio (z) = 0.25598 0.50759
#
# Static dielectric constant tensor:
#      x y z
#    x 3.953360 -0.000050 -0.227700 
#    y -0.000050 3.660040 0.000080 
#    z -0.227700 0.000080 4.720740 
# 
# 
# High freq. dielectric constant tensor:
#      x y z
#    x 1.794870 0.000000 -0.004590 
#    y 0.000000 1.750240 0.000000 
#    z -0.004590 0.000000 1.743900 
# 
# From -- ./inp_files/114180.got.cif
#   From: 2010.06.25/outbox.cif.g09.slc.cpg/sg15_58_cif.got.tgz:114180.got - 2010.06.28 07:06:18.
