data_PCOD8146293
_publ_section_title
;
Structure prediction by ZEFSAII (Michael W. Deem and Ramdas Pophale) SiO2 
 PCOD8146293
Probable space group: C 2/C
;
_chemical_formula_sum "Si O2"
_cell_formula_units_Z 52
_cell_length_a 20.294718
_cell_length_b 13.349297
_cell_length_c 10.902210
_cell_angle_alpha 90.000000
_cell_angle_beta 57.558159
_cell_angle_gamma 90.000000
_cell_volume 2492.675136
_symmetry_space_group_name_H-M "C 2/C"
_symmetry_group_IT_number 15
_symmetry_cell_setting 'monoclinic'
loop_
_space_group_symop_operation_xyz
x,y,z
-x,y,1/2-z
-x,-y,-z
x,-y,1/2+z
1/2+x,1/2+y,z
1/2-x,1/2+y,1/2-z
1/2-x,1/2-y,-z
1/2+x,1/2-y,1/2+z
loop_
_atom_site_type_symbol
_atom_site_label
_atom_site_fract_x
_atom_site_fract_y
_atom_site_fract_z
Si Si1 0.214447 0.846448 0.881780
Si Si2 0.636218 0.799374 0.286730
Si Si3 0.154387 0.194495 0.693281
Si Si4 0.471170 0.811738 0.557656
Si Si5 0.261573 0.033154 0.703447
Si Si6 0.868405 0.402091 0.448893
Si Si7 0.500000 0.954742 0.750000
O O1 0.184740 0.796047 0.785488
O O2 0.295090 0.795910 0.844431
O O3 0.229553 0.963986 0.845631
O O4 0.149625 0.832092 0.053379
O O5 0.545087 0.778023 0.403759
O O6 0.651008 0.811467 0.125876
O O7 0.665847 0.899603 0.325401
O O8 0.068243 0.217531 0.832288
O O9 0.190701 0.101845 0.729923
O O10 0.406793 0.859996 0.533685
O O11 0.502366 0.890376 0.625039
O O12 0.290428 0.961859 0.563994
O O13 0.924154 0.476308 0.318420
#
# Coordination Sequence:
#
# PCOD8146293 Si02
#       7
#     8   8   8   8   8   8   4
#     4  10  22  41  60  88 125 165 204 249 306 363
#     4  11  23  38  62  92 125 160 203 252 310 364
#     4  10  23  39  61  88 124 163 207 252 298 369
#     4  12  22  39  60  91 124 161 202 256 305 360
#     4  11  22  41  60  93 123 162 207 250 307 360
#     4  12  22  35  60  95 127 153 199 257 313 365
#     4  12  22  34  60  94 124 156 200 254 320 356
#
# _framework density 20.861121000000001
#
# number of rings (size 3 to 8) (size 9 to 14) (size 15 to 20)
#    0.000    0.923    4.615    3.231    4.308    0.615 
#    2.769    0.769    0.000    0.000    0.000    0.000 
#    0.000    0.000    0.000    0.000    0.000    0.000 
#
# Total GULP energy -322490.348868 kJ/mol
# GULP energy per Si atom -12403.474956 kJ/mol
# Density = 2.081364 g / cm^3
# Si number density = 20.861121 Si / 1000 Ang^3
#
#
#
# Elastic Constant Matrix: (Units=GPa)
#
#
# Indices 1 2 3 4 5 6 
#
# 1 59.2420 27.0568 22.2636 0.0000 10.0934 0.0000
# 2 27.0568 84.2510 29.6190 0.0000 -6.8303 0.0000
# 3 22.2636 29.6190 91.8878 0.0000 -3.7124 0.0000
# 4 0.0000 0.0000 0.0000 34.0507 0.0000 0.6952
# 5 10.0934 -6.8303 -3.7124 0.0000 37.7644 0.0000
# 6 0.0000 0.0000 0.0000 0.6952 0.0000 23.3564
#
#
#
# Elastic Compliance Matrix: (Units=1/GPa)
#
#
# Indices 1 2 3 4 5 6 
#
# 1 0.022542 -0.006570 -0.003650 0.000000 -0.007572 0.000000
# 2 -0.006570 0.015454 -0.003218 0.000000 0.004235 0.000000
# 3 -0.003650 -0.003218 0.012872 0.000000 0.001659 0.000000
# 4 0.000000 0.000000 0.000000 0.029386 0.000000 -0.000875
# 5 -0.007572 0.004235 0.001659 0.000000 0.029433 0.000000
# 6 0.000000 0.000000 0.000000 -0.000875 0.000000 0.042841
#
#
# Mechanical properties :
#
#
# Convention : Reuss Voigt Hill
#
# Bulk Modulus (GPa) = 41.68222 43.69550 42.68886
# Shear Modulus (GPa) = 26.68070 29.46373 28.07222
#
# Velocity S-wave (km/s) = 3.58015 3.76224 3.67232
# Velocity P-wave (km/s) = 6.09214 6.31379 6.20395
#
# Compressibility (1/GPa) = 0.02399105
#
# Stress axis : x y z
#
# Youngs Moduli (GPa) = 44.36091 64.70809 77.69014
#
# Poissons Ratio (x) = 0.42514 0.28357
# Poissons Ratio (y) = 0.29145 0.25004
# Poissons Ratio (z) = 0.16192 0.20826
#
# Static dielectric constant tensor:
#      x y z
#    x 3.635160 0.000000 0.122160 
#    y 0.000000 3.609770 0.000000 
#    z 0.122160 0.000000 3.907750 
# 
# 
# High freq. dielectric constant tensor:
#      x y z
#    x 1.804150 0.000000 0.011300 
#    y 0.000000 1.793620 0.000000 
#    z 0.011300 0.000000 1.827120 
# 
# From -- ./inp_files/105478.got.cif
#   From: 2010.06.25/outbox.cif.g09.slc.cpg/sg15_53_cif.got.tgz:105478.got - 2010.06.28 07:06:18.
