data_PCOD8146613
_publ_section_title
;
Structure prediction by ZEFSAII (Michael W. Deem and Ramdas Pophale) SiO2 
 PCOD8146613
Probable space group: C 2/C
;
_chemical_formula_sum "Si O2"
_cell_formula_units_Z 60
_cell_length_a 20.772050
_cell_length_b 23.438527
_cell_length_c 8.905813
_cell_angle_alpha 90.000000
_cell_angle_beta 39.584525
_cell_angle_gamma 90.000000
_cell_volume 2762.929617
_symmetry_space_group_name_H-M "C 2/C"
_symmetry_group_IT_number 15
_symmetry_cell_setting 'monoclinic'
loop_
_space_group_symop_operation_xyz
x,y,z
-x,y,1/2-z
-x,-y,-z
x,-y,1/2+z
1/2+x,1/2+y,z
1/2-x,1/2+y,1/2-z
1/2-x,1/2-y,-z
1/2+x,1/2-y,1/2+z
loop_
_atom_site_type_symbol
_atom_site_label
_atom_site_fract_x
_atom_site_fract_y
_atom_site_fract_z
Si Si1 0.286309 0.646340 0.577931
Si Si2 0.724078 0.747139 0.715872
Si Si3 0.086941 0.351006 0.289575
Si Si4 0.171608 0.071388 0.553954
Si Si5 0.386008 0.726995 0.165387
Si Si6 0.130266 0.364701 0.883620
Si Si7 0.500000 0.346203 0.250000
Si Si8 0.885541 0.037068 0.504174
O O1 0.316014 0.683471 0.671945
O O2 0.166945 0.630310 0.774926
O O3 0.312790 0.684951 0.387399
O O4 0.352107 0.589850 0.462171
O O5 0.750000 0.750000 0.500000
O O6 0.825865 0.753301 0.627691
O O7 0.645495 0.797311 0.882402
O O8 0.083266 0.281314 0.289122
O O9 0.972643 0.372725 0.528789
O O10 0.118243 0.383243 0.078809
O O11 0.281622 0.101365 0.362444
O O12 0.096889 0.115998 0.611883
O O13 0.132572 0.050817 0.787718
O O14 0.179994 0.017570 0.426826
O O15 0.482646 0.692426 0.929827
O O16 0.000000 0.023556 0.250000
#
# Coordination Sequence:
#
# PCOD8146613 Si02
#       8
#     8   8   8   8   8   8   4   8
#     4  11  22  43  65  96 136 177 228 274 343 408
#     4  11  21  36  60  94 136 170 216 279 330 403
#     4  10  22  41  69  98 134 194 217 274 341 411
#     4  12  27  47  69 103 133 180 226 296 345 402
#     4  11  22  40  64  99 136 183 221 272 345 412
#     4  11  22  41  67  98 139 174 238 274 337 405
#     4  12  24  40  68  98 142 172 230 278 348 406
#     4  12  28  46  74 100 131 175 229 288 353 415
#
# _framework density 21.716078
#
# number of rings (size 3 to 8) (size 9 to 14) (size 15 to 20)
#    0.000    0.800    4.667    2.800    5.600    1.067 
#    0.000    0.667    0.000    0.000    0.000    0.000 
#    0.000    0.000    0.000    0.000    0.000    0.000 
#
# Total GULP energy -371820.465649 kJ/mol
# GULP energy per Si atom -12394.015522 kJ/mol
# Density = 2.166665 g / cm^3
# Si number density = 21.716078 Si / 1000 Ang^3
#
#
#
# Elastic Constant Matrix: (Units=GPa)
#
#
# Indices 1 2 3 4 5 6 
#
# 1 73.1257 13.4810 40.9390 0.0000 2.2531 0.0000
# 2 13.4810 80.0694 28.7983 0.0000 -0.6474 0.0000
# 3 40.9390 28.7983 116.5962 0.0000 0.2028 0.0000
# 4 0.0000 0.0000 0.0000 31.7454 0.0000 0.8487
# 5 2.2531 -0.6474 0.2028 0.0000 40.3161 0.0000
# 6 0.0000 0.0000 0.0000 0.8487 0.0000 15.3261
#
#
#
# Elastic Compliance Matrix: (Units=1/GPa)
#
#
# Indices 1 2 3 4 5 6 
#
# 1 0.017102 -0.000799 -0.005806 0.000000 -0.000939 0.000000
# 2 -0.000799 0.013746 -0.003115 0.000000 0.000281 0.000000
# 3 -0.005806 -0.003115 0.011384 0.000000 0.000217 0.000000
# 4 0.000000 0.000000 0.000000 0.031547 0.000000 -0.001747
# 5 -0.000939 0.000281 0.000217 0.000000 0.024860 0.000000
# 6 0.000000 0.000000 0.000000 -0.001747 0.000000 0.065345
#
#
# Mechanical properties :
#
#
# Convention : Reuss Voigt Hill
#
# Bulk Modulus (GPa) = 43.87395 48.46975 46.17185
# Shear Modulus (GPa) = 26.17510 29.91574 28.04542
#
# Velocity S-wave (km/s) = 3.47556 3.71561 3.59759
# Velocity P-wave (km/s) = 6.02937 6.38560 6.21004
#
# Compressibility (1/GPa) = 0.02279257
#
# Stress axis : x y z
#
# Youngs Moduli (GPa) = 58.47404 72.74639 87.84126
#
# Poissons Ratio (x) = 0.05811 0.50998
# Poissons Ratio (y) = 0.04671 0.27365
# Poissons Ratio (z) = 0.33949 0.22662
#
# Static dielectric constant tensor:
#      x y z
#    x 3.972470 0.000000 -0.040020 
#    y 0.000000 3.951450 0.000000 
#    z -0.040020 0.000000 4.058960 
# 
# 
# High freq. dielectric constant tensor:
#      x y z
#    x 1.854690 0.000000 0.000130 
#    y 0.000000 1.838590 0.000000 
#    z 0.000130 0.000000 1.852320 
# 
# From -- ./inp_files/58727.got.cif
#   From: 2010.06.25/outbox.cif.g09.slc.cpg/sg15_30_cif.got.tgz:58727.got - 2010.06.28 07:06:18.
