data_PCOD8146771
_publ_section_title
;
Structure prediction by ZEFSAII (Michael W. Deem and Ramdas Pophale) SiO2 
 PCOD8146771
Probable space group: C 2/C
;
_chemical_formula_sum "Si O2"
_cell_formula_units_Z 60
_cell_length_a 22.913707
_cell_length_b 25.565073
_cell_length_c 8.694437
_cell_angle_alpha 90.000000
_cell_angle_beta 32.012844
_cell_angle_gamma 90.000000
_cell_volume 2699.910254
_symmetry_space_group_name_H-M "C 2/C"
_symmetry_group_IT_number 15
_symmetry_cell_setting 'monoclinic'
loop_
_space_group_symop_operation_xyz
x,y,z
-x,y,1/2-z
-x,-y,-z
x,-y,1/2+z
1/2+x,1/2+y,z
1/2-x,1/2+y,1/2-z
1/2-x,1/2-y,-z
1/2+x,1/2-y,1/2+z
loop_
_atom_site_type_symbol
_atom_site_label
_atom_site_fract_x
_atom_site_fract_y
_atom_site_fract_z
Si Si1 0.879587 0.707726 0.536352
Si Si2 0.771527 0.049259 0.566752
Si Si3 0.319096 0.134663 0.926719
Si Si4 0.000000 0.656629 0.750000
Si Si5 0.999233 0.915459 0.083184
Si Si6 0.194479 0.327447 0.617242
Si Si7 0.222111 0.940976 0.087356
Si Si8 0.369312 0.679071 0.958471
O O1 0.830286 0.689673 0.809700
O O2 0.803837 0.688376 0.564539
O O3 0.894315 0.770358 0.505033
O O4 0.000000 0.681805 0.250000
O O5 0.681684 0.088524 0.696035
O O6 0.771506 0.049227 0.747681
O O7 0.733395 0.992107 0.597911
O O8 0.889137 0.070562 0.249874
O O9 0.422311 0.123466 0.808608
O O10 0.206160 0.137609 0.277661
O O11 0.082696 0.690823 0.456567
O O12 0.903333 0.935450 0.187424
O O13 0.979602 0.852307 0.156423
O O14 0.000000 0.943390 0.250000
O O15 0.204895 0.390409 0.615405
O O16 0.300730 0.301234 0.461386
#
# Coordination Sequence:
#
# PCOD8146771 Si02
#       8
#     8   8   8   4   8   8   8   8
#     4  12  22  40  66  95 125 168 218 270 325 374
#     4  12  24  41  66  95 131 172 215 265 325 385
#     4  11  23  42  67  90 134 166 214 274 315 388
#     4  10  22  42  64  90 118 174 204 258 334 366
#     4  11  21  41  63  96 132 169 207 264 317 393
#     4  10  22  43  65  90 130 167 214 271 317 387
#     4  11  25  41  67  95 130 174 217 260 329 389
#     4  10  23  40  67  92 130 172 212 260 329 392
#
# _framework density 22.222961000000002
#
# number of rings (size 3 to 8) (size 9 to 14) (size 15 to 20)
#    0.000    1.067    4.000    2.800    3.733    0.000 
#    0.000    0.667    2.933    0.000    0.000    0.000 
#    0.000    0.000    0.000    0.000    0.000    0.000 
#
# Total GULP energy -371875.998586 kJ/mol
# GULP energy per Si atom -12395.866620 kJ/mol
# Density = 2.217238 g / cm^3
# Si number density = 22.222961 Si / 1000 Ang^3
#
#
#
# Elastic Constant Matrix: (Units=GPa)
#
#
# Indices 1 2 3 4 5 6 
#
# 1 142.2226 24.2971 7.1211 0.0000 16.6064 0.0000
# 2 24.2971 98.8423 -2.1741 0.0000 -0.2773 0.0000
# 3 7.1211 -2.1741 61.1147 0.0000 4.3435 0.0000
# 4 0.0000 0.0000 0.0000 10.1467 0.0000 11.0406
# 5 16.6064 -0.2773 4.3435 0.0000 34.1617 0.0000
# 6 0.0000 0.0000 0.0000 11.0406 0.0000 28.6747
#
#
#
# Elastic Compliance Matrix: (Units=1/GPa)
#
#
# Indices 1 2 3 4 5 6 
#
# 1 0.007837 -0.001953 -0.000717 0.000000 -0.003734 0.000000
# 2 -0.001953 0.010612 0.000536 0.000000 0.000967 0.000000
# 3 -0.000717 0.000536 0.016590 0.000000 -0.001756 0.000000
# 4 0.000000 0.000000 0.000000 0.169616 0.000000 -0.065307
# 5 -0.003734 0.000967 -0.001756 0.000000 0.031319 0.000000
# 6 0.000000 0.000000 0.000000 -0.065307 0.000000 0.060019
#
#
# Mechanical properties :
#
#
# Convention : Reuss Voigt Hill
#
# Bulk Modulus (GPa) = 32.49773 40.07419 36.28596
# Shear Modulus (GPa) = 16.10217 32.79232 24.44724
#
# Velocity S-wave (km/s) = 2.69471 3.84553 3.32036
# Velocity P-wave (km/s) = 4.93327 6.14731 5.57344
#
# Compressibility (1/GPa) = 0.03077138
#
# Stress axis : x y z
#
# Youngs Moduli (GPa) = 127.60394 94.23619 60.27672
#
# Poissons Ratio (x) = 0.18401 0.04323
# Poissons Ratio (y) = 0.24917 -0.03233
# Poissons Ratio (z) = 0.09152 -0.05054
#
# Static dielectric constant tensor:
#      x y z
#    x 4.509220 0.000000 -0.000160 
#    y 0.000000 3.928350 0.000000 
#    z -0.000160 0.000000 3.813940 
# 
# 
# High freq. dielectric constant tensor:
#      x y z
#    x 1.910750 0.000000 0.001310 
#    y 0.000000 1.856410 0.000000 
#    z 0.001310 0.000000 1.853540 
# 
# From -- ./inp_files/42245.got.cif
#   From: 2010.06.25/outbox.cif.g09.slc.cpg/sg15_22_cif.got.tgz:42245.got - 2010.06.28 07:06:18.
