data_PCOD8146638
_publ_section_title
;
Structure prediction by ZEFSAII (Michael W. Deem and Ramdas Pophale) SiO2 
 PCOD8146638
Probable space group: C 2/C
;
_chemical_formula_sum "Si O2"
_cell_formula_units_Z 60
_cell_length_a 19.823729
_cell_length_b 9.366911
_cell_length_c 23.567893
_cell_angle_alpha 90.000000
_cell_angle_beta 141.303630
_cell_angle_gamma 90.000000
_cell_volume 2736.004181
_symmetry_space_group_name_H-M "C 2/C"
_symmetry_group_IT_number 15
_symmetry_cell_setting 'monoclinic'
loop_
_space_group_symop_operation_xyz
x,y,z
-x,y,1/2-z
-x,-y,-z
x,-y,1/2+z
1/2+x,1/2+y,z
1/2-x,1/2+y,1/2-z
1/2-x,1/2-y,-z
1/2+x,1/2-y,1/2+z
loop_
_atom_site_type_symbol
_atom_site_label
_atom_site_fract_x
_atom_site_fract_y
_atom_site_fract_z
Si Si1 0.787156 0.969038 0.891404
Si Si2 0.770070 0.793151 0.291090
Si Si3 0.903418 0.069890 0.281723
Si Si4 0.838413 0.659704 0.023358
Si Si5 0.230010 0.174866 0.838149
Si Si6 0.504182 0.356223 0.426504
Si Si7 0.802210 0.383593 0.066504
Si Si8 0.500000 0.747378 0.250000
O O1 0.750929 0.067108 0.816207
O O2 0.789108 0.046823 0.953688
O O3 0.699735 0.839693 0.832698
O O4 0.907662 0.896339 0.966506
O O5 0.703242 0.659823 0.271328
O O6 0.728864 0.830253 0.200486
O O7 0.900060 0.766556 0.380539
O O8 0.987158 0.157550 0.299082
O O9 0.869716 0.932966 0.221639
O O10 0.962765 0.009574 0.376043
O O11 0.945273 0.758498 0.091012
O O12 0.853861 0.502261 0.059253
O O13 0.750000 0.750000 0.000000
O O14 0.814272 0.626464 0.941321
O O15 0.894056 0.339880 0.171185
O O16 0.750000 0.250000 0.000000
#
# Coordination Sequence:
#
# PCOD8146638 Si02
#       8
#     8   8   8   8   8   8   8   4
#     4  11  22  45  72  98 140 182 227 292 348 419
#     4  11  23  43  67 103 139 177 234 282 344 417
#     4  11  24  43  68 101 138 179 230 286 340 427
#     4  11  23  45  70 101 133 178 234 289 348 418
#     4  10  22  41  71  93 132 179 223 284 340 407
#     4  10  23  43  73  98 134 189 228 280 361 412
#     4  12  25  45  72 103 145 181 234 298 355 412
#     4  12  26  40  68 106 136 188 230 282 374 406
#
# _framework density 21.929791000000002
#
# number of rings (size 3 to 8) (size 9 to 14) (size 15 to 20)
#    0.000    1.067    4.000    3.600    1.867    3.200 
#    4.800    2.667    0.000    0.000    0.000    0.000 
#    0.000    0.000    0.000    0.000    0.000    0.000 
#
# Total GULP energy -371652.680620 kJ/mol
# GULP energy per Si atom -12388.422687 kJ/mol
# Density = 2.187988 g / cm^3
# Si number density = 21.929791 Si / 1000 Ang^3
#
#
#
# Elastic Constant Matrix: (Units=GPa)
#
#
# Indices 1 2 3 4 5 6 
#
# 1 89.4531 35.2280 20.7180 0.0000 -2.9716 0.0000
# 2 35.2280 126.0356 37.3500 0.0000 -3.0547 0.0000
# 3 20.7180 37.3500 95.7669 0.0000 -10.6475 0.0000
# 4 0.0000 0.0000 0.0000 43.8148 0.0000 -5.2217
# 5 -2.9716 -3.0547 -10.6475 0.0000 39.7850 0.0000
# 6 0.0000 0.0000 0.0000 -5.2217 0.0000 33.0915
#
#
#
# Elastic Compliance Matrix: (Units=1/GPa)
#
#
# Indices 1 2 3 4 5 6 
#
# 1 0.012765 -0.003112 -0.001514 0.000000 0.000309 0.000000
# 2 -0.003112 0.009732 -0.003159 0.000000 -0.000331 0.000000
# 3 -0.001514 -0.003159 0.012329 0.000000 0.002944 0.000000
# 4 0.000000 0.000000 0.000000 0.023261 0.000000 0.003670
# 5 0.000309 -0.000331 0.002944 0.000000 0.025921 0.000000
# 6 0.000000 0.000000 0.000000 0.003670 0.000000 0.030798
#
#
# Mechanical properties :
#
#
# Convention : Reuss Voigt Hill
#
# Bulk Modulus (GPa) = 51.92886 55.31641 53.62263
# Shear Modulus (GPa) = 36.55104 37.86890 37.20997
#
# Velocity S-wave (km/s) = 4.08699 4.16002 4.12366
# Velocity P-wave (km/s) = 6.78250 6.95366 6.86861
#
# Compressibility (1/GPa) = 0.01925712
#
# Stress axis : x y z
#
# Youngs Moduli (GPa) = 78.33657 102.75058 81.11033
#
# Poissons Ratio (x) = 0.31976 0.12276
# Poissons Ratio (y) = 0.24378 0.25624
# Poissons Ratio (z) = 0.11856 0.32461
#
# Static dielectric constant tensor:
#      x y z
#    x 4.039010 0.000000 -0.018400 
#    y 0.000000 4.249750 0.000000 
#    z -0.018400 0.000000 3.936890 
# 
# 
# High freq. dielectric constant tensor:
#      x y z
#    x 1.852610 0.000000 -0.013170 
#    y 0.000000 1.875420 0.000000 
#    z -0.013170 0.000000 1.856340 
# 
# From -- ./inp_files/279715.got.cif
#   From: 2010.06.25/outbox.cif.g09.slc.cpg/sg15_140_cif.got.tgz:279715.got - 2010.06.28 07:06:18.
