data_PCOD8146393
_publ_section_title
;
Structure prediction by ZEFSAII (Michael W. Deem and Ramdas Pophale) SiO2 
 PCOD8146393
Probable space group: C 2/C
;
_chemical_formula_sum "Si O2"
_cell_formula_units_Z 48
_cell_length_a 15.594706
_cell_length_b 28.693374
_cell_length_c 9.010714
_cell_angle_alpha 90.000000
_cell_angle_beta 145.419841
_cell_angle_gamma 90.000000
_cell_volume 2288.383332
_symmetry_space_group_name_H-M "C 2/C"
_symmetry_group_IT_number 15
_symmetry_cell_setting 'monoclinic'
loop_
_space_group_symop_operation_xyz
x,y,z
-x,y,1/2-z
-x,-y,-z
x,-y,1/2+z
1/2+x,1/2+y,z
1/2-x,1/2+y,1/2-z
1/2-x,1/2-y,-z
1/2+x,1/2-y,1/2+z
loop_
_atom_site_type_symbol
_atom_site_label
_atom_site_fract_x
_atom_site_fract_y
_atom_site_fract_z
Si Si1 0.846114 0.884231 0.088307
Si Si2 0.176983 0.452508 0.344948
Si Si3 0.075926 0.775538 0.998297
Si Si4 0.322226 0.041898 0.323661
Si Si5 0.355693 0.377347 0.451467
Si Si6 0.865458 0.783124 0.970879
O O1 0.853596 0.888255 0.274893
O O2 0.000000 0.907448 0.250000
O O3 0.709601 0.913774 0.826328
O O4 0.833565 0.831365 0.010755
O O5 0.246506 0.495237 0.348851
O O6 0.247832 0.452855 0.611544
O O7 0.212025 0.402908 0.318614
O O8 0.000058 0.460371 0.096241
O O9 0.000000 0.748837 0.750000
O O10 0.937054 0.789683 0.909285
O O11 0.156298 0.821729 0.047688
O O12 0.208079 0.744285 0.255875
O O13 0.500000 0.396344 0.750000
O O14 0.000000 0.755834 0.250000
#
# Coordination Sequence:
#
# PCOD8146393 Si02
#       6
#     8   8   8   8   8   8
#     4  11  22  40  63  90 128 166 208 263 316 374
#     4  10  22  41  64  94 128 164 209 259 315 380
#     4  11  24  43  66  94 132 172 218 270 322 385
#     4  10  22  41  65  93 129 164 207 261 315 379
#     4  11  23  40  64  91 126 166 211 261 317 378
#     4  11  23  43  66  95 130 172 218 270 323 383
#
# _framework density 20.975507
#
# number of rings (size 3 to 8) (size 9 to 14) (size 15 to 20)
#    0.000    1.333    3.333    3.000    2.333    4.000 
#    3.000    3.333    0.000    0.000    0.000    0.000 
#    0.000    0.000    0.000    0.000    0.000    0.000 
#
# Total GULP energy -297446.369983 kJ/mol
# GULP energy per Si atom -12393.598749 kJ/mol
# Density = 2.092777 g / cm^3
# Si number density = 20.975507 Si / 1000 Ang^3
#
#
#
# Elastic Constant Matrix: (Units=GPa)
#
#
# Indices 1 2 3 4 5 6 
#
# 1 113.6062 43.0681 38.1048 0.0000 -33.6613 0.0000
# 2 43.0681 86.7502 37.8453 0.0000 -8.6355 0.0000
# 3 38.1048 37.8453 114.3493 0.0000 -37.9503 0.0000
# 4 0.0000 0.0000 0.0000 29.3742 0.0000 0.0970
# 5 -33.6613 -8.6355 -37.9503 0.0000 40.3196 0.0000
# 6 0.0000 0.0000 0.0000 0.0970 0.0000 31.5417
#
#
#
# Elastic Compliance Matrix: (Units=1/GPa)
#
#
# Indices 1 2 3 4 5 6 
#
# 1 0.014325 -0.006501 0.001287 0.000000 0.011779 0.000000
# 2 -0.006501 0.016524 -0.005714 0.000000 -0.007267 0.000000
# 3 0.001287 -0.005714 0.014773 0.000000 0.013755 0.000000
# 4 0.000000 0.000000 0.000000 0.034044 0.000000 -0.000105
# 5 0.011779 -0.007267 0.013755 0.000000 0.046026 0.000000
# 6 0.000000 0.000000 0.000000 -0.000105 0.000000 0.031704
#
#
# Mechanical properties :
#
#
# Convention : Reuss Voigt Hill
#
# Bulk Modulus (GPa) = 42.07751 61.41580 51.74666
# Shear Modulus (GPa) = 26.71309 33.29293 30.00301
#
# Velocity S-wave (km/s) = 3.57254 3.98833 3.78614
# Velocity P-wave (km/s) = 6.09272 7.11002 6.62093
#
# Compressibility (1/GPa) = 0.02376566
#
# Stress axis : x y z
#
# Youngs Moduli (GPa) = 69.80764 60.51689 67.69320
#
# Poissons Ratio (x) = 0.39341 -0.08712
# Poissons Ratio (y) = 0.45381 0.38682
# Poissons Ratio (z) = -0.08985 0.34581
#
# Static dielectric constant tensor:
#      x y z
#    x 3.923210 0.000000 -0.309160 
#    y 0.000000 3.627520 0.000000 
#    z -0.309160 0.000000 4.066140 
# 
# 
# High freq. dielectric constant tensor:
#      x y z
#    x 1.825310 0.000000 -0.025520 
#    y 0.000000 1.807290 0.000000 
#    z -0.025520 0.000000 1.831300 
# 
# From -- ./inp_files/43905.got.cif
#   From: 2010.06.25/outbox.cif.g09.slc.cpg/sg15_22_cif.got.tgz:43905.got - 2010.06.28 07:06:18.
