data_PCOD8146064
_publ_section_title
;
Structure prediction by ZEFSAII (Michael W. Deem and Ramdas Pophale) SiO2 
 PCOD8146064
Probable space group: C 2/C
;
_chemical_formula_sum "Si O2"
_cell_formula_units_Z 44
_cell_length_a 9.036055
_cell_length_b 11.199244
_cell_length_c 19.975815
_cell_angle_alpha 90.000000
_cell_angle_beta 112.810402
_cell_angle_gamma 90.000000
_cell_volume 1863.396964
_symmetry_space_group_name_H-M "C 2/C"
_symmetry_group_IT_number 15
_symmetry_cell_setting 'monoclinic'
loop_
_space_group_symop_operation_xyz
x,y,z
-x,y,1/2-z
-x,-y,-z
x,-y,1/2+z
1/2+x,1/2+y,z
1/2-x,1/2+y,1/2-z
1/2-x,1/2-y,-z
1/2+x,1/2-y,1/2+z
loop_
_atom_site_type_symbol
_atom_site_label
_atom_site_fract_x
_atom_site_fract_y
_atom_site_fract_z
Si Si1 0.829102 0.879526 0.513820
Si Si2 0.500000 0.781541 0.250000
Si Si3 0.501028 0.810871 0.825828
Si Si4 0.207157 0.915800 0.846407
Si Si5 0.315107 0.428682 0.904141
Si Si6 0.813064 0.078869 0.774087
O O1 0.750000 0.750000 0.500000
O O2 0.783171 0.949482 0.573887
O O3 0.021780 0.868443 0.541309
O O4 0.765271 0.956234 0.439985
O O5 0.412586 0.698161 0.179742
O O6 0.364612 0.863135 0.261049
O O7 0.500000 0.861361 0.750000
O O8 0.383545 0.888754 0.850216
O O9 0.679806 0.826516 0.886485
O O10 0.447752 0.673952 0.818352
O O11 0.143392 0.027518 0.791839
O O12 0.327219 0.470890 0.829232
#
# Coordination Sequence:
#
# PCOD8146064 Si02
#       6
#     8   4   8   8   8   8
#     4  11  26  49  72  99 145 195 234 282 353 426
#     4  10  22  40  66 108 142 174 228 296 350 400
#     4  11  24  43  70 109 140 175 232 299 352 403
#     4  11  23  43  71 104 137 187 236 278 350 422
#     4  11  25  50  69  99 149 182 229 296 350 410
#     4  11  23  42  72 103 140 178 232 291 348 410
#
# _framework density 23.61279
#
# number of rings (size 3 to 8) (size 9 to 14) (size 15 to 20)
#    0.000    1.091    1.818    4.364    6.364    0.727 
#    0.000   10.000    0.000    0.000    0.000    0.000 
#    0.000    0.000    0.000    0.000    0.000    0.000 
#
# Total GULP energy -272859.090630 kJ/mol
# GULP energy per Si atom -12402.685938 kJ/mol
# Density = 2.355905 g / cm^3
# Si number density = 23.612790 Si / 1000 Ang^3
#
#
#
# Elastic Constant Matrix: (Units=GPa)
#
#
# Indices 1 2 3 4 5 6 
#
# 1 116.9607 60.3645 42.9666 0.0000 19.4557 0.0000
# 2 60.3645 110.3493 24.1444 0.0000 16.8507 0.0000
# 3 42.9666 24.1444 88.8833 0.0000 -9.7162 0.0000
# 4 0.0000 0.0000 0.0000 30.7969 0.0000 -0.3004
# 5 19.4557 16.8507 -9.7162 0.0000 45.1786 0.0000
# 6 0.0000 0.0000 0.0000 -0.3004 0.0000 45.9804
#
#
#
# Elastic Compliance Matrix: (Units=1/GPa)
#
#
# Indices 1 2 3 4 5 6 
#
# 1 0.014754 -0.005894 -0.006129 0.000000 -0.005474 0.000000
# 2 -0.005894 0.012861 -0.000913 0.000000 -0.002455 0.000000
# 3 -0.006129 -0.000913 0.015143 0.000000 0.006237 0.000000
# 4 0.000000 0.000000 0.000000 0.032473 0.000000 0.000212
# 5 -0.005474 -0.002455 0.006237 0.000000 0.026748 0.000000
# 6 0.000000 0.000000 0.000000 0.000212 0.000000 0.021750
#
#
# Mechanical properties :
#
#
# Convention : Reuss Voigt Hill
#
# Bulk Modulus (GPa) = 59.22057 63.46045 61.34051
# Shear Modulus (GPa) = 32.21017 36.97236 34.59127
#
# Velocity S-wave (km/s) = 3.69738 3.96128 3.83160
# Velocity P-wave (km/s) = 6.58497 6.91781 6.75344
#
# Compressibility (1/GPa) = 0.01688603
#
# Stress axis : x y z
#
# Youngs Moduli (GPa) = 67.77823 77.75502 66.03528
#
# Poissons Ratio (x) = 0.45828 0.40476
# Poissons Ratio (y) = 0.39948 0.06027
# Poissons Ratio (z) = 0.41544 0.07097
#
# Static dielectric constant tensor:
#      x y z
#    x 4.655870 0.000000 -0.055550 
#    y 0.000000 4.095500 0.000000 
#    z -0.055550 0.000000 4.217990 
# 
# 
# High freq. dielectric constant tensor:
#      x y z
#    x 1.960720 0.000000 -0.000490 
#    y 0.000000 1.926120 0.000000 
#    z -0.000490 0.000000 1.920070 
# 
# From -- ./inp_files/230304.got.cif
#   From: 2010.06.25/outbox.cif.g09.slc.cpg/sg15_116_cif.got.tgz:230304.got - 2010.06.28 07:06:18.
