data_PCOD8146785
_publ_section_title
;
Structure prediction by ZEFSAII (Michael W. Deem and Ramdas Pophale) SiO2 
 PCOD8146785
Probable space group: C 2/C
;
_chemical_formula_sum "Si O2"
_cell_formula_units_Z 48
_cell_length_a 11.551850
_cell_length_b 12.847517
_cell_length_c 16.624318
_cell_angle_alpha 90.000000
_cell_angle_beta 111.885950
_cell_angle_gamma 90.000000
_cell_volume 2289.437089
_symmetry_space_group_name_H-M "C 2/C"
_symmetry_group_IT_number 15
_symmetry_cell_setting 'monoclinic'
loop_
_space_group_symop_operation_xyz
x,y,z
-x,y,1/2-z
-x,-y,-z
x,-y,1/2+z
1/2+x,1/2+y,z
1/2-x,1/2+y,1/2-z
1/2-x,1/2-y,-z
1/2+x,1/2-y,1/2+z
loop_
_atom_site_type_symbol
_atom_site_label
_atom_site_fract_x
_atom_site_fract_y
_atom_site_fract_z
Si Si1 0.131713 0.691436 0.929459
Si Si2 0.500000 0.703888 0.250000
Si Si3 0.886952 0.047646 0.335837
Si Si4 0.142615 0.258031 0.877436
Si Si5 0.924861 0.208407 0.473024
Si Si6 0.877470 0.507482 0.168257
Si Si7 0.500000 0.609275 0.750000
O O1 0.092053 0.733489 0.831932
O O2 0.152382 0.568579 0.915968
O O3 0.020778 0.707250 0.963605
O O4 0.250000 0.750000 0.000000
O O5 0.397565 0.640001 0.274029
O O6 0.938361 0.094077 0.434586
O O7 0.744288 0.009460 0.305722
O O8 0.974283 0.956670 0.324177
O O9 0.288725 0.245317 0.923896
O O10 0.098410 0.377160 0.859079
O O11 0.115905 0.186996 0.793069
O O12 0.061165 0.203821 0.927450
O O13 0.000000 0.470687 0.250000
#
# Coordination Sequence:
#
# PCOD8146785 Si02
#       7
#     8   4   8   8   8   8   4
#     4  11  24  41  68  96 128 174 216 269 331 392
#     4   9  20  47  62  92 130 167 216 271 318 384
#     4   9  22  40  63  92 121 173 215 264 319 387
#     4  10  22  42  64  92 129 169 210 269 329 385
#     4   9  22  45  60  89 132 166 211 272 315 382
#     4  11  23  40  63  96 131 168 210 269 333 387
#     4  11  22  37  68  96 118 167 222 257 324 396
#
# _framework density 20.965852000000002
#
# number of rings (size 3 to 8) (size 9 to 14) (size 15 to 20)
#    0.000    2.000    1.667    0.000    4.667    4.000 
#   24.000    0.000    0.000    0.000    0.000    0.000 
#    0.000    0.000    0.000    0.000    0.000    0.000 
#
# Total GULP energy -297331.205779 kJ/mol
# GULP energy per Si atom -12388.800241 kJ/mol
# Density = 2.091813 g / cm^3
# Si number density = 20.965852 Si / 1000 Ang^3
#
#
#
# Elastic Constant Matrix: (Units=GPa)
#
#
# Indices 1 2 3 4 5 6 
#
# 1 113.6323 49.2523 32.8046 0.0000 -10.9944 0.0000
# 2 49.2523 131.9599 53.1326 0.0000 -7.5602 0.0000
# 3 32.8046 53.1326 88.5509 0.0000 2.4234 0.0000
# 4 0.0000 0.0000 0.0000 21.9673 0.0000 6.0380
# 5 -10.9944 -7.5602 2.4234 0.0000 25.1658 0.0000
# 6 0.0000 0.0000 0.0000 6.0380 0.0000 19.6849
#
#
#
# Elastic Compliance Matrix: (Units=1/GPa)
#
#
# Indices 1 2 3 4 5 6 
#
# 1 0.011206 -0.002927 -0.002511 0.000000 0.004258 0.000000
# 2 -0.002927 0.011091 -0.005641 0.000000 0.002596 0.000000
# 3 -0.002511 -0.005641 0.015726 0.000000 -0.004306 0.000000
# 4 0.000000 0.000000 0.000000 0.049713 0.000000 -0.015249
# 5 0.004258 0.002596 -0.004306 0.000000 0.042791 0.000000
# 6 0.000000 0.000000 0.000000 -0.015249 0.000000 0.055478
#
#
# Mechanical properties :
#
#
# Convention : Reuss Voigt Hill
#
# Bulk Modulus (GPa) = 63.04073 67.16912 65.10493
# Shear Modulus (GPa) = 23.42430 26.62719 25.02574
#
# Velocity S-wave (km/s) = 3.34617 3.56761 3.45866
# Velocity P-wave (km/s) = 6.71288 7.00553 6.86076
#
# Compressibility (1/GPa) = 0.01586276
#
# Stress axis : x y z
#
# Youngs Moduli (GPa) = 89.23641 90.16447 63.58844
#
# Poissons Ratio (x) = 0.26395 0.15970
# Poissons Ratio (y) = 0.26123 0.35872
# Poissons Ratio (z) = 0.22412 0.50865
#
# Static dielectric constant tensor:
#      x y z
#    x 3.784180 0.000000 -0.210200 
#    y 0.000000 3.864830 0.000000 
#    z -0.210200 0.000000 3.996040 
# 
# 
# High freq. dielectric constant tensor:
#      x y z
#    x 1.821520 0.000000 -0.006510 
#    y 0.000000 1.825610 0.000000 
#    z -0.006510 0.000000 1.816250 
# 
# From -- ./inp_files/196623.got.cif
#   From: 2010.06.25/outbox.cif.g09.slc.cpg/sg15_99_cif.got.tgz:196623.got - 2010.06.28 07:06:18.
