data_PCOD8146842
_publ_section_title
;
Structure prediction by ZEFSAII (Michael W. Deem and Ramdas Pophale) SiO2 
 PCOD8146842
Probable space group: C 2/C
;
_chemical_formula_sum "Si O2"
_cell_formula_units_Z 40
_cell_length_a 25.269009
_cell_length_b 13.508569
_cell_length_c 11.579848
_cell_angle_alpha 90.000000
_cell_angle_beta 151.458523
_cell_angle_gamma 90.000000
_cell_volume 1888.608114
_symmetry_space_group_name_H-M "C 2/C"
_symmetry_group_IT_number 15
_symmetry_cell_setting 'monoclinic'
loop_
_space_group_symop_operation_xyz
x,y,z
-x,y,1/2-z
-x,-y,-z
x,-y,1/2+z
1/2+x,1/2+y,z
1/2-x,1/2+y,1/2-z
1/2-x,1/2-y,-z
1/2+x,1/2-y,1/2+z
loop_
_atom_site_type_symbol
_atom_site_label
_atom_site_fract_x
_atom_site_fract_y
_atom_site_fract_z
Si Si1 0.267773 0.588956 0.157130
Si Si2 0.040763 0.390821 0.101806
Si Si3 0.835088 0.671648 0.313414
Si Si4 0.185734 0.127027 0.822103
Si Si5 0.983703 0.796335 0.083282
O O1 0.225371 0.610245 0.204293
O O2 0.314989 0.477652 0.243502
O O3 0.367707 0.660704 0.316322
O O4 0.170005 0.609405 0.879722
O O5 0.019000 0.320678 0.949239
O O6 0.000000 0.500000 0.000000
O O7 0.967698 0.347519 0.068679
O O8 0.808629 0.789357 0.268286
O O9 0.794203 0.632660 0.109912
O O10 0.078895 0.145044 0.697522
O O11 0.000000 0.813352 0.250000
#
# Coordination Sequence:
#
# PCOD8146842 Si02
#       5
#     8   8   8   8   8
#     4  12  23  42  71  99 126 175 223 267 329 390
#     4  11  24  42  63  97 136 167 220 276 318 390
#     4  10  22  42  65  94 133 174 209 267 334 384
#     4  10  22  44  65  95 136 167 216 272 324 390
#     4  11  24  44  67  97 133 176 217 268 332 391
#
# _framework density 21.179618000000001
#
# number of rings (size 3 to 8) (size 9 to 14) (size 15 to 20)
#    0.000    1.200    4.000    1.800    0.000    3.200 
#    3.600    2.000    0.000    0.000    0.000    0.000 
#    0.000    0.000    0.000    0.000    0.000    0.000 
#
# Total GULP energy -247992.204529 kJ/mol
# GULP energy per Si atom -12399.610226 kJ/mol
# Density = 2.113141 g / cm^3
# Si number density = 21.179618 Si / 1000 Ang^3
#
#
#
# Elastic Constant Matrix: (Units=GPa)
#
#
# Indices 1 2 3 4 5 6 
#
# 1 107.9426 69.0503 32.9672 0.0000 5.2671 0.0000
# 2 69.0503 155.4995 40.8121 0.0000 5.0414 0.0000
# 3 32.9672 40.8121 109.0948 0.0000 21.4320 0.0000
# 4 0.0000 0.0000 0.0000 29.8417 0.0000 1.7234
# 5 5.2671 5.0414 21.4320 0.0000 29.3786 0.0000
# 6 0.0000 0.0000 0.0000 1.7234 0.0000 35.7536
#
#
#
# Elastic Compliance Matrix: (Units=1/GPa)
#
#
# Indices 1 2 3 4 5 6 
#
# 1 0.013326 -0.005390 -0.002011 0.000000 0.000003 0.000000
# 2 -0.005390 0.009329 -0.002027 0.000000 0.000844 0.000000
# 3 -0.002011 -0.002027 0.012132 0.000000 -0.008142 0.000000
# 4 0.000000 0.000000 0.000000 0.033604 0.000000 -0.001620
# 5 0.000003 0.000844 -0.008142 0.000000 0.039833 0.000000
# 6 0.000000 0.000000 0.000000 -0.001620 0.000000 0.028047
#
#
# Mechanical properties :
#
#
# Convention : Reuss Voigt Hill
#
# Bulk Modulus (GPa) = 62.77153 73.13289 67.95221
# Shear Modulus (GPa) = 31.16489 34.30861 32.73675
#
# Velocity S-wave (km/s) = 3.84012 4.02915 3.93577
# Velocity P-wave (km/s) = 7.02596 7.50001 7.26685
#
# Compressibility (1/GPa) = 0.01593079
#
# Stress axis : x y z
#
# Youngs Moduli (GPa) = 75.04069 107.19406 82.42693
#
# Poissons Ratio (x) = 0.57775 0.16579
# Poissons Ratio (y) = 0.40445 0.16708
# Poissons Ratio (z) = 0.15093 0.21729
#
# Static dielectric constant tensor:
#      x y z
#    x 3.684900 0.000000 0.346980 
#    y 0.000000 3.957970 0.000000 
#    z 0.346980 0.000000 4.038480 
# 
# 
# High freq. dielectric constant tensor:
#      x y z
#    x 1.822260 0.000000 0.026740 
#    y 0.000000 1.838060 0.000000 
#    z 0.026740 0.000000 1.838360 
# 
# From -- ./inp_files/85481.got.cif
#   From: 2010.06.25/outbox.cif.g09.slc.cpg/sg15_43_cif.got.tgz:85481.got - 2010.06.28 07:06:18.
