data_PCOD8146824
_publ_section_title
;
Structure prediction by ZEFSAII (Michael W. Deem and Ramdas Pophale) SiO2 
 PCOD8146824
Probable space group: C 2/C
;
_chemical_formula_sum "Si O2"
_cell_formula_units_Z 40
_cell_length_a 12.870380
_cell_length_b 17.797956
_cell_length_c 8.612611
_cell_angle_alpha 90.000000
_cell_angle_beta 75.389174
_cell_angle_gamma 90.000000
_cell_volume 1909.060993
_symmetry_space_group_name_H-M "C 2/C"
_symmetry_group_IT_number 15
_symmetry_cell_setting 'monoclinic'
loop_
_space_group_symop_operation_xyz
x,y,z
-x,y,1/2-z
-x,-y,-z
x,-y,1/2+z
1/2+x,1/2+y,z
1/2-x,1/2+y,1/2-z
1/2-x,1/2-y,-z
1/2+x,1/2-y,1/2+z
loop_
_atom_site_type_symbol
_atom_site_label
_atom_site_fract_x
_atom_site_fract_y
_atom_site_fract_z
Si Si1 0.246079 0.966294 0.926281
Si Si2 0.611986 0.842740 0.786522
Si Si3 0.105015 0.604337 0.625877
Si Si4 0.619059 0.429653 0.269764
Si Si5 0.271843 0.708465 0.653705
O O1 0.327650 0.913758 0.804009
O O2 0.315498 0.037784 0.951629
O O3 0.147393 0.994652 0.855396
O O4 0.200427 0.923616 0.093249
O O5 0.500000 0.823662 0.750000
O O6 0.694399 0.772268 0.736059
O O7 0.577649 0.853482 0.977778
O O8 0.161496 0.662430 0.726926
O O9 0.000000 0.572131 0.750000
O O10 0.500000 0.436508 0.250000
O O11 0.634080 0.355763 0.373826
O O12 0.250000 0.750000 0.500000
#
# Coordination Sequence:
#
# PCOD8146824 Si02
#       5
#     8   8   8   8   8
#     4  11  23  40  65  94 132 164 213 268 316 381
#     4  11  23  39  64  94 126 165 213 261 318 377
#     4  10  22  42  65  91 127 171 205 258 324 376
#     4  11  23  43  67  93 128 173 216 264 322 380
#     4   9  22  44  62  87 132 163 209 267 312 380
#
# _framework density 20.95271
#
# number of rings (size 3 to 8) (size 9 to 14) (size 15 to 20)
#    0.000    1.600    2.000    1.800    5.600    2.400 
#    7.200    0.000    0.000    0.000    0.000    0.000 
#    0.000    0.000    0.000    0.000    0.000    0.000 
#
# Total GULP energy -247804.352393 kJ/mol
# GULP energy per Si atom -12390.217620 kJ/mol
# Density = 2.090502 g / cm^3
# Si number density = 20.952710 Si / 1000 Ang^3
#
#
#
# Elastic Constant Matrix: (Units=GPa)
#
#
# Indices 1 2 3 4 5 6 
#
# 1 148.8222 52.0113 41.7527 0.0000 20.6307 0.0000
# 2 52.0113 96.5130 30.5929 0.0000 14.5778 0.0000
# 3 41.7527 30.5929 72.7690 0.0000 3.3197 0.0000
# 4 0.0000 0.0000 0.0000 28.4390 0.0000 9.5667
# 5 20.6307 14.5778 3.3197 0.0000 36.3174 0.0000
# 6 0.0000 0.0000 0.0000 9.5667 0.0000 22.1598
#
#
#
# Elastic Compliance Matrix: (Units=1/GPa)
#
#
# Indices 1 2 3 4 5 6 
#
# 1 0.009480 -0.003322 -0.003874 0.000000 -0.003698 0.000000
# 2 -0.003322 0.013847 -0.003763 0.000000 -0.003327 0.000000
# 3 -0.003874 -0.003763 0.017451 0.000000 0.002116 0.000000
# 4 0.000000 0.000000 0.000000 0.041137 0.000000 -0.017759
# 5 -0.003698 -0.003327 0.002116 0.000000 0.030777 0.000000
# 6 0.000000 0.000000 0.000000 -0.017759 0.000000 0.052794
#
#
# Mechanical properties :
#
#
# Convention : Reuss Voigt Hill
#
# Bulk Modulus (GPa) = 53.02721 62.97978 58.00350
# Shear Modulus (GPa) = 25.81425 30.29973 28.05699
#
# Velocity S-wave (km/s) = 3.51383 3.80689 3.66329
# Velocity P-wave (km/s) = 6.46727 7.03182 6.75545
#
# Compressibility (1/GPa) = 0.01885824
#
# Stress axis : x y z
#
# Youngs Moduli (GPa) = 105.48581 72.21676 57.30493
#
# Poissons Ratio (x) = 0.23993 0.22199
# Poissons Ratio (y) = 0.35046 0.21567
# Poissons Ratio (z) = 0.40864 0.27179
#
# Static dielectric constant tensor:
#      x y z
#    x 3.987440 0.000000 0.375270 
#    y 0.000000 4.069870 0.000000 
#    z 0.375270 0.000000 3.584110 
# 
# 
# High freq. dielectric constant tensor:
#      x y z
#    x 1.833170 0.000000 0.027980 
#    y 0.000000 1.829200 0.000000 
#    z 0.027980 0.000000 1.798280 
# 
# From -- ./inp_files/29082.got.cif
#   From: 2010.06.25/outbox.cif.g09.slc.cpg/sg15_15_cif.got.tgz:29082.got - 2010.06.28 07:06:18.
