data_PCOD8146674
_publ_section_title
;
Structure prediction by ZEFSAII (Michael W. Deem and Ramdas Pophale) SiO2 
 PCOD8146674
Probable space group: C 2/C
;
_chemical_formula_sum "Si O2"
_cell_formula_units_Z 52
_cell_length_a 10.048845
_cell_length_b 8.557819
_cell_length_c 29.110545
_cell_angle_alpha 90.000000
_cell_angle_beta 101.652412
_cell_angle_gamma 90.000000
_cell_volume 2451.803415
_symmetry_space_group_name_H-M "C 2/C"
_symmetry_group_IT_number 15
_symmetry_cell_setting 'monoclinic'
loop_
_space_group_symop_operation_xyz
x,y,z
-x,y,1/2-z
-x,-y,-z
x,-y,1/2+z
1/2+x,1/2+y,z
1/2-x,1/2+y,1/2-z
1/2-x,1/2-y,-z
1/2+x,1/2-y,1/2+z
loop_
_atom_site_type_symbol
_atom_site_label
_atom_site_fract_x
_atom_site_fract_y
_atom_site_fract_z
Si Si1 0.370591 0.560883 0.515692
Si Si2 0.645234 0.537410 0.387631
Si Si3 0.894049 0.805800 0.824510
Si Si4 0.581092 0.039960 0.139820
Si Si5 0.919082 0.580067 0.036468
Si Si6 0.889743 0.761029 0.172422
Si Si7 0.000000 0.006015 0.250000
O O1 0.500000 0.500000 0.500000
O O2 0.334079 0.452261 0.556792
O O3 0.240295 0.536490 0.474191
O O4 0.416272 0.734582 0.531662
O O5 0.504716 0.621158 0.365911
O O6 0.637441 0.352579 0.376691
O O7 0.774352 0.606512 0.368531
O O8 0.739151 0.851369 0.826975
O O9 0.904552 0.619333 0.830416
O O10 0.912198 0.875489 0.774883
O O11 0.481259 0.021569 0.089148
O O12 0.524643 0.159213 0.174260
O O13 0.000000 0.500000 0.000000
O O14 0.905647 0.892793 0.213049
#
# Coordination Sequence:
#
# PCOD8146674 Si02
#       7
#     8   8   8   8   8   8   4
#     4  11  25  38  64  91 132 179 220 265 314 366
#     4  10  22  42  59  96 133 165 216 263 312 372
#     4  10  25  41  70  95 126 159 211 263 319 391
#     4  11  23  41  65  95 131 172 214 262 322 370
#     4  11  24  42  60  92 136 174 221 265 306 375
#     4  10  23  43  67  90 126 169 200 262 322 384
#     4  10  24  46  66  96 128 154 206 262 328 394
#
# _framework density 21.208877000000001
#
# number of rings (size 3 to 8) (size 9 to 14) (size 15 to 20)
#    0.000    1.538    3.077    0.000    4.308    9.846 
#    0.000    0.000    0.000    0.000    0.000    0.000 
#    0.000    0.000    0.000    0.000    0.000    0.000 
#
# Total GULP energy -322214.004202 kJ/mol
# GULP energy per Si atom -12392.846315 kJ/mol
# Density = 2.116060 g / cm^3
# Si number density = 21.208877 Si / 1000 Ang^3
#
#
#
# Elastic Constant Matrix: (Units=GPa)
#
#
# Indices 1 2 3 4 5 6 
#
# 1 181.1971 61.9363 43.6822 0.0000 -11.8061 0.0000
# 2 61.9363 60.2222 35.8260 0.0000 -13.0826 0.0000
# 3 43.6822 35.8260 94.0364 0.0000 -3.3661 0.0000
# 4 0.0000 0.0000 0.0000 30.4461 0.0000 -0.0459
# 5 -11.8061 -13.0826 -3.3661 0.0000 24.9147 0.0000
# 6 0.0000 0.0000 0.0000 -0.0459 0.0000 40.1092
#
#
#
# Elastic Compliance Matrix: (Units=1/GPa)
#
#
# Indices 1 2 3 4 5 6 
#
# 1 0.008563 -0.008450 -0.000776 0.000000 -0.000484 0.000000
# 2 -0.008450 0.032755 -0.008121 0.000000 0.012098 0.000000
# 3 -0.000776 -0.008121 0.013990 0.000000 -0.002741 0.000000
# 4 0.000000 0.000000 0.000000 0.032845 0.000000 0.000038
# 5 -0.000484 0.012098 -0.002741 0.000000 0.045890 0.000000
# 6 0.000000 0.000000 0.000000 0.000038 0.000000 0.024932
#
#
# Mechanical properties :
#
#
# Convention : Reuss Voigt Hill
#
# Bulk Modulus (GPa) = 48.50831 68.70497 58.60664
# Shear Modulus (GPa) = 24.93278 32.02808 28.48043
#
# Velocity S-wave (km/s) = 3.43240 3.89025 3.66847
# Velocity P-wave (km/s) = 6.21529 7.25558 6.75549
#
# Compressibility (1/GPa) = 0.02061503
#
# Stress axis : x y z
#
# Youngs Moduli (GPa) = 116.78540 30.52955 71.47916
#
# Poissons Ratio (x) = 0.25798 0.05543
# Poissons Ratio (y) = 0.98687 0.58045
# Poissons Ratio (z) = 0.09057 0.24792
#
# Static dielectric constant tensor:
#      x y z
#    x 4.068880 0.000000 0.012240 
#    y 0.000000 3.772040 0.000000 
#    z 0.012240 0.000000 3.917240 
# 
# 
# High freq. dielectric constant tensor:
#      x y z
#    x 1.848050 0.000000 0.000460 
#    y 0.000000 1.820810 0.000000 
#    z 0.000460 0.000000 1.832450 
# 
# From -- ./inp_files/309699.got.cif
#   From: 2010.06.25/outbox.cif.g09.slc.cpg/sg15_155_cif.got.tgz:309699.got - 2010.06.28 07:06:18.
