data_PCOD8146117
_publ_section_title
;
Structure prediction by ZEFSAII (Michael W. Deem and Ramdas Pophale) SiO2 
 PCOD8146117
Probable space group: C 2/C
;
_chemical_formula_sum "Si O2"
_cell_formula_units_Z 40
_cell_length_a 18.195304
_cell_length_b 7.131084
_cell_length_c 18.506502
_cell_angle_alpha 90.000000
_cell_angle_beta 131.171136
_cell_angle_gamma 90.000000
_cell_volume 1807.540487
_symmetry_space_group_name_H-M "C 2/C"
_symmetry_group_IT_number 15
_symmetry_cell_setting 'monoclinic'
loop_
_space_group_symop_operation_xyz
x,y,z
-x,y,1/2-z
-x,-y,-z
x,-y,1/2+z
1/2+x,1/2+y,z
1/2-x,1/2+y,1/2-z
1/2-x,1/2-y,-z
1/2+x,1/2-y,1/2+z
loop_
_atom_site_type_symbol
_atom_site_label
_atom_site_fract_x
_atom_site_fract_y
_atom_site_fract_z
Si Si1 0.216547 0.912319 0.140050
Si Si2 0.370591 0.329022 0.804317
Si Si3 0.597348 0.772146 0.444523
Si Si4 0.829473 0.376690 0.590144
Si Si5 0.606116 0.497126 0.827016
O O1 0.288314 0.832172 0.248536
O O2 0.142018 0.053701 0.130658
O O3 0.287460 0.014763 0.130543
O O4 0.149153 0.759097 0.055353
O O5 0.480829 0.251475 0.875962
O O6 0.341283 0.452505 0.714462
O O7 0.649502 0.620586 0.423453
O O8 0.617629 0.983699 0.431333
O O9 0.750000 0.250000 0.500000
O O10 0.904883 0.219156 0.666847
O O11 0.500000 0.407373 0.750000
#
# Coordination Sequence:
#
# PCOD8146117 Si02
#       5
#     8   8   8   8   8
#     4  12  24  45  68  99 144 177 233 292 351 410
#     4  11  25  44  69 103 144 182 227 297 354 406
#     4  11  24  46  70 100 138 184 231 286 340 421
#     4  12  23  40  71 101 131 184 234 281 341 418
#     4  10  22  40  67 100 135 176 231 278 338 412
#
# _framework density 22.129518999999998
#
# number of rings (size 3 to 8) (size 9 to 14) (size 15 to 20)
#    0.000    0.800    4.000    3.600    2.800    0.000 
#    0.000    2.000    0.000    0.000    0.000    0.000 
#    0.000    0.000    0.000    0.000    0.000    0.000 
#
# Total GULP energy -247901.598653 kJ/mol
# GULP energy per Si atom -12395.079933 kJ/mol
# Density = 2.207915 g / cm^3
# Si number density = 22.129519 Si / 1000 Ang^3
#
#
#
# Elastic Constant Matrix: (Units=GPa)
#
#
# Indices 1 2 3 4 5 6 
#
# 1 101.2410 41.5630 36.9825 0.0000 6.0275 0.0000
# 2 41.5630 122.5047 29.7699 0.0000 12.5585 0.0000
# 3 36.9825 29.7699 94.2079 0.0000 9.8297 0.0000
# 4 0.0000 0.0000 0.0000 36.1461 0.0000 -1.7091
# 5 6.0275 12.5585 9.8297 0.0000 24.8045 0.0000
# 6 0.0000 0.0000 0.0000 -1.7091 0.0000 46.2439
#
#
#
# Elastic Compliance Matrix: (Units=1/GPa)
#
#
# Indices 1 2 3 4 5 6 
#
# 1 0.012686 -0.003366 -0.003935 0.000000 0.000181 0.000000
# 2 -0.003366 0.010039 -0.001466 0.000000 -0.003684 0.000000
# 3 -0.003935 -0.001466 0.012983 0.000000 -0.003446 0.000000
# 4 0.000000 0.000000 0.000000 0.027714 0.000000 0.001024
# 5 0.000181 -0.003684 -0.003446 0.000000 0.043502 0.000000
# 6 0.000000 0.000000 0.000000 0.001024 0.000000 0.021662
#
#
# Mechanical properties :
#
#
# Convention : Reuss Voigt Hill
#
# Bulk Modulus (GPa) = 55.03082 59.39827 57.21454
# Shear Modulus (GPa) = 32.85592 35.41478 34.13535
#
# Velocity S-wave (km/s) = 3.85737 4.00477 3.93176
# Velocity P-wave (km/s) = 6.69034 6.94865 6.82072
#
# Compressibility (1/GPa) = 0.01817164
#
# Stress axis : x y z
#
# Youngs Moduli (GPa) = 78.82603 99.61064 77.02596
#
# Poissons Ratio (x) = 0.33533 0.30312
# Poissons Ratio (y) = 0.26536 0.11296
# Poissons Ratio (z) = 0.31020 0.14608
#
# Static dielectric constant tensor:
#      x y z
#    x 3.909280 0.000000 0.045470 
#    y 0.000000 4.551310 0.000000 
#    z 0.045470 0.000000 4.360050 
# 
# 
# High freq. dielectric constant tensor:
#      x y z
#    x 1.865150 0.000000 0.004480 
#    y 0.000000 1.869220 0.000000 
#    z 0.004480 0.000000 1.884110 
# 
# From -- ./inp_files/251004.got.cif
#   From: 2010.06.25/outbox.cif.g09.slc.cpg/sg15_126_cif.got.tgz:251004.got - 2010.06.28 07:06:18.
