data_PCOD8146753
_publ_section_title
;
Structure prediction by ZEFSAII (Michael W. Deem and Ramdas Pophale) SiO2 
 PCOD8146753
Probable space group: C 2/C
;
_chemical_formula_sum "Si O2"
_cell_formula_units_Z 44
_cell_length_a 21.595667
_cell_length_b 8.762425
_cell_length_c 12.890757
_cell_angle_alpha 90.000000
_cell_angle_beta 52.797260
_cell_angle_gamma 90.000000
_cell_volume 1942.923428
_symmetry_space_group_name_H-M "C 2/C"
_symmetry_group_IT_number 15
_symmetry_cell_setting 'monoclinic'
loop_
_space_group_symop_operation_xyz
x,y,z
-x,y,1/2-z
-x,-y,-z
x,-y,1/2+z
1/2+x,1/2+y,z
1/2-x,1/2+y,1/2-z
1/2-x,1/2-y,-z
1/2+x,1/2-y,1/2+z
loop_
_atom_site_type_symbol
_atom_site_label
_atom_site_fract_x
_atom_site_fract_y
_atom_site_fract_z
Si Si1 0.904905 0.999929 0.690384
Si Si2 0.516476 0.207848 0.346411
Si Si3 0.500000 0.692970 0.250000
Si Si4 0.865008 0.720243 0.619969
Si Si5 0.380787 0.923263 0.322588
Si Si6 0.254069 0.104467 0.566895
O O1 0.973907 0.908134 0.678784
O O2 0.878412 0.905069 0.614467
O O3 0.940666 0.165543 0.625033
O O4 0.830045 0.028537 0.838058
O O5 0.500000 0.283581 0.250000
O O6 0.438035 0.150459 0.482538
O O7 0.569822 0.063476 0.271329
O O8 0.429038 0.809358 0.348808
O O9 0.854113 0.667208 0.748262
O O10 0.786573 0.668121 0.642988
O O11 0.307654 0.975496 0.462854
O O12 0.250000 0.250000 0.500000
#
# Coordination Sequence:
#
# PCOD8146753 Si02
#       6
#     8   8   4   8   8   8
#     4  11  25  42  72 106 140 186 233 298 345 425
#     4  12  20  44  71  98 141 187 235 282 353 420
#     4  10  22  42  64 108 138 176 236 282 350 398
#     4  11  26  42  68 105 138 181 245 287 352 421
#     4  11  23  44  73 101 140 189 230 294 349 427
#     4  12  25  47  72 101 144 190 230 291 364 420
#
# _framework density 22.646284999999999
#
# number of rings (size 3 to 8) (size 9 to 14) (size 15 to 20)
#    0.000    0.727    5.455    1.091    2.545    4.364 
#    0.000    1.818    0.000    0.000    0.000    0.000 
#    0.000    0.000    0.000    0.000    0.000    0.000 
#
# Total GULP energy -272714.232869 kJ/mol
# GULP energy per Si atom -12396.101494 kJ/mol
# Density = 2.259474 g / cm^3
# Si number density = 22.646285 Si / 1000 Ang^3
#
#
#
# Elastic Constant Matrix: (Units=GPa)
#
#
# Indices 1 2 3 4 5 6 
#
# 1 116.7019 41.6116 36.5489 0.0000 -0.5576 0.0000
# 2 41.6116 96.0810 11.9477 0.0000 -7.0369 0.0000
# 3 36.5489 11.9477 77.6137 0.0000 -11.1730 0.0000
# 4 0.0000 0.0000 0.0000 34.9445 0.0000 -7.0005
# 5 -0.5576 -7.0369 -11.1730 0.0000 31.9764 0.0000
# 6 0.0000 0.0000 0.0000 -7.0005 0.0000 39.3743
#
#
#
# Elastic Compliance Matrix: (Units=1/GPa)
#
#
# Indices 1 2 3 4 5 6 
#
# 1 0.011871 -0.004683 -0.005252 0.000000 -0.002659 0.000000
# 2 -0.004683 0.012564 0.000692 0.000000 0.002925 0.000000
# 3 -0.005252 0.000692 0.016068 0.000000 0.005675 0.000000
# 4 0.000000 0.000000 0.000000 0.029674 0.000000 0.005276
# 5 -0.002659 0.002925 0.005675 0.000000 0.033853 0.000000
# 6 0.000000 0.000000 0.000000 0.005276 0.000000 0.026335
#
#
# Mechanical properties :
#
#
# Convention : Reuss Voigt Hill
#
# Bulk Modulus (GPa) = 45.41790 52.29032 48.85411
# Shear Modulus (GPa) = 32.01252 34.61160 33.31206
#
# Velocity S-wave (km/s) = 3.76385 3.91366 3.83949
# Velocity P-wave (km/s) = 6.24401 6.60019 6.42457
#
# Compressibility (1/GPa) = 0.02201775
#
# Stress axis : x y z
#
# Youngs Moduli (GPa) = 84.24197 79.59209 62.23599
#
# Poissons Ratio (x) = 0.37270 0.32685
# Poissons Ratio (y) = 0.39448 -0.04307
# Poissons Ratio (z) = 0.44242 -0.05509
#
# Static dielectric constant tensor:
#      x y z
#    x 4.832790 0.000000 -0.261890 
#    y 0.000000 4.759160 0.000000 
#    z -0.261890 0.000000 4.071360 
# 
# 
# High freq. dielectric constant tensor:
#      x y z
#    x 1.891770 0.000000 -0.010470 
#    y 0.000000 1.911250 0.000000 
#    z -0.010470 0.000000 1.876360 
# 
# From -- ./inp_files/116665.got.cif
#   From: 2010.06.25/outbox.cif.g09.slc.cpg/sg15_59_cif.got.tgz:116665.got - 2010.06.28 07:06:18.
