data_PCOD8146493
_publ_section_title
;
Structure prediction by ZEFSAII (Michael W. Deem and Ramdas Pophale) SiO2 
 PCOD8146493
Probable space group: C 2/C
;
_chemical_formula_sum "Si O2"
_cell_formula_units_Z 56
_cell_length_a 24.858245
_cell_length_b 6.807134
_cell_length_c 20.362594
_cell_angle_alpha 90.000000
_cell_angle_beta 131.087519
_cell_angle_gamma 90.000000
_cell_volume 2596.989353
_symmetry_space_group_name_H-M "C 2/C"
_symmetry_group_IT_number 15
_symmetry_cell_setting 'monoclinic'
loop_
_space_group_symop_operation_xyz
x,y,z
-x,y,1/2-z
-x,-y,-z
x,-y,1/2+z
1/2+x,1/2+y,z
1/2-x,1/2+y,1/2-z
1/2-x,1/2-y,-z
1/2+x,1/2-y,1/2+z
loop_
_atom_site_type_symbol
_atom_site_label
_atom_site_fract_x
_atom_site_fract_y
_atom_site_fract_z
Si Si1 0.930698 0.875321 0.555637
Si Si2 0.596774 0.660895 0.196760
Si Si3 0.083192 0.946077 0.318928
Si Si4 0.329981 0.949332 0.936219
Si Si5 0.779531 0.621641 0.659585
Si Si6 0.849333 0.134253 0.398384
Si Si7 0.315406 0.110800 0.065257
O O1 0.891857 0.712271 0.480107
O O2 0.012537 0.808801 0.622038
O O3 0.901788 0.907159 0.607158
O O4 0.910397 0.076288 0.500725
O O5 0.612501 0.535843 0.274786
O O6 0.642971 0.862809 0.242462
O O7 0.624710 0.561615 0.152234
O O8 0.119789 0.735412 0.353543
O O9 0.000000 0.901435 0.250000
O O10 0.254745 0.840216 0.863812
O O11 0.339816 0.129075 0.893526
O O12 0.340070 0.020685 0.017743
O O13 0.728351 0.460387 0.651560
O O14 0.792040 0.563464 0.594462
O O15 0.250000 0.250000 0.000000
#
# Coordination Sequence:
#
# PCOD8146493 Si02
#       7
#     8   8   8   8   8   8   8
#     4  10  22  47  68  93 125 174 220 269 320 391
#     4  11  25  42  66  96 135 167 214 274 331 384
#     4  10  22  41  66  94 130 169 214 274 330 378
#     4  11  22  41  68  91 129 167 219 265 317 388
#     4  11  25  39  63  99 131 168 213 272 322 381
#     4  11  24  44  65  94 132 175 216 262 327 395
#     4  12  20  39  67  95 125 171 218 259 321 387
#
# _framework density 21.56343
#
# number of rings (size 3 to 8) (size 9 to 14) (size 15 to 20)
#    0.000    1.143    2.857    3.429    2.000    1.714 
#    2.571    0.000    0.000    0.000    0.000    0.000 
#    0.000    0.000    0.000    0.000    0.000    0.000 
#
# Total GULP energy -347062.179253 kJ/mol
# GULP energy per Si atom -12395.077830 kJ/mol
# Density = 2.151435 g / cm^3
# Si number density = 21.563430 Si / 1000 Ang^3
#
#
#
# Elastic Constant Matrix: (Units=GPa)
#
#
# Indices 1 2 3 4 5 6 
#
# 1 115.9711 31.0988 44.8472 -0.0001 -17.4678 0.0002
# 2 31.0988 100.4807 35.4100 0.0001 7.7041 0.0004
# 3 44.8472 35.4100 89.6958 -0.0002 5.1608 0.0001
# 4 -0.0001 0.0001 -0.0002 34.2142 -0.0001 -2.2571
# 5 -17.4678 7.7041 5.1608 -0.0001 50.5305 0.0000
# 6 0.0002 0.0004 0.0001 -2.2571 0.0000 22.0471
#
#
#
# Elastic Compliance Matrix: (Units=1/GPa)
#
#
# Indices 1 2 3 4 5 6 
#
# 1 0.012093 -0.002205 -0.005468 0.000000 0.005075 0.000000
# 2 -0.002205 0.012049 -0.003525 0.000000 -0.002239 0.000000
# 3 -0.005468 -0.003525 0.015443 0.000000 -0.002930 0.000000
# 4 0.000000 0.000000 0.000000 0.029426 0.000000 0.003013
# 5 0.005075 -0.002239 -0.002930 0.000000 0.022185 0.000000
# 6 0.000000 0.000000 0.000000 0.003013 0.000000 0.045666
#
#
# Mechanical properties :
#
#
# Convention : Reuss Voigt Hill
#
# Bulk Modulus (GPa) = 58.17902 58.76218 58.47060
# Shear Modulus (GPa) = 30.30528 34.34446 32.32487
#
# Velocity S-wave (km/s) = 3.75294 3.99522 3.87597
# Velocity P-wave (km/s) = 6.76893 6.97082 6.87061
#
# Compressibility (1/GPa) = 0.01718833
#
# Stress axis : x y z
#
# Youngs Moduli (GPa) = 82.69213 82.99717 64.75427
#
# Poissons Ratio (x) = 0.18301 0.35407
# Poissons Ratio (y) = 0.18233 0.22827
# Poissons Ratio (z) = 0.45216 0.29258
#
# Static dielectric constant tensor:
#      x y z
#    x 3.934550 -0.000010 0.007700 
#    y -0.000010 4.091300 0.000000 
#    z 0.007700 0.000000 4.013340 
# 
# 
# High freq. dielectric constant tensor:
#      x y z
#    x 1.852250 0.000000 0.000520 
#    y 0.000000 1.832490 0.000000 
#    z 0.000520 0.000000 1.858530 
# 
# From -- ./inp_files/283028.got.cif
#   From: 2010.06.25/outbox.cif.g09.slc.cpg/sg15_142_cif.got.tgz:283028.got - 2010.06.28 07:06:18.
