data_PCOD8146454
_publ_section_title
;
Structure prediction by ZEFSAII (Michael W. Deem and Ramdas Pophale) SiO2 
 PCOD8146454
Probable space group: C 2/C
;
_chemical_formula_sum "Si O2"
_cell_formula_units_Z 48
_cell_length_a 15.728029
_cell_length_b 26.219482
_cell_length_c 5.348178
_cell_angle_alpha 90.000000
_cell_angle_beta 80.019499
_cell_angle_gamma 90.000000
_cell_volume 2172.109705
_symmetry_space_group_name_H-M "C 2/C"
_symmetry_group_IT_number 15
_symmetry_cell_setting 'monoclinic'
loop_
_space_group_symop_operation_xyz
x,y,z
-x,y,1/2-z
-x,-y,-z
x,-y,1/2+z
1/2+x,1/2+y,z
1/2-x,1/2+y,1/2-z
1/2-x,1/2-y,-z
1/2+x,1/2-y,1/2+z
loop_
_atom_site_type_symbol
_atom_site_label
_atom_site_fract_x
_atom_site_fract_y
_atom_site_fract_z
Si Si1 0.164932 0.816178 0.643576
Si Si2 0.298884 0.783867 0.172142
Si Si3 0.101478 0.470315 0.706296
Si Si4 0.782517 0.619177 0.450431
Si Si5 0.187859 0.028642 0.704395
Si Si6 0.000000 0.877615 0.750000
Si Si7 0.000000 0.061530 0.750000
O O1 0.227792 0.809515 0.382669
O O2 0.137714 0.757694 0.736549
O O3 0.212030 0.852399 0.818650
O O4 0.077595 0.843242 0.608878
O O5 0.250000 0.750000 0.000000
O O6 0.342421 0.835193 0.038054
O O7 0.128435 0.492451 0.420104
O O8 0.150677 0.417035 0.729366
O O9 0.000000 0.459497 0.750000
O O10 0.727451 0.585700 0.680460
O O11 0.083641 0.027877 0.774989
O O12 0.221626 0.000684 0.433871
O O13 0.972793 0.908494 0.516276
#
# Coordination Sequence:
#
# PCOD8146454 Si02
#       7
#     8   8   8   8   8   4   4
#     4  10  22  41  65  95 129 169 216 268 321 392
#     4   9  21  41  63  92 122 161 214 272 324 379
#     4  10  23  43  66  95 129 166 211 269 326 384
#     4  11  22  39  66  93 126 169 215 265 323 393
#     4  12  25  39  60  92 130 174 219 263 312 373
#     4  12  24  41  70  94 130 182 216 263 328 384
#     4  12  24  43  60  90 136 178 224 267 312 368
#
# _framework density 22.098331000000002
#
# number of rings (size 3 to 8) (size 9 to 14) (size 15 to 20)
#    0.000    1.333    1.667    3.500    7.000    0.000 
#    0.000    5.000    0.000    0.000    0.000    0.000 
#    0.000    0.000    0.000    0.000    0.000    0.000 
#
# Total GULP energy -297343.742459 kJ/mol
# GULP energy per Si atom -12389.322602 kJ/mol
# Density = 2.204803 g / cm^3
# Si number density = 22.098331 Si / 1000 Ang^3
#
#
#
# Elastic Constant Matrix: (Units=GPa)
#
#
# Indices 1 2 3 4 5 6 
#
# 1 45.4903 33.0966 7.2835 0.0000 10.1815 0.0000
# 2 33.0966 152.0744 35.6355 0.0000 3.5446 0.0000
# 3 7.2835 35.6355 94.0635 0.0000 5.4807 0.0000
# 4 0.0000 0.0000 0.0000 32.3632 0.0000 -16.8297
# 5 10.1815 3.5446 5.4807 0.0000 22.3783 0.0000
# 6 0.0000 0.0000 0.0000 -16.8297 0.0000 5.8307
#
#
#
# Elastic Compliance Matrix: (Units=1/GPa)
#
#
# Indices 1 2 3 4 5 6 
#
# 1 0.029201 -0.006260 0.000839 0.000000 -0.012499 0.000000
# 2 -0.006260 0.008564 -0.002888 0.000000 0.002199 0.000000
# 3 0.000839 -0.002888 0.011824 0.000000 -0.002820 0.000000
# 4 0.000000 0.000000 0.000000 -0.061675 0.000000 -0.178018
# 5 -0.012499 0.002199 -0.002820 0.000000 0.050715 0.000000
# 6 0.000000 0.000000 0.000000 -0.178018 0.000000 -0.342327
#
#
# Mechanical properties :
#
#
# Convention : Reuss Voigt Hill
#
# Bulk Modulus (GPa) = 30.33003 49.29548 39.81276
# Shear Modulus (GPa) = -18.11011 26.48862 4.18926
#
# Velocity S-wave (km/s) = -2.86584 3.46594 1.37835
# Velocity P-wave (km/s) = 1.67455 6.19457 4.53745
#
# Compressibility (1/GPa) = 0.03297063
#
# Stress axis : x y z
#
# Youngs Moduli (GPa) = 34.24579 116.77355 84.57055
#
# Poissons Ratio (x) = 0.73104 -0.07095
# Poissons Ratio (y) = 0.21439 0.24421
# Poissons Ratio (z) = -0.02873 0.33720
#
# Static dielectric constant tensor:
#      x y z
#    x 3.858920 0.000000 0.122900 
#    y 0.000000 4.552460 0.000000 
#    z 0.122900 0.000000 4.061400 
# 
# 
# High freq. dielectric constant tensor:
#      x y z
#    x 1.849760 0.000000 0.003350 
#    y 0.000000 1.887600 0.000000 
#    z 0.003350 0.000000 1.879040 
# 
# From -- ./inp_files/10797.got.cif
#   From: 2010.06.25/outbox.cif.g09.slc.cpg/sg15_6_cif.got.tgz:10797.got - 2010.06.28 07:06:18.
