data_PCOD8146270
_publ_section_title
;
Structure prediction by ZEFSAII (Michael W. Deem and Ramdas Pophale) SiO2 
 PCOD8146270
Probable space group: C 2/C
;
_chemical_formula_sum "Si O2"
_cell_formula_units_Z 40
_cell_length_a 10.087649
_cell_length_b 14.553367
_cell_length_c 13.032569
_cell_angle_alpha 90.000000
_cell_angle_beta 103.025087
_cell_angle_gamma 90.000000
_cell_volume 1864.075355
_symmetry_space_group_name_H-M "C 2/C"
_symmetry_group_IT_number 15
_symmetry_cell_setting 'monoclinic'
loop_
_space_group_symop_operation_xyz
x,y,z
-x,y,1/2-z
-x,-y,-z
x,-y,1/2+z
1/2+x,1/2+y,z
1/2-x,1/2+y,1/2-z
1/2-x,1/2-y,-z
1/2+x,1/2-y,1/2+z
loop_
_atom_site_type_symbol
_atom_site_label
_atom_site_fract_x
_atom_site_fract_y
_atom_site_fract_z
Si Si1 0.957937 0.566928 0.357663
Si Si2 0.544791 0.395161 0.493999
Si Si3 0.894404 0.232066 0.821731
Si Si4 0.601863 0.748325 0.173465
Si Si5 0.170851 0.413659 0.057688
O O1 0.907958 0.668488 0.374727
O O2 0.835204 0.496326 0.360822
O O3 0.000000 0.552296 0.250000
O O4 0.095144 0.546878 0.444646
O O5 0.500000 0.500000 0.500000
O O6 0.419955 0.342354 0.416438
O O7 0.582774 0.349132 0.610971
O O8 0.675199 0.387580 0.442439
O O9 0.747219 0.228735 0.746555
O O10 0.000000 0.214613 0.750000
O O11 0.500000 0.755147 0.250000
O O12 0.584119 0.826987 0.084556
#
# Coordination Sequence:
#
# PCOD8146270 Si02
#       5
#     8   8   8   8   8
#     4  10  22  40  74 104 137 186 235 290 356 427
#     4  12  27  46  71 105 147 189 239 296 360 428
#     4  11  23  45  75  99 139 191 233 288 365 423
#     4  12  27  45  74 105 143 181 243 298 355 430
#     4  11  23  46  70 103 144 183 237 296 351 431
#
# _framework density 21.458359999999999
#
# number of rings (size 3 to 8) (size 9 to 14) (size 15 to 20)
#    0.000    0.800    4.000    3.600    2.800    8.000 
#    0.000    0.000    0.000    0.000    0.000    0.000 
#    0.000    0.000    0.000    0.000    0.000    0.000 
#
# Total GULP energy -247959.034777 kJ/mol
# GULP energy per Si atom -12397.951739 kJ/mol
# Density = 2.140952 g / cm^3
# Si number density = 21.458360 Si / 1000 Ang^3
#
#
#
# Elastic Constant Matrix: (Units=GPa)
#
#
# Indices 1 2 3 4 5 6 
#
# 1 130.7927 47.0177 63.0487 0.0000 -11.0466 0.0000
# 2 47.0177 141.8051 64.2745 0.0000 -21.6959 0.0000
# 3 63.0487 64.2745 112.4637 0.0000 2.7698 0.0000
# 4 0.0000 0.0000 0.0000 26.7589 0.0000 -1.7980
# 5 -11.0466 -21.6959 2.7698 0.0000 37.1330 0.0000
# 6 0.0000 0.0000 0.0000 -1.7980 0.0000 31.5007
#
#
#
# Elastic Compliance Matrix: (Units=1/GPa)
#
#
# Indices 1 2 3 4 5 6 
#
# 1 0.010982 -0.000373 -0.006030 0.000000 0.003499 0.000000
# 2 -0.000373 0.011068 -0.006285 0.000000 0.006825 0.000000
# 3 -0.006030 -0.006285 0.016028 0.000000 -0.006661 0.000000
# 4 0.000000 0.000000 0.000000 0.037515 0.000000 0.002141
# 5 0.003499 0.006825 -0.006661 0.000000 0.032455 0.000000
# 6 0.000000 0.000000 0.000000 0.002141 0.000000 0.031868
#
#
# Mechanical properties :
#
#
# Convention : Reuss Voigt Hill
#
# Bulk Modulus (GPa) = 78.71796 81.52702 80.12249
# Shear Modulus (GPa) = 29.49420 33.12657 31.31039
#
# Velocity S-wave (km/s) = 3.71143 3.93333 3.82399
# Velocity P-wave (km/s) = 7.42495 7.66184 7.54433
#
# Compressibility (1/GPa) = 0.01270358
#
# Stress axis : x y z
#
# Youngs Moduli (GPa) = 91.05949 90.34749 62.39112
#
# Poissons Ratio (x) = 0.03369 0.37619
# Poissons Ratio (y) = 0.03396 0.39211
# Poissons Ratio (z) = 0.54905 0.56781
#
# Static dielectric constant tensor:
#      x y z
#    x 3.513620 0.000000 0.073850 
#    y 0.000000 4.169820 0.000000 
#    z 0.073850 0.000000 4.119090 
# 
# 
# High freq. dielectric constant tensor:
#      x y z
#    x 1.830170 0.000000 -0.000840 
#    y 0.000000 1.852500 0.000000 
#    z -0.000840 0.000000 1.858180 
# 
# From -- ./inp_files/133278.got.cif
#   From: 2010.06.25/outbox.cif.g09.slc.cpg/sg15_67_cif.got.tgz:133278.got - 2010.06.28 07:06:18.
