data_PCOD8146554
_publ_section_title
;
Structure prediction by ZEFSAII (Michael W. Deem and Ramdas Pophale) SiO2 
 PCOD8146554
Probable space group: C 2/C
;
_chemical_formula_sum "Si O2"
_cell_formula_units_Z 40
_cell_length_a 8.491359
_cell_length_b 12.383326
_cell_length_c 18.733293
_cell_angle_alpha 90.000000
_cell_angle_beta 68.539374
_cell_angle_gamma 90.000000
_cell_volume 1833.259654
_symmetry_space_group_name_H-M "C 2/C"
_symmetry_group_IT_number 15
_symmetry_cell_setting 'monoclinic'
loop_
_space_group_symop_operation_xyz
x,y,z
-x,y,1/2-z
-x,-y,-z
x,-y,1/2+z
1/2+x,1/2+y,z
1/2-x,1/2+y,1/2-z
1/2-x,1/2-y,-z
1/2+x,1/2-y,1/2+z
loop_
_atom_site_type_symbol
_atom_site_label
_atom_site_fract_x
_atom_site_fract_y
_atom_site_fract_z
Si Si1 0.105076 0.529859 0.412132
Si Si2 0.052745 0.263969 0.543871
Si Si3 0.390008 0.552740 0.580013
Si Si4 0.476849 0.397150 0.836248
Si Si5 0.952699 0.670553 0.904698
O O1 0.297761 0.560452 0.395267
O O2 0.000000 0.500000 0.500000
O O3 0.001715 0.633703 0.397432
O O4 0.100163 0.419467 0.366461
O O5 0.250000 0.250000 0.500000
O O6 0.989836 0.156722 0.593797
O O7 0.954478 0.279091 0.484292
O O8 0.500000 0.500000 0.500000
O O9 0.376664 0.461806 0.644648
O O10 0.212987 0.597753 0.581197
O O11 0.500000 0.423731 0.750000
O O12 0.483971 0.267904 0.844899
#
# Coordination Sequence:
#
# PCOD8146554 Si02
#       5
#     8   8   8   8   8
#     4  10  22  41  68 101 135 172 233 289 335 410
#     4  11  20  37  69 107 134 169 229 293 343 402
#     4  12  21  39  73 101 132 180 235 290 341 407
#     4  12  27  46  66 100 145 186 228 286 361 431
#     4  11  23  42  69  98 139 178 229 286 352 410
#
# _framework density 21.819058999999999
#
# number of rings (size 3 to 8) (size 9 to 14) (size 15 to 20)
#    0.000    0.800    4.000    6.600    0.000    1.600 
#    0.000    0.000    0.000    0.000    0.000    0.000 
#    0.000    0.000    0.000    0.000    0.000    0.000 
#
# Total GULP energy -247766.981993 kJ/mol
# GULP energy per Si atom -12388.349100 kJ/mol
# Density = 2.176940 g / cm^3
# Si number density = 21.819059 Si / 1000 Ang^3
#
#
#
# Elastic Constant Matrix: (Units=GPa)
#
#
# Indices 1 2 3 4 5 6 
#
# 1 116.5227 45.3288 15.7039 0.0000 4.6797 0.0000
# 2 45.3288 185.8164 24.0989 0.0000 8.6162 0.0000
# 3 15.7039 24.0989 71.7631 0.0000 18.7293 0.0000
# 4 0.0000 0.0000 0.0000 22.9239 0.0000 6.0074
# 5 4.6797 8.6162 18.7293 0.0000 23.6601 0.0000
# 6 0.0000 0.0000 0.0000 6.0074 0.0000 51.8435
#
#
#
# Elastic Compliance Matrix: (Units=1/GPa)
#
#
# Indices 1 2 3 4 5 6 
#
# 1 0.009610 -0.002166 -0.001368 0.000000 -0.000029 0.000000
# 2 -0.002166 0.006124 -0.001402 0.000000 -0.000692 0.000000
# 3 -0.001368 -0.001402 0.018277 0.000000 -0.013687 0.000000
# 4 0.000000 0.000000 0.000000 0.044989 0.000000 -0.005213
# 5 -0.000029 -0.000692 -0.013687 0.000000 0.053357 0.000000
# 6 0.000000 0.000000 0.000000 -0.005213 0.000000 0.019893
#
#
# Mechanical properties :
#
#
# Convention : Reuss Voigt Hill
#
# Bulk Modulus (GPa) = 41.42574 60.48505 50.95539
# Shear Modulus (GPa) = 29.38278 38.95021 34.16650
#
# Velocity S-wave (km/s) = 3.67366 4.22968 3.96144
# Velocity P-wave (km/s) = 6.08454 7.18575 6.65795
#
# Compressibility (1/GPa) = 0.02413958
#
# Stress axis : x y z
#
# Youngs Moduli (GPa) = 104.05840 163.29644 54.71350
#
# Poissons Ratio (x) = 0.35362 0.07486
# Poissons Ratio (y) = 0.22534 0.07671
# Poissons Ratio (z) = 0.14237 0.22894
#
# Static dielectric constant tensor:
#      x y z
#    x 4.454550 0.000000 0.099500 
#    y 0.000000 5.929140 0.000000 
#    z 0.099500 0.000000 3.328290 
# 
# 
# High freq. dielectric constant tensor:
#      x y z
#    x 1.861730 0.000000 -0.003630 
#    y 0.000000 1.906060 0.000000 
#    z -0.003630 0.000000 1.784390 
# 
# From -- ./inp_files/230414.got.cif
#   From: 2010.06.25/outbox.cif.g09.slc.cpg/sg15_116_cif.got.tgz:230414.got - 2010.06.28 07:06:18.
