data_PCOD8146690
_publ_section_title
;
Structure prediction by ZEFSAII (Michael W. Deem and Ramdas Pophale) SiO2 
 PCOD8146690
Probable space group: C 2/C
;
_chemical_formula_sum "Si O2"
_cell_formula_units_Z 56
_cell_length_a 14.542845
_cell_length_b 7.951363
_cell_length_c 26.131877
_cell_angle_alpha 90.000000
_cell_angle_beta 65.782721
_cell_angle_gamma 90.000000
_cell_volume 2755.844509
_symmetry_space_group_name_H-M "C 2/C"
_symmetry_group_IT_number 15
_symmetry_cell_setting 'monoclinic'
loop_
_space_group_symop_operation_xyz
x,y,z
-x,y,1/2-z
-x,-y,-z
x,-y,1/2+z
1/2+x,1/2+y,z
1/2-x,1/2+y,1/2-z
1/2-x,1/2-y,-z
1/2+x,1/2-y,1/2+z
loop_
_atom_site_type_symbol
_atom_site_label
_atom_site_fract_x
_atom_site_fract_y
_atom_site_fract_z
Si Si1 0.474245 0.693574 0.637411
Si Si2 0.532540 0.044785 0.625247
Si Si3 0.086823 0.435758 0.444092
Si Si4 0.741619 0.905566 0.038415
Si Si5 0.719408 0.210922 0.374112
Si Si6 0.077774 0.124416 0.509122
Si Si7 0.056030 0.876197 0.684298
O O1 0.352651 0.719983 0.655919
O O2 0.521805 0.705379 0.570038
O O3 0.512087 0.525946 0.657808
O O4 0.513420 0.863299 0.657313
O O5 0.440965 0.089516 0.608864
O O6 0.628212 0.025746 0.565237
O O7 0.534544 0.193736 0.665645
O O8 0.175088 0.571975 0.423130
O O9 0.120476 0.257589 0.458613
O O10 0.000000 0.500000 0.500000
O O11 0.763234 0.870521 0.093413
O O12 0.750000 0.750000 0.000000
O O13 0.820916 0.033500 0.995757
O O14 0.824027 0.123860 0.331160
O O15 0.000000 0.000000 0.500000
O O16 0.000000 0.898710 0.750000
#
# Coordination Sequence:
#
# PCOD8146690 Si02
#       7
#     8   8   8   8   8   8   8
#     4  11  23  42  66  97 132 168 226 267 329 411
#     4  10  23  40  61  95 128 169 218 275 318 401
#     4  11  19  36  61  92 134 167 204 252 322 405
#     4  11  21  33  56  90 134 172 211 250 314 393
#     4  10  22  42  61  94 129 169 220 272 318 404
#     4  12  20  32  60  91 132 178 201 247 327 400
#     4  11  26  49  69  89 129 171 230 296 348 378
#
# _framework density 20.320450000000001
#
# number of rings (size 3 to 8) (size 9 to 14) (size 15 to 20)
#    0.000    1.143    4.286    4.286    2.000    1.143 
#    5.143    0.000    0.000    0.000    0.000    0.000 
#    0.000    0.000    0.000    0.000    0.000    0.000 
#
# Total GULP energy -346911.383835 kJ/mol
# GULP energy per Si atom -12389.692280 kJ/mol
# Density = 2.027420 g / cm^3
# Si number density = 20.320450 Si / 1000 Ang^3
#
#
#
# Elastic Constant Matrix: (Units=GPa)
#
#
# Indices 1 2 3 4 5 6 
#
# 1 96.7377 46.5376 27.7022 0.0000 -11.4905 0.0000
# 2 46.5376 120.2266 19.6192 0.0000 2.1245 0.0000
# 3 27.7022 19.6192 72.1140 0.0000 -10.2033 0.0000
# 4 0.0000 0.0000 0.0000 20.0697 0.0000 1.2556
# 5 -11.4905 2.1245 -10.2033 0.0000 24.3178 0.0000
# 6 0.0000 0.0000 0.0000 1.2556 0.0000 37.7698
#
#
#
# Elastic Compliance Matrix: (Units=1/GPa)
#
#
# Indices 1 2 3 4 5 6 
#
# 1 0.014473 -0.005165 -0.003320 0.000000 0.005897 0.000000
# 2 -0.005165 0.010627 -0.001471 0.000000 -0.003986 0.000000
# 3 -0.003320 -0.001471 0.016307 0.000000 0.005402 0.000000
# 4 0.000000 0.000000 0.000000 0.049930 0.000000 -0.001660
# 5 0.005897 -0.003986 0.005402 0.000000 0.046523 0.000000
# 6 0.000000 0.000000 0.000000 -0.001660 0.000000 0.026531
#
#
# Mechanical properties :
#
#
# Convention : Reuss Voigt Hill
#
# Bulk Modulus (GPa) = 46.52281 52.97738 49.75010
# Shear Modulus (GPa) = 26.11382 29.44606 27.77994
#
# Velocity S-wave (km/s) = 3.58872 3.81081 3.70143
# Velocity P-wave (km/s) = 6.33373 6.74468 6.54243
#
# Compressibility (1/GPa) = 0.02149483
#
# Stress axis : x y z
#
# Youngs Moduli (GPa) = 69.09410 94.09741 61.32341
#
# Poissons Ratio (x) = 0.48598 0.20361
# Poissons Ratio (y) = 0.35684 0.09022
# Poissons Ratio (z) = 0.22942 0.13844
#
# Static dielectric constant tensor:
#      x y z
#    x 3.966370 0.000000 -0.035180 
#    y 0.000000 3.107010 0.000000 
#    z -0.035180 0.000000 3.314100 
# 
# 
# High freq. dielectric constant tensor:
#      x y z
#    x 1.806930 0.000000 -0.003490 
#    y 0.000000 1.808500 0.000000 
#    z -0.003490 0.000000 1.752680 
# 
# From -- ./inp_files/273070.got.cif
#   From: 2010.06.25/outbox.cif.g09.slc.cpg/sg15_137_cif.got.tgz:273070.got - 2010.06.28 07:06:18.
