data_PCOD8146394
_publ_section_title
;
Structure prediction by ZEFSAII (Michael W. Deem and Ramdas Pophale) SiO2 
 PCOD8146394
Probable space group: C 2/C
;
_chemical_formula_sum "Si O2"
_cell_formula_units_Z 60
_cell_length_a 26.401507
_cell_length_b 13.211318
_cell_length_c 15.106996
_cell_angle_alpha 90.000000
_cell_angle_beta 148.844819
_cell_angle_gamma 90.000000
_cell_volume 2726.113529
_symmetry_space_group_name_H-M "C 2/C"
_symmetry_group_IT_number 15
_symmetry_cell_setting 'monoclinic'
loop_
_space_group_symop_operation_xyz
x,y,z
-x,y,1/2-z
-x,-y,-z
x,-y,1/2+z
1/2+x,1/2+y,z
1/2-x,1/2+y,1/2-z
1/2-x,1/2-y,-z
1/2+x,1/2-y,1/2+z
loop_
_atom_site_type_symbol
_atom_site_label
_atom_site_fract_x
_atom_site_fract_y
_atom_site_fract_z
Si Si1 0.010286 0.343097 0.134768
Si Si2 0.601427 0.660020 0.936715
Si Si3 0.000000 0.831987 0.750000
Si Si4 0.351181 0.803033 0.635036
Si Si5 0.451953 0.208750 0.997477
Si Si6 0.196372 0.037984 0.524367
Si Si7 0.820543 0.475268 0.047774
Si Si8 0.143887 0.516129 0.593690
O O1 0.086553 0.400311 0.313305
O O2 0.979733 0.238440 0.134796
O O3 0.072739 0.312643 0.141319
O O4 0.916287 0.413811 0.970747
O O5 0.500000 0.611934 0.750000
O O6 0.615947 0.768958 0.913155
O O7 0.602620 0.691027 0.043327
O O8 0.683072 0.580548 0.029386
O O9 0.902798 0.899788 0.610285
O O10 0.250000 0.750000 0.500000
O O11 0.432094 0.765284 0.826094
O O12 0.348088 0.922578 0.638881
O O13 0.432980 0.108334 0.029146
O O14 0.229024 0.062401 0.471366
O O15 0.282666 0.062797 0.722584
O O16 0.795838 0.495512 0.907539
#
# Coordination Sequence:
#
# PCOD8146394 Si02
#       8
#     8   8   4   8   8   8   8   8
#     4  12  25  48  72 100 143 193 240 295 354 424
#     4  10  22  41  64  94 138 178 218 284 358 419
#     4  12  30  52  70  96 152 200 236 292 366 430
#     4  11  21  35  67 104 139 178 225 290 360 427
#     4  11  23  40  70 104 138 179 237 294 359 424
#     4  12  27  47  70 103 145 186 238 298 361 429
#     4  12  23  43  73 106 142 182 237 300 360 421
#     4  12  24  43  74 109 138 183 243 300 350 424
#
# _framework density 22.009354999999999
#
# number of rings (size 3 to 8) (size 9 to 14) (size 15 to 20)
#    0.000    0.533    7.333    1.200    0.000    3.733 
#    0.000    1.333    0.000    0.000    0.000    0.000 
#    0.000    0.000    0.000    0.000    0.000    0.000 
#
# Total GULP energy -371701.060851 kJ/mol
# GULP energy per Si atom -12390.035362 kJ/mol
# Density = 2.195926 g / cm^3
# Si number density = 22.009355 Si / 1000 Ang^3
#
#
#
# Elastic Constant Matrix: (Units=GPa)
#
#
# Indices 1 2 3 4 5 6 
#
# 1 141.9848 34.4806 37.4726 0.0000 -5.6177 0.0000
# 2 34.4806 86.9522 23.2015 0.0000 8.1508 0.0000
# 3 37.4726 23.2015 73.7690 0.0000 12.5312 0.0000
# 4 0.0000 0.0000 0.0000 23.7429 0.0000 2.9241
# 5 -5.6177 8.1508 12.5312 0.0000 36.6099 0.0000
# 6 0.0000 0.0000 0.0000 2.9241 0.0000 38.9236
#
#
#
# Elastic Compliance Matrix: (Units=1/GPa)
#
#
# Indices 1 2 3 4 5 6 
#
# 1 0.008976 -0.002740 -0.004284 0.000000 0.003454 0.000000
# 2 -0.002740 0.013472 -0.002404 0.000000 -0.002597 0.000000
# 3 -0.004284 -0.002404 0.017528 0.000000 -0.006122 0.000000
# 4 0.000000 0.000000 0.000000 0.042511 0.000000 -0.003194
# 5 0.003454 -0.002597 -0.006122 0.000000 0.030519 0.000000
# 6 0.000000 0.000000 0.000000 -0.003194 0.000000 0.025931
#
#
# Mechanical properties :
#
#
# Convention : Reuss Voigt Hill
#
# Bulk Modulus (GPa) = 47.35065 54.77947 51.06506
# Shear Modulus (GPa) = 30.33358 33.69204 32.01281
#
# Velocity S-wave (km/s) = 3.71646 3.91680 3.81794
# Velocity P-wave (km/s) = 6.32271 6.73782 6.53356
#
# Compressibility (1/GPa) = 0.02111903
#
# Stress axis : x y z
#
# Youngs Moduli (GPa) = 111.41107 74.22799 57.05062
#
# Poissons Ratio (x) = 0.20337 0.24443
# Poissons Ratio (y) = 0.30525 0.13716
# Poissons Ratio (z) = 0.47733 0.17846
#
# Static dielectric constant tensor:
#      x y z
#    x 3.848760 0.000000 -0.428520 
#    y 0.000000 4.078200 0.000000 
#    z -0.428520 0.000000 3.001950 
# 
# 
# High freq. dielectric constant tensor:
#      x y z
#    x 1.883120 0.000000 0.008220 
#    y 0.000000 1.859470 0.000000 
#    z 0.008220 0.000000 1.841500 
# 
# From -- ./inp_files/178543.got.cif
#   From: 2010.06.25/outbox.cif.g09.slc.cpg/sg15_90_cif.got.tgz:178543.got - 2010.06.28 07:06:18.
