data_PCOD8146758
_publ_section_title
;
Structure prediction by ZEFSAII (Michael W. Deem and Ramdas Pophale) SiO2 
 PCOD8146758
Probable space group: C 2/C
;
_chemical_formula_sum "Si O2"
_cell_formula_units_Z 56
_cell_length_a 14.155800
_cell_length_b 24.297329
_cell_length_c 9.017440
_cell_angle_alpha 90.000000
_cell_angle_beta 63.420525
_cell_angle_gamma 90.000000
_cell_volume 2773.744951
_symmetry_space_group_name_H-M "C 2/C"
_symmetry_group_IT_number 15
_symmetry_cell_setting 'monoclinic'
loop_
_space_group_symop_operation_xyz
x,y,z
-x,y,1/2-z
-x,-y,-z
x,-y,1/2+z
1/2+x,1/2+y,z
1/2-x,1/2+y,1/2-z
1/2-x,1/2-y,-z
1/2+x,1/2-y,1/2+z
loop_
_atom_site_type_symbol
_atom_site_label
_atom_site_fract_x
_atom_site_fract_y
_atom_site_fract_z
Si Si1 0.469882 0.838267 0.105149
Si Si2 0.602828 0.119086 0.278962
Si Si3 0.719333 0.305995 0.948530
Si Si4 0.521324 0.712802 0.410891
Si Si5 0.875717 0.488468 0.866783
Si Si6 0.403467 0.367892 0.217890
Si Si7 0.296924 0.072482 0.711197
O O1 0.500000 0.830996 0.250000
O O2 0.478828 0.776390 0.032120
O O3 0.356989 0.868280 0.158837
O O4 0.562235 0.876742 0.975046
O O5 0.500000 0.122344 0.250000
O O6 0.674388 0.170027 0.190603
O O7 0.663090 0.061665 0.211939
O O8 0.639884 0.305802 0.864612
O O9 0.750000 0.250000 0.000000
O O10 0.674638 0.339879 0.114492
O O11 0.500000 0.705568 0.250000
O O12 0.440233 0.674944 0.563418
O O13 0.816240 0.543838 0.857405
O O14 0.000000 0.498133 0.750000
O O15 0.843407 0.470263 0.055877
O O16 0.500000 0.391457 0.250000
O O17 0.330091 0.417320 0.205377
#
# Coordination Sequence:
#
# PCOD8146758 Si02
#       7
#     8   8   8   8   8   8   8
#     4  11  23  37  59  92 130 162 197 246 319 384
#     4  11  20  37  58  89 122 155 204 257 307 378
#     4  11  20  36  65  89 119 167 212 257 316 378
#     4  10  23  41  60  92 129 165 206 262 314 371
#     4  11  23  39  63  90 128 155 203 259 313 371
#     4  10  22  42  64  87 122 164 213 259 304 372
#     4  12  23  42  62  92 124 163 207 257 312 366
#
# _framework density 20.189312000000001
#
# number of rings (size 3 to 8) (size 9 to 14) (size 15 to 20)
#    0.000    1.143    4.286    3.429    2.000    2.286 
#    0.000    4.286    0.000    0.000    0.000    0.000 
#    0.000    0.000    0.000    0.000    0.000    0.000 
#
# Total GULP energy -346892.720429 kJ/mol
# GULP energy per Si atom -12389.025730 kJ/mol
# Density = 2.014336 g / cm^3
# Si number density = 20.189312 Si / 1000 Ang^3
#
#
#
# Elastic Constant Matrix: (Units=GPa)
#
#
# Indices 1 2 3 4 5 6 
#
# 1 106.4849 49.6892 24.2682 0.0000 -3.1686 0.0000
# 2 49.6892 72.9513 14.3467 0.0000 3.8713 0.0000
# 3 24.2682 14.3467 53.7567 0.0000 3.7284 0.0000
# 4 0.0000 0.0000 0.0000 23.3364 0.0000 -1.0294
# 5 -3.1686 3.8713 3.7284 0.0000 26.3444 0.0000
# 6 0.0000 0.0000 0.0000 -1.0294 0.0000 35.2083
#
#
#
# Elastic Compliance Matrix: (Units=1/GPa)
#
#
# Indices 1 2 3 4 5 6 
#
# 1 0.014967 -0.009517 -0.004483 0.000000 0.003833 0.000000
# 2 -0.009517 0.020585 -0.000917 0.000000 -0.004040 0.000000
# 3 -0.004483 -0.000917 0.021106 0.000000 -0.003391 0.000000
# 4 0.000000 0.000000 0.000000 0.042907 0.000000 0.001255
# 5 0.003833 -0.004040 -0.003391 0.000000 0.039493 0.000000
# 6 0.000000 0.000000 0.000000 0.001255 0.000000 0.028439
#
#
# Mechanical properties :
#
#
# Convention : Reuss Voigt Hill
#
# Bulk Modulus (GPa) = 37.27938 45.53345 41.40642
# Shear Modulus (GPa) = 24.23976 26.63709 25.43843
#
# Velocity S-wave (km/s) = 3.46876 3.63625 3.55349
# Velocity P-wave (km/s) = 5.87776 6.34287 6.11474
#
# Compressibility (1/GPa) = 0.02682448
#
# Stress axis : x y z
#
# Youngs Moduli (GPa) = 66.81151 48.58018 47.37945
#
# Poissons Ratio (x) = 0.46232 0.21240
# Poissons Ratio (y) = 0.63581 0.04346
# Poissons Ratio (z) = 0.29952 0.04456
#
# Static dielectric constant tensor:
#      x y z
#    x 3.762520 0.000000 -0.050090 
#    y 0.000000 3.886270 0.000000 
#    z -0.050090 0.000000 3.471140 
# 
# 
# High freq. dielectric constant tensor:
#      x y z
#    x 1.784570 0.000000 0.008910 
#    y 0.000000 1.786620 0.000000 
#    z 0.008910 0.000000 1.787460 
# 
# From -- ./inp_files/42521.got.cif
#   From: 2010.06.25/outbox.cif.g09.slc.cpg/sg15_22_cif.got.tgz:42521.got - 2010.06.28 07:06:18.
