data_PCOD8146866
_publ_section_title
;
Structure prediction by ZEFSAII (Michael W. Deem and Ramdas Pophale) SiO2 
 PCOD8146866
Probable space group: C 2/C
;
_chemical_formula_sum "Si O2"
_cell_formula_units_Z 64
_cell_length_a 15.115657
_cell_length_b 28.743224
_cell_length_c 9.462455
_cell_angle_alpha 90.000000
_cell_angle_beta 128.830860
_cell_angle_gamma 90.000000
_cell_volume 3202.609534
_symmetry_space_group_name_H-M "C 2/C"
_symmetry_group_IT_number 15
_symmetry_cell_setting 'monoclinic'
loop_
_space_group_symop_operation_xyz
x,y,z
-x,y,1/2-z
-x,-y,-z
x,-y,1/2+z
1/2+x,1/2+y,z
1/2-x,1/2+y,1/2-z
1/2-x,1/2-y,-z
1/2+x,1/2-y,1/2+z
loop_
_atom_site_type_symbol
_atom_site_label
_atom_site_fract_x
_atom_site_fract_y
_atom_site_fract_z
Si Si1 0.238991 0.572418 0.702471
Si Si2 0.625175 0.897899 0.812184
Si Si3 0.568764 0.635344 0.517929
Si Si4 0.167285 0.148881 0.325680
Si Si5 0.777457 0.695815 0.192135
Si Si6 0.607849 0.715443 0.774220
Si Si7 0.376795 0.094099 0.635315
Si Si8 0.378760 0.021427 0.413306
O O1 0.214733 0.596268 0.528622
O O2 0.365935 0.587315 0.878452
O O3 0.150522 0.593096 0.726905
O O4 0.222427 0.516762 0.684029
O O5 0.500000 0.901479 0.750000
O O6 0.642587 0.849179 0.749080
O O7 0.650485 0.939156 0.728908
O O8 0.627805 0.662304 0.444247
O O9 0.438469 0.621398 0.353040
O O10 0.571576 0.670879 0.648883
O O11 0.199243 0.192054 0.255178
O O12 0.280598 0.118601 0.446202
O O13 0.851276 0.742457 0.285406
O O14 0.704504 0.699799 0.977985
O O15 0.500000 0.734874 0.750000
O O16 0.500000 0.119528 0.750000
O O17 0.386768 0.042441 0.579265
O O18 0.500000 0.000000 0.500000
#
# Coordination Sequence:
#
# PCOD8146866 Si02
#       8
#     8   8   8   8   8   8   8   8
#     4  11  23  35  57  91 119 162 216 250 311 376
#     4  12  22  37  59  92 130 164 208 261 321 380
#     4  10  22  43  66  85 124 172 212 257 307 383
#     4  10  22  42  66  87 120 170 209 250 314 376
#     4  11  23  39  64  96 123 160 210 263 319 378
#     4  11  22  41  66  92 126 158 205 265 321 379
#     4  11  21  38  59  89 123 159 205 263 314 372
#     4  12  22  36  59  89 126 168 206 258 318 381
#
# _framework density 19.983703999999999
#
# number of rings (size 3 to 8) (size 9 to 14) (size 15 to 20)
#    0.000    1.000    6.250    1.125    0.000    0.500 
#    0.000    0.625    2.750    1.500    0.000    0.000 
#    0.000    0.000    0.000    0.000    0.000    0.000 
#
# Total GULP energy -396672.605715 kJ/mol
# GULP energy per Si atom -12396.018929 kJ/mol
# Density = 1.993822 g / cm^3
# Si number density = 19.983704 Si / 1000 Ang^3
#
#
#
# Elastic Constant Matrix: (Units=GPa)
#
#
# Indices 1 2 3 4 5 6 
#
# 1 85.7045 31.5438 36.4775 0.0000 12.9439 0.0000
# 2 31.5438 87.0379 34.5069 0.0000 9.0358 0.0000
# 3 36.4775 34.5069 98.5098 0.0000 11.5042 0.0000
# 4 0.0000 0.0000 0.0000 25.4406 0.0000 -2.8722
# 5 12.9439 9.0358 11.5042 0.0000 41.0046 0.0000
# 6 0.0000 0.0000 0.0000 -2.8722 0.0000 32.8102
#
#
#
# Elastic Compliance Matrix: (Units=1/GPa)
#
#
# Indices 1 2 3 4 5 6 
#
# 1 0.015130 -0.003597 -0.004009 0.000000 -0.002859 0.000000
# 2 -0.003597 0.014311 -0.003562 0.000000 -0.001019 0.000000
# 3 -0.004009 -0.003562 0.013072 0.000000 -0.001617 0.000000
# 4 0.000000 0.000000 0.000000 0.039700 0.000000 0.003475
# 5 -0.002859 -0.001019 -0.001617 0.000000 0.025968 0.000000
# 6 0.000000 0.000000 0.000000 0.003475 0.000000 0.030783
#
#
# Mechanical properties :
#
#
# Convention : Reuss Voigt Hill
#
# Bulk Modulus (GPa) = 49.56046 52.92319 51.24182
# Shear Modulus (GPa) = 29.75755 31.09933 30.42844
#
# Velocity S-wave (km/s) = 3.86306 3.94919 3.90636
# Velocity P-wave (km/s) = 6.68969 6.88008 6.78555
#
# Compressibility (1/GPa) = 0.02017738
#
# Stress axis : x y z
#
# Youngs Moduli (GPa) = 66.09446 69.87698 76.49828
#
# Poissons Ratio (x) = 0.25137 0.30665
# Poissons Ratio (y) = 0.23776 0.27248
# Poissons Ratio (z) = 0.26494 0.24890
#
# Static dielectric constant tensor:
#      x y z
#    x 3.798610 0.000000 -0.045930 
#    y 0.000000 3.554570 0.000000 
#    z -0.045930 0.000000 3.835660 
# 
# 
# High freq. dielectric constant tensor:
#      x y z
#    x 1.786250 0.000000 -0.009470 
#    y 0.000000 1.752820 0.000000 
#    z -0.009470 0.000000 1.793870 
# 
# From -- ./inp_files/44892.got.cif
#   From: 2010.06.25/outbox.cif.g09.slc.cpg/sg15_23_cif.got.tgz:44892.got - 2010.06.28 07:06:18.
