data_PCOD8146551
_publ_section_title
;
Structure prediction by ZEFSAII (Michael W. Deem and Ramdas Pophale) SiO2 
 PCOD8146551
Probable space group: C 2/C
;
_chemical_formula_sum "Si O2"
_cell_formula_units_Z 56
_cell_length_a 16.470865
_cell_length_b 22.997815
_cell_length_c 13.214774
_cell_angle_alpha 90.000000
_cell_angle_beta 147.481688
_cell_angle_gamma 90.000000
_cell_volume 2690.896832
_symmetry_space_group_name_H-M "C 2/C"
_symmetry_group_IT_number 15
_symmetry_cell_setting 'monoclinic'
loop_
_space_group_symop_operation_xyz
x,y,z
-x,y,1/2-z
-x,-y,-z
x,-y,1/2+z
1/2+x,1/2+y,z
1/2-x,1/2+y,1/2-z
1/2-x,1/2-y,-z
1/2+x,1/2-y,1/2+z
loop_
_atom_site_type_symbol
_atom_site_label
_atom_site_fract_x
_atom_site_fract_y
_atom_site_fract_z
Si Si1 0.367644 0.071041 0.961014
Si Si2 0.840774 0.493054 0.233397
Si Si3 0.780026 0.683065 0.424821
Si Si4 0.247693 0.193559 0.162384
Si Si5 0.500000 0.273633 0.750000
Si Si6 0.827493 0.918798 0.046267
Si Si7 0.442392 0.196162 0.078671
Si Si8 0.500000 0.092236 0.750000
O O1 0.294844 0.036528 0.790906
O O2 0.270403 0.061430 0.959434
O O3 0.365929 0.140716 0.943238
O O4 0.537911 0.046010 0.142028
O O5 0.900695 0.444095 0.222531
O O6 0.685463 0.524450 0.038376
O O7 0.711107 0.678449 0.239631
O O8 0.625477 0.687201 0.326566
O O9 0.899334 0.735627 0.565908
O O10 0.875988 0.626647 0.554779
O O11 0.419593 0.214543 0.346419
O O12 0.231318 0.139407 0.069521
O O13 0.161983 0.248017 0.024806
O O14 0.000000 0.906530 0.250000
O O15 0.500000 0.177275 0.250000
#
# Coordination Sequence:
#
# PCOD8146551 Si02
#       8
#     8   8   8   8   4   8   8   4
#     4  11  23  44  72  97 131 174 228 280 331 399
#     4  11  23  45  74  95 124 180 233 277 335 401
#     4  10  22  41  67  99 135 175 229 271 342 397
#     4  12  25  40  67 101 135 181 219 270 336 410
#     4   9  20  44  66  92 144 178 215 296 328 388
#     4  12  26  45  65  99 143 174 219 283 335 401
#     4  12  23  41  65  98 138 174 219 271 330 399
#     4  11  22  42  70  98 126 172 229 280 334 402
#
# _framework density 20.810905000000002
#
# number of rings (size 3 to 8) (size 9 to 14) (size 15 to 20)
#    0.000    0.857    4.286    2.571    4.000    2.857 
#    3.857    0.000    0.000    0.000    0.000    0.000 
#    0.000    0.000    0.000    0.000    0.000    0.000 
#
# Total GULP energy -346948.498562 kJ/mol
# GULP energy per Si atom -12391.017806 kJ/mol
# Density = 2.076354 g / cm^3
# Si number density = 20.810905 Si / 1000 Ang^3
#
#
#
# Elastic Constant Matrix: (Units=GPa)
#
#
# Indices 1 2 3 4 5 6 
#
# 1 99.0903 53.2943 32.9798 0.0000 -14.7779 0.0000
# 2 53.2943 140.9243 43.3702 0.0000 -7.7972 0.0000
# 3 32.9798 43.3702 75.7480 0.0000 -1.0060 0.0000
# 4 0.0000 0.0000 0.0000 27.0245 0.0000 -9.3531
# 5 -14.7779 -7.7972 -1.0060 0.0000 31.7116 0.0000
# 6 0.0000 0.0000 0.0000 -9.3531 0.0000 -1.5446
#
#
#
# Elastic Compliance Matrix: (Units=1/GPa)
#
#
# Indices 1 2 3 4 5 6 
#
# 1 0.014333 -0.003900 -0.003933 0.000000 0.005596 0.000000
# 2 -0.003900 0.009799 -0.003906 0.000000 0.000468 0.000000
# 3 -0.003933 -0.003906 0.017121 0.000000 -0.002250 0.000000
# 4 0.000000 0.000000 0.000000 0.011953 0.000000 -0.072380
# 5 0.005596 0.000468 -0.002250 0.000000 0.034185 0.000000
# 6 0.000000 0.000000 0.000000 -0.072380 0.000000 -0.209132
#
#
# Mechanical properties :
#
#
# Convention : Reuss Voigt Hill
#
# Bulk Modulus (GPa) = 56.26257 63.89457 60.07857
# Shear Modulus (GPa) = -54.14932 23.84620 -15.15156
#
# Velocity S-wave (km/s) = -5.10648 3.38871 -2.70118
# Velocity P-wave (km/s) = 2.77027 6.78825 4.38212
#
# Compressibility (1/GPa) = 0.01777380
#
# Stress axis : x y z
#
# Youngs Moduli (GPa) = 69.76869 102.05035 58.40914
#
# Poissons Ratio (x) = 0.39804 0.22972
# Poissons Ratio (y) = 0.27213 0.22815
# Poissons Ratio (z) = 0.27439 0.39862
#
# Static dielectric constant tensor:
#      x y z
#    x 3.976440 0.000000 -0.249060 
#    y 0.000000 3.799080 0.000000 
#    z -0.249060 0.000000 4.072750 
# 
# 
# High freq. dielectric constant tensor:
#      x y z
#    x 1.822830 0.000000 -0.004230 
#    y 0.000000 1.821630 0.000000 
#    z -0.004230 0.000000 1.806240 
# 
# From -- ./inp_files/51602.got.cif
#   From: 2010.06.25/outbox.cif.g09.slc.cpg/sg15_26_cif.got.tgz:51602.got - 2010.06.28 07:06:18.
