data_PCOD8146591
_publ_section_title
;
Structure prediction by ZEFSAII (Michael W. Deem and Ramdas Pophale) SiO2 
 PCOD8146591
Probable space group: C 2/C
;
_chemical_formula_sum "Si O2"
_cell_formula_units_Z 60
_cell_length_a 26.815835
_cell_length_b 12.570650
_cell_length_c 17.008519
_cell_angle_alpha 90.000000
_cell_angle_beta 28.279853
_cell_angle_gamma 90.000000
_cell_volume 2716.382834
_symmetry_space_group_name_H-M "C 2/C"
_symmetry_group_IT_number 15
_symmetry_cell_setting 'monoclinic'
loop_
_space_group_symop_operation_xyz
x,y,z
-x,y,1/2-z
-x,-y,-z
x,-y,1/2+z
1/2+x,1/2+y,z
1/2-x,1/2+y,1/2-z
1/2-x,1/2-y,-z
1/2+x,1/2-y,1/2+z
loop_
_atom_site_type_symbol
_atom_site_label
_atom_site_fract_x
_atom_site_fract_y
_atom_site_fract_z
Si Si1 0.582054 0.335835 0.242296
Si Si2 0.879603 0.470469 0.168254
Si Si3 0.101654 0.033001 0.309042
Si Si4 0.000000 0.360506 0.250000
Si Si5 0.372431 0.250615 0.487575
Si Si6 0.056730 0.272887 0.333362
Si Si7 0.155015 0.303722 0.776489
Si Si8 0.830674 0.480794 0.055859
O O1 0.590711 0.461815 0.245687
O O2 0.464069 0.287010 0.420251
O O3 0.617609 0.320262 0.104567
O O4 0.655709 0.274100 0.201187
O O5 0.863596 0.362106 0.240541
O O6 0.829183 0.575635 0.278006
O O7 0.833921 0.460788 0.144564
O O8 0.000000 0.500000 0.000000
O O9 0.102910 0.156827 0.285643
O O10 0.209913 0.004614 0.202712
O O11 0.000000 0.000000 0.500000
O O12 0.949911 0.287919 0.251230
O O13 0.907192 0.427836 0.418809
O O14 0.258842 0.275234 0.683881
O O15 0.377785 0.127618 0.454062
O O16 0.942641 0.286326 0.530644
#
# Coordination Sequence:
#
# PCOD8146591 Si02
#       8
#     8   8   8   4   8   8   8   8
#     4  11  24  42  68 104 137 176 225 292 355 404
#     4  10  22  41  69 105 129 178 236 286 346 411
#     4  12  27  47  70 102 149 187 232 288 353 434
#     4  12  26  44  72 104 146 194 238 290 348 436
#     4  11  24  40  73 104 133 176 233 295 348 416
#     4  11  25  47  70 102 147 185 236 289 352 427
#     4  11  21  43  68 100 135 174 230 288 348 411
#     4  12  25  43  74 105 138 184 238 294 359 405
#
# _framework density 22.088197999999998
#
# number of rings (size 3 to 8) (size 9 to 14) (size 15 to 20)
#    0.000    0.800    5.333    2.800    3.733    1.600 
#    2.400    0.000    0.000    0.000    0.000    0.000 
#    0.000    0.000    0.000    0.000    0.000    0.000 
#
# Total GULP energy -371836.919455 kJ/mol
# GULP energy per Si atom -12394.563982 kJ/mol
# Density = 2.203792 g / cm^3
# Si number density = 22.088198 Si / 1000 Ang^3
#
#
#
# Elastic Constant Matrix: (Units=GPa)
#
#
# Indices 1 2 3 4 5 6 
#
# 1 131.5129 63.2629 33.6720 0.0000 -8.6954 0.0000
# 2 63.2629 191.2421 20.4414 0.0000 -3.8389 0.0000
# 3 33.6720 20.4414 54.3659 0.0000 -22.9885 0.0000
# 4 0.0000 0.0000 0.0000 22.0241 0.0000 -1.6647
# 5 -8.6954 -3.8389 -22.9885 0.0000 44.5629 0.0000
# 6 0.0000 0.0000 0.0000 -1.6647 0.0000 38.4321
#
#
#
# Elastic Compliance Matrix: (Units=1/GPa)
#
#
# Indices 1 2 3 4 5 6 
#
# 1 0.010396 -0.002833 -0.005908 0.000000 -0.001263 0.000000
# 2 -0.002833 0.006240 -0.000765 0.000000 -0.000410 0.000000
# 3 -0.005908 -0.000765 0.027914 0.000000 0.013181 0.000000
# 4 0.000000 0.000000 0.000000 0.045554 0.000000 0.001973
# 5 -0.001263 -0.000410 0.013181 0.000000 0.028958 0.000000
# 6 0.000000 0.000000 0.000000 0.001973 0.000000 0.026105
#
#
# Mechanical properties :
#
#
# Convention : Reuss Voigt Hill
#
# Bulk Modulus (GPa) = 39.15609 67.98594 53.57102
# Shear Modulus (GPa) = 28.95364 38.32012 33.63688
#
# Velocity S-wave (km/s) = 3.62445 4.16969 3.90660
# Velocity P-wave (km/s) = 5.93980 7.35037 6.68241
#
# Compressibility (1/GPa) = 0.02553881
#
# Stress axis : x y z
#
# Youngs Moduli (GPa) = 96.19544 160.26735 35.82433
#
# Poissons Ratio (x) = 0.45400 0.21163
# Poissons Ratio (y) = 0.27250 0.02740
# Poissons Ratio (z) = 0.56828 0.12258
#
# Static dielectric constant tensor:
#      x y z
#    x 4.230110 0.000000 -0.325130 
#    y 0.000000 4.682080 0.000000 
#    z -0.325130 0.000000 3.894610 
# 
# 
# High freq. dielectric constant tensor:
#      x y z
#    x 1.872040 0.000000 -0.018540 
#    y 0.000000 1.885840 0.000000 
#    z -0.018540 0.000000 1.854220 
# 
# From -- ./inp_files/222528.got.cif
#   From: 2010.06.25/outbox.cif.g09.slc.cpg/sg15_112_cif.got.tgz:222528.got - 2010.06.28 07:06:18.
