data_PCOD8146144
_publ_section_title
;
Structure prediction by ZEFSAII (Michael W. Deem and Ramdas Pophale) SiO2 
 PCOD8146144
Probable space group: C 2/C
;
_chemical_formula_sum "Si O2"
_cell_formula_units_Z 64
_cell_length_a 27.787449
_cell_length_b 9.507041
_cell_length_c 17.803470
_cell_angle_alpha 90.000000
_cell_angle_beta 38.726086
_cell_angle_gamma 90.000000
_cell_volume 2942.347700
_symmetry_space_group_name_H-M "C 2/C"
_symmetry_group_IT_number 15
_symmetry_cell_setting 'monoclinic'
loop_
_space_group_symop_operation_xyz
x,y,z
-x,y,1/2-z
-x,-y,-z
x,-y,1/2+z
1/2+x,1/2+y,z
1/2-x,1/2+y,1/2-z
1/2-x,1/2-y,-z
1/2+x,1/2-y,1/2+z
loop_
_atom_site_type_symbol
_atom_site_label
_atom_site_fract_x
_atom_site_fract_y
_atom_site_fract_z
Si Si1 0.022509 0.996923 0.588649
Si Si2 0.695559 0.096170 0.613789
Si Si3 0.873418 0.358486 0.716300
Si Si4 0.980692 0.299112 0.858206
Si Si5 0.625291 0.553250 0.830530
Si Si6 0.027006 0.291356 0.296145
Si Si7 0.599114 0.956100 0.977063
Si Si8 0.243092 0.639073 0.393129
O O1 0.099868 0.955667 0.448713
O O2 0.995150 0.872666 0.676300
O O3 0.041677 0.135049 0.614203
O O4 0.951867 0.029686 0.621033
O O5 0.616479 0.181453 0.698409
O O6 0.744411 0.193490 0.611241
O O7 0.737124 0.071855 0.483545
O O8 0.687852 0.940700 0.657727
O O9 0.840172 0.208215 0.729247
O O10 0.887073 0.460926 0.628672
O O11 0.949293 0.335651 0.672438
O O12 0.000000 0.346011 0.750000
O O13 0.908300 0.387681 0.978517
O O14 0.687794 0.435056 0.735836
O O15 0.000000 0.356003 0.250000
O O16 0.981046 0.372248 0.416971
O O17 0.666204 0.875091 0.938841
#
# Coordination Sequence:
#
# PCOD8146144 Si02
#       8
#     8   8   8   8   8   8   8   8
#     4  10  22  40  67  97 126 172 222 273 331 394
#     4  11  24  42  68  99 131 182 223 272 337 406
#     4  11  24  41  68  97 130 176 225 270 330 400
#     4  11  23  41  66 101 131 168 223 276 330 394
#     4  10  22  42  65  92 134 172 216 275 333 397
#     4  12  21  41  70  99 131 173 225 284 324 398
#     4  12  24  40  67 101 133 171 223 279 332 398
#     4  11  25  44  65  96 140 176 220 276 344 398
#
# _framework density 21.751336999999999
#
# number of rings (size 3 to 8) (size 9 to 14) (size 15 to 20)
#    0.000    1.000    5.000    1.875    1.750    1.500 
#    0.000    0.000    0.000    0.000    0.000    0.000 
#    0.000    0.000    0.000    0.000    0.000    0.000 
#
# Total GULP energy -396826.341363 kJ/mol
# GULP energy per Si atom -12400.823168 kJ/mol
# Density = 2.170183 g / cm^3
# Si number density = 21.751337 Si / 1000 Ang^3
#
#
#
# Elastic Constant Matrix: (Units=GPa)
#
#
# Indices 1 2 3 4 5 6 
#
# 1 62.7992 8.5619 5.3677 0.0009 6.9437 0.0002
# 2 8.5619 110.0874 20.4657 0.0035 0.8394 -0.0018
# 3 5.3677 20.4657 75.0119 0.0022 2.7225 -0.0009
# 4 0.0009 0.0035 0.0022 27.5247 -0.0016 15.9279
# 5 6.9437 0.8394 2.7225 -0.0016 29.1699 0.0009
# 6 0.0002 -0.0018 -0.0009 15.9279 0.0009 9.7618
#
#
#
# Elastic Compliance Matrix: (Units=1/GPa)
#
#
# Indices 1 2 3 4 5 6 
#
# 1 0.016565 -0.001121 -0.000740 -0.000007 -0.003842 0.000010
# 2 -0.001121 0.009645 -0.002560 -0.000034 0.000228 0.000056
# 3 -0.000740 -0.002560 0.014121 -0.000025 -0.001068 0.000042
# 4 -0.000007 -0.000034 -0.000025 0.651064 0.000071 -1.062309
# 5 -0.003842 0.000228 -0.001068 0.000071 0.035290 -0.000119
# 6 0.000010 0.000056 0.000042 -1.062309 -0.000119 1.835757
#
#
# Mechanical properties :
#
#
# Convention : Reuss Voigt Hill
#
# Bulk Modulus (GPa) = 31.75694 35.18767 33.47231
# Shear Modulus (GPa) = 1.93665 27.52483 14.73074
#
# Velocity S-wave (km/s) = 0.94461 3.56115 2.60519
# Velocity P-wave (km/s) = 3.97761 5.75512 4.94686
#
# Compressibility (1/GPa) = 0.03148918
#
# Stress axis : x y z
#
# Youngs Moduli (GPa) = 60.36933 103.68072 70.81521
#
# Poissons Ratio (x) = 0.11627 0.05240
# Poissons Ratio (y) = 0.06770 0.18125
# Poissons Ratio (z) = 0.04467 0.26537
#
# Static dielectric constant tensor:
#      x y z
#    x 3.674490 0.000000 0.111090 
#    y 0.000000 4.231030 0.000010 
#    z 0.111090 0.000010 4.098230 
# 
# 
# High freq. dielectric constant tensor:
#      x y z
#    x 1.839560 0.000000 0.014500 
#    y 0.000000 1.863340 0.000000 
#    z 0.014500 0.000000 1.854910 
# 
# From -- ./inp_files/224609.got.cif
#   From: 2010.06.25/outbox.cif.g09.slc.cpg/sg15_113_cif.got.tgz:224609.got - 2010.06.28 07:06:18.
