data_PCOD8146486
_publ_section_title
;
Structure prediction by ZEFSAII (Michael W. Deem and Ramdas Pophale) SiO2 
 PCOD8146486
Probable space group: C 2/C
;
_chemical_formula_sum "Si O2"
_cell_formula_units_Z 32
_cell_length_a 14.063819
_cell_length_b 5.094138
_cell_length_c 19.527765
_cell_angle_alpha 90.000000
_cell_angle_beta 102.426517
_cell_angle_gamma 90.000000
_cell_volume 1366.253020
_symmetry_space_group_name_H-M "C 2/C"
_symmetry_group_IT_number 15
_symmetry_cell_setting 'monoclinic'
loop_
_space_group_symop_operation_xyz
x,y,z
-x,y,1/2-z
-x,-y,-z
x,-y,1/2+z
1/2+x,1/2+y,z
1/2-x,1/2+y,1/2-z
1/2-x,1/2-y,-z
1/2+x,1/2-y,1/2+z
loop_
_atom_site_type_symbol
_atom_site_label
_atom_site_fract_x
_atom_site_fract_y
_atom_site_fract_z
Si Si1 0.873124 0.013166 0.908300
Si Si2 0.841084 0.668593 0.120423
Si Si3 0.814076 0.205913 0.760978
Si Si4 0.417642 0.670020 0.057739
O O1 0.879382 0.185725 0.839668
O O2 0.776500 0.834569 0.895416
O O3 0.877358 0.209992 0.974249
O O4 0.965407 0.818562 0.924777
O O5 0.878334 0.718452 0.204126
O O6 0.877901 0.386537 0.102506
O O7 0.879981 0.885564 0.075155
O O8 0.732237 0.422882 0.762306
#
# Coordination Sequence:
#
# PCOD8146486 Si02
#       4
#     8   8   8   8
#     4  10  24  44  66  96 133 165 213 268 316 377
#     4  11  23  43  65  94 130 169 212 261 319 379
#     4  10  22  41  66  92 128 173 210 260 322 374
#     4  11  25  41  69  98 125 170 214 261 322 378
#
# _framework density 23.421724000000001
#
# number of rings (size 3 to 8) (size 9 to 14) (size 15 to 20)
#    0.000    1.500    0.000    4.500    0.000   15.000 
#    0.000    7.500    0.000    0.000    0.000    0.000 
#    0.000    0.000    0.000    0.000    0.000    0.000 
#
# Total GULP energy -198426.683341 kJ/mol
# GULP energy per Si atom -12401.667709 kJ/mol
# Density = 2.336841 g / cm^3
# Si number density = 23.421724 Si / 1000 Ang^3
#
#
#
# Elastic Constant Matrix: (Units=GPa)
#
#
# Indices 1 2 3 4 5 6 
#
# 1 91.3435 19.8157 27.4526 0.0000 -12.3064 0.0000
# 2 19.8157 75.6039 24.4813 0.0000 1.1538 0.0000
# 3 27.4526 24.4813 207.8630 0.0000 3.9475 0.0000
# 4 0.0000 0.0000 0.0000 31.7532 0.0000 -5.3345
# 5 -12.3064 1.1538 3.9475 0.0000 25.0816 0.0000
# 6 0.0000 0.0000 0.0000 -5.3345 0.0000 10.5182
#
#
#
# Elastic Compliance Matrix: (Units=1/GPa)
#
#
# Indices 1 2 3 4 5 6 
#
# 1 0.012955 -0.003018 -0.001483 0.000000 0.006729 0.000000
# 2 -0.003018 0.014458 -0.001267 0.000000 -0.001946 0.000000
# 3 -0.001483 -0.001267 0.005184 0.000000 -0.001485 0.000000
# 4 0.000000 0.000000 0.000000 0.034426 0.000000 0.017460
# 5 0.006729 -0.001946 -0.001485 0.000000 0.043495 0.000000
# 6 0.000000 0.000000 0.000000 0.017460 0.000000 0.103929
#
#
# Mechanical properties :
#
#
# Convention : Reuss Voigt Hill
#
# Bulk Modulus (GPa) = 47.48328 57.58995 52.53661
# Shear Modulus (GPa) = 21.45895 33.67463 27.56679
#
# Velocity S-wave (km/s) = 3.03016 3.79588 3.43443
# Velocity P-wave (km/s) = 5.70611 6.62218 6.18114
#
# Compressibility (1/GPa) = 0.02106004
#
# Stress axis : x y z
#
# Youngs Moduli (GPa) = 77.19236 69.16665 192.89294
#
# Poissons Ratio (x) = 0.20873 0.28612
# Poissons Ratio (y) = 0.23295 0.24445
# Poissons Ratio (z) = 0.11450 0.08765
#
# Static dielectric constant tensor:
#      x y z
#    x 4.091470 0.000000 -0.048860 
#    y 0.000000 3.894340 0.000000 
#    z -0.048860 0.000000 4.830670 
# 
# 
# High freq. dielectric constant tensor:
#      x y z
#    x 1.912560 0.000000 -0.009750 
#    y 0.000000 1.915180 0.000000 
#    z -0.009750 0.000000 1.957490 
# 
# From -- ./inp_files/201863.got.cif
#   From: 2010.06.25/outbox.cif.g09.slc.cpg/sg15_101_cif.got.tgz:201863.got - 2010.06.28 07:06:18.
