data_PCOD8146442
_publ_section_title
;
Structure prediction by ZEFSAII (Michael W. Deem and Ramdas Pophale) SiO2 
 PCOD8146442
Probable space group: C 2/C
;
_chemical_formula_sum "Si O2"
_cell_formula_units_Z 32
_cell_length_a 10.250568
_cell_length_b 13.682234
_cell_length_c 26.630141
_cell_angle_alpha 90.000000
_cell_angle_beta 157.492564
_cell_angle_gamma 90.000000
_cell_volume 1429.730298
_symmetry_space_group_name_H-M "C 2/C"
_symmetry_group_IT_number 15
_symmetry_cell_setting 'monoclinic'
loop_
_space_group_symop_operation_xyz
x,y,z
-x,y,1/2-z
-x,-y,-z
x,-y,1/2+z
1/2+x,1/2+y,z
1/2-x,1/2+y,1/2-z
1/2-x,1/2-y,-z
1/2+x,1/2-y,1/2+z
loop_
_atom_site_type_symbol
_atom_site_label
_atom_site_fract_x
_atom_site_fract_y
_atom_site_fract_z
Si Si1 0.697979 0.662147 0.443484
Si Si2 0.758926 0.491889 0.209713
Si Si3 0.716997 0.158114 0.547778
Si Si4 0.922267 0.649567 0.339642
O O1 0.750000 0.750000 0.500000
O O2 0.533171 0.568684 0.413395
O O3 0.442918 0.694428 0.307331
O O4 0.053482 0.631072 0.543516
O O5 0.574645 0.397945 0.167930
O O6 0.983843 0.546540 0.332451
O O7 0.000000 0.458302 0.250000
O O8 0.448409 0.130137 0.408377
O O9 0.781854 0.274391 0.570578
#
# Coordination Sequence:
#
# PCOD8146442 Si02
#       4
#     8   8   8   8
#     4  10  22  41  65  93 130 167 221 265 323 387
#     4  10  23  40  63  99 130 173 222 265 322 392
#     4  11  21  42  67  92 133 176 213 274 329 386
#     4   9  24  39  63  96 131 167 222 265 333 374
#
# _framework density 22.381844000000001
#
# number of rings (size 3 to 8) (size 9 to 14) (size 15 to 20)
#    1.500    0.500    0.000    3.000    0.000    7.000 
#    0.000    0.000    0.000    0.000    0.000    0.000 
#    0.000    0.000    0.000    0.000    0.000    0.000 
#
# Total GULP energy -198255.343491 kJ/mol
# GULP energy per Si atom -12390.958968 kJ/mol
# Density = 2.233090 g / cm^3
# Si number density = 22.381844 Si / 1000 Ang^3
#
#
#
# Elastic Constant Matrix: (Units=GPa)
#
#
# Indices 1 2 3 4 5 6 
#
# 1 150.8127 42.9672 52.2522 0.0022 32.0776 0.0026
# 2 42.9672 66.3272 31.4969 -0.0021 -2.3216 0.0019
# 3 52.2522 31.4969 74.0597 -0.0028 4.2237 0.0091
# 4 0.0022 -0.0021 -0.0028 33.8593 -0.0052 1.5146
# 5 32.0776 -2.3216 4.2237 -0.0052 42.3284 0.0045
# 6 0.0026 0.0019 0.0091 1.5146 0.0045 33.1783
#
#
#
# Elastic Compliance Matrix: (Units=1/GPa)
#
#
# Indices 1 2 3 4 5 6 
#
# 1 0.012014 -0.005396 -0.005678 -0.000003 -0.008834 0.000002
# 2 -0.005396 0.021460 -0.005652 0.000002 0.005830 0.000000
# 3 -0.005678 -0.005652 0.019798 0.000002 0.002017 -0.000005
# 4 -0.000003 0.000002 0.000002 0.029594 0.000006 -0.001351
# 5 -0.008834 0.005830 0.002017 0.000006 0.030438 -0.000005
# 6 0.000002 0.000000 -0.000005 -0.001351 -0.000005 0.030202
#
#
# Mechanical properties :
#
#
# Convention : Reuss Voigt Hill
#
# Bulk Modulus (GPa) = 50.45457 60.51469 55.48463
# Shear Modulus (GPa) = 27.23818 32.83874 30.03846
#
# Velocity S-wave (km/s) = 3.49230 3.83457 3.66743
# Velocity P-wave (km/s) = 6.23323 6.83383 6.54043
#
# Compressibility (1/GPa) = 0.01981981
#
# Stress axis : x y z
#
# Youngs Moduli (GPa) = 83.23414 46.59724 50.51128
#
# Poissons Ratio (x) = 0.25143 0.28680
# Poissons Ratio (y) = 0.44912 0.28551
# Poissons Ratio (z) = 0.47260 0.26339
#
# Static dielectric constant tensor:
#      x y z
#    x 3.720660 0.000010 -0.046060 
#    y 0.000010 3.782710 -0.000030 
#    z -0.046060 -0.000030 3.840430 
# 
# 
# High freq. dielectric constant tensor:
#      x y z
#    x 1.869150 0.000000 0.003360 
#    y 0.000000 1.874720 0.000000 
#    z 0.003360 0.000000 1.868770 
# 
# From -- ./inp_files/85884.got.cif
#   From: 2010.06.25/outbox.cif.g09.slc.cpg/sg15_43_cif.got.tgz:85884.got - 2010.06.28 07:06:18.
