data_PCOD8146358
_publ_section_title
;
Structure prediction by ZEFSAII (Michael W. Deem and Ramdas Pophale) SiO2 
 PCOD8146358
Probable space group: C 2/C
;
_chemical_formula_sum "Si O2"
_cell_formula_units_Z 56
_cell_length_a 19.721802
_cell_length_b 5.539870
_cell_length_c 24.864378
_cell_angle_alpha 90.000000
_cell_angle_beta 121.661943
_cell_angle_gamma 90.000000
_cell_volume 2312.250852
_symmetry_space_group_name_H-M "C 2/C"
_symmetry_group_IT_number 15
_symmetry_cell_setting 'monoclinic'
loop_
_space_group_symop_operation_xyz
x,y,z
-x,y,1/2-z
-x,-y,-z
x,-y,1/2+z
1/2+x,1/2+y,z
1/2-x,1/2+y,1/2-z
1/2-x,1/2-y,-z
1/2+x,1/2-y,1/2+z
loop_
_atom_site_type_symbol
_atom_site_label
_atom_site_fract_x
_atom_site_fract_y
_atom_site_fract_z
Si Si1 0.192113 0.809095 0.404579
Si Si2 0.414229 0.680321 0.093098
Si Si3 0.505832 0.354292 0.056827
Si Si4 0.852970 0.562137 0.003332
Si Si5 0.920112 0.527740 0.694014
Si Si6 0.338351 0.741692 0.252499
Si Si7 0.155503 0.741869 0.181520
O O1 0.179097 0.668763 0.454409
O O2 0.285483 0.869427 0.431183
O O3 0.153492 0.661667 0.339130
O O4 0.147600 0.060561 0.391865
O O5 0.484317 0.511237 0.100826
O O6 0.365367 0.777396 0.020220
O O7 0.448349 0.891430 0.145538
O O8 0.439948 0.147743 0.021814
O O9 0.593715 0.246718 0.105060
O O10 0.500000 0.500000 0.000000
O O11 0.891565 0.747012 0.720546
O O12 0.000000 0.401332 0.750000
O O13 0.359349 0.987759 0.294186
O O14 0.245394 0.744403 0.196889
O O15 0.358787 0.487691 0.289890
#
# Coordination Sequence:
#
# PCOD8146358 Si02
#       7
#     8   8   8   8   8   8   8
#     4   9  20  38  62  90 133 161 218 275 345 408
#     4  10  22  41  63  94 131 175 222 290 341 422
#     4  11  25  41  67  95 135 179 227 284 347 415
#     4   9  20  40  61  91 125 173 214 278 338 408
#     4  11  24  37  66  98 128 171 223 284 349 407
#     4  10  24  46  72  96 137 184 227 285 344 414
#     4  10  24  47  69  98 138 181 232 282 338 416
#
# _framework density 24.218824000000001
#
# number of rings (size 3 to 8) (size 9 to 14) (size 15 to 20)
#    0.000    2.000    0.000    1.286   12.000    2.286 
#    0.000    0.000    0.000    0.000    0.000    0.000 
#    0.000    0.000    0.000    0.000    0.000    0.000 
#
# Total GULP energy -346892.814663 kJ/mol
# GULP energy per Si atom -12389.029095 kJ/mol
# Density = 2.416370 g / cm^3
# Si number density = 24.218824 Si / 1000 Ang^3
#
#
#
# Elastic Constant Matrix: (Units=GPa)
#
#
# Indices 1 2 3 4 5 6 
#
# 1 76.2201 -3.5955 36.9964 -0.0006 22.5216 0.0007
# 2 -3.5955 86.2098 15.9777 -0.0026 2.9878 0.0021
# 3 36.9964 15.9777 99.7579 -0.0012 36.2590 0.0005
# 4 -0.0006 -0.0026 -0.0012 18.0306 -0.0001 -2.9360
# 5 22.5216 2.9878 36.2590 -0.0001 44.6259 -0.0001
# 6 0.0007 0.0021 0.0005 -2.9360 -0.0001 22.4275
#
#
#
# Elastic Compliance Matrix: (Units=1/GPa)
#
#
# Indices 1 2 3 4 5 6 
#
# 1 0.016957 0.001770 -0.004851 0.000000 -0.004735 -0.000001
# 2 0.001770 0.012176 -0.002818 0.000002 0.000581 -0.000001
# 3 -0.004851 -0.002818 0.016059 0.000000 -0.010411 0.000000
# 4 0.000000 0.000002 0.000000 0.056669 0.000000 0.007419
# 5 -0.004735 0.000581 -0.010411 0.000000 0.033218 0.000000
# 6 -0.000001 -0.000001 0.000000 0.007419 0.000000 0.045559
#
#
# Mechanical properties :
#
#
# Convention : Reuss Voigt Hill
#
# Bulk Modulus (GPa) = 29.94549 40.10500 35.02524
# Shear Modulus (GPa) = 24.56192 31.20409 27.88300
#
# Velocity S-wave (km/s) = 3.18805 3.59336 3.39675
# Velocity P-wave (km/s) = 5.09342 5.81478 5.46601
#
# Compressibility (1/GPa) = 0.03339401
#
# Stress axis : x y z
#
# Youngs Moduli (GPa) = 58.97181 82.13181 62.27098
#
# Poissons Ratio (x) = -0.14541 0.30211
# Poissons Ratio (y) = -0.10441 0.17547
# Poissons Ratio (z) = 0.28610 0.23143
#
# Static dielectric constant tensor:
#      x y z
#    x 4.367550 0.000000 0.350900 
#    y 0.000000 4.533970 0.000000 
#    z 0.350900 0.000000 4.391720 
# 
# 
# High freq. dielectric constant tensor:
#      x y z
#    x 1.953040 0.000000 0.020210 
#    y 0.000000 1.960920 0.000000 
#    z 0.020210 0.000000 1.957110 
# 
# From -- ./inp_files/299981.got.cif
#   From: 2010.06.25/outbox.cif.g09.slc.cpg/sg15_150_cif.got.tgz:299981.got - 2010.06.28 07:06:18.
