data_PCOD8146578
_publ_section_title
;
Structure prediction by ZEFSAII (Michael W. Deem and Ramdas Pophale) SiO2 
 PCOD8146578
Probable space group: C 2/C
;
_chemical_formula_sum "Si O2"
_cell_formula_units_Z 52
_cell_length_a 15.566093
_cell_length_b 26.088703
_cell_length_c 5.236692
_cell_angle_alpha 90.000000
_cell_angle_beta 87.109350
_cell_angle_gamma 90.000000
_cell_volume 2123.910406
_symmetry_space_group_name_H-M "C 2/C"
_symmetry_group_IT_number 15
_symmetry_cell_setting 'monoclinic'
loop_
_space_group_symop_operation_xyz
x,y,z
-x,y,1/2-z
-x,-y,-z
x,-y,1/2+z
1/2+x,1/2+y,z
1/2-x,1/2+y,1/2-z
1/2-x,1/2-y,-z
1/2+x,1/2-y,1/2+z
loop_
_atom_site_type_symbol
_atom_site_label
_atom_site_fract_x
_atom_site_fract_y
_atom_site_fract_z
Si Si1 0.385755 0.226553 0.048679
Si Si2 0.551037 0.881570 0.980293
Si Si3 0.000000 0.800202 0.750000
Si Si4 0.869652 0.519781 0.887515
Si Si5 0.327326 0.356749 0.723885
Si Si6 0.762957 0.195592 0.749170
Si Si7 0.177663 0.022759 0.342914
O O1 0.414316 0.171322 0.145333
O O2 0.466948 0.263250 0.981963
O O3 0.332766 0.216848 0.791411
O O4 0.324267 0.254224 0.265567
O O5 0.500000 0.871121 0.250000
O O6 0.500000 0.906731 0.750000
O O7 0.629565 0.920023 0.037962
O O8 0.076357 0.836233 0.842771
O O9 0.917788 0.487894 0.107722
O O10 0.775259 0.497811 0.843692
O O11 0.264731 0.336743 0.508401
O O12 0.327315 0.417597 0.712294
O O13 0.293784 0.338687 0.003661
O O14 0.131335 0.007227 0.614847
#
# Coordination Sequence:
#
# PCOD8146578 Si02
#       7
#     8   8   4   8   8   8   8
#     4  10  24  44  68 102 141 181 228 277 335 407
#     4  12  27  41  65  96 139 180 221 269 344 407
#     4  10  24  46  68 104 146 174 216 288 348 408
#     4  10  23  41  64  89 126 176 222 279 322 385
#     4  11  24  44  74 103 136 182 223 280 347 398
#     4  10  25  42  71 100 138 179 236 274 329 409
#     4  10  22  41  68  98 127 169 228 279 328 389
#
# _framework density 24.483143999999999
#
# number of rings (size 3 to 8) (size 9 to 14) (size 15 to 20)
#    0.000    1.538    0.769    1.846   10.769   10.462 
#    0.000    0.769    0.000    0.000    0.000    0.000 
#    0.000    0.000    0.000    0.000    0.000    0.000 
#
# Total GULP energy -322257.952583 kJ/mol
# GULP energy per Si atom -12394.536638 kJ/mol
# Density = 2.442742 g / cm^3
# Si number density = 24.483144 Si / 1000 Ang^3
#
#
#
# Elastic Constant Matrix: (Units=GPa)
#
#
# Indices 1 2 3 4 5 6 
#
# 1 69.0019 18.6298 -4.6996 0.0000 5.3405 0.0000
# 2 18.6298 234.8059 68.1242 0.0000 7.1694 0.0000
# 3 -4.6996 68.1242 173.7574 0.0000 5.6456 0.0000
# 4 0.0000 0.0000 0.0000 31.2138 0.0000 -0.5187
# 5 5.3405 7.1694 5.6456 0.0000 12.8073 0.0000
# 6 0.0000 0.0000 0.0000 -0.5187 0.0000 32.2075
#
#
#
# Elastic Compliance Matrix: (Units=1/GPa)
#
#
# Indices 1 2 3 4 5 6 
#
# 1 0.015419 -0.001370 0.001155 0.000000 -0.006171 0.000000
# 2 -0.001370 0.004973 -0.001943 0.000000 -0.001356 0.000000
# 3 0.001155 -0.001943 0.006623 0.000000 -0.002314 0.000000
# 4 0.000000 0.000000 0.000000 0.032046 0.000000 0.000516
# 5 -0.006171 -0.001356 -0.002314 0.000000 0.082433 0.000000
# 6 0.000000 0.000000 0.000000 0.000516 0.000000 0.031057
#
#
# Mechanical properties :
#
#
# Convention : Reuss Voigt Hill
#
# Bulk Modulus (GPa) = 44.05561 71.29711 57.67636
# Shear Modulus (GPa) = 27.11036 41.61311 34.36174
#
# Velocity S-wave (km/s) = 3.33123 4.12717 3.75038
# Velocity P-wave (km/s) = 5.72970 7.20385 6.50865
#
# Compressibility (1/GPa) = 0.02269859
#
# Stress axis : x y z
#
# Youngs Moduli (GPa) = 64.85711 201.10541 150.98546
#
# Poissons Ratio (x) = 0.27549 -0.17433
# Poissons Ratio (y) = 0.08885 0.29330
# Poissons Ratio (z) = -0.07489 0.39066
#
# Static dielectric constant tensor:
#      x y z
#    x 4.128800 0.000000 0.805320 
#    y 0.000000 4.502960 0.000000 
#    z 0.805320 0.000000 -0.192240 
# 
# 
# High freq. dielectric constant tensor:
#      x y z
#    x 1.942790 0.000000 0.002540 
#    y 0.000000 1.985570 0.000000 
#    z 0.002540 0.000000 1.989300 
# 
# From -- ./inp_files/11307.got.cif
#   From: 2010.06.25/outbox.cif.g09.slc.cpg/sg15_6_cif.got.tgz:11307.got - 2010.06.28 07:06:18.
