data_PCOD8146610
_publ_section_title
;
Structure prediction by ZEFSAII (Michael W. Deem and Ramdas Pophale) SiO2 
 PCOD8146610
Probable space group: C 2/C
;
_chemical_formula_sum "Si O2"
_cell_formula_units_Z 52
_cell_length_a 6.800761
_cell_length_b 25.552577
_cell_length_c 16.988494
_cell_angle_alpha 90.000000
_cell_angle_beta 119.861876
_cell_angle_gamma 90.000000
_cell_volume 2560.239029
_symmetry_space_group_name_H-M "C 2/C"
_symmetry_group_IT_number 15
_symmetry_cell_setting 'monoclinic'
loop_
_space_group_symop_operation_xyz
x,y,z
-x,y,1/2-z
-x,-y,-z
x,-y,1/2+z
1/2+x,1/2+y,z
1/2-x,1/2+y,1/2-z
1/2-x,1/2-y,-z
1/2+x,1/2-y,1/2+z
loop_
_atom_site_type_symbol
_atom_site_label
_atom_site_fract_x
_atom_site_fract_y
_atom_site_fract_z
Si Si1 0.075611 0.604311 0.542001
Si Si2 0.929356 0.896081 0.604103
Si Si3 0.000000 0.027834 0.250000
Si Si4 0.595614 0.960145 0.191199
Si Si5 0.431435 0.721005 0.146598
Si Si6 0.431179 0.777637 0.482099
Si Si7 0.284220 0.536977 0.446543
O O1 0.154413 0.586291 0.643602
O O2 0.155260 0.662851 0.540867
O O3 0.196678 0.563485 0.508722
O O4 0.801977 0.604384 0.491257
O O5 0.871048 0.935628 0.662672
O O6 0.999997 0.839504 0.650593
O O7 0.145109 0.916039 0.597597
O O8 0.178775 0.991611 0.240316
O O9 0.500000 0.932538 0.250000
O O10 0.420494 0.002711 0.124877
O O11 0.500000 0.738694 0.250000
O O12 0.561616 0.754309 0.105214
O O13 0.165235 0.728141 0.076810
O O14 0.250000 0.750000 0.500000
O O15 0.500000 0.500000 0.500000
#
# Coordination Sequence:
#
# PCOD8146610 Si02
#       7
#     8   8   4   8   8   8   8
#     4  11  24  41  63  88 126 172 207 251 318 374
#     4  11  21  38  65  93 125 161 206 258 312 367
#     4  12  22  38  58  94 132 156 208 258 296 372
#     4  12  25  38  57  92 128 170 209 250 306 369
#     4  10  22  41  69  98 125 161 214 273 324 373
#     4  10  23  45  66  94 128 165 216 268 322 387
#     4  12  22  38  62  88 122 168 211 247 306 375
#
# _framework density 20.310604000000001
#
# number of rings (size 3 to 8) (size 9 to 14) (size 15 to 20)
#    0.000    0.923    5.385    2.308    0.000    1.231 
#    0.000    1.538    0.000    0.000    0.000    0.000 
#    0.000    0.000    0.000    0.000    0.000    0.000 
#
# Total GULP energy -322354.686207 kJ/mol
# GULP energy per Si atom -12398.257162 kJ/mol
# Density = 2.026438 g / cm^3
# Si number density = 20.310604 Si / 1000 Ang^3
#
#
#
# Elastic Constant Matrix: (Units=GPa)
#
#
# Indices 1 2 3 4 5 6 
#
# 1 111.0949 52.8770 37.5817 0.0000 -19.9846 0.0000
# 2 52.8770 102.8229 44.6338 0.0000 -5.7204 0.0000
# 3 37.5817 44.6338 98.2895 0.0000 -23.6288 0.0000
# 4 0.0000 0.0000 0.0000 28.8319 0.0000 -3.4976
# 5 -19.9846 -5.7204 -23.6288 0.0000 39.8585 0.0000
# 6 0.0000 0.0000 0.0000 -3.4976 0.0000 36.0943
#
#
#
# Elastic Compliance Matrix: (Units=1/GPa)
#
#
# Indices 1 2 3 4 5 6 
#
# 1 0.013139 -0.006009 -0.001072 0.000000 0.005090 0.000000
# 2 -0.006009 0.014970 -0.005491 0.000000 -0.004119 0.000000
# 3 -0.001072 -0.005491 0.014879 0.000000 0.007495 0.000000
# 4 0.000000 0.000000 0.000000 0.035096 0.000000 0.003401
# 5 0.005090 -0.004119 0.007495 0.000000 0.031493 0.000000
# 6 0.000000 0.000000 0.000000 0.003401 0.000000 0.028035
#
#
# Mechanical properties :
#
#
# Convention : Reuss Voigt Hill
#
# Bulk Modulus (GPa) = 56.03446 64.71026 60.37236
# Shear Modulus (GPa) = 29.63798 32.76461 31.20129
#
# Velocity S-wave (km/s) = 3.82414 4.02080 3.92370
# Velocity P-wave (km/s) = 6.86640 7.31336 7.09340
#
# Compressibility (1/GPa) = 0.01784616
#
# Stress axis : x y z
#
# Youngs Moduli (GPa) = 76.10705 66.80208 67.20906
#
# Poissons Ratio (x) = 0.40138 0.07203
# Poissons Ratio (y) = 0.45729 0.36902
# Poissons Ratio (z) = 0.08157 0.36678
#
# Static dielectric constant tensor:
#      x y z
#    x 5.259430 0.000000 0.598910 
#    y 0.000000 3.824560 0.000000 
#    z 0.598910 0.000000 4.119450 
# 
# 
# High freq. dielectric constant tensor:
#      x y z
#    x 1.804880 0.000000 -0.008400 
#    y 0.000000 1.794390 0.000000 
#    z -0.008400 0.000000 1.787410 
# 
# From -- ./inp_files/186283.got.cif
#   From: 2010.06.25/outbox.cif.g09.slc.cpg/sg15_94_cif.got.tgz:186283.got - 2010.06.28 07:06:18.
