data_PCOD8146204
_publ_section_title
;
Structure prediction by ZEFSAII (Michael W. Deem and Ramdas Pophale) SiO2 
 PCOD8146204
Probable space group: C 2/C
;
_chemical_formula_sum "Si O2"
_cell_formula_units_Z 60
_cell_length_a 16.483797
_cell_length_b 11.827300
_cell_length_c 26.703371
_cell_angle_alpha 90.000000
_cell_angle_beta 31.917405
_cell_angle_gamma 90.000000
_cell_volume 2752.422847
_symmetry_space_group_name_H-M "C 2/C"
_symmetry_group_IT_number 15
_symmetry_cell_setting 'monoclinic'
loop_
_space_group_symop_operation_xyz
x,y,z
-x,y,1/2-z
-x,-y,-z
x,-y,1/2+z
1/2+x,1/2+y,z
1/2-x,1/2+y,1/2-z
1/2-x,1/2-y,-z
1/2+x,1/2-y,1/2+z
loop_
_atom_site_type_symbol
_atom_site_label
_atom_site_fract_x
_atom_site_fract_y
_atom_site_fract_z
Si Si1 0.000000 0.119084 0.250000
Si Si2 0.817846 0.509625 0.852653
Si Si3 0.794145 0.017289 0.785685
Si Si4 0.055088 0.703059 0.932016
Si Si5 0.194256 0.215637 0.458006
Si Si6 0.265253 0.246583 0.932209
Si Si7 0.484881 0.285274 0.347470
Si Si8 0.247253 0.610606 0.210388
O O1 0.924719 0.195273 0.332951
O O2 0.863034 0.047595 0.297097
O O3 0.756025 0.412284 0.921859
O O4 0.759005 0.622894 0.910367
O O5 0.741868 0.489488 0.837077
O O6 0.000000 0.512145 0.750000
O O7 0.642589 0.084922 0.880470
O O8 0.926368 0.097836 0.695326
O O9 0.740304 0.935140 0.769874
O O10 0.082257 0.749827 0.972816
O O11 0.111237 0.801494 0.864760
O O12 0.876166 0.681616 0.016265
O O13 0.349379 0.292772 0.376872
O O14 0.094651 0.238847 0.558569
O O15 0.250000 0.250000 0.000000
O O16 0.595588 0.181547 0.275542
#
# Coordination Sequence:
#
# PCOD8146204 Si02
#       8
#     4   8   8   8   8   8   8   8
#     4  12  28  48  72  98 142 192 226 292 358 426
#     4  11  23  43  71  97 136 185 230 286 353 416
#     4  11  25  44  69  97 137 183 230 284 359 409
#     4  10  25  44  66  98 137 173 231 295 334 419
#     4  10  22  40  69 100 130 178 230 286 346 403
#     4  12  29  47  70 104 145 184 239 286 353 432
#     4  10  22  41  67 101 136 170 228 292 337 421
#     4  10  23  41  71 101 135 178 235 286 354 417
#
# _framework density 21.798976
#
# number of rings (size 3 to 8) (size 9 to 14) (size 15 to 20)
#    0.000    1.333    2.000    1.600    9.333    2.667 
#    2.400    0.000    0.000    0.000    0.000    0.000 
#    0.000    0.000    0.000    0.000    0.000    0.000 
#
# Total GULP energy -371978.022400 kJ/mol
# GULP energy per Si atom -12399.267413 kJ/mol
# Density = 2.174936 g / cm^3
# Si number density = 21.798976 Si / 1000 Ang^3
#
#
#
# Elastic Constant Matrix: (Units=GPa)
#
#
# Indices 1 2 3 4 5 6 
#
# 1 106.0722 29.1602 26.6174 -0.0001 -1.3917 0.0000
# 2 29.1602 72.7940 24.4701 -0.0001 9.6504 0.0000
# 3 26.6174 24.4701 93.3150 -0.0008 -5.0304 0.0002
# 4 -0.0001 -0.0001 -0.0008 27.3475 0.0002 11.0786
# 5 -1.3917 9.6504 -5.0304 0.0002 33.4558 -0.0001
# 6 0.0000 0.0000 0.0002 11.0786 -0.0001 24.6462
#
#
#
# Elastic Compliance Matrix: (Units=1/GPa)
#
#
# Indices 1 2 3 4 5 6 
#
# 1 0.011031 -0.003897 -0.002056 0.000000 0.001274 0.000000
# 2 -0.003897 0.017312 -0.003737 0.000000 -0.005718 0.000000
# 3 -0.002056 -0.003737 0.012437 0.000000 0.002862 0.000000
# 4 0.000000 0.000000 0.000000 0.044707 0.000000 -0.020096
# 5 0.001274 -0.005718 0.002862 0.000000 0.032023 0.000000
# 6 0.000000 0.000000 0.000000 -0.020096 0.000000 0.049608
#
#
# Mechanical properties :
#
#
# Convention : Reuss Voigt Hill
#
# Bulk Modulus (GPa) = 46.72445 48.07516 47.39981
# Shear Modulus (GPa) = 25.82223 29.88547 27.85385
#
# Velocity S-wave (km/s) = 3.44548 3.70666 3.57845
# Velocity P-wave (km/s) = 6.10813 6.35774 6.23418
#
# Compressibility (1/GPa) = 0.02140207
#
# Stress axis : x y z
#
# Youngs Moduli (GPa) = 90.64987 57.76194 80.40500
#
# Poissons Ratio (x) = 0.22508 0.16532
# Poissons Ratio (y) = 0.35324 0.30044
# Poissons Ratio (z) = 0.18639 0.21583
#
# Static dielectric constant tensor:
#      x y z
#    x 3.951110 0.000000 -0.087220 
#    y 0.000000 3.985340 0.000000 
#    z -0.087220 0.000000 4.020670 
# 
# 
# High freq. dielectric constant tensor:
#      x y z
#    x 1.862400 0.000000 -0.002420 
#    y 0.000000 1.851530 0.000000 
#    z -0.002420 0.000000 1.867880 
# 
# From -- ./inp_files/298958.got.cif
#   From: 2010.06.25/outbox.cif.g09.slc.cpg/sg15_150_cif.got.tgz:298958.got - 2010.06.28 07:06:18.
