data_PCOD8146672
_publ_section_title
;
Structure prediction by ZEFSAII (Michael W. Deem and Ramdas Pophale) SiO2 
 PCOD8146672
Probable space group: C 2/C
;
_chemical_formula_sum "Si O2"
_cell_formula_units_Z 32
_cell_length_a 9.423913
_cell_length_b 11.142020
_cell_length_c 18.404326
_cell_angle_alpha 90.000000
_cell_angle_beta 52.341240
_cell_angle_gamma 90.000000
_cell_volume 1529.874252
_symmetry_space_group_name_H-M "C 2/C"
_symmetry_group_IT_number 15
_symmetry_cell_setting 'monoclinic'
loop_
_space_group_symop_operation_xyz
x,y,z
-x,y,1/2-z
-x,-y,-z
x,-y,1/2+z
1/2+x,1/2+y,z
1/2-x,1/2+y,1/2-z
1/2-x,1/2-y,-z
1/2+x,1/2-y,1/2+z
loop_
_atom_site_type_symbol
_atom_site_label
_atom_site_fract_x
_atom_site_fract_y
_atom_site_fract_z
Si Si1 0.632005 0.069509 0.906297
Si Si2 0.600893 0.338297 0.917475
Si Si3 0.556674 0.433030 0.082574
Si Si4 0.823255 0.512445 0.767406
O O1 0.556163 0.201740 0.911153
O O2 0.825712 0.084388 0.882584
O O3 0.646274 0.994288 0.827850
O O4 0.500000 0.000000 0.000000
O O5 0.435687 0.426328 0.945964
O O6 0.779291 0.383050 0.818396
O O7 0.631527 0.349018 0.994815
O O8 0.348630 0.399751 0.166019
O O9 0.000000 0.567944 0.750000
#
# Coordination Sequence:
#
# PCOD8146672 Si02
#       4
#     8   8   8   8
#     4  12  24  38  67  98 122 171 217 259 332 390
#     4   9  22  42  66  88 130 166 211 273 318 378
#     4   9  21  45  63  90 125 167 217 260 323 381
#     4  10  22  42  59  91 127 163 213 264 322 380
#
# _framework density 20.916751999999999
#
# number of rings (size 3 to 8) (size 9 to 14) (size 15 to 20)
#    1.500    0.500    0.000    3.000    0.000    5.000 
#    4.500    0.000    0.000    0.000    0.000    0.000 
#    0.000    0.000    0.000    0.000    0.000    0.000 
#
# Total GULP energy -198289.549004 kJ/mol
# GULP energy per Si atom -12393.096813 kJ/mol
# Density = 2.086914 g / cm^3
# Si number density = 20.916752 Si / 1000 Ang^3
#
#
#
# Elastic Constant Matrix: (Units=GPa)
#
#
# Indices 1 2 3 4 5 6 
#
# 1 98.9406 6.6170 56.2279 0.0000 8.0129 0.0000
# 2 6.6170 80.5319 35.7260 0.0000 -3.5193 0.0000
# 3 56.2279 35.7260 180.3354 0.0000 18.4069 0.0000
# 4 0.0000 0.0000 0.0000 17.8966 0.0000 -2.5930
# 5 8.0129 -3.5193 18.4069 0.0000 38.6358 0.0000
# 6 0.0000 0.0000 0.0000 -2.5930 0.0000 15.1044
#
#
#
# Elastic Compliance Matrix: (Units=1/GPa)
#
#
# Indices 1 2 3 4 5 6 
#
# 1 0.012340 0.000699 -0.003922 0.000000 -0.000627 0.000000
# 2 0.000699 0.013917 -0.003247 0.000000 0.002670 0.000000
# 3 -0.003922 -0.003247 0.007735 0.000000 -0.003167 0.000000
# 4 0.000000 0.000000 0.000000 0.057302 0.000000 0.009837
# 5 -0.000627 0.002670 -0.003167 0.000000 0.027765 0.000000
# 6 0.000000 0.000000 0.000000 0.009837 0.000000 0.067895
#
#
# Mechanical properties :
#
#
# Convention : Reuss Voigt Hill
#
# Bulk Modulus (GPa) = 47.50523 61.88333 54.69428
# Shear Modulus (GPa) = 24.16488 31.74318 27.95403
#
# Velocity S-wave (km/s) = 3.40264 3.89986 3.65970
# Velocity P-wave (km/s) = 6.18047 7.06600 6.63801
#
# Compressibility (1/GPa) = 0.02105031
#
# Stress axis : x y z
#
# Youngs Moduli (GPa) = 81.03743 71.85251 129.28718
#
# Poissons Ratio (x) = -0.05019 0.50706
# Poissons Ratio (y) = -0.05661 0.41986
# Poissons Ratio (z) = 0.31782 0.23334
#
# Static dielectric constant tensor:
#      x y z
#    x 3.622300 0.000000 0.072730 
#    y 0.000000 3.364990 0.000000 
#    z 0.072730 0.000000 3.792640 
# 
# 
# High freq. dielectric constant tensor:
#      x y z
#    x 1.809420 0.000000 0.009480 
#    y 0.000000 1.783220 0.000000 
#    z 0.009480 0.000000 1.831820 
# 
# From -- ./inp_files/187534.got.cif
#   From: 2010.06.25/outbox.cif.g09.slc.cpg/sg15_94_cif.got.tgz:187534.got - 2010.06.28 07:06:18.
