data_PCOD8146528
_publ_section_title
;
Structure prediction by ZEFSAII (Michael W. Deem and Ramdas Pophale) SiO2 
 PCOD8146528
Probable space group: C 2/C
;
_chemical_formula_sum "Si O2"
_cell_formula_units_Z 56
_cell_length_a 21.777056
_cell_length_b 16.678734
_cell_length_c 17.967793
_cell_angle_alpha 90.000000
_cell_angle_beta 25.057868
_cell_angle_gamma 90.000000
_cell_volume 2764.042115
_symmetry_space_group_name_H-M "C 2/C"
_symmetry_group_IT_number 15
_symmetry_cell_setting 'monoclinic'
loop_
_space_group_symop_operation_xyz
x,y,z
-x,y,1/2-z
-x,-y,-z
x,-y,1/2+z
1/2+x,1/2+y,z
1/2-x,1/2+y,1/2-z
1/2-x,1/2-y,-z
1/2+x,1/2-y,1/2+z
loop_
_atom_site_type_symbol
_atom_site_label
_atom_site_fract_x
_atom_site_fract_y
_atom_site_fract_z
Si Si1 0.204738 0.940847 0.658333
Si Si2 0.182596 0.826507 0.826085
Si Si3 0.563239 0.476817 0.009038
Si Si4 0.674699 0.070123 0.722924
Si Si5 0.826312 0.169529 0.440028
Si Si6 0.001726 0.666098 0.027740
Si Si7 0.021729 0.550105 0.140939
O O1 0.193244 0.874838 0.736573
O O2 0.235502 0.895709 0.548617
O O3 0.326434 0.006386 0.540947
O O4 0.055407 0.989397 0.803519
O O5 0.338550 0.807879 0.689664
O O6 0.088806 0.881130 0.986487
O O7 0.103458 0.742486 0.904666
O O8 0.500000 0.500000 0.000000
O O9 0.718681 0.517802 0.844421
O O10 0.766576 0.143107 0.586150
O O11 0.605550 0.012884 0.736675
O O12 0.548297 0.101091 0.915305
O O13 0.750000 0.250000 0.500000
O O14 0.000000 0.179487 0.250000
O O15 0.014170 0.628529 0.096584
O O16 0.000000 0.578549 0.250000
#
# Coordination Sequence:
#
# PCOD8146528 Si02
#       7
#     8   8   8   8   8   8   8
#     4  11  23  42  66  96 132 175 220 272 334 397
#     4  11  25  41  65  99 133 171 223 278 332 393
#     4  10  22  41  67  94 127 174 225 277 324 390
#     4  12  23  44  70  96 132 178 227 274 328 409
#     4  12  27  41  62  99 143 178 212 267 342 403
#     4  12  26  42  67  99 134 174 222 278 337 393
#     4  12  25  45  72  98 131 178 231 280 331 394
#
# _framework density 20.260183999999999
#
# number of rings (size 3 to 8) (size 9 to 14) (size 15 to 20)
#    0.000    0.571    5.714    3.000    8.000    2.286 
#    0.000    0.714    3.143    0.000    0.000    0.000 
#    0.000    0.000    0.000    0.000    0.000    0.000 
#
# Total GULP energy -347177.080028 kJ/mol
# GULP energy per Si atom -12399.181430 kJ/mol
# Density = 2.021407 g / cm^3
# Si number density = 20.260184 Si / 1000 Ang^3
#
#
#
# Elastic Constant Matrix: (Units=GPa)
#
#
# Indices 1 2 3 4 5 6 
#
# 1 96.1714 36.2614 41.4955 0.0021 -5.1412 0.0006
# 2 36.2614 83.6273 36.7981 0.0095 -3.0946 -0.0030
# 3 41.4955 36.7981 95.5249 0.0093 -12.1006 -0.0029
# 4 0.0021 0.0095 0.0093 41.9244 -0.0040 -6.4490
# 5 -5.1412 -3.0946 -12.1006 -0.0040 47.4651 -0.0003
# 6 0.0006 -0.0030 -0.0029 -6.4490 -0.0003 33.3235
#
#
#
# Elastic Compliance Matrix: (Units=1/GPa)
#
#
# Indices 1 2 3 4 5 6 
#
# 1 0.013846 -0.004045 -0.004443 0.000001 0.000103 -0.000001
# 2 -0.004045 0.015591 -0.004315 -0.000002 -0.000522 0.000001
# 3 -0.004443 -0.004315 0.014430 -0.000002 0.002916 0.000001
# 4 0.000001 -0.000002 -0.000002 0.024584 0.000002 0.004758
# 5 0.000103 -0.000522 0.002916 0.000002 0.021789 0.000001
# 6 -0.000001 0.000001 0.000001 0.004758 0.000001 0.030930
#
#
# Mechanical properties :
#
#
# Convention : Reuss Voigt Hill
#
# Bulk Modulus (GPa) = 54.76167 56.04820 55.40493
# Shear Modulus (GPa) = 32.70898 35.26051 33.98475
#
# Velocity S-wave (km/s) = 4.02238 4.17632 4.10007
# Velocity P-wave (km/s) = 6.97571 7.14001 7.05834
#
# Compressibility (1/GPa) = 0.01826095
#
# Stress axis : x y z
#
# Youngs Moduli (GPa) = 72.22363 64.13932 69.29841
#
# Poissons Ratio (x) = 0.25942 0.30792
# Poissons Ratio (y) = 0.29212 0.29903
# Poissons Ratio (z) = 0.32092 0.27677
#
# Static dielectric constant tensor:
#      x y z
#    x 3.739700 0.000030 -0.062780 
#    y 0.000030 3.542250 -0.000060 
#    z -0.062780 -0.000060 4.013040 
# 
# 
# High freq. dielectric constant tensor:
#      x y z
#    x 1.794080 0.000000 -0.015280 
#    y 0.000000 1.789210 0.000000 
#    z -0.015280 0.000000 1.801700 
# 
# From -- ./inp_files/49168.got.cif
#   From: 2010.06.25/outbox.cif.g09.slc.cpg/sg15_25_cif.got.tgz:49168.got - 2010.06.28 07:06:18.
