data_PCOD8146889
_publ_section_title
;
Structure prediction by ZEFSAII (Michael W. Deem and Ramdas Pophale) SiO2 
 PCOD8146889
Probable space group: C 2/C
;
_chemical_formula_sum "Si O2"
_cell_formula_units_Z 36
_cell_length_a 15.106984
_cell_length_b 11.209310
_cell_length_c 14.825562
_cell_angle_alpha 90.000000
_cell_angle_beta 133.250822
_cell_angle_gamma 90.000000
_cell_volume 1828.582594
_symmetry_space_group_name_H-M "C 2/C"
_symmetry_group_IT_number 15
_symmetry_cell_setting 'monoclinic'
loop_
_space_group_symop_operation_xyz
x,y,z
-x,y,1/2-z
-x,-y,-z
x,-y,1/2+z
1/2+x,1/2+y,z
1/2-x,1/2+y,1/2-z
1/2-x,1/2-y,-z
1/2+x,1/2-y,1/2+z
loop_
_atom_site_type_symbol
_atom_site_label
_atom_site_fract_x
_atom_site_fract_y
_atom_site_fract_z
Si Si1 0.980830 0.346960 0.917242
Si Si2 0.604492 0.411678 0.099176
Si Si3 0.706084 0.987446 0.119324
Si Si4 0.500000 0.984990 0.750000
Si Si5 0.259765 0.113694 0.531055
O O1 0.955882 0.206874 0.902226
O O2 0.886217 0.406333 0.919956
O O3 0.958179 0.399291 0.801894
O O4 0.121454 0.370413 0.044547
O O5 0.694701 0.465161 0.235937
O O6 0.673945 0.398809 0.055294
O O7 0.500000 0.500000 0.000000
O O8 0.778521 0.028890 0.079941
O O9 0.395428 0.076005 0.650239
O O10 0.250000 0.250000 0.500000
#
# Coordination Sequence:
#
# PCOD8146889 Si02
#       5
#     8   8   8   4   8
#     4  10  22  42  66  92 133 173 213 271 326 394
#     4  12  27  41  67 101 135 167 219 279 326 383
#     4  10  23  43  65  95 130 172 219 263 333 383
#     4  10  22  42  68  94 128 186 216 258 346 390
#     4  11  23  41  68  96 127 174 224 269 316 393
#
# _framework density 19.687379
#
# number of rings (size 3 to 8) (size 9 to 14) (size 15 to 20)
#    0.000    1.333    4.444    0.000    3.111    4.444 
#    0.000    4.444    0.000    0.000    0.000    0.000 
#    0.000    0.000    0.000    0.000    0.000    0.000 
#
# Total GULP energy -223167.330386 kJ/mol
# GULP energy per Si atom -12398.185021 kJ/mol
# Density = 1.964257 g / cm^3
# Si number density = 19.687379 Si / 1000 Ang^3
#
#
#
# Elastic Constant Matrix: (Units=GPa)
#
#
# Indices 1 2 3 4 5 6 
#
# 1 115.5481 63.4874 67.3236 0.0000 -22.8046 0.0000
# 2 63.4874 137.6706 71.3647 0.0000 4.9710 0.0000
# 3 67.3236 71.3647 157.3355 0.0000 -10.0533 0.0000
# 4 0.0000 0.0000 0.0000 22.6188 0.0000 -3.4273
# 5 -22.8046 4.9710 -10.0533 0.0000 26.7617 0.0000
# 6 0.0000 0.0000 0.0000 -3.4273 0.0000 28.9733
#
#
#
# Elastic Compliance Matrix: (Units=1/GPa)
#
#
# Indices 1 2 3 4 5 6 
#
# 1 0.017196 -0.006705 -0.003382 0.000000 0.014628 0.000000
# 2 -0.006705 0.012435 -0.003365 0.000000 -0.009288 0.000000
# 3 -0.003382 -0.003365 0.009411 0.000000 0.001278 0.000000
# 4 0.000000 0.000000 0.000000 0.045018 0.000000 0.005325
# 5 0.014628 -0.009288 0.001278 0.000000 0.052038 0.000000
# 6 0.000000 0.000000 0.000000 0.005325 0.000000 0.035144
#
#
# Mechanical properties :
#
#
# Convention : Reuss Voigt Hill
#
# Bulk Modulus (GPa) = 82.38352 90.54506 86.46429
# Shear Modulus (GPa) = 24.72886 29.56266 27.14576
#
# Velocity S-wave (km/s) = 3.54796 3.87926 3.71730
# Velocity P-wave (km/s) = 7.66295 8.13364 7.90180
#
# Compressibility (1/GPa) = 0.01213835
#
# Stress axis : x y z
#
# Youngs Moduli (GPa) = 58.15252 80.41577 106.25874
#
# Poissons Ratio (x) = 0.53919 0.35939
# Poissons Ratio (y) = 0.38992 0.35754
# Poissons Ratio (z) = 0.19668 0.27059
#
# Static dielectric constant tensor:
#      x y z
#    x 3.722000 0.000000 -0.212420 
#    y 0.000000 3.531710 0.000000 
#    z -0.212420 0.000000 3.692700 
# 
# 
# High freq. dielectric constant tensor:
#      x y z
#    x 1.783740 0.000000 -0.013530 
#    y 0.000000 1.765040 0.000000 
#    z -0.013530 0.000000 1.775460 
# 
# From -- ./inp_files/94346.got.cif
#   From: 2010.06.25/outbox.cif.g09.slc.cpg/sg15_48_cif.got.tgz:94346.got - 2010.06.28 07:06:18.
