data_PCOD8146722
_publ_section_title
;
Structure prediction by ZEFSAII (Michael W. Deem and Ramdas Pophale) SiO2 
 PCOD8146722
Probable space group: C 2/C
;
_chemical_formula_sum "Si O2"
_cell_formula_units_Z 36
_cell_length_a 7.303759
_cell_length_b 26.492360
_cell_length_c 9.356876
_cell_angle_alpha 90.000000
_cell_angle_beta 88.522015
_cell_angle_gamma 90.000000
_cell_volume 1809.895277
_symmetry_space_group_name_H-M "C 2/C"
_symmetry_group_IT_number 15
_symmetry_cell_setting 'monoclinic'
loop_
_space_group_symop_operation_xyz
x,y,z
-x,y,1/2-z
-x,-y,-z
x,-y,1/2+z
1/2+x,1/2+y,z
1/2-x,1/2+y,1/2-z
1/2-x,1/2-y,-z
1/2+x,1/2-y,1/2+z
loop_
_atom_site_type_symbol
_atom_site_label
_atom_site_fract_x
_atom_site_fract_y
_atom_site_fract_z
Si Si1 0.009683 0.058817 0.026314
Si Si2 0.837155 0.692580 0.653357
Si Si3 0.283940 0.093355 0.255209
Si Si4 0.823863 0.701918 0.330734
Si Si5 0.500000 0.374847 0.250000
O O1 0.815149 0.074845 0.098247
O O2 0.184132 0.068367 0.123330
O O3 0.047401 0.089216 0.881117
O O4 0.000000 0.000000 0.000000
O O5 0.876620 0.681082 0.486935
O O6 0.823223 0.753477 0.665266
O O7 0.663492 0.662260 0.709429
O O8 0.000000 0.673639 0.750000
O O9 0.500000 0.079151 0.250000
O O10 0.253498 0.153747 0.242777
O O11 0.000000 0.725278 0.250000
#
# Coordination Sequence:
#
# PCOD8146722 Si02
#       5
#     8   8   8   8   4
#     4  11  25  45  69  93 128 173 223 275 329 381
#     4  11  25  39  63  98 134 176 213 266 322 388
#     4  10  23  43  68  96 126 173 216 266 326 396
#     4  10  22  42  62  96 133 173 222 251 327 397
#     4  12  24  42  62 102 134 162 218 278 324 378
#
# _framework density 19.890654000000001
#
# number of rings (size 3 to 8) (size 9 to 14) (size 15 to 20)
#    0.000    1.333    3.333    1.333    9.333    1.778 
#    0.000    2.222    0.000    0.000    0.000    0.000 
#    0.000    0.000    0.000    0.000    0.000    0.000 
#
# Total GULP energy -223191.940896 kJ/mol
# GULP energy per Si atom -12399.552272 kJ/mol
# Density = 1.984538 g / cm^3
# Si number density = 19.890654 Si / 1000 Ang^3
#
#
#
# Elastic Constant Matrix: (Units=GPa)
#
#
# Indices 1 2 3 4 5 6 
#
# 1 119.5349 32.6421 51.3431 0.0000 -3.0181 0.0000
# 2 32.6421 114.9531 33.5466 0.0000 7.5821 0.0000
# 3 51.3431 33.5466 131.1192 0.0000 -3.0781 0.0000
# 4 0.0000 0.0000 0.0000 22.3573 0.0000 0.3555
# 5 -3.0181 7.5821 -3.0781 0.0000 36.3086 0.0000
# 6 0.0000 0.0000 0.0000 0.3555 0.0000 10.1768
#
#
#
# Elastic Compliance Matrix: (Units=1/GPa)
#
#
# Indices 1 2 3 4 5 6 
#
# 1 0.010467 -0.001997 -0.003565 0.000000 0.000985 0.000000
# 2 -0.001997 0.009956 -0.001822 0.000000 -0.002399 0.000000
# 3 -0.003565 -0.001822 0.009509 0.000000 0.000890 0.000000
# 4 0.000000 0.000000 0.000000 0.044753 0.000000 -0.001563
# 5 0.000985 -0.002399 0.000890 0.000000 0.028200 0.000000
# 6 0.000000 0.000000 0.000000 -0.001563 0.000000 0.098317
#
#
# Mechanical properties :
#
#
# Convention : Reuss Voigt Hill
#
# Bulk Modulus (GPa) = 65.93594 66.74119 66.33856
# Shear Modulus (GPa) = 22.62196 30.30691 26.46443
#
# Velocity S-wave (km/s) = 3.37607 3.90766 3.65155
# Velocity P-wave (km/s) = 6.95833 7.34756 7.15559
#
# Compressibility (1/GPa) = 0.01516624
#
# Stress axis : x y z
#
# Youngs Moduli (GPa) = 95.53820 100.44079 105.15885
#
# Poissons Ratio (x) = 0.20057 0.37485
# Poissons Ratio (y) = 0.19078 0.19156
# Poissons Ratio (z) = 0.34056 0.18297
#
# Static dielectric constant tensor:
#      x y z
#    x 3.555260 0.000000 -0.157460 
#    y 0.000000 3.618960 0.000000 
#    z -0.157460 0.000000 3.828430 
# 
# 
# High freq. dielectric constant tensor:
#      x y z
#    x 1.769050 0.000000 -0.010170 
#    y 0.000000 1.783720 0.000000 
#    z -0.010170 0.000000 1.788960 
# 
# From -- ./inp_files/23075.got.cif
#   From: 2010.06.25/outbox.cif.g09.slc.cpg/sg15_12_cif.got.tgz:23075.got - 2010.06.28 07:06:18.
