data_PCOD8146960
_publ_section_title
;
Structure prediction by ZEFSAII (Michael W. Deem and Ramdas Pophale) SiO2 
 PCOD8146960
Probable space group: C 2/C
;
_chemical_formula_sum "Si O2"
_cell_formula_units_Z 40
_cell_length_a 9.694622
_cell_length_b 21.046661
_cell_length_c 11.478836
_cell_angle_alpha 90.000000
_cell_angle_beta 134.300437
_cell_angle_gamma 90.000000
_cell_volume 1676.236576
_symmetry_space_group_name_H-M "C 2/C"
_symmetry_group_IT_number 15
_symmetry_cell_setting 'monoclinic'
loop_
_space_group_symop_operation_xyz
x,y,z
-x,y,1/2-z
-x,-y,-z
x,-y,1/2+z
1/2+x,1/2+y,z
1/2-x,1/2+y,1/2-z
1/2-x,1/2-y,-z
1/2+x,1/2-y,1/2+z
loop_
_atom_site_type_symbol
_atom_site_label
_atom_site_fract_x
_atom_site_fract_y
_atom_site_fract_z
Si Si1 0.387827 0.843895 0.908736
Si Si2 0.359800 0.767536 0.276589
Si Si3 0.679367 0.555927 0.439014
Si Si4 0.218751 0.417300 0.025238
Si Si5 0.405219 0.381839 0.372018
O O1 0.211466 0.805453 0.745111
O O2 0.314043 0.888747 0.968932
O O3 0.528317 0.790275 0.043959
O O4 0.507213 0.885101 0.884565
O O5 0.500000 0.769321 0.250000
O O6 0.173806 0.812009 0.143280
O O7 0.500000 0.542370 0.250000
O O8 0.799156 0.490760 0.521318
O O9 0.603435 0.573464 0.521021
O O10 0.273996 0.413226 0.194332
O O11 0.373029 0.378805 0.038663
#
# Coordination Sequence:
#
# PCOD8146960 Si02
#       5
#     8   8   8   8   8
#     4  11  25  41  68  99 131 178 227 273 336 386
#     4  11  22  42  68  94 135 173 228 280 320 398
#     4  12  23  40  71  99 135 172 223 275 331 404
#     4  10  23  44  66  97 137 174 218 277 335 399
#     4  10  22  42  67  96 133 176 215 276 339 381
#
# _framework density 23.86298
#
# number of rings (size 3 to 8) (size 9 to 14) (size 15 to 20)
#    0.000    1.200    4.000    2.400    2.800    0.800 
#    0.000    1.000    0.000    0.000    0.000    0.000 
#    0.000    0.000    0.000    0.000    0.000    0.000 
#
# Total GULP energy -248064.388237 kJ/mol
# GULP energy per Si atom -12403.219412 kJ/mol
# Density = 2.380867 g / cm^3
# Si number density = 23.862980 Si / 1000 Ang^3
#
#
#
# Elastic Constant Matrix: (Units=GPa)
#
#
# Indices 1 2 3 4 5 6 
#
# 1 157.9536 76.6295 36.2202 0.0000 0.7081 0.0000
# 2 76.6295 143.5650 23.6084 0.0000 6.7170 0.0000
# 3 36.2202 23.6084 20.7159 0.0000 1.7379 0.0000
# 4 0.0000 0.0000 0.0000 16.5510 0.0000 10.0212
# 5 0.7081 6.7170 1.7379 0.0000 32.5962 0.0000
# 6 0.0000 0.0000 0.0000 10.0212 0.0000 43.2990
#
#
#
# Elastic Compliance Matrix: (Units=1/GPa)
#
#
# Indices 1 2 3 4 5 6 
#
# 1 0.011980 -0.003687 -0.016861 0.000000 0.001399 0.000000
# 2 -0.003687 0.009758 -0.004532 0.000000 -0.001689 0.000000
# 3 -0.016861 -0.004532 0.083181 0.000000 -0.003135 0.000000
# 4 0.000000 0.000000 0.000000 0.070266 0.000000 -0.016262
# 5 0.001399 -0.001689 -0.003135 0.000000 0.031163 0.000000
# 6 0.000000 0.000000 0.000000 -0.016262 0.000000 0.026859
#
#
# Mechanical properties :
#
#
# Convention : Reuss Voigt Hill
#
# Bulk Modulus (GPa) = 18.26235 66.12785 42.19510
# Shear Modulus (GPa) = 16.57717 30.87434 23.72575
#
# Velocity S-wave (km/s) = 2.63854 3.60087 3.15659
# Velocity P-wave (km/s) = 4.11730 6.71267 5.56831
#
# Compressibility (1/GPa) = 0.05475748
#
# Stress axis : x y z
#
# Youngs Moduli (GPa) = 83.47287 102.48222 12.02204
#
# Poissons Ratio (x) = 0.37786 0.20271
# Poissons Ratio (y) = 0.30777 0.05448
# Poissons Ratio (z) = 1.40747 0.46444
#
# Static dielectric constant tensor:
#      x y z
#    x 4.499380 0.000000 0.192510 
#    y 0.000000 4.531710 0.000000 
#    z 0.192510 0.000000 4.043710 
# 
# 
# High freq. dielectric constant tensor:
#      x y z
#    x 1.956320 0.000000 0.007280 
#    y 0.000000 1.956250 0.000000 
#    z 0.007280 0.000000 1.927890 
# 
# From -- ./inp_files/79528.got.cif
#   From: 2010.06.25/outbox.cif.g09.slc.cpg/sg15_40_cif.got.tgz:79528.got - 2010.06.28 07:06:18.
