data_PCOD8146318
_publ_section_title
;
Structure prediction by ZEFSAII (Michael W. Deem and Ramdas Pophale) SiO2 
 PCOD8146318
Probable space group: C 2/C
;
_chemical_formula_sum "Si O2"
_cell_formula_units_Z 64
_cell_length_a 14.327529
_cell_length_b 17.968275
_cell_length_c 23.229833
_cell_angle_alpha 90.000000
_cell_angle_beta 148.120352
_cell_angle_gamma 90.000000
_cell_volume 3158.421947
_symmetry_space_group_name_H-M "C 2/C"
_symmetry_group_IT_number 15
_symmetry_cell_setting 'monoclinic'
loop_
_space_group_symop_operation_xyz
x,y,z
-x,y,1/2-z
-x,-y,-z
x,-y,1/2+z
1/2+x,1/2+y,z
1/2-x,1/2+y,1/2-z
1/2-x,1/2-y,-z
1/2+x,1/2-y,1/2+z
loop_
_atom_site_type_symbol
_atom_site_label
_atom_site_fract_x
_atom_site_fract_y
_atom_site_fract_z
Si Si1 0.729016 0.266473 0.270089
Si Si2 0.043204 0.659490 0.396362
Si Si3 0.206893 0.977560 0.106401
Si Si4 0.421273 0.163121 0.582641
Si Si5 0.749918 0.760032 0.908124
Si Si6 0.104663 0.823773 0.093885
Si Si7 0.826469 0.768316 0.631166
Si Si8 0.025433 0.501573 0.852523
O O1 0.662073 0.186192 0.210202
O O2 0.676360 0.275323 0.310021
O O3 0.624635 0.325670 0.174339
O O4 0.936336 0.279535 0.369970
O O5 0.161641 0.693377 0.509258
O O6 0.105050 0.694163 0.367439
O O7 0.055290 0.570526 0.408145
O O8 0.210832 0.890838 0.121861
O O9 0.295632 0.991880 0.091362
O O10 0.341624 0.015080 0.222708
O O11 0.000000 0.000000 0.000000
O O12 0.251969 0.169333 0.452551
O O13 0.375016 0.192136 0.622082
O O14 0.489552 0.077966 0.618971
O O15 0.897840 0.822513 0.969423
O O16 0.193680 0.750100 0.113628
O O17 0.000000 0.804219 0.750000
#
# Coordination Sequence:
#
# PCOD8146318 Si02
#       8
#     8   8   8   8   8   8   8   8
#     4  11  21  36  63  88 116 162 207 251 304 372
#     4  10  24  41  64  89 122 162 210 260 308 371
#     4  11  23  35  61  93 129 164 203 259 317 374
#     4  11  22  37  64  91 130 166 198 261 321 374
#     4  10  22  41  62  89 120 160 211 259 304 366
#     4  11  20  36  60  90 126 155 207 253 303 373
#     4  11  20  36  59  92 123 163 207 250 305 377
#     4  11  23  42  60  93 132 164 207 258 324 369
#
# _framework density 20.263283999999999
#
# number of rings (size 3 to 8) (size 9 to 14) (size 15 to 20)
#    0.000    1.250    5.000    1.125    5.250    0.000 
#    0.000    0.625    0.000    4.500    0.000    0.000 
#    0.000    0.000    0.000    0.000    0.000    0.000 
#
# Total GULP energy -396480.024342 kJ/mol
# GULP energy per Si atom -12390.000761 kJ/mol
# Density = 2.021716 g / cm^3
# Si number density = 20.263284 Si / 1000 Ang^3
#
#
#
# Elastic Constant Matrix: (Units=GPa)
#
#
# Indices 1 2 3 4 5 6 
#
# 1 76.1051 24.5053 28.8110 0.0001 -3.8943 0.0000
# 2 24.5053 107.4300 33.5764 0.0001 -3.4609 0.0000
# 3 28.8110 33.5764 115.2848 0.0001 3.1697 0.0004
# 4 0.0001 0.0001 0.0001 19.9929 0.0002 6.3619
# 5 -3.8943 -3.4609 3.1697 0.0002 36.4461 0.0001
# 6 0.0000 0.0000 0.0004 6.3619 0.0001 26.5819
#
#
#
# Elastic Compliance Matrix: (Units=1/GPa)
#
#
# Indices 1 2 3 4 5 6 
#
# 1 0.015195 -0.002433 -0.003135 0.000000 0.001665 0.000000
# 2 -0.002433 0.010686 -0.002531 0.000000 0.000975 0.000000
# 3 -0.003135 -0.002531 0.010235 0.000000 -0.001465 0.000000
# 4 0.000000 0.000000 0.000000 0.054141 0.000000 -0.012958
# 5 0.001665 0.000975 -0.001465 0.000000 0.027836 0.000000
# 6 0.000000 0.000000 0.000000 -0.012958 0.000000 0.040721
#
#
# Mechanical properties :
#
#
# Convention : Reuss Voigt Hill
#
# Bulk Modulus (GPa) = 50.20353 52.51170 51.35761
# Shear Modulus (GPa) = 27.52552 30.73264 29.12908
#
# Velocity S-wave (km/s) = 3.68964 3.89867 3.79559
# Velocity P-wave (km/s) = 6.55596 6.79979 6.67899
#
# Compressibility (1/GPa) = 0.01991892
#
# Stress axis : x y z
#
# Youngs Moduli (GPa) = 65.81146 93.58247 97.70384
#
# Poissons Ratio (x) = 0.22766 0.30627
# Poissons Ratio (y) = 0.16010 0.24729
# Poissons Ratio (z) = 0.20630 0.23686
#
# Static dielectric constant tensor:
#      x y z
#    x 3.753380 0.000000 0.055670 
#    y 0.000000 3.409840 0.000000 
#    z 0.055670 0.000000 3.826490 
# 
# 
# High freq. dielectric constant tensor:
#      x y z
#    x 1.789080 0.000000 0.008520 
#    y 0.000000 1.753600 0.000000 
#    z 0.008520 0.000000 1.807210 
# 
# From -- ./inp_files/274871.got.cif
#   From: 2010.06.25/outbox.cif.g09.slc.cpg/sg15_138_cif.got.tgz:274871.got - 2010.06.28 07:06:18.
