data_PCOD8146880
_publ_section_title
;
Structure prediction by ZEFSAII (Michael W. Deem and Ramdas Pophale) SiO2 
 PCOD8146880
Probable space group: C 2/C
;
_chemical_formula_sum "Si O2"
_cell_formula_units_Z 40
_cell_length_a 21.673014
_cell_length_b 12.206944
_cell_length_c 10.462490
_cell_angle_alpha 90.000000
_cell_angle_beta 135.723731
_cell_angle_gamma 90.000000
_cell_volume 1932.371623
_symmetry_space_group_name_H-M "C 2/C"
_symmetry_group_IT_number 15
_symmetry_cell_setting 'monoclinic'
loop_
_space_group_symop_operation_xyz
x,y,z
-x,y,1/2-z
-x,-y,-z
x,-y,1/2+z
1/2+x,1/2+y,z
1/2-x,1/2+y,1/2-z
1/2-x,1/2-y,-z
1/2+x,1/2-y,1/2+z
loop_
_atom_site_type_symbol
_atom_site_label
_atom_site_fract_x
_atom_site_fract_y
_atom_site_fract_z
Si Si1 0.439853 0.008912 0.036449
Si Si2 0.648849 0.787678 0.203110
Si Si3 0.907529 0.939413 0.872957
Si Si4 0.339777 0.196246 0.487342
Si Si5 0.399344 0.569993 0.087044
O O1 0.500000 0.023710 0.250000
O O2 0.378220 0.901728 0.958660
O O3 0.375741 0.114213 0.928742
O O4 0.500000 0.000000 0.000000
O O5 0.576321 0.690457 0.081215
O O6 0.653970 0.836227 0.353942
O O7 0.740304 0.727964 0.299736
O O8 0.853022 0.950106 0.657222
O O9 0.852966 0.995619 0.908492
O O10 0.000000 0.000000 0.000000
O O11 0.398390 0.303324 0.545886
O O12 0.500000 0.531278 0.250000
#
# Coordination Sequence:
#
# PCOD8146880 Si02
#       5
#     8   8   8   8   8
#     4  12  25  44  70  99 136 181 232 275 343 415
#     4  10  23  42  65  95 131 175 222 275 340 403
#     4   9  19  34  58  87 118 155 206 257 318 381
#     4  10  22  42  66  90 132 176 218 271 343 402
#     4   9  18  34  59  84 115 159 203 252 314 384
#
# _framework density 20.699952
#
# number of rings (size 3 to 8) (size 9 to 14) (size 15 to 20)
#    0.000    2.000    2.000    0.600    8.400    2.400 
#    0.000    1.000    0.000    0.000    0.000    0.000 
#    0.000    0.000    0.000    0.000    0.000    0.000 
#
# Total GULP energy -247807.971516 kJ/mol
# GULP energy per Si atom -12390.398576 kJ/mol
# Density = 2.065284 g / cm^3
# Si number density = 20.699952 Si / 1000 Ang^3
#
#
#
# Elastic Constant Matrix: (Units=GPa)
#
#
# Indices 1 2 3 4 5 6 
#
# 1 102.7883 71.9947 53.0285 0.0000 -22.0505 0.0000
# 2 71.9947 168.7643 76.0819 0.0000 -22.8158 0.0000
# 3 53.0285 76.0819 88.7068 0.0000 -11.8537 0.0000
# 4 0.0000 0.0000 0.0000 39.5851 0.0000 -3.8174
# 5 -22.0505 -22.8158 -11.8537 0.0000 35.6213 0.0000
# 6 0.0000 0.0000 0.0000 -3.8174 0.0000 41.1613
#
#
#
# Elastic Compliance Matrix: (Units=1/GPa)
#
#
# Indices 1 2 3 4 5 6 
#
# 1 0.016648 -0.003530 -0.006122 0.000000 0.006007 0.000000
# 2 -0.003530 0.010869 -0.006879 0.000000 0.002487 0.000000
# 3 -0.006122 -0.006879 0.020656 0.000000 -0.001322 0.000000
# 4 0.000000 0.000000 0.000000 0.025490 0.000000 0.002364
# 5 0.006007 0.002487 -0.001322 0.000000 0.032945 0.000000
# 6 0.000000 0.000000 0.000000 0.002364 0.000000 0.024514
#
#
# Mechanical properties :
#
#
# Convention : Reuss Voigt Hill
#
# Bulk Modulus (GPa) = 66.17737 84.71885 75.44811
# Shear Modulus (GPa) = 29.54695 33.88383 31.71539
#
# Velocity S-wave (km/s) = 3.78218 4.05026 3.91851
# Velocity P-wave (km/s) = 7.14930 7.93024 7.54987
#
# Compressibility (1/GPa) = 0.01511090
#
# Stress axis : x y z
#
# Youngs Moduli (GPa) = 60.06615 92.00473 48.41135
#
# Poissons Ratio (x) = 0.32479 0.29636
# Poissons Ratio (y) = 0.21205 0.33304
# Poissons Ratio (z) = 0.36771 0.63294
#
# Static dielectric constant tensor:
#      x y z
#    x -14.880170 0.000000 14.923310 
#    y 0.000000 4.077530 0.000000 
#    z 14.923310 0.000000 -8.506850 
# 
# 
# High freq. dielectric constant tensor:
#      x y z
#    x 1.803260 0.000000 -0.010370 
#    y 0.000000 1.816560 0.000000 
#    z -0.010370 0.000000 1.793650 
# 
# From -- ./inp_files/46255.got.cif
#   From: 2010.06.25/outbox.cif.g09.slc.cpg/sg15_24_cif.got.tgz:46255.got - 2010.06.28 07:06:18.
