data_PCOD8146853
_publ_section_title
;
Structure prediction by ZEFSAII (Michael W. Deem and Ramdas Pophale) SiO2 
 PCOD8146853
Probable space group: C 2/C
;
_chemical_formula_sum "Si O2"
_cell_formula_units_Z 56
_cell_length_a 9.241128
_cell_length_b 25.783869
_cell_length_c 14.012004
_cell_angle_alpha 90.000000
_cell_angle_beta 56.820252
_cell_angle_gamma 90.000000
_cell_volume 2794.324819
_symmetry_space_group_name_H-M "C 2/C"
_symmetry_group_IT_number 15
_symmetry_cell_setting 'monoclinic'
loop_
_space_group_symop_operation_xyz
x,y,z
-x,y,1/2-z
-x,-y,-z
x,-y,1/2+z
1/2+x,1/2+y,z
1/2-x,1/2+y,1/2-z
1/2-x,1/2-y,-z
1/2+x,1/2-y,1/2+z
loop_
_atom_site_type_symbol
_atom_site_label
_atom_site_fract_x
_atom_site_fract_y
_atom_site_fract_z
Si Si1 0.475245 0.846876 0.546906
Si Si2 0.326959 0.291960 0.750906
Si Si3 0.000000 0.989000 0.250000
Si Si4 0.759582 0.860339 0.589947
Si Si5 0.047397 0.889537 0.336179
Si Si6 0.871139 0.534003 0.107563
Si Si7 0.000000 0.445191 0.750000
Si Si8 0.131566 0.323861 0.287309
O O1 0.321483 0.807260 0.621299
O O2 0.622170 0.831567 0.571013
O O3 0.407528 0.905344 0.582170
O O4 0.542604 0.840828 0.416628
O O5 0.500000 0.299116 0.750000
O O6 0.324516 0.326492 0.655809
O O7 0.289617 0.233552 0.729726
O O8 0.951781 0.952200 0.176904
O O9 0.167624 0.023389 0.162275
O O10 0.921749 0.875226 0.467043
O O11 0.667012 0.911332 0.662071
O O12 0.000000 0.863895 0.250000
O O13 0.233011 0.867083 0.295124
O O14 0.929035 0.517809 0.192819
O O15 0.000000 0.500000 0.000000
O O16 0.000000 0.321266 0.250000
#
# Coordination Sequence:
#
# PCOD8146853 Si02
#       8
#     8   8   4   8   8   8   4   8
#     4  11  23  45  68  95 135 177 224 274 333 400
#     4  11  26  40  65  99 133 175 224 271 338 393
#     4  10  22  44  67 102 128 165 228 276 330 396
#     4  11  20  43  67  93 134 174 222 275 323 403
#     4  10  22  43  67  93 133 167 224 277 326 389
#     4  11  22  43  70  95 135 175 222 279 336 394
#     4  10  22  42  65  98 132 171 218 268 344 394
#     4  11  26  44  64  98 138 179 217 272 344 398
#
# _framework density 20.040619
#
# number of rings (size 3 to 8) (size 9 to 14) (size 15 to 20)
#    0.429    0.857    4.286    2.571    5.000    2.857 
#    5.143    1.429    0.000    0.000    0.000    0.000 
#    0.000    0.000    0.000    0.000    0.000    0.000 
#
# Total GULP energy -347032.304422 kJ/mol
# GULP energy per Si atom -12394.010872 kJ/mol
# Density = 1.999501 g / cm^3
# Si number density = 20.040619 Si / 1000 Ang^3
#
#
#
# Elastic Constant Matrix: (Units=GPa)
#
#
# Indices 1 2 3 4 5 6 
#
# 1 91.0264 48.0452 62.7729 0.0000 -0.1146 0.0000
# 2 48.0452 81.6304 42.0108 0.0000 -9.7823 0.0000
# 3 62.7729 42.0108 156.7481 0.0000 -18.5112 0.0000
# 4 0.0000 0.0000 0.0000 -32.0793 0.0000 -46.2283
# 5 -0.1146 -9.7823 -18.5112 0.0000 37.3863 0.0000
# 6 0.0000 0.0000 0.0000 -46.2283 0.0000 12.6405
#
#
#
# Elastic Compliance Matrix: (Units=1/GPa)
#
#
# Indices 1 2 3 4 5 6 
#
# 1 0.020209 -0.009341 -0.006236 0.000000 -0.005470 0.000000
# 2 -0.009341 0.018662 -0.000730 0.000000 0.004493 0.000000
# 3 -0.006236 -0.000730 0.009610 0.000000 0.004548 0.000000
# 4 0.000000 0.000000 0.000000 -0.004972 0.000000 -0.018182
# 5 -0.005470 0.004493 0.004548 0.000000 0.030158 0.000000
# 6 0.000000 0.000000 0.000000 -0.018182 0.000000 0.012617
#
#
# Mechanical properties :
#
#
# Convention : Reuss Voigt Hill
#
# Bulk Modulus (GPa) = 63.02229 70.56253 66.79241
# Shear Modulus (GPa) = 40.26127 15.36122 27.81124
#
# Velocity S-wave (km/s) = 4.48703 2.77159 3.72928
# Velocity P-wave (km/s) = 7.63938 6.74748 7.20724
#
# Compressibility (1/GPa) = 0.01586740
#
# Stress axis : x y z
#
# Youngs Moduli (GPa) = 49.48175 53.58346 104.06124
#
# Poissons Ratio (x) = 0.50052 0.64890
# Poissons Ratio (y) = 0.46221 0.07601
# Poissons Ratio (z) = 0.30855 0.03914
#
# Static dielectric constant tensor:
#      x y z
#    x 3.866660 0.000000 0.122240 
#    y 0.000000 3.680760 0.000000 
#    z 0.122240 0.000000 3.838860 
# 
# 
# High freq. dielectric constant tensor:
#      x y z
#    x 1.786840 0.000000 -0.001590 
#    y 0.000000 1.773060 0.000000 
#    z -0.001590 0.000000 1.800110 
# 
# From -- ./inp_files/138554.got.cif
#   From: 2010.06.25/outbox.cif.g09.slc.cpg/sg15_70_cif.got.tgz:138554.got - 2010.06.28 07:06:18.
