data_PCOD8146050
_publ_section_title
;
Structure prediction by ZEFSAII (Michael W. Deem and Ramdas Pophale) SiO2 
 PCOD8146050
Probable space group: C 2/C
;
_chemical_formula_sum "Si O2"
_cell_formula_units_Z 40
_cell_length_a 8.321120
_cell_length_b 23.731040
_cell_length_c 10.346092
_cell_angle_alpha 90.000000
_cell_angle_beta 58.336663
_cell_angle_gamma 90.000000
_cell_volume 1738.919816
_symmetry_space_group_name_H-M "C 2/C"
_symmetry_group_IT_number 15
_symmetry_cell_setting 'monoclinic'
loop_
_space_group_symop_operation_xyz
x,y,z
-x,y,1/2-z
-x,-y,-z
x,-y,1/2+z
1/2+x,1/2+y,z
1/2-x,1/2+y,1/2-z
1/2-x,1/2-y,-z
1/2+x,1/2-y,1/2+z
loop_
_atom_site_type_symbol
_atom_site_label
_atom_site_fract_x
_atom_site_fract_y
_atom_site_fract_z
Si Si1 0.440834 0.355885 0.565606
Si Si2 0.449168 0.455325 0.131397
Si Si3 0.085285 0.231982 0.844214
Si Si4 0.705354 0.154669 0.402829
Si Si5 0.861091 0.370711 0.196642
O O1 0.421722 0.401523 0.458879
O O2 0.421383 0.293917 0.508602
O O3 0.652882 0.358587 0.538644
O O4 0.285378 0.371592 0.736730
O O5 0.500000 0.480822 0.250000
O O6 0.233311 0.431991 0.233870
O O7 0.500000 0.500000 0.000000
O O8 0.196895 0.278076 0.880879
O O9 0.210052 0.178917 0.745034
O O10 0.000000 0.259787 0.750000
O O11 0.498328 0.127505 0.512396
O O12 0.000000 0.351550 0.250000
#
# Coordination Sequence:
#
# PCOD8146050 Si02
#       5
#     8   8   8   8   8
#     4  10  22  40  65  96 138 178 225 282 340 394
#     4  11  26  48  75  96 130 174 221 292 363 399
#     4  11  23  38  60  99 147 192 221 269 333 399
#     4  11  22  36  68  98 140 180 231 269 332 401
#     4  11  22  41  69  98 138 179 236 277 327 413
#
# _framework density 23.002786
#
# number of rings (size 3 to 8) (size 9 to 14) (size 15 to 20)
#    0.000    1.200    4.000    4.200    5.600    4.800 
#    0.000    4.000    0.000    0.000    0.000    0.000 
#    0.000    0.000    0.000    0.000    0.000    0.000 
#
# Total GULP energy -247802.939168 kJ/mol
# GULP energy per Si atom -12390.146958 kJ/mol
# Density = 2.295043 g / cm^3
# Si number density = 23.002786 Si / 1000 Ang^3
#
#
#
# Elastic Constant Matrix: (Units=GPa)
#
#
# Indices 1 2 3 4 5 6 
#
# 1 57.2318 24.0327 40.0616 0.0000 3.5814 0.0000
# 2 24.0327 88.2898 47.5173 0.0000 -4.7516 0.0000
# 3 40.0616 47.5173 166.4521 0.0000 -10.6591 0.0000
# 4 0.0000 0.0000 0.0000 44.0334 0.0000 6.6633
# 5 3.5814 -4.7516 -10.6591 0.0000 48.7115 0.0000
# 6 0.0000 0.0000 0.0000 6.6633 0.0000 24.0487
#
#
#
# Elastic Compliance Matrix: (Units=1/GPa)
#
#
# Indices 1 2 3 4 5 6 
#
# 1 0.022420 -0.003848 -0.004490 0.000000 -0.003006 0.000000
# 2 -0.003848 0.014054 -0.003022 0.000000 0.000992 0.000000
# 3 -0.004490 -0.003022 0.008066 0.000000 0.001800 0.000000
# 4 0.000000 0.000000 0.000000 0.023704 0.000000 -0.006568
# 5 -0.003006 0.000992 0.001800 0.000000 0.021241 0.000000
# 6 0.000000 0.000000 0.000000 -0.006568 0.000000 0.043402
#
#
# Mechanical properties :
#
#
# Convention : Reuss Voigt Hill
#
# Bulk Modulus (GPa) = 45.83069 59.46633 52.64851
# Shear Modulus (GPa) = 30.69739 36.71620 33.70680
#
# Velocity S-wave (km/s) = 3.65705 3.99954 3.83212
# Velocity P-wave (km/s) = 6.14811 6.87287 6.52057
#
# Compressibility (1/GPa) = 0.02181944
#
# Stress axis : x y z
#
# Youngs Moduli (GPa) = 44.60362 71.15537 123.97047
#
# Poissons Ratio (x) = 0.27381 0.55662
# Poissons Ratio (y) = 0.17163 0.37467
# Poissons Ratio (z) = 0.20027 0.21505
#
# Static dielectric constant tensor:
#      x y z
#    x 3.881690 0.000000 -0.142520 
#    y 0.000000 3.796390 0.000000 
#    z -0.142520 0.000000 4.844430 
# 
# 
# High freq. dielectric constant tensor:
#      x y z
#    x 1.884320 0.000000 0.005290 
#    y 0.000000 1.870540 0.000000 
#    z 0.005290 0.000000 1.945870 
# 
# From -- ./inp_files/23386.got.cif
#   From: 2010.06.25/outbox.cif.g09.slc.cpg/sg15_12_cif.got.tgz:23386.got - 2010.06.28 07:06:18.
