data_PCOD8146629
_publ_section_title
;
Structure prediction by ZEFSAII (Michael W. Deem and Ramdas Pophale) SiO2 
 PCOD8146629
Probable space group: C 2/C
;
_chemical_formula_sum "Si O2"
_cell_formula_units_Z 44
_cell_length_a 13.737278
_cell_length_b 7.300675
_cell_length_c 17.417742
_cell_angle_alpha 90.000000
_cell_angle_beta 95.956094
_cell_angle_gamma 90.000000
_cell_volume 1737.419754
_symmetry_space_group_name_H-M "C 2/C"
_symmetry_group_IT_number 15
_symmetry_cell_setting 'monoclinic'
loop_
_space_group_symop_operation_xyz
x,y,z
-x,y,1/2-z
-x,-y,-z
x,-y,1/2+z
1/2+x,1/2+y,z
1/2-x,1/2+y,1/2-z
1/2-x,1/2-y,-z
1/2+x,1/2-y,1/2+z
loop_
_atom_site_type_symbol
_atom_site_label
_atom_site_fract_x
_atom_site_fract_y
_atom_site_fract_z
Si Si1 0.108767 0.790804 0.424099
Si Si2 0.000000 0.655872 0.750000
Si Si3 0.351548 0.306270 0.844721
Si Si4 0.292575 0.985425 0.463035
Si Si5 0.353952 0.163379 0.233506
Si Si6 0.109545 0.815926 0.096292
O O1 0.175017 0.960884 0.459663
O O2 0.155937 0.598877 0.457353
O O3 0.110812 0.795643 0.331929
O O4 0.999593 0.805789 0.447022
O O5 0.958558 0.786865 0.813992
O O6 0.905058 0.533137 0.720912
O O7 0.330041 0.123109 0.890451
O O8 0.264509 0.350528 0.776611
O O9 0.355015 0.475330 0.904029
O O10 0.319739 0.197985 0.453234
O O11 0.390795 0.242776 0.316647
#
# Coordination Sequence:
#
# PCOD8146629 Si02
#       6
#     8   4   8   8   8   8
#     4  10  22  41  70  93 133 177 221 265 344 399
#     4  12  22  42  64  98 136 170 220 288 332 394
#     4  11  26  39  66  98 131 171 224 276 339 397
#     4  10  23  46  63  96 136 173 217 282 323 407
#     4  11  22  43  65  98 131 175 221 280 336 395
#     4  12  23  40  68  94 130 176 220 272 337 395
#
# _framework density 25.324912999999999
#
# number of rings (size 3 to 8) (size 9 to 14) (size 15 to 20)
#    0.000    1.091    3.636    1.636    5.091    2.182 
#    0.000    8.182    0.000    0.000    0.000    0.000 
#    0.000    0.000    0.000    0.000    0.000    0.000 
#
# Total GULP energy -272799.042179 kJ/mol
# GULP energy per Si atom -12399.956463 kJ/mol
# Density = 2.526727 g / cm^3
# Si number density = 25.324913 Si / 1000 Ang^3
#
#
#
# Elastic Constant Matrix: (Units=GPa)
#
#
# Indices 1 2 3 4 5 6 
#
# 1 151.7261 18.8956 32.8201 0.0000 2.3113 0.0000
# 2 18.8956 77.9787 -11.3466 0.0000 -3.7413 0.0000
# 3 32.8201 -11.3466 57.0340 0.0000 2.6040 0.0000
# 4 0.0000 0.0000 0.0000 24.4132 0.0000 -5.8566
# 5 2.3113 -3.7413 2.6040 0.0000 34.6789 0.0000
# 6 0.0000 0.0000 0.0000 -5.8566 0.0000 34.8117
#
#
#
# Elastic Compliance Matrix: (Units=1/GPa)
#
#
# Indices 1 2 3 4 5 6 
#
# 1 0.008052 -0.002722 -0.005155 0.000000 -0.000443 0.000000
# 2 -0.002722 0.014179 0.004324 0.000000 0.001386 0.000000
# 3 -0.005155 0.004324 0.021396 0.000000 -0.000797 0.000000
# 4 0.000000 0.000000 0.000000 0.042684 0.000000 0.007181
# 5 -0.000443 0.001386 -0.000797 0.000000 0.029075 0.000000
# 6 0.000000 0.000000 0.000000 0.007181 0.000000 0.029934
#
#
# Mechanical properties :
#
#
# Convention : Reuss Voigt Hill
#
# Bulk Modulus (GPa) = 27.38099 40.83078 34.10588
# Shear Modulus (GPa) = 30.37668 35.20542 32.79105
#
# Velocity S-wave (km/s) = 3.46711 3.73252 3.60226
# Velocity P-wave (km/s) = 5.18296 5.89350 5.54961
#
# Compressibility (1/GPa) = 0.03652169
#
# Stress axis : x y z
#
# Youngs Moduli (GPa) = 124.19862 70.52470 46.73715
#
# Poissons Ratio (x) = 0.19199 0.24091
# Poissons Ratio (y) = 0.33811 -0.20210
# Poissons Ratio (z) = 0.64020 -0.30496
#
# Static dielectric constant tensor:
#      x y z
#    x 4.762300 0.000000 0.026060 
#    y 0.000000 4.402050 0.000000 
#    z 0.026060 0.000000 4.466900 
# 
# 
# High freq. dielectric constant tensor:
#      x y z
#    x 2.022550 0.000000 -0.005420 
#    y 0.000000 1.996270 0.000000 
#    z -0.005420 0.000000 2.010700 
# 
# From -- ./inp_files/202758.got.cif
#   From: 2010.06.25/outbox.cif.g09.slc.cpg/sg15_102_cif.got.tgz:202758.got - 2010.06.28 07:06:18.
