data_PCOD8146021
_publ_section_title
;
Structure prediction by ZEFSAII (Michael W. Deem and Ramdas Pophale) SiO2 
 PCOD8146021
Probable space group: C 2/C
;
_chemical_formula_sum "Si O2"
_cell_formula_units_Z 48
_cell_length_a 15.324917
_cell_length_b 13.485439
_cell_length_c 31.925977
_cell_angle_alpha 90.000000
_cell_angle_beta 159.842150
_cell_angle_gamma 90.000000
_cell_volume 2273.695961
_symmetry_space_group_name_H-M "C 2/C"
_symmetry_group_IT_number 15
_symmetry_cell_setting 'monoclinic'
loop_
_space_group_symop_operation_xyz
x,y,z
-x,y,1/2-z
-x,-y,-z
x,-y,1/2+z
1/2+x,1/2+y,z
1/2-x,1/2+y,1/2-z
1/2-x,1/2-y,-z
1/2+x,1/2-y,1/2+z
loop_
_atom_site_type_symbol
_atom_site_label
_atom_site_fract_x
_atom_site_fract_y
_atom_site_fract_z
Si Si1 0.961965 0.162703 0.333149
Si Si2 0.475856 0.206125 0.917234
Si Si3 0.364425 0.030748 0.647460
Si Si4 0.003642 0.210444 0.593877
Si Si5 0.251403 0.948467 0.253251
Si Si6 0.898358 0.161156 0.454177
O O1 0.761061 0.231063 0.219124
O O2 0.244133 0.172353 0.440975
O O3 0.987567 0.198318 0.392375
O O4 0.859942 0.052055 0.282136
O O5 0.326790 0.115005 0.828493
O O6 0.326868 0.247777 0.890969
O O7 0.500000 0.074493 0.750000
O O8 0.333061 0.912369 0.640078
O O9 0.507773 0.042128 0.668375
O O10 0.108422 0.092404 0.526368
O O11 0.030788 0.101777 0.626371
O O12 0.750000 0.250000 0.500000
O O13 0.988198 0.210346 0.537385
#
# Coordination Sequence:
#
# PCOD8146021 Si02
#       6
#     8   8   8   8   8   8
#     4  10  22  40  65  90 132 173 215 260 326 400
#     4  10  23  40  65  96 131 170 215 270 334 394
#     4  11  21  35  65  98 128 158 210 278 330 380
#     4  11  24  40  63  95 130 171 216 273 326 392
#     4  11  23  41  66  97 132 174 215 270 331 394
#     4  11  23  38  62  98 128 160 214 274 329 385
#
# _framework density 21.111001999999999
#
# number of rings (size 3 to 8) (size 9 to 14) (size 15 to 20)
#    0.000    1.333    1.667    5.000    7.000    1.333 
#    0.000    0.833    3.667    0.000    0.000    0.000 
#    0.000    0.000    0.000    0.000    0.000    0.000 
#
# Total GULP energy -297539.659280 kJ/mol
# GULP energy per Si atom -12397.485803 kJ/mol
# Density = 2.106295 g / cm^3
# Si number density = 21.111002 Si / 1000 Ang^3
#
#
#
# Elastic Constant Matrix: (Units=GPa)
#
#
# Indices 1 2 3 4 5 6 
#
# 1 93.8584 43.0322 31.6979 0.0019 -14.3069 0.0147
# 2 43.0322 110.4808 27.5562 0.0014 -6.8785 0.0113
# 3 31.6979 27.5562 65.6005 -0.0191 -8.4640 0.0305
# 4 0.0019 0.0014 -0.0191 30.0971 0.0187 0.7187
# 5 -14.3069 -6.8785 -8.4640 0.0187 33.5628 0.0027
# 6 0.0147 0.0113 0.0305 0.7187 0.0027 33.7458
#
#
#
# Elastic Compliance Matrix: (Units=1/GPa)
#
#
# Indices 1 2 3 4 5 6 
#
# 1 0.014928 -0.004342 -0.004840 -0.000006 0.004253 -0.000001
# 2 -0.004342 0.011409 -0.002720 -0.000002 -0.000199 0.000001
# 3 -0.004840 -0.002720 0.019005 0.000012 0.002172 -0.000015
# 4 -0.000006 -0.000002 0.000012 0.033243 -0.000019 -0.000708
# 5 0.004253 -0.000199 0.002172 -0.000019 0.032115 -0.000006
# 6 -0.000001 0.000001 -0.000015 -0.000708 -0.000006 0.029648
#
#
# Mechanical properties :
#
#
# Convention : Reuss Voigt Hill
#
# Bulk Modulus (GPa) = 46.43160 52.72356 49.57758
# Shear Modulus (GPa) = 29.18300 30.65804 29.92052
#
# Velocity S-wave (km/s) = 3.72204 3.81495 3.76878
# Velocity P-wave (km/s) = 6.36500 6.66587 6.51717
#
# Compressibility (1/GPa) = 0.02153706
#
# Stress axis : x y z
#
# Youngs Moduli (GPa) = 66.98709 87.65232 52.61664
#
# Poissons Ratio (x) = 0.38063 0.25469
# Poissons Ratio (y) = 0.29089 0.14310
# Poissons Ratio (z) = 0.32425 0.23839
#
# Static dielectric constant tensor:
#      x y z
#    x 2.704630 -0.000370 -0.102770 
#    y -0.000370 4.012740 -0.000090 
#    z -0.102770 -0.000090 3.972090 
# 
# 
# High freq. dielectric constant tensor:
#      x y z
#    x 1.809110 0.000000 -0.005610 
#    y 0.000000 1.825360 0.000000 
#    z -0.005610 0.000000 1.839190 
# 
# From -- ./inp_files/205293.got.cif
#   From: 2010.06.25/outbox.cif.g09.slc.cpg/sg15_103_cif.got.tgz:205293.got - 2010.06.28 07:06:18.
