data_PCOD8146262
_publ_section_title
;
Structure prediction by ZEFSAII (Michael W. Deem and Ramdas Pophale) SiO2 
 PCOD8146262
Probable space group: C 2/C
;
_chemical_formula_sum "Si O2"
_cell_formula_units_Z 44
_cell_length_a 5.287848
_cell_length_b 23.246934
_cell_length_c 16.001515
_cell_angle_alpha 90.000000
_cell_angle_beta 84.425907
_cell_angle_gamma 90.000000
_cell_volume 1957.705145
_symmetry_space_group_name_H-M "C 2/C"
_symmetry_group_IT_number 15
_symmetry_cell_setting 'monoclinic'
loop_
_space_group_symop_operation_xyz
x,y,z
-x,y,1/2-z
-x,-y,-z
x,-y,1/2+z
1/2+x,1/2+y,z
1/2-x,1/2+y,1/2-z
1/2-x,1/2-y,-z
1/2+x,1/2-y,1/2+z
loop_
_atom_site_type_symbol
_atom_site_label
_atom_site_fract_x
_atom_site_fract_y
_atom_site_fract_z
Si Si1 0.906203 0.673188 0.660852
Si Si2 0.704921 0.069740 0.609146
Si Si3 0.500000 0.391984 0.250000
Si Si4 0.450728 0.405947 0.935093
Si Si5 0.478745 0.048003 0.349636
Si Si6 0.987467 0.228640 0.045740
O O1 0.617990 0.650394 0.674800
O O2 0.000000 0.662796 0.750000
O O3 0.060907 0.630034 0.595185
O O4 0.941689 0.739323 0.635432
O O5 0.907243 0.064467 0.527230
O O6 0.823881 0.067028 0.699166
O O7 0.499782 0.017900 0.618265
O O8 0.696797 0.433009 0.885231
O O9 0.510661 0.338707 0.941660
O O10 0.201009 0.415116 0.885916
O O11 0.500000 0.055191 0.250000
O O12 0.250000 0.250000 0.000000
O O13 0.750000 0.250000 0.000000
#
# Coordination Sequence:
#
# PCOD8146262 Si02
#       6
#     8   8   4   8   8   8
#     4  10  23  41  69 105 136 183 239 296 359 422
#     4  11  24  44  74 105 141 187 247 298 362 424
#     4  10  22  40  72 108 144 184 242 306 370 424
#     4  12  27  47  75 107 142 192 244 297 357 439
#     4  12  28  48  70 104 150 193 237 293 365 436
#     4  12  25  47  74  99 142 182 235 296 355 418
#
# _framework density 22.475294000000002
#
# number of rings (size 3 to 8) (size 9 to 14) (size 15 to 20)
#    0.000    0.727    1.818    5.455   10.182    1.455 
#    1.636    0.000    0.000    0.000    0.000    0.000 
#    0.000    0.000    0.000    0.000    0.000    0.000 
#
# Total GULP energy -272681.435826 kJ/mol
# GULP energy per Si atom -12394.610719 kJ/mol
# Density = 2.242414 g / cm^3
# Si number density = 22.475294 Si / 1000 Ang^3
#
#
#
# Elastic Constant Matrix: (Units=GPa)
#
#
# Indices 1 2 3 4 5 6 
#
# 1 128.7915 29.2323 48.7476 0.0000 -6.9294 0.0000
# 2 29.2323 119.2155 46.9926 0.0000 10.7486 0.0000
# 3 48.7476 46.9926 130.8081 0.0000 -17.3963 0.0000
# 4 0.0000 0.0000 0.0000 30.5295 0.0000 -4.0510
# 5 -6.9294 10.7486 -17.3963 0.0000 34.7806 0.0000
# 6 0.0000 0.0000 0.0000 -4.0510 0.0000 37.9109
#
#
#
# Elastic Compliance Matrix: (Units=1/GPa)
#
#
# Indices 1 2 3 4 5 6 
#
# 1 0.009167 -0.001173 -0.002896 0.000000 0.000740 0.000000
# 2 -0.001173 0.010853 -0.004220 0.000000 -0.005698 0.000000
# 3 -0.002896 -0.004220 0.011073 0.000000 0.006266 0.000000
# 4 0.000000 0.000000 0.000000 0.033226 0.000000 0.003550
# 5 0.000740 -0.005698 0.006266 0.000000 0.033794 0.000000
# 6 0.000000 0.000000 0.000000 0.003550 0.000000 0.026757
#
#
# Mechanical properties :
#
#
# Convention : Reuss Voigt Hill
#
# Bulk Modulus (GPa) = 68.89255 69.86222 69.37739
# Shear Modulus (GPa) = 34.17957 37.56701 35.87329
#
# Velocity S-wave (km/s) = 3.90393 4.09281 3.99948
# Velocity P-wave (km/s) = 7.14423 7.31343 7.22932
#
# Compressibility (1/GPa) = 0.01451536
#
# Stress axis : x y z
#
# Youngs Moduli (GPa) = 109.08950 92.14232 90.30715
#
# Poissons Ratio (x) = 0.10806 0.26157
# Poissons Ratio (y) = 0.12794 0.38106
# Poissons Ratio (z) = 0.31597 0.38880
#
# Static dielectric constant tensor:
#      x y z
#    x 5.993110 0.000000 -0.427530 
#    y 0.000000 3.922940 0.000000 
#    z -0.427530 0.000000 3.969580 
# 
# 
# High freq. dielectric constant tensor:
#      x y z
#    x 1.897710 0.000000 -0.011950 
#    y 0.000000 1.889570 0.000000 
#    z -0.011950 0.000000 1.893180 
# 
# From -- ./inp_files/129387.got.cif
#   From: 2010.06.25/outbox.cif.g09.slc.cpg/sg15_65_cif.got.tgz:129387.got - 2010.06.28 07:06:18.
