data_PCOD8146890
_publ_section_title
;
Structure prediction by ZEFSAII (Michael W. Deem and Ramdas Pophale) SiO2 
 PCOD8146890
Probable space group: C 2/C
;
_chemical_formula_sum "Si O2"
_cell_formula_units_Z 56
_cell_length_a 9.181236
_cell_length_b 22.558951
_cell_length_c 14.326670
_cell_angle_alpha 90.000000
_cell_angle_beta 113.968387
_cell_angle_gamma 90.000000
_cell_volume 2711.452991
_symmetry_space_group_name_H-M "C 2/C"
_symmetry_group_IT_number 15
_symmetry_cell_setting 'monoclinic'
loop_
_space_group_symop_operation_xyz
x,y,z
-x,y,1/2-z
-x,-y,-z
x,-y,1/2+z
1/2+x,1/2+y,z
1/2-x,1/2+y,1/2-z
1/2-x,1/2-y,-z
1/2+x,1/2-y,1/2+z
loop_
_atom_site_type_symbol
_atom_site_label
_atom_site_fract_x
_atom_site_fract_y
_atom_site_fract_z
Si Si1 0.677223 0.499033 0.583199
Si Si2 0.335387 0.967243 0.951851
Si Si3 0.674091 0.291750 0.753741
Si Si4 0.912751 0.664120 0.822792
Si Si5 0.064388 0.340442 0.556979
Si Si6 0.841357 0.374937 0.651806
Si Si7 0.176656 0.942213 0.281069
O O1 0.500000 0.500000 0.500000
O O2 0.777834 0.542394 0.542599
O O3 0.746023 0.432758 0.595592
O O4 0.698413 0.525684 0.689492
O O5 0.353860 0.904607 0.906179
O O6 0.206830 0.007678 0.865978
O O7 0.500000 0.000000 0.000000
O O8 0.500000 0.308182 0.750000
O O9 0.680276 0.225189 0.716783
O O10 0.806600 0.293932 0.870057
O O11 0.720701 0.335113 0.681099
O O12 0.794113 0.612650 0.823014
O O13 0.000000 0.645517 0.750000
O O14 0.034868 0.673377 0.940576
O O15 0.899848 0.339137 0.574388
O O16 0.000000 0.392749 0.750000
O O17 0.000000 0.917099 0.250000
#
# Coordination Sequence:
#
# PCOD8146890 Si02
#       7
#     8   8   8   8   8   8   8
#     4  12  25  39  61 101 134 164 210 261 325 381
#     4  12  23  42  68  96 131 173 210 257 327 391
#     4  10  25  44  67  97 127 166 222 272 320 375
#     4  11  25  46  66  95 127 174 221 267 326 380
#     4  11  23  43  70  93 130 176 217 259 324 395
#     4  10  22  42  66  93 129 173 215 255 319 390
#     4  12  25  41  63  97 137 166 213 273 316 382
#
# _framework density 20.653134000000001
#
# number of rings (size 3 to 8) (size 9 to 14) (size 15 to 20)
#    0.000    0.857    4.286    2.571    2.000    5.714 
#    2.571    0.000    0.000    0.000    0.000    0.000 
#    0.000    0.000    0.000    0.000    0.000    0.000 
#
# Total GULP energy -347261.770053 kJ/mol
# GULP energy per Si atom -12402.206073 kJ/mol
# Density = 2.060613 g / cm^3
# Si number density = 20.653134 Si / 1000 Ang^3
#
#
#
# Elastic Constant Matrix: (Units=GPa)
#
#
# Indices 1 2 3 4 5 6 
#
# 1 117.5023 29.7637 40.8227 0.0000 -11.5856 0.0000
# 2 29.7637 101.9143 36.6134 0.0000 7.8968 0.0000
# 3 40.8227 36.6134 129.1055 0.0000 -5.4963 0.0000
# 4 0.0000 0.0000 0.0000 36.8402 0.0000 -1.8457
# 5 -11.5856 7.8968 -5.4963 0.0000 39.5646 0.0000
# 6 0.0000 0.0000 0.0000 -1.8457 0.0000 20.2677
#
#
#
# Elastic Compliance Matrix: (Units=1/GPa)
#
#
# Indices 1 2 3 4 5 6 
#
# 1 0.010267 -0.002364 -0.002442 0.000000 0.003139 0.000000
# 2 -0.002364 0.011748 -0.002729 0.000000 -0.003416 0.000000
# 3 -0.002442 -0.002729 0.009340 0.000000 0.001127 0.000000
# 4 0.000000 0.000000 0.000000 0.027269 0.000000 0.002483
# 5 0.003139 -0.003416 0.001127 0.000000 0.027033 0.000000
# 6 0.000000 0.000000 0.000000 0.002483 0.000000 0.049566
#
#
# Mechanical properties :
#
#
# Convention : Reuss Voigt Hill
#
# Bulk Modulus (GPa) = 61.41416 62.54686 61.98051
# Shear Modulus (GPa) = 32.10839 35.42266 33.76552
#
# Velocity S-wave (km/s) = 3.94718 4.14590 4.04776
# Velocity P-wave (km/s) = 7.11156 7.29850 7.20563
#
# Compressibility (1/GPa) = 0.01628289
#
# Stress axis : x y z
#
# Youngs Moduli (GPa) = 97.39545 85.12110 107.06742
#
# Poissons Ratio (x) = 0.20126 0.26150
# Poissons Ratio (y) = 0.23028 0.29224
# Poissons Ratio (z) = 0.23787 0.23234
#
# Static dielectric constant tensor:
#      x y z
#    x 3.913450 0.000000 -0.191920 
#    y 0.000000 3.892220 0.000000 
#    z -0.191920 0.000000 3.463550 
# 
# 
# High freq. dielectric constant tensor:
#      x y z
#    x 1.822360 0.000000 -0.011380 
#    y 0.000000 1.796930 0.000000 
#    z -0.011380 0.000000 1.822330 
# 
# From -- ./inp_files/137969.got.cif
#   From: 2010.06.25/outbox.cif.g09.slc.cpg/sg15_69_cif.got.tgz:137969.got - 2010.06.28 07:06:18.
