data_PCOD8146958
_publ_section_title
;
Structure prediction by ZEFSAII (Michael W. Deem and Ramdas Pophale) SiO2 
 PCOD8146958
Probable space group: C 2/C
;
_chemical_formula_sum "Si O2"
_cell_formula_units_Z 40
_cell_length_a 12.005017
_cell_length_b 8.581113
_cell_length_c 25.495511
_cell_angle_alpha 90.000000
_cell_angle_beta 43.932328
_cell_angle_gamma 90.000000
_cell_volume 1822.256870
_symmetry_space_group_name_H-M "C 2/C"
_symmetry_group_IT_number 15
_symmetry_cell_setting 'monoclinic'
loop_
_space_group_symop_operation_xyz
x,y,z
-x,y,1/2-z
-x,-y,-z
x,-y,1/2+z
1/2+x,1/2+y,z
1/2-x,1/2+y,1/2-z
1/2-x,1/2-y,-z
1/2+x,1/2-y,1/2+z
loop_
_atom_site_type_symbol
_atom_site_label
_atom_site_fract_x
_atom_site_fract_y
_atom_site_fract_z
Si Si1 0.646688 0.924397 0.018778
Si Si2 0.915605 0.682120 0.070142
Si Si3 0.345205 0.480701 0.774122
Si Si4 0.609380 0.239827 0.831278
Si Si5 0.502295 0.511570 0.437506
O O1 0.550729 0.863557 0.102901
O O2 0.582337 0.088927 0.019907
O O3 0.620796 0.796427 0.980229
O O4 0.832719 0.945140 0.968534
O O5 0.772069 0.581445 0.141694
O O6 0.936298 0.838257 0.097679
O O7 0.500000 0.551327 0.750000
O O8 0.404581 0.341340 0.716467
O O9 0.261170 0.625380 0.773161
O O10 0.631209 0.362699 0.872209
O O11 0.500000 0.500000 0.500000
#
# Coordination Sequence:
#
# PCOD8146958 Si02
#       5
#     8   8   8   8   8
#     4  10  22  42  67  95 133 164 216 272 322 385
#     4  10  22  42  67  97 127 173 214 267 328 382
#     4  11  25  45  67  90 136 177 215 268 325 383
#     4  11  24  46  64  97 130 173 223 264 323 393
#     4  12  23  38  66 100 130 162 215 271 327 383
#
# _framework density 21.950801999999999
#
# number of rings (size 3 to 8) (size 9 to 14) (size 15 to 20)
#    0.000    1.200    2.000    3.600    2.800    0.000 
#   10.800    1.000    0.000    0.000    0.000    0.000 
#    0.000    0.000    0.000    0.000    0.000    0.000 
#
# Total GULP energy -247902.383728 kJ/mol
# GULP energy per Si atom -12395.119186 kJ/mol
# Density = 2.190084 g / cm^3
# Si number density = 21.950802 Si / 1000 Ang^3
#
#
#
# Elastic Constant Matrix: (Units=GPa)
#
#
# Indices 1 2 3 4 5 6 
#
# 1 109.4308 40.6770 27.0759 0.0000 -11.0328 0.0000
# 2 40.6770 103.1274 11.3844 0.0000 -17.7203 0.0000
# 3 27.0759 11.3844 69.1832 0.0000 5.8811 0.0000
# 4 0.0000 0.0000 0.0000 45.5218 0.0000 -1.5093
# 5 -11.0328 -17.7203 5.8811 0.0000 30.0753 0.0000
# 6 0.0000 0.0000 0.0000 -1.5093 0.0000 7.0423
#
#
#
# Elastic Compliance Matrix: (Units=1/GPa)
#
#
# Indices 1 2 3 4 5 6 
#
# 1 0.011879 -0.003691 -0.004298 0.000000 0.003023 0.000000
# 2 -0.003691 0.012327 -0.001104 0.000000 0.006125 0.000000
# 3 -0.004298 -0.001104 0.016787 0.000000 -0.005510 0.000000
# 4 0.000000 0.000000 0.000000 0.022125 0.000000 0.004742
# 5 0.003023 0.006125 -0.005510 0.000000 0.039045 0.000000
# 6 0.000000 0.000000 0.000000 0.004742 0.000000 0.143015
#
#
# Mechanical properties :
#
#
# Convention : Reuss Voigt Hill
#
# Bulk Modulus (GPa) = 43.85202 48.89068 46.37135
# Shear Modulus (GPa) = 18.45239 30.03481 24.24360
#
# Velocity S-wave (km/s) = 2.90250 3.70304 3.32693
# Velocity P-wave (km/s) = 5.59048 6.37217 5.99408
#
# Compressibility (1/GPa) = 0.02280397
#
# Stress axis : x y z
#
# Youngs Moduli (GPa) = 84.18448 81.12189 59.57061
#
# Poissons Ratio (x) = 0.29945 0.25606
# Poissons Ratio (y) = 0.31076 0.06579
# Poissons Ratio (z) = 0.36186 0.08960
#
# Static dielectric constant tensor:
#      x y z
#    x 3.843090 0.000000 -0.040830 
#    y 0.000000 5.038700 0.000000 
#    z -0.040830 0.000000 4.001040 
# 
# 
# High freq. dielectric constant tensor:
#      x y z
#    x 1.845000 0.000000 0.002990 
#    y 0.000000 1.883160 0.000000 
#    z 0.002990 0.000000 1.866670 
# 
# From -- ./inp_files/195073.got.cif
#   From: 2010.06.25/outbox.cif.g09.slc.cpg/sg15_98_cif.got.tgz:195073.got - 2010.06.28 07:06:18.
