data_PCOD8146237
_publ_section_title
;
Structure prediction by ZEFSAII (Michael W. Deem and Ramdas Pophale) SiO2 
 PCOD8146237
Probable space group: C 2/C
;
_chemical_formula_sum "Si O2"
_cell_formula_units_Z 40
_cell_length_a 8.311376
_cell_length_b 14.859283
_cell_length_c 26.718476
_cell_angle_alpha 90.000000
_cell_angle_beta 147.670336
_cell_angle_gamma 90.000000
_cell_volume 1764.678776
_symmetry_space_group_name_H-M "C 2/C"
_symmetry_group_IT_number 15
_symmetry_cell_setting 'monoclinic'
loop_
_space_group_symop_operation_xyz
x,y,z
-x,y,1/2-z
-x,-y,-z
x,-y,1/2+z
1/2+x,1/2+y,z
1/2-x,1/2+y,1/2-z
1/2-x,1/2-y,-z
1/2+x,1/2-y,1/2+z
loop_
_atom_site_type_symbol
_atom_site_label
_atom_site_fract_x
_atom_site_fract_y
_atom_site_fract_z
Si Si1 0.960461 0.254176 0.007356
Si Si2 0.268654 0.067836 0.062441
Si Si3 0.199140 0.963706 0.254030
Si Si4 0.605881 0.804546 0.328319
Si Si5 0.647740 0.590155 0.924507
O O1 0.727834 0.266942 0.900073
O O2 0.750000 0.250000 0.000000
O O3 0.170284 0.166796 0.054973
O O4 0.175950 0.340302 0.064934
O O5 0.552409 0.040789 0.171609
O O6 0.358623 0.057205 0.026372
O O7 0.000000 0.000000 0.000000
O O8 0.344016 0.865580 0.282805
O O9 0.000000 0.953682 0.250000
O O10 0.992109 0.985143 0.150071
O O11 0.500000 0.752559 0.250000
O O12 0.876853 0.869179 0.384949
#
# Coordination Sequence:
#
# PCOD8146237 Si02
#       5
#     8   8   8   8   8
#     4  11  22  42  69 101 132 176 229 282 342 409
#     4  11  22  42  73  96 135 179 230 275 343 415
#     4  11  22  40  66  98 135 177 223 278 338 397
#     4   9  18  37  65  89 130 177 219 265 342 398
#     4  10  22  40  70  91 139 177 219 277 345 394
#
# _framework density 22.667014000000002
#
# number of rings (size 3 to 8) (size 9 to 14) (size 15 to 20)
#    0.000    1.600    4.000    3.600    0.000    0.800 
#    0.000    8.000   17.600    0.000    0.000    0.000 
#    0.000    0.000    0.000    0.000    0.000    0.000 
#
# Total GULP energy -247772.407804 kJ/mol
# GULP energy per Si atom -12388.620390 kJ/mol
# Density = 2.261542 g / cm^3
# Si number density = 22.667014 Si / 1000 Ang^3
#
#
#
# Elastic Constant Matrix: (Units=GPa)
#
#
# Indices 1 2 3 4 5 6 
#
# 1 151.6386 29.9788 64.2455 -0.0003 -12.6856 0.0002
# 2 29.9788 62.4159 57.5845 -0.0003 -7.9619 0.0000
# 3 64.2455 57.5845 127.6538 -0.0018 -39.1450 -0.0004
# 4 -0.0003 -0.0003 -0.0018 36.1538 -0.0003 -3.6240
# 5 -12.6856 -7.9619 -39.1450 -0.0003 51.3462 0.0001
# 6 0.0002 0.0000 -0.0004 -3.6240 0.0001 26.6447
#
#
#
# Elastic Compliance Matrix: (Units=1/GPa)
#
#
# Indices 1 2 3 4 5 6 
#
# 1 0.008472 0.000182 -0.004823 0.000000 -0.001555 0.000000
# 2 0.000182 0.029373 -0.015571 -0.000001 -0.007272 0.000000
# 3 -0.004823 -0.015571 0.021116 0.000001 0.012492 0.000000
# 4 0.000000 -0.000001 0.000001 0.028042 0.000001 0.003814
# 5 -0.001555 -0.007272 0.012492 0.000001 0.027487 0.000000
# 6 0.000000 0.000000 0.000000 0.003814 0.000000 0.038050
#
#
# Mechanical properties :
#
#
# Convention : Reuss Voigt Hill
#
# Bulk Modulus (GPa) = 53.94945 71.70288 62.82617
# Shear Modulus (GPa) = 25.10769 35.48893 30.29831
#
# Velocity S-wave (km/s) = 3.33179 3.96114 3.66002
# Velocity P-wave (km/s) = 6.21720 7.25415 6.75560
#
# Compressibility (1/GPa) = 0.01853587
#
# Stress axis : x y z
#
# Youngs Moduli (GPa) = 118.03853 34.04531 47.35789
#
# Poissons Ratio (x) = -0.00619 0.22840
# Poissons Ratio (y) = -0.02148 0.73743
# Poissons Ratio (z) = 0.56927 0.53013
#
# Static dielectric constant tensor:
#      x y z
#    x 4.960780 -0.000080 -0.802100 
#    y -0.000080 4.010950 0.000040 
#    z -0.802100 0.000040 5.334360 
# 
# 
# High freq. dielectric constant tensor:
#      x y z
#    x 1.911220 0.000000 -0.007370 
#    y 0.000000 1.845000 0.000000 
#    z -0.007370 0.000000 1.915740 
# 
# From -- ./inp_files/289654.got.cif
#   From: 2010.06.25/outbox.cif.g09.slc.cpg/sg15_145_cif.got.tgz:289654.got - 2010.06.28 07:06:18.
