data_PCOD8146601
_publ_section_title
;
Structure prediction by ZEFSAII (Michael W. Deem and Ramdas Pophale) SiO2 
 PCOD8146601
Probable space group: C 2/C
;
_chemical_formula_sum "Si O2"
_cell_formula_units_Z 44
_cell_length_a 15.149436
_cell_length_b 24.193749
_cell_length_c 5.303567
_cell_angle_alpha 90.000000
_cell_angle_beta 85.466522
_cell_angle_gamma 90.000000
_cell_volume 1937.790384
_symmetry_space_group_name_H-M "C 2/C"
_symmetry_group_IT_number 15
_symmetry_cell_setting 'monoclinic'
loop_
_space_group_symop_operation_xyz
x,y,z
-x,y,1/2-z
-x,-y,-z
x,-y,1/2+z
1/2+x,1/2+y,z
1/2-x,1/2+y,1/2-z
1/2-x,1/2-y,-z
1/2+x,1/2-y,1/2+z
loop_
_atom_site_type_symbol
_atom_site_label
_atom_site_fract_x
_atom_site_fract_y
_atom_site_fract_z
Si Si1 0.363468 0.463615 0.595550
Si Si2 0.851020 0.183611 0.563820
Si Si3 0.772195 0.387625 0.080424
Si Si4 0.500000 0.381018 0.750000
Si Si5 0.400403 0.034282 0.798829
Si Si6 0.701562 0.211899 0.207903
O O1 0.371925 0.503070 0.353109
O O2 0.267796 0.433540 0.602284
O O3 0.441898 0.418736 0.576444
O O4 0.814510 0.142826 0.788168
O O5 0.940467 0.158741 0.434828
O O6 0.772115 0.187560 0.384735
O O7 0.871616 0.247178 0.651132
O O8 0.831731 0.415563 0.282292
O O9 0.835847 0.343071 0.922353
O O10 0.500000 0.057365 0.750000
O O11 0.384061 0.989948 0.579850
O O12 0.750000 0.250000 0.000000
#
# Coordination Sequence:
#
# PCOD8146601 Si02
#       6
#     8   8   8   4   8   8
#     4  12  26  42  62 103 146 190 235 279 330 422
#     4  10  22  41  69  94 137 178 232 283 350 415
#     4  11  22  40  72  96 134 187 228 283 355 416
#     4  12  24  44  68 102 144 192 228 288 350 398
#     4  10  23  42  68 101 139 177 228 292 352 421
#     4   9  20  42  67  94 123 174 229 287 341 411
#
# _framework density 22.706275000000002
#
# number of rings (size 3 to 8) (size 9 to 14) (size 15 to 20)
#    0.000    1.455    1.818    2.727    2.545    2.182 
#    0.000    0.000   22.000    0.000    0.000    0.000 
#    0.000    0.000    0.000    0.000    0.000    0.000 
#
# Total GULP energy -272630.306056 kJ/mol
# GULP energy per Si atom -12392.286639 kJ/mol
# Density = 2.265459 g / cm^3
# Si number density = 22.706275 Si / 1000 Ang^3
#
#
#
# Elastic Constant Matrix: (Units=GPa)
#
#
# Indices 1 2 3 4 5 6 
#
# 1 82.2627 58.3317 2.4578 0.0000 0.9895 0.0000
# 2 58.3317 128.3513 27.9410 0.0000 -3.5728 0.0000
# 3 2.4578 27.9410 69.8602 0.0000 1.3463 0.0000
# 4 0.0000 0.0000 0.0000 23.5311 0.0000 4.0014
# 5 0.9895 -3.5728 1.3463 0.0000 34.2362 0.0000
# 6 0.0000 0.0000 0.0000 4.0014 0.0000 39.0676
#
#
#
# Elastic Compliance Matrix: (Units=1/GPa)
#
#
# Indices 1 2 3 4 5 6 
#
# 1 0.018569 -0.009145 0.003035 0.000000 -0.001610 0.000000
# 2 -0.009145 0.013074 -0.004942 0.000000 0.001823 0.000000
# 3 0.003035 -0.004942 0.016208 0.000000 -0.001241 0.000000
# 4 0.000000 0.000000 0.000000 0.043250 0.000000 -0.004430
# 5 -0.001610 0.001823 -0.001241 0.000000 0.029494 0.000000
# 6 0.000000 0.000000 0.000000 -0.004430 0.000000 0.026050
#
#
# Mechanical properties :
#
#
# Convention : Reuss Voigt Hill
#
# Bulk Modulus (GPa) = 38.83870 50.88172 44.86021
# Shear Modulus (GPa) = 28.19559 32.14986 30.17273
#
# Velocity S-wave (km/s) = 3.52767 3.76693 3.64926
# Velocity P-wave (km/s) = 5.80815 6.43249 6.12828
#
# Compressibility (1/GPa) = 0.02574752
#
# Stress axis : x y z
#
# Youngs Moduli (GPa) = 53.85223 76.48894 61.69736
#
# Poissons Ratio (x) = 0.69947 -0.18727
# Poissons Ratio (y) = 0.49247 0.30493
# Poissons Ratio (z) = -0.16345 0.37803
#
# Static dielectric constant tensor:
#      x y z
#    x 3.877970 0.000000 0.109030 
#    y 0.000000 4.771220 0.000000 
#    z 0.109030 0.000000 4.276220 
# 
# 
# High freq. dielectric constant tensor:
#      x y z
#    x 1.859680 0.000000 0.006640 
#    y 0.000000 1.914300 0.000000 
#    z 0.006640 0.000000 1.911540 
# 
# From -- ./inp_files/7605.got.cif
#   From: 2010.06.25/outbox.cif.g09.slc.cpg/sg15_4_cif.got.tgz:7605.got - 2010.06.28 07:06:18.
