data_PCOD8146434
_publ_section_title
;
Structure prediction by ZEFSAII (Michael W. Deem and Ramdas Pophale) SiO2 
 PCOD8146434
Probable space group: C 2/C
;
_chemical_formula_sum "Si O2"
_cell_formula_units_Z 32
_cell_length_a 5.162215
_cell_length_b 19.329238
_cell_length_c 18.470350
_cell_angle_alpha 90.000000
_cell_angle_beta 135.188596
_cell_angle_gamma 90.000000
_cell_volume 1298.902942
_symmetry_space_group_name_H-M "C 2/C"
_symmetry_group_IT_number 15
_symmetry_cell_setting 'monoclinic'
loop_
_space_group_symop_operation_xyz
x,y,z
-x,y,1/2-z
-x,-y,-z
x,-y,1/2+z
1/2+x,1/2+y,z
1/2-x,1/2+y,1/2-z
1/2-x,1/2-y,-z
1/2+x,1/2-y,1/2+z
loop_
_atom_site_type_symbol
_atom_site_label
_atom_site_fract_x
_atom_site_fract_y
_atom_site_fract_z
Si Si1 0.111813 0.142612 0.925124
Si Si2 0.999282 0.278665 0.112356
Si Si3 0.081905 0.994602 0.181155
Si Si4 0.621861 0.640892 0.353241
O O1 0.154273 0.183690 0.856606
O O2 0.727903 0.166838 0.883657
O O3 0.131008 0.061894 0.909577
O O4 0.446751 0.158301 0.047673
O O5 0.122613 0.209103 0.178685
O O6 0.750000 0.250000 0.000000
O O7 0.500000 0.978332 0.250000
O O8 0.000000 0.986382 0.250000
O O9 0.981573 0.069779 0.125442
O O10 0.500000 0.619080 0.250000
#
# Coordination Sequence:
#
# PCOD8146434 Si02
#       4
#     8   8   8   8
#     4  11  23  44  67  93 129 169 211 261 316 378
#     4  10  22  41  65  92 124 163 211 260 315 374
#     4  11  25  43  64  95 129 169 216 261 314 375
#     4  10  23  42  66  96 129 167 211 262 317 377
#
# _framework density 24.636172999999999
#
# number of rings (size 3 to 8) (size 9 to 14) (size 15 to 20)
#    0.000    1.500    0.000    5.250    0.000   15.000 
#    0.000   15.000    0.000    0.000    0.000    0.000 
#    0.000    0.000    0.000    0.000    0.000    0.000 
#
# Total GULP energy -198260.214087 kJ/mol
# GULP energy per Si atom -12391.263380 kJ/mol
# Density = 2.458010 g / cm^3
# Si number density = 24.636173 Si / 1000 Ang^3
#
#
#
# Elastic Constant Matrix: (Units=GPa)
#
#
# Indices 1 2 3 4 5 6 
#
# 1 146.6085 33.7274 21.7947 0.0000 -5.0277 0.0000
# 2 33.7274 191.5209 23.9984 0.0000 -15.8608 0.0000
# 3 21.7947 23.9984 46.2358 0.0000 -1.5403 0.0000
# 4 0.0000 0.0000 0.0000 40.7213 0.0000 -5.3685
# 5 -5.0277 -15.8608 -1.5403 0.0000 24.1824 0.0000
# 6 0.0000 0.0000 0.0000 -5.3685 0.0000 1.3675
#
#
#
# Elastic Compliance Matrix: (Units=1/GPa)
#
#
# Indices 1 2 3 4 5 6 
#
# 1 0.007503 -0.000873 -0.003058 0.000000 0.000793 0.000000
# 2 -0.000873 0.005995 -0.002581 0.000000 0.003587 0.000000
# 3 -0.003058 -0.002581 0.024383 0.000000 -0.000775 0.000000
# 4 0.000000 0.000000 0.000000 0.050901 0.000000 0.199827
# 5 0.000793 0.003587 -0.000775 0.000000 0.043820 0.000000
# 6 0.000000 0.000000 0.000000 0.199827 0.000000 1.515742
#
#
# Mechanical properties :
#
#
# Convention : Reuss Voigt Hill
#
# Bulk Modulus (GPa) = 40.22580 60.37846 50.30213
# Shear Modulus (GPa) = 2.99463 33.57721 18.28592
#
# Velocity S-wave (km/s) = 1.10371 3.69578 2.72736
# Velocity P-wave (km/s) = 4.24118 6.54011 5.51183
#
# Compressibility (1/GPa) = 0.02485966
#
# Stress axis : x y z
#
# Youngs Moduli (GPa) = 133.27368 166.79273 41.01142
#
# Poissons Ratio (x) = 0.14554 0.12540
# Poissons Ratio (y) = 0.11629 0.10586
# Poissons Ratio (z) = 0.40750 0.43051
#
# Static dielectric constant tensor:
#      x y z
#    x 6.756560 0.000000 -0.880440 
#    y 0.000000 10.855710 0.000000 
#    z -0.880440 0.000000 4.344820 
# 
# 
# High freq. dielectric constant tensor:
#      x y z
#    x 1.965760 0.000000 -0.003190 
#    y 0.000000 2.012970 0.000000 
#    z -0.003190 0.000000 1.968350 
# 
# From -- ./inp_files/128281.got.cif
#   From: 2010.06.25/outbox.cif.g09.slc.cpg/sg15_65_cif.got.tgz:128281.got - 2010.06.28 07:06:18.
