data_PCOD8146918
_publ_section_title
;
Structure prediction by ZEFSAII (Michael W. Deem and Ramdas Pophale) SiO2 
 PCOD8146918
Probable space group: C 2/C
;
_chemical_formula_sum "Si O2"
_cell_formula_units_Z 40
_cell_length_a 22.078357
_cell_length_b 8.697549
_cell_length_c 9.436056
_cell_angle_alpha 90.000000
_cell_angle_beta 76.948238
_cell_angle_gamma 90.000000
_cell_volume 1765.173140
_symmetry_space_group_name_H-M "C 2/C"
_symmetry_group_IT_number 15
_symmetry_cell_setting 'monoclinic'
loop_
_space_group_symop_operation_xyz
x,y,z
-x,y,1/2-z
-x,-y,-z
x,-y,1/2+z
1/2+x,1/2+y,z
1/2-x,1/2+y,1/2-z
1/2-x,1/2-y,-z
1/2+x,1/2-y,1/2+z
loop_
_atom_site_type_symbol
_atom_site_label
_atom_site_fract_x
_atom_site_fract_y
_atom_site_fract_z
Si Si1 0.038916 0.403815 0.366422
Si Si2 0.834697 0.444389 0.723582
Si Si3 0.064591 0.914773 0.991032
Si Si4 0.758663 0.430474 0.019212
Si Si5 0.361894 0.405272 0.270062
O O1 0.096877 0.497487 0.273269
O O2 0.062648 0.254690 0.432662
O O3 0.000000 0.354526 0.250000
O O4 0.000000 0.500000 0.500000
O O5 0.817108 0.520030 0.584112
O O6 0.839202 0.259914 0.726283
O O7 0.779629 0.502642 0.858049
O O8 0.119499 0.001915 0.879411
O O9 0.080649 0.902107 0.149455
O O10 0.000000 0.000000 0.000000
O O11 0.694649 0.494414 0.119491
O O12 0.750000 0.250000 0.000000
#
# Coordination Sequence:
#
# PCOD8146918 Si02
#       5
#     8   8   8   8   8
#     4  12  24  41  65  96 130 173 222 274 330 395
#     4  11  23  43  68  96 131 174 220 271 327 392
#     4  12  25  44  66  96 134 174 220 274 332 393
#     4  10  22  42  66  97 131 171 219 272 327 391
#     4  11  24  44  66  95 131 174 218 271 330 393
#
# _framework density 22.660665999999999
#
# number of rings (size 3 to 8) (size 9 to 14) (size 15 to 20)
#    0.000    0.800    0.000    9.000    0.000    3.200 
#    0.000    6.000    0.000    0.000    0.000    0.000 
#    0.000    0.000    0.000    0.000    0.000    0.000 
#
# Total GULP energy -247956.051576 kJ/mol
# GULP energy per Si atom -12397.802579 kJ/mol
# Density = 2.260909 g / cm^3
# Si number density = 22.660666 Si / 1000 Ang^3
#
#
#
# Elastic Constant Matrix: (Units=GPa)
#
#
# Indices 1 2 3 4 5 6 
#
# 1 86.1271 31.6158 12.1651 0.0000 -12.3590 0.0000
# 2 31.6158 99.2743 42.2998 0.0000 -6.2789 0.0000
# 3 12.1651 42.2998 93.0539 0.0000 -1.3273 0.0000
# 4 0.0000 0.0000 0.0000 31.0957 0.0000 4.5366
# 5 -12.3590 -6.2789 -1.3273 0.0000 66.5823 0.0000
# 6 0.0000 0.0000 0.0000 4.5366 0.0000 43.1300
#
#
#
# Elastic Compliance Matrix: (Units=1/GPa)
#
#
# Indices 1 2 3 4 5 6 
#
# 1 0.013437 -0.004230 0.000196 0.000000 0.002099 0.000000
# 2 -0.004230 0.013900 -0.005760 0.000000 0.000411 0.000000
# 3 0.000196 -0.005760 0.013336 0.000000 -0.000241 0.000000
# 4 0.000000 0.000000 0.000000 0.032660 0.000000 -0.003435
# 5 0.002099 0.000411 -0.000241 0.000000 0.015443 0.000000
# 6 0.000000 0.000000 0.000000 -0.003435 0.000000 0.023547
#
#
# Mechanical properties :
#
#
# Convention : Reuss Voigt Hill
#
# Bulk Modulus (GPa) = 47.42585 50.06852 48.74718
# Shear Modulus (GPa) = 35.98700 40.98658 38.48679
#
# Velocity S-wave (km/s) = 3.98940 4.25751 4.12563
# Velocity P-wave (km/s) = 6.49573 6.80524 6.65229
#
# Compressibility (1/GPa) = 0.02108555
#
# Stress axis : x y z
#
# Youngs Moduli (GPa) = 74.42103 71.93994 74.98678
#
# Poissons Ratio (x) = 0.30431 -0.01471
# Poissons Ratio (y) = 0.31481 0.43192
# Poissons Ratio (z) = -0.01460 0.41437
#
# Static dielectric constant tensor:
#      x y z
#    x 4.306010 0.000000 -0.184520 
#    y 0.000000 3.947690 0.000000 
#    z -0.184520 0.000000 4.193560 
# 
# 
# High freq. dielectric constant tensor:
#      x y z
#    x 1.910960 0.000000 -0.008130 
#    y 0.000000 1.881280 0.000000 
#    z -0.008130 0.000000 1.912260 
# 
# From -- ./inp_files/59957.got.cif
#   From: 2010.06.25/outbox.cif.g09.slc.cpg/sg15_30_cif.got.tgz:59957.got - 2010.06.28 07:06:18.
