data_PCOD8146736
_publ_section_title
;
Structure prediction by ZEFSAII (Michael W. Deem and Ramdas Pophale) SiO2 
 PCOD8146736
Probable space group: C 2/C
;
_chemical_formula_sum "Si O2"
_cell_formula_units_Z 44
_cell_length_a 12.254374
_cell_length_b 13.618055
_cell_length_c 15.306356
_cell_angle_alpha 90.000000
_cell_angle_beta 123.735836
_cell_angle_gamma 90.000000
_cell_volume 2124.203518
_symmetry_space_group_name_H-M "C 2/C"
_symmetry_group_IT_number 15
_symmetry_cell_setting 'monoclinic'
loop_
_space_group_symop_operation_xyz
x,y,z
-x,y,1/2-z
-x,-y,-z
x,-y,1/2+z
1/2+x,1/2+y,z
1/2-x,1/2+y,1/2-z
1/2-x,1/2-y,-z
1/2+x,1/2-y,1/2+z
loop_
_atom_site_type_symbol
_atom_site_label
_atom_site_fract_x
_atom_site_fract_y
_atom_site_fract_z
Si Si1 0.690817 0.080811 0.373842
Si Si2 0.274005 0.372898 0.417464
Si Si3 0.500000 0.521328 0.250000
Si Si4 0.529418 0.624629 0.923588
Si Si5 0.046542 0.340491 0.647609
Si Si6 0.732710 0.344343 0.880908
O O1 0.580802 0.090485 0.400762
O O2 0.648559 0.145518 0.272402
O O3 0.828707 0.120357 0.469345
O O4 0.691418 0.965974 0.347445
O O5 0.422623 0.391503 0.451961
O O6 0.274178 0.370945 0.521494
O O7 0.209542 0.272377 0.352663
O O8 0.478486 0.456790 0.154835
O O9 0.376293 0.591384 0.216654
O O10 0.505120 0.729650 0.869769
O O11 0.122115 0.367947 0.591848
#
# Coordination Sequence:
#
# PCOD8146736 Si02
#       6
#     8   8   4   8   8   8
#     4  11  21  41  67  88 123 163 201 255 304 358
#     4  10  22  42  63  89 126 160 202 249 311 354
#     4  12  22  38  66  94 118 162 214 244 300 362
#     4  11  23  41  64  92 121 162 207 253 297 366
#     4  10  24  40  62  91 126 156 205 249 314 354
#     4  10  23  40  60  94 123 158 204 252 296 371
#
# _framework density 20.713645
#
# number of rings (size 3 to 8) (size 9 to 14) (size 15 to 20)
#    0.000    1.455    1.818    3.273    2.545    2.182 
#    0.000    0.000    0.000    0.000    0.000    0.000 
#    0.000    0.000    0.000    0.000    0.000    0.000 
#
# Total GULP energy -272782.796875 kJ/mol
# GULP energy per Si atom -12399.218040 kJ/mol
# Density = 2.066650 g / cm^3
# Si number density = 20.713645 Si / 1000 Ang^3
#
#
#
# Elastic Constant Matrix: (Units=GPa)
#
#
# Indices 1 2 3 4 5 6 
#
# 1 171.0789 63.5495 55.9746 0.0000 8.7197 0.0000
# 2 63.5495 121.6422 63.9881 0.0000 17.0833 0.0000
# 3 55.9746 63.9881 101.0094 0.0000 14.2417 0.0000
# 4 0.0000 0.0000 0.0000 23.2044 0.0000 9.7007
# 5 8.7197 17.0833 14.2417 0.0000 30.4669 0.0000
# 6 0.0000 0.0000 0.0000 9.7007 0.0000 29.6720
#
#
#
# Elastic Compliance Matrix: (Units=1/GPa)
#
#
# Indices 1 2 3 4 5 6 
#
# 1 0.007681 -0.002714 -0.002614 0.000000 0.000546 0.000000
# 2 -0.002714 0.013646 -0.006606 0.000000 -0.003786 0.000000
# 3 -0.002614 -0.006606 0.015958 0.000000 -0.003007 0.000000
# 4 0.000000 0.000000 0.000000 0.049918 0.000000 -0.016320
# 5 0.000546 -0.003786 -0.003007 0.000000 0.036195 0.000000
# 6 0.000000 0.000000 0.000000 -0.016320 0.000000 0.039037
#
#
# Mechanical properties :
#
#
# Convention : Reuss Voigt Hill
#
# Bulk Modulus (GPa) = 74.54270 84.52832 79.53551
# Shear Modulus (GPa) = 26.20884 30.68324 28.44604
#
# Velocity S-wave (km/s) = 3.56096 3.85295 3.70983
# Velocity P-wave (km/s) = 7.27823 7.79039 7.53866
#
# Compressibility (1/GPa) = 0.01341513
#
# Stress axis : x y z
#
# Youngs Moduli (GPa) = 130.19223 73.28209 62.66636
#
# Poissons Ratio (x) = 0.19892 0.16380
# Poissons Ratio (y) = 0.35340 0.41400
# Poissons Ratio (z) = 0.34029 0.48413
#
# Static dielectric constant tensor:
#      x y z
#    x 4.108940 0.000000 0.046480 
#    y 0.000000 4.108850 0.000000 
#    z 0.046480 0.000000 3.422700 
# 
# 
# High freq. dielectric constant tensor:
#      x y z
#    x 1.833440 0.000000 -0.000040 
#    y 0.000000 1.827490 0.000000 
#    z -0.000040 0.000000 1.786690 
# 
# From -- ./inp_files/198074.got.cif
#   From: 2010.06.25/outbox.cif.g09.slc.cpg/sg15_100_cif.got.tgz:198074.got - 2010.06.28 07:06:18.
