data_PCOD8146783
_publ_section_title
;
Structure prediction by ZEFSAII (Michael W. Deem and Ramdas Pophale) SiO2 
 PCOD8146783
Probable space group: C 2/C
;
_chemical_formula_sum "Si O2"
_cell_formula_units_Z 56
_cell_length_a 26.931860
_cell_length_b 8.895588
_cell_length_c 12.104383
_cell_angle_alpha 90.000000
_cell_angle_beta 115.141767
_cell_angle_gamma 90.000000
_cell_volume 2625.165418
_symmetry_space_group_name_H-M "C 2/C"
_symmetry_group_IT_number 15
_symmetry_cell_setting 'monoclinic'
loop_
_space_group_symop_operation_xyz
x,y,z
-x,y,1/2-z
-x,-y,-z
x,-y,1/2+z
1/2+x,1/2+y,z
1/2-x,1/2+y,1/2-z
1/2-x,1/2-y,-z
1/2+x,1/2-y,1/2+z
loop_
_atom_site_type_symbol
_atom_site_label
_atom_site_fract_x
_atom_site_fract_y
_atom_site_fract_z
Si Si1 0.547607 0.336925 0.705535
Si Si2 0.119591 0.630911 0.909373
Si Si3 0.555904 0.327573 0.236212
Si Si4 0.528477 0.847910 0.502163
Si Si5 0.160740 0.307431 0.906378
Si Si6 0.248464 0.844975 0.338550
Si Si7 0.267487 0.189199 0.398427
O O1 0.500000 0.335629 0.750000
O O2 0.601959 0.246295 0.795622
O O3 0.564608 0.506727 0.695776
O O4 0.520638 0.268487 0.570399
O O5 0.141311 0.479614 0.870659
O O6 0.066950 0.610866 0.936116
O O7 0.166614 0.691725 0.035385
O O8 0.500000 0.305108 0.250000
O O9 0.560998 0.213072 0.138785
O O10 0.606342 0.293778 0.366255
O O11 0.500000 0.000000 0.500000
O O12 0.197339 0.249399 0.838561
O O13 0.195347 0.289398 0.051277
O O14 0.252884 0.806375 0.213340
O O15 0.241951 0.024051 0.350671
O O16 0.250000 0.250000 0.500000
#
# Coordination Sequence:
#
# PCOD8146783 Si02
#       7
#     8   8   8   8   8   8   8
#     4   9  21  38  59  88 127 166 213 274 329 398
#     4  10  22  42  64  92 128 170 222 278 333 412
#     4  11  22  38  61  94 131 170 220 274 336 405
#     4  11  21  38  63  93 129 174 219 273 336 405
#     4  10  22  43  67  95 132 178 226 277 340 402
#     4  10  25  44  71  98 138 176 229 287 338 411
#     4  11  26  45  69 102 135 178 233 282 350 412
#
# _framework density 21.331987000000002
#
# number of rings (size 3 to 8) (size 9 to 14) (size 15 to 20)
#    0.000    1.714    0.000    3.000    8.000    1.143 
#    5.143    1.429    0.000    0.000    0.000    0.000 
#    0.000    0.000    0.000    0.000    0.000    0.000 
#
# Total GULP energy -347174.166783 kJ/mol
# GULP energy per Si atom -12399.077385 kJ/mol
# Density = 2.128343 g / cm^3
# Si number density = 21.331987 Si / 1000 Ang^3
#
#
#
# Elastic Constant Matrix: (Units=GPa)
#
#
# Indices 1 2 3 4 5 6 
#
# 1 87.8182 59.2435 48.2393 0.0000 11.0135 0.0000
# 2 59.2435 151.8844 64.6053 0.0000 5.4004 0.0000
# 3 48.2393 64.6053 122.5220 0.0000 3.4346 0.0000
# 4 0.0000 0.0000 0.0000 43.7146 0.0000 1.0727
# 5 11.0135 5.4004 3.4346 0.0000 39.6419 0.0000
# 6 0.0000 0.0000 0.0000 1.0727 0.0000 34.2857
#
#
#
# Elastic Compliance Matrix: (Units=1/GPa)
#
#
# Indices 1 2 3 4 5 6 
#
# 1 0.017472 -0.004897 -0.004190 0.000000 -0.003824 0.000000
# 2 -0.004897 0.009884 -0.003292 0.000000 0.000299 0.000000
# 3 -0.004190 -0.003292 0.011530 0.000000 0.000613 0.000000
# 4 0.000000 0.000000 0.000000 0.022893 0.000000 -0.000716
# 5 -0.003824 0.000299 0.000613 0.000000 0.026194 0.000000
# 6 0.000000 0.000000 0.000000 -0.000716 0.000000 0.029189
#
#
# Mechanical properties :
#
#
# Convention : Reuss Voigt Hill
#
# Bulk Modulus (GPa) = 70.77999 78.48898 74.63448
# Shear Modulus (GPa) = 34.09981 36.20420 35.15201
#
# Velocity S-wave (km/s) = 4.00250 4.12415 4.06378
# Velocity P-wave (km/s) = 7.39001 7.71700 7.55527
#
# Compressibility (1/GPa) = 0.01412829
#
# Stress axis : x y z
#
# Youngs Moduli (GPa) = 57.23560 101.17723 86.73032
#
# Poissons Ratio (x) = 0.49545 0.36337
# Poissons Ratio (y) = 0.28028 0.28552
# Poissons Ratio (z) = 0.23980 0.33307
#
# Static dielectric constant tensor:
#      x y z
#    x 3.559290 0.000000 0.228000 
#    y 0.000000 4.026280 0.000000 
#    z 0.228000 0.000000 3.877540 
# 
# 
# High freq. dielectric constant tensor:
#      x y z
#    x 1.829060 0.000000 0.018130 
#    y 0.000000 1.844920 0.000000 
#    z 0.018130 0.000000 1.844050 
# 
# From -- ./inp_files/121864.got.cif
#   From: 2010.06.25/outbox.cif.g09.slc.cpg/sg15_61_cif.got.tgz:121864.got - 2010.06.28 07:06:18.
