data_PCOD8146594
_publ_section_title
;
Structure prediction by ZEFSAII (Michael W. Deem and Ramdas Pophale) SiO2 
 PCOD8146594
Probable space group: C 2/C
;
_chemical_formula_sum "Si O2"
_cell_formula_units_Z 64
_cell_length_a 11.824908
_cell_length_b 18.743566
_cell_length_c 17.678927
_cell_angle_alpha 90.000000
_cell_angle_beta 52.814386
_cell_angle_gamma 90.000000
_cell_volume 3121.696898
_symmetry_space_group_name_H-M "C 2/C"
_symmetry_group_IT_number 15
_symmetry_cell_setting 'monoclinic'
loop_
_space_group_symop_operation_xyz
x,y,z
-x,y,1/2-z
-x,-y,-z
x,-y,1/2+z
1/2+x,1/2+y,z
1/2-x,1/2+y,1/2-z
1/2-x,1/2-y,-z
1/2+x,1/2-y,1/2+z
loop_
_atom_site_type_symbol
_atom_site_label
_atom_site_fract_x
_atom_site_fract_y
_atom_site_fract_z
Si Si1 0.325780 0.674645 0.567630
Si Si2 0.799942 0.375305 0.529000
Si Si3 0.637549 0.913497 0.660362
Si Si4 0.655479 0.063955 0.718157
Si Si5 0.131826 0.362472 0.388661
Si Si6 0.641434 0.699668 0.390323
Si Si7 0.871232 0.473249 0.998446
Si Si8 0.655243 0.297033 0.711397
O O1 0.258319 0.678286 0.511240
O O2 0.284515 0.597950 0.618315
O O3 0.492332 0.687525 0.491867
O O4 0.262039 0.732201 0.651442
O O5 0.772275 0.458520 0.521619
O O6 0.711953 0.364027 0.641319
O O7 0.964296 0.356053 0.472386
O O8 0.500000 0.874262 0.750000
O O9 0.756082 0.852917 0.604492
O O10 0.585656 0.944573 0.600885
O O11 0.679594 0.978898 0.699923
O O12 0.500000 0.086315 0.750000
O O13 0.664443 0.094732 0.798984
O O14 0.192678 0.282325 0.369730
O O15 0.205743 0.409126 0.425263
O O16 0.646365 0.676709 0.301049
O O17 0.000000 0.500000 0.000000
O O18 0.500000 0.270797 0.750000
#
# Coordination Sequence:
#
# PCOD8146594 Si02
#       8
#     8   8   8   8   8   8   8   8
#     4  12  21  39  62  94 136 166 204 271 327 388
#     4  11  20  37  63  98 130 159 218 277 318 370
#     4  11  25  44  66  93 125 168 225 273 322 386
#     4  11  20  39  68  94 124 168 217 268 313 378
#     4  11  22  39  64  95 126 172 217 256 323 392
#     4  12  27  39  61  99 131 171 204 266 342 388
#     4  10  22  41  69  91 117 170 221 273 316 380
#     4  12  23  35  61  98 137 169 212 264 330 395
#
# _framework density 20.501669
#
# number of rings (size 3 to 8) (size 9 to 14) (size 15 to 20)
#    0.000    0.750    6.250    3.750    5.250    1.000 
#    0.000    0.000    0.000    0.000    0.000    0.000 
#    0.000    0.000    0.000    0.000    0.000    0.000 
#
# Total GULP energy -396568.293864 kJ/mol
# GULP energy per Si atom -12392.759183 kJ/mol
# Density = 2.045501 g / cm^3
# Si number density = 20.501669 Si / 1000 Ang^3
#
#
#
# Elastic Constant Matrix: (Units=GPa)
#
#
# Indices 1 2 3 4 5 6 
#
# 1 57.4031 41.3484 31.6758 0.0001 -0.5116 -0.0001
# 2 41.3484 122.0278 41.6446 0.0000 0.6266 -0.0001
# 3 31.6758 41.6446 119.7581 -0.0002 2.1539 0.0000
# 4 0.0001 0.0000 -0.0002 30.1366 0.0000 7.8179
# 5 -0.5116 0.6266 2.1539 0.0000 22.1726 0.0001
# 6 -0.0001 -0.0001 0.0000 7.8179 0.0001 20.6301
#
#
#
# Elastic Compliance Matrix: (Units=1/GPa)
#
#
# Indices 1 2 3 4 5 6 
#
# 1 0.024740 -0.006977 -0.004139 0.000000 0.001170 0.000000
# 2 -0.006977 0.011266 -0.002067 0.000000 -0.000279 0.000000
# 3 -0.004139 -0.002067 0.010182 0.000000 -0.001026 0.000000
# 4 0.000000 0.000000 0.000000 0.036800 0.000000 -0.013945
# 5 0.001170 -0.000279 -0.001026 0.000000 0.045235 0.000000
# 6 0.000000 0.000000 0.000000 -0.013945 0.000000 0.053758
#
#
# Mechanical properties :
#
#
# Convention : Reuss Voigt Hill
#
# Bulk Modulus (GPa) = 50.44655 58.72519 54.58587
# Shear Modulus (GPa) = 23.26078 26.88920 25.07499
#
# Velocity S-wave (km/s) = 3.37201 3.62548 3.50104
# Velocity P-wave (km/s) = 6.31031 6.79939 6.55941
#
# Compressibility (1/GPa) = 0.01982296
#
# Stress axis : x y z
#
# Youngs Moduli (GPa) = 40.41977 88.76434 98.21083
#
# Poissons Ratio (x) = 0.61928 0.40647
# Poissons Ratio (y) = 0.28200 0.20302
# Poissons Ratio (z) = 0.16729 0.18350
#
# Static dielectric constant tensor:
#      x y z
#    x 3.403480 0.000000 0.150700 
#    y 0.000000 4.209710 0.000000 
#    z 0.150700 0.000000 4.001670 
# 
# 
# High freq. dielectric constant tensor:
#      x y z
#    x 1.751660 0.000000 0.019320 
#    y 0.000000 1.813460 0.000000 
#    z 0.019320 0.000000 1.817500 
# 
# From -- ./inp_files/200370.got.cif
#   From: 2010.06.25/outbox.cif.g09.slc.cpg/sg15_101_cif.got.tgz:200370.got - 2010.06.28 07:06:18.
