data_PCOD8146359
_publ_section_title
;
Structure prediction by ZEFSAII (Michael W. Deem and Ramdas Pophale) SiO2 
 PCOD8146359
Probable space group: C 2/C
;
_chemical_formula_sum "Si O2"
_cell_formula_units_Z 56
_cell_length_a 11.856096
_cell_length_b 13.938606
_cell_length_c 28.074668
_cell_angle_alpha 90.000000
_cell_angle_beta 141.568973
_cell_angle_gamma 90.000000
_cell_volume 2883.813530
_symmetry_space_group_name_H-M "C 2/C"
_symmetry_group_IT_number 15
_symmetry_cell_setting 'monoclinic'
loop_
_space_group_symop_operation_xyz
x,y,z
-x,y,1/2-z
-x,-y,-z
x,-y,1/2+z
1/2+x,1/2+y,z
1/2-x,1/2+y,1/2-z
1/2-x,1/2-y,-z
1/2+x,1/2-y,1/2+z
loop_
_atom_site_type_symbol
_atom_site_label
_atom_site_fract_x
_atom_site_fract_y
_atom_site_fract_z
Si Si1 0.815950 0.385575 0.661755
Si Si2 0.525879 0.496551 0.622967
Si Si3 0.155814 0.973628 0.269280
Si Si4 0.946311 0.526975 0.106768
Si Si5 0.314442 0.177233 0.892113
Si Si6 0.296508 0.140410 0.505042
Si Si7 0.264764 0.647967 0.528159
O O1 0.703390 0.465098 0.653217
O O2 0.858371 0.423638 0.623410
O O3 0.693099 0.290940 0.618985
O O4 0.000000 0.362176 0.750000
O O5 0.574666 0.539243 0.690364
O O6 0.374205 0.411494 0.576967
O O7 0.440693 0.588625 0.567416
O O8 0.209166 0.874166 0.313621
O O9 0.000000 0.025614 0.250000
O O10 0.336859 0.034421 0.320373
O O11 0.858967 0.419712 0.073039
O O12 0.906786 0.586441 0.045672
O O13 0.218140 0.152034 0.909516
O O14 0.522194 0.142718 0.967260
O O15 0.250000 0.250000 0.500000
O O16 0.250000 0.750000 0.500000
#
# Coordination Sequence:
#
# PCOD8146359 Si02
#       7
#     8   8   8   8   8   8   8
#     4  12  23  41  66  97 129 171 215 263 323 387
#     4  11  24  40  65  94 131 169 214 271 320 384
#     4  11  22  41  63  92 126 167 211 262 323 376
#     4  10  24  39  65  95 129 164 215 265 316 385
#     4  11  23  39  68  92 129 172 216 265 318 394
#     4  10  22  41  63  95 127 171 218 261 328 378
#     4  11  23  40  62  98 127 163 217 266 319 377
#
# _framework density 19.41873
#
# number of rings (size 3 to 8) (size 9 to 14) (size 15 to 20)
#    0.000    1.143    5.714    0.429    2.000    5.143 
#    0.000    0.000    0.000    0.000    0.000    0.000 
#    0.000    0.000    0.000    0.000    0.000    0.000 
#
# Total GULP energy -346937.820052 kJ/mol
# GULP energy per Si atom -12390.636430 kJ/mol
# Density = 1.937453 g / cm^3
# Si number density = 19.418730 Si / 1000 Ang^3
#
#
#
# Elastic Constant Matrix: (Units=GPa)
#
#
# Indices 1 2 3 4 5 6 
#
# 1 107.3790 40.8488 40.8114 0.0000 3.2506 0.0000
# 2 40.8488 118.3064 47.6006 0.0000 -3.9691 0.0000
# 3 40.8114 47.6006 102.7369 0.0000 3.1695 0.0000
# 4 0.0000 0.0000 0.0000 28.0058 0.0000 -0.9786
# 5 3.2506 -3.9691 3.1695 0.0000 36.6472 0.0000
# 6 0.0000 0.0000 0.0000 -0.9786 0.0000 31.6782
#
#
#
# Elastic Compliance Matrix: (Units=1/GPa)
#
#
# Indices 1 2 3 4 5 6 
#
# 1 0.011644 -0.002713 -0.003337 0.000000 -0.001038 0.000000
# 2 -0.002713 0.011110 -0.004125 0.000000 0.001801 0.000000
# 3 -0.003337 -0.004125 0.013010 0.000000 -0.001276 0.000000
# 4 0.000000 0.000000 0.000000 0.035746 0.000000 0.001104
# 5 -0.001038 0.001801 -0.001276 0.000000 0.027685 0.000000
# 6 0.000000 0.000000 0.000000 0.001104 0.000000 0.031602
#
#
# Mechanical properties :
#
#
# Convention : Reuss Voigt Hill
#
# Bulk Modulus (GPa) = 64.87542 65.21596 65.04569
# Shear Modulus (GPa) = 31.99322 32.54366 32.26844
#
# Velocity S-wave (km/s) = 4.06340 4.09820 4.08084
# Velocity P-wave (km/s) = 7.44957 7.48670 7.46816
#
# Compressibility (1/GPa) = 0.01541416
#
# Stress axis : x y z
#
# Youngs Moduli (GPa) = 85.87794 90.01285 76.86552
#
# Poissons Ratio (x) = 0.24420 0.25647
# Poissons Ratio (y) = 0.23298 0.31709
# Poissons Ratio (z) = 0.28655 0.37132
#
# Static dielectric constant tensor:
#      x y z
#    x 3.573300 0.000000 0.153610 
#    y 0.000000 3.726040 0.000000 
#    z 0.153610 0.000000 3.765970 
# 
# 
# High freq. dielectric constant tensor:
#      x y z
#    x 1.749870 0.000000 0.012650 
#    y 0.000000 1.752470 0.000000 
#    z 0.012650 0.000000 1.772870 
# 
# From -- ./inp_files/292852.got.cif
#   From: 2010.06.25/outbox.cif.g09.slc.cpg/sg15_147_cif.got.tgz:292852.got - 2010.06.28 07:06:18.
