data_PCOD8146555
_publ_section_title
;
Structure prediction by ZEFSAII (Michael W. Deem and Ramdas Pophale) SiO2 
 PCOD8146555
Probable space group: C 2/C
;
_chemical_formula_sum "Si O2"
_cell_formula_units_Z 40
_cell_length_a 10.320137
_cell_length_b 15.372114
_cell_length_c 12.541610
_cell_angle_alpha 90.000000
_cell_angle_beta 114.808240
_cell_angle_gamma 90.000000
_cell_volume 1806.021389
_symmetry_space_group_name_H-M "C 2/C"
_symmetry_group_IT_number 15
_symmetry_cell_setting 'monoclinic'
loop_
_space_group_symop_operation_xyz
x,y,z
-x,y,1/2-z
-x,-y,-z
x,-y,1/2+z
1/2+x,1/2+y,z
1/2-x,1/2+y,1/2-z
1/2-x,1/2-y,-z
1/2+x,1/2-y,1/2+z
loop_
_atom_site_type_symbol
_atom_site_label
_atom_site_fract_x
_atom_site_fract_y
_atom_site_fract_z
Si Si1 0.734331 0.987697 0.573924
Si Si2 0.649971 0.644363 0.764456
Si Si3 0.501693 0.093243 0.375779
Si Si4 0.627373 0.243177 0.544033
Si Si5 0.935372 0.905359 0.491572
O O1 0.646275 0.952497 0.644265
O O2 0.826179 0.909689 0.553313
O O3 0.840972 0.061012 0.654641
O O4 0.632699 0.029052 0.447820
O O5 0.500000 0.689946 0.750000
O O6 0.790660 0.704405 0.825064
O O7 0.653249 0.620308 0.642671
O O8 0.500000 0.115715 0.250000
O O9 0.508616 0.179485 0.452343
O O10 0.750000 0.250000 0.500000
O O11 0.559184 0.334539 0.555535
O O12 0.000000 0.000000 0.500000
#
# Coordination Sequence:
#
# PCOD8146555 Si02
#       5
#     8   8   8   8   8
#     4  10  22  41  68 103 133 178 227 277 344 406
#     4  11  21  42  66  98 136 172 227 277 330 407
#     4  10  22  42  69  97 136 177 226 280 344 411
#     4  11  24  40  64  97 132 174 228 276 339 402
#     4  12  23  42  70  99 137 177 226 281 336 411
#
# _framework density 22.148133000000001
#
# number of rings (size 3 to 8) (size 9 to 14) (size 15 to 20)
#    0.000    1.200    4.000    2.400    2.800    0.800 
#    0.000    0.000    8.800    0.000    0.000    0.000 
#    0.000    0.000    0.000    0.000    0.000    0.000 
#
# Total GULP energy -248006.671778 kJ/mol
# GULP energy per Si atom -12400.333589 kJ/mol
# Density = 2.209772 g / cm^3
# Si number density = 22.148133 Si / 1000 Ang^3
#
#
#
# Elastic Constant Matrix: (Units=GPa)
#
#
# Indices 1 2 3 4 5 6 
#
# 1 105.8271 52.2570 42.6463 0.0000 4.0733 0.0000
# 2 52.2570 136.7407 52.7406 0.0000 10.1056 0.0000
# 3 42.6463 52.7406 139.0014 0.0000 1.7864 0.0000
# 4 0.0000 0.0000 0.0000 6.7414 0.0000 1.2812
# 5 4.0733 10.1056 1.7864 0.0000 26.3396 0.0000
# 6 0.0000 0.0000 0.0000 1.2812 0.0000 43.9594
#
#
#
# Elastic Compliance Matrix: (Units=1/GPa)
#
#
# Indices 1 2 3 4 5 6 
#
# 1 0.012258 -0.003765 -0.002329 0.000000 -0.000293 0.000000
# 2 -0.003765 0.009978 -0.002592 0.000000 -0.003070 0.000000
# 3 -0.002329 -0.002592 0.008882 0.000000 0.000752 0.000000
# 4 0.000000 0.000000 0.000000 0.149163 0.000000 -0.004347
# 5 -0.000293 -0.003070 0.000752 0.000000 0.039138 0.000000
# 6 0.000000 0.000000 0.000000 -0.004347 0.000000 0.022875
#
#
# Mechanical properties :
#
#
# Convention : Reuss Voigt Hill
#
# Bulk Modulus (GPa) = 72.73343 75.20633 73.96988
# Shear Modulus (GPa) = 18.92164 31.00310 24.96237
#
# Velocity S-wave (km/s) = 2.92605 3.74546 3.36082
# Velocity P-wave (km/s) = 6.65782 7.26184 6.96638
#
# Compressibility (1/GPa) = 0.01374884
#
# Stress axis : x y z
#
# Youngs Moduli (GPa) = 81.57885 100.21742 112.58436
#
# Poissons Ratio (x) = 0.37729 0.26217
# Poissons Ratio (y) = 0.30712 0.29176
# Poissons Ratio (z) = 0.18997 0.25972
#
# Static dielectric constant tensor:
#      x y z
#    x 4.008360 0.000000 0.305470 
#    y 0.000000 4.462870 0.000000 
#    z 0.305470 0.000000 4.526230 
# 
# 
# High freq. dielectric constant tensor:
#      x y z
#    x 1.858460 0.000000 0.012600 
#    y 0.000000 1.869820 0.000000 
#    z 0.012600 0.000000 1.880260 
# 
# From -- ./inp_files/86894.got.cif
#   From: 2010.06.25/outbox.cif.g09.slc.cpg/sg15_44_cif.got.tgz:86894.got - 2010.06.28 07:06:18.
