data_PCOD8146106
_publ_section_title
;
Structure prediction by ZEFSAII (Michael W. Deem and Ramdas Pophale) SiO2 
 PCOD8146106
Probable space group: C 2/C
;
_chemical_formula_sum "Si O2"
_cell_formula_units_Z 60
_cell_length_a 12.447885
_cell_length_b 14.878419
_cell_length_c 16.130950
_cell_angle_alpha 90.000000
_cell_angle_beta 76.279893
_cell_angle_gamma 90.000000
_cell_volume 2902.283807
_symmetry_space_group_name_H-M "C 2/C"
_symmetry_group_IT_number 15
_symmetry_cell_setting 'monoclinic'
loop_
_space_group_symop_operation_xyz
x,y,z
-x,y,1/2-z
-x,-y,-z
x,-y,1/2+z
1/2+x,1/2+y,z
1/2-x,1/2+y,1/2-z
1/2-x,1/2-y,-z
1/2+x,1/2-y,1/2+z
loop_
_atom_site_type_symbol
_atom_site_label
_atom_site_fract_x
_atom_site_fract_y
_atom_site_fract_z
Si Si1 0.751993 0.153987 0.461609
Si Si2 0.161172 0.985479 0.800089
Si Si3 0.500000 0.059693 0.250000
Si Si4 0.626402 0.652922 0.704617
Si Si5 0.818236 0.506231 0.909273
Si Si6 0.310043 0.656385 0.994463
Si Si7 0.002705 0.082942 0.060187
Si Si8 0.811825 0.670455 0.215393
O O1 0.750000 0.250000 0.500000
O O2 0.668607 0.085833 0.525050
O O3 0.877030 0.120200 0.444933
O O4 0.712016 0.172421 0.376720
O O5 0.223760 0.892709 0.774923
O O6 0.035818 0.956152 0.843420
O O7 0.170624 0.056143 0.725240
O O8 0.213839 0.033183 0.871607
O O9 0.430606 0.125208 0.204311
O O10 0.574024 0.001334 0.171247
O O11 0.500000 0.668959 0.750000
O O12 0.638888 0.642487 0.605022
O O13 0.695098 0.732775 0.737140
O O14 0.786258 0.414717 0.963868
O O15 0.250000 0.750000 0.000000
O O16 0.413259 0.655312 0.040521
O O17 0.000000 0.000000 0.000000
#
# Coordination Sequence:
#
# PCOD8146106 Si02
#       8
#     8   8   4   8   8   8   8   8
#     4  12  26  42  65  98 137 180 222 275 345 413
#     4  10  22  40  66  97 133 167 220 283 335 393
#     4  10  22  46  68  90 136 184 222 290 344 396
#     4  12  24  38  71 100 129 178 230 279 332 398
#     4  10  22  44  67  95 136 177 225 281 341 411
#     4  11  23  40  70 104 131 173 233 284 331 399
#     4  11  22  43  68  96 136 172 219 280 336 397
#     4  11  25  42  63 100 138 175 227 279 338 400
#
# _framework density 20.673375
#
# number of rings (size 3 to 8) (size 9 to 14) (size 15 to 20)
#    0.000    1.067    3.333    4.800    3.733    0.533 
#    0.000    6.667    0.000    0.000    0.000    0.000 
#    0.000    0.000    0.000    0.000    0.000    0.000 
#
# Total GULP energy -371765.743970 kJ/mol
# GULP energy per Si atom -12392.191466 kJ/mol
# Density = 2.062632 g / cm^3
# Si number density = 20.673375 Si / 1000 Ang^3
#
#
#
# Elastic Constant Matrix: (Units=GPa)
#
#
# Indices 1 2 3 4 5 6 
#
# 1 89.8939 35.4535 34.6016 0.0000 -9.1594 0.0000
# 2 35.4535 104.9081 22.9756 0.0000 -4.7040 0.0000
# 3 34.6016 22.9756 113.4099 0.0000 -3.8283 0.0000
# 4 0.0000 0.0000 0.0000 36.2355 0.0000 1.4556
# 5 -9.1594 -4.7040 -3.8283 0.0000 40.5232 0.0000
# 6 0.0000 0.0000 0.0000 1.4556 0.0000 29.7483
#
#
#
# Elastic Compliance Matrix: (Units=1/GPa)
#
#
# Indices 1 2 3 4 5 6 
#
# 1 0.014267 -0.003952 -0.003470 0.000000 0.002438 0.000000
# 2 -0.003952 0.011108 -0.001034 0.000000 0.000298 0.000000
# 3 -0.003470 -0.001034 0.010087 0.000000 0.000049 0.000000
# 4 0.000000 0.000000 0.000000 0.027652 0.000000 -0.001353
# 5 0.002438 0.000298 0.000049 0.000000 0.025268 0.000000
# 6 0.000000 0.000000 0.000000 -0.001353 0.000000 0.033682
#
#
# Mechanical properties :
#
#
# Convention : Reuss Voigt Hill
#
# Bulk Modulus (GPa) = 53.91103 54.91926 54.41515
# Shear Modulus (GPa) = 34.44498 35.64681 35.04589
#
# Velocity S-wave (km/s) = 4.08628 4.15696 4.12177
# Velocity P-wave (km/s) = 6.95685 7.04722 7.00218
#
# Compressibility (1/GPa) = 0.01854908
#
# Stress axis : x y z
#
# Youngs Moduli (GPa) = 70.09178 90.02739 99.13311
#
# Poissons Ratio (x) = 0.35581 0.34398
# Poissons Ratio (y) = 0.27702 0.10254
# Poissons Ratio (z) = 0.24321 0.09312
#
# Static dielectric constant tensor:
#      x y z
#    x 6.516180 0.000000 1.984360 
#    y 0.000000 3.869540 0.000000 
#    z 1.984360 0.000000 4.529450 
# 
# 
# High freq. dielectric constant tensor:
#      x y z
#    x 1.801850 0.000000 -0.002480 
#    y 0.000000 1.809700 0.000000 
#    z -0.002480 0.000000 1.830870 
# 
# From -- ./inp_files/153920.got.cif
#   From: 2010.06.25/outbox.cif.g09.slc.cpg/sg15_77_cif.got.tgz:153920.got - 2010.06.28 07:06:18.
