data_PCOD8146521
_publ_section_title
;
Structure prediction by ZEFSAII (Michael W. Deem and Ramdas Pophale) SiO2 
 PCOD8146521
Probable space group: C 2/C
;
_chemical_formula_sum "Si O2"
_cell_formula_units_Z 48
_cell_length_a 11.568080
_cell_length_b 9.515648
_cell_length_c 20.992923
_cell_angle_alpha 90.000000
_cell_angle_beta 102.359792
_cell_angle_gamma 90.000000
_cell_volume 2257.295011
_symmetry_space_group_name_H-M "C 2/C"
_symmetry_group_IT_number 15
_symmetry_cell_setting 'monoclinic'
loop_
_space_group_symop_operation_xyz
x,y,z
-x,y,1/2-z
-x,-y,-z
x,-y,1/2+z
1/2+x,1/2+y,z
1/2-x,1/2+y,1/2-z
1/2-x,1/2-y,-z
1/2+x,1/2-y,1/2+z
loop_
_atom_site_type_symbol
_atom_site_label
_atom_site_fract_x
_atom_site_fract_y
_atom_site_fract_z
Si Si1 0.586629 0.179544 0.142388
Si Si2 0.069491 0.561537 0.890118
Si Si3 0.447897 0.633058 0.075260
Si Si4 0.000000 0.156990 0.750000
Si Si5 0.000000 0.319679 0.250000
Si Si6 0.336956 0.585390 0.199226
Si Si7 0.842674 0.941910 0.431524
O O1 0.507802 0.248211 0.188378
O O2 0.695766 0.092777 0.185488
O O3 0.632856 0.293463 0.098330
O O4 0.503950 0.071953 0.092748
O O5 0.043245 0.698119 0.930189
O O6 0.206681 0.519271 0.905645
O O7 0.020959 0.582576 0.812906
O O8 0.382828 0.595569 0.132512
O O9 0.578581 0.565200 0.090234
O O10 0.369463 0.569593 0.009474
O O11 0.881581 0.061108 0.734145
O O12 0.112758 0.216037 0.253597
#
# Coordination Sequence:
#
# PCOD8146521 Si02
#       7
#     8   8   8   4   4   8   8
#     4  12  25  39  66  98 128 170 217 269 325 387
#     4  11  24  41  63 101 129 172 219 267 325 387
#     4  10  22  46  70  93 132 178 214 272 332 382
#     4  11  25  42  60  96 134 168 216 268 330 388
#     4   9  19  40  58  88 126 166 212 254 320 378
#     4  10  22  41  67  92 126 175 214 264 330 382
#     4  11  23  45  69  95 135 171 220 272 322 392
#
# _framework density 21.264389000000001
#
# number of rings (size 3 to 8) (size 9 to 14) (size 15 to 20)
#    0.000    1.333    5.000    1.000    2.333    3.333 
#    0.000    1.667    0.000    0.000    0.000    0.000 
#    0.000    0.000    0.000    0.000    0.000    0.000 
#
# Total GULP energy -297670.123196 kJ/mol
# GULP energy per Si atom -12402.921800 kJ/mol
# Density = 2.121599 g / cm^3
# Si number density = 21.264389 Si / 1000 Ang^3
#
#
#
# Elastic Constant Matrix: (Units=GPa)
#
#
# Indices 1 2 3 4 5 6 
#
# 1 124.9306 52.7062 21.1323 0.0000 41.9455 0.0000
# 2 52.7062 83.7769 3.2010 0.0000 16.7736 0.0000
# 3 21.1323 3.2010 63.7288 0.0000 19.7692 0.0000
# 4 0.0000 0.0000 0.0000 20.9483 0.0000 7.5768
# 5 41.9455 16.7736 19.7692 0.0000 24.4321 0.0000
# 6 0.0000 0.0000 0.0000 7.5768 0.0000 29.0840
#
#
#
# Elastic Compliance Matrix: (Units=1/GPa)
#
#
# Indices 1 2 3 4 5 6 
#
# 1 0.023199 -0.007001 0.004704 0.000000 -0.038828 0.000000
# 2 -0.007001 0.016397 0.001684 0.000000 -0.000601 0.000000
# 3 0.004704 0.001684 0.022578 0.000000 -0.027501 0.000000
# 4 0.000000 0.000000 0.000000 0.052702 0.000000 -0.013730
# 5 -0.038828 -0.000601 -0.027501 0.000000 0.130255 0.000000
# 6 0.000000 0.000000 0.000000 -0.013730 0.000000 0.037960
#
#
# Mechanical properties :
#
#
# Convention : Reuss Voigt Hill
#
# Bulk Modulus (GPa) = 16.40735 47.39059 31.89897
# Shear Modulus (GPa) = 16.41319 27.91931 22.16625
#
# Velocity S-wave (km/s) = 2.78126 3.62741 3.23214
# Velocity P-wave (km/s) = 4.24811 6.31497 5.38170
#
# Compressibility (1/GPa) = 0.06094830
#
# Stress axis : x y z
#
# Youngs Moduli (GPa) = 43.10576 60.98782 44.29059
#
# Poissons Ratio (x) = 0.42695 -0.20833
# Poissons Ratio (y) = 0.30177 -0.07460
# Poissons Ratio (z) = -0.20276 -0.10272
#
# Static dielectric constant tensor:
#      x y z
#    x 3.739580 0.000000 0.220570 
#    y 0.000000 4.047900 0.000000 
#    z 0.220570 0.000000 3.841480 
# 
# 
# High freq. dielectric constant tensor:
#      x y z
#    x 1.826230 0.000000 0.012890 
#    y 0.000000 1.840020 0.000000 
#    z 0.012890 0.000000 1.833570 
# 
# From -- ./inp_files/267823.got.cif
#   From: 2010.06.25/outbox.cif.g09.slc.cpg/sg15_134_cif.got.tgz:267823.got - 2010.06.28 07:06:18.
