data_PCOD8146509
_publ_section_title
;
Structure prediction by ZEFSAII (Michael W. Deem and Ramdas Pophale) SiO2 
 PCOD8146509
Probable space group: C 2/C
;
_chemical_formula_sum "Si O2"
_cell_formula_units_Z 48
_cell_length_a 18.342849
_cell_length_b 15.303982
_cell_length_c 13.636252
_cell_angle_alpha 90.000000
_cell_angle_beta 34.138409
_cell_angle_gamma 90.000000
_cell_volume 2148.222453
_symmetry_space_group_name_H-M "C 2/C"
_symmetry_group_IT_number 15
_symmetry_cell_setting 'monoclinic'
loop_
_space_group_symop_operation_xyz
x,y,z
-x,y,1/2-z
-x,-y,-z
x,-y,1/2+z
1/2+x,1/2+y,z
1/2-x,1/2+y,1/2-z
1/2-x,1/2-y,-z
1/2+x,1/2-y,1/2+z
loop_
_atom_site_type_symbol
_atom_site_label
_atom_site_fract_x
_atom_site_fract_y
_atom_site_fract_z
Si Si1 0.501656 0.646336 0.034463
Si Si2 0.759968 0.301861 0.149128
Si Si3 0.643358 0.656612 0.576814
Si Si4 0.379345 0.488463 0.522417
Si Si5 0.383420 0.782553 0.301407
Si Si6 0.884184 0.569001 0.645782
O O1 0.451508 0.589708 0.999726
O O2 0.402298 0.715885 0.189467
O O3 0.632303 0.697551 0.858295
O O4 0.535679 0.576005 0.081459
O O5 0.736562 0.335847 0.065314
O O6 0.877081 0.358246 0.067157
O O7 0.802458 0.201870 0.083739
O O8 0.500000 0.696876 0.750000
O O9 0.640370 0.551899 0.563278
O O10 0.243523 0.510361 0.724767
O O11 0.500000 0.778015 0.250000
O O12 0.250000 0.750000 0.500000
O O13 0.382504 0.880003 0.253574
O O14 0.000000 0.500000 0.500000
#
# Coordination Sequence:
#
# PCOD8146509 Si02
#       6
#     8   8   8   8   8   8
#     4  10  22  45  72  95 137 183 235 281 356 421
#     4  10  23  43  66 104 139 184 222 282 356 429
#     4  11  22  37  69 107 138 173 228 282 346 419
#     4  10  22  41  67 102 133 180 227 294 339 427
#     4  12  28  49  75 104 143 194 245 299 357 441
#     4  11  27  44  69 101 141 187 230 292 365 416
#
# _framework density 22.344054
#
# number of rings (size 3 to 8) (size 9 to 14) (size 15 to 20)
#    0.000    1.333    1.667    3.000    4.667    4.667 
#    0.000    0.000    0.000    0.000    0.000    0.000 
#    0.000    0.000    0.000    0.000    0.000    0.000 
#
# Total GULP energy -297378.497227 kJ/mol
# GULP energy per Si atom -12390.770718 kJ/mol
# Density = 2.229320 g / cm^3
# Si number density = 22.344054 Si / 1000 Ang^3
#
#
#
# Elastic Constant Matrix: (Units=GPa)
#
#
# Indices 1 2 3 4 5 6 
#
# 1 67.7507 23.9038 21.1761 0.0000 -8.3420 0.0000
# 2 23.9038 104.3491 59.1174 0.0000 1.7976 0.0000
# 3 21.1761 59.1174 105.0575 0.0000 -4.2465 0.0000
# 4 0.0000 0.0000 0.0000 37.7632 0.0000 9.4496
# 5 -8.3420 1.7976 -4.2465 0.0000 33.3841 0.0000
# 6 0.0000 0.0000 0.0000 9.4496 0.0000 27.7885
#
#
#
# Elastic Compliance Matrix: (Units=1/GPa)
#
#
# Indices 1 2 3 4 5 6 
#
# 1 0.016828 -0.003084 -0.001487 0.000000 0.004182 0.000000
# 2 -0.003084 0.014739 -0.007775 0.000000 -0.002553 0.000000
# 3 -0.001487 -0.007775 0.014269 0.000000 0.001862 0.000000
# 4 0.000000 0.000000 0.000000 0.028944 0.000000 -0.009842
# 5 0.004182 -0.002553 0.001862 0.000000 0.031374 0.000000
# 6 0.000000 0.000000 0.000000 -0.009842 0.000000 0.039333
#
#
# Mechanical properties :
#
#
# Convention : Reuss Voigt Hill
#
# Bulk Modulus (GPa) = 47.29949 53.95020 50.62485
# Shear Modulus (GPa) = 28.21243 31.31782 29.76512
#
# Velocity S-wave (km/s) = 3.55722 3.74788 3.65379
# Velocity P-wave (km/s) = 6.17142 6.55183 6.36446
#
# Compressibility (1/GPa) = 0.02114188
#
# Stress axis : x y z
#
# Youngs Moduli (GPa) = 59.42483 67.84892 70.08267
#
# Poissons Ratio (x) = 0.20926 0.10424
# Poissons Ratio (y) = 0.18328 0.54490
# Poissons Ratio (z) = 0.08839 0.52754
#
# Static dielectric constant tensor:
#      x y z
#    x 4.262540 0.000000 -0.108820 
#    y 0.000000 4.539490 0.000000 
#    z -0.108820 0.000000 3.897130 
# 
# 
# High freq. dielectric constant tensor:
#      x y z
#    x 1.893230 0.000000 -0.005510 
#    y 0.000000 1.890930 0.000000 
#    z -0.005510 0.000000 1.867560 
# 
# From -- ./inp_files/168817.got.cif
#   From: 2010.06.25/outbox.cif.g09.slc.cpg/sg15_85_cif.got.tgz:168817.got - 2010.06.28 07:06:18.
