data_PCOD8146275
_publ_section_title
;
Structure prediction by ZEFSAII (Michael W. Deem and Ramdas Pophale) SiO2 
 PCOD8146275
Probable space group: C 2/C
;
_chemical_formula_sum "Si O2"
_cell_formula_units_Z 40
_cell_length_a 25.268819
_cell_length_b 15.463221
_cell_length_c 9.499189
_cell_angle_alpha 90.000000
_cell_angle_beta 151.024372
_cell_angle_gamma 90.000000
_cell_volume 1798.080886
_symmetry_space_group_name_H-M "C 2/C"
_symmetry_group_IT_number 15
_symmetry_cell_setting 'monoclinic'
loop_
_space_group_symop_operation_xyz
x,y,z
-x,y,1/2-z
-x,-y,-z
x,-y,1/2+z
1/2+x,1/2+y,z
1/2-x,1/2+y,1/2-z
1/2-x,1/2-y,-z
1/2+x,1/2-y,1/2+z
loop_
_atom_site_type_symbol
_atom_site_label
_atom_site_fract_x
_atom_site_fract_y
_atom_site_fract_z
Si Si1 0.193922 0.407426 0.383148
Si Si2 0.655240 0.794638 0.692146
Si Si3 0.376817 0.030126 0.500228
Si Si4 0.436770 0.754523 0.306614
Si Si5 0.451520 0.423007 0.982508
O O1 0.161385 0.439110 0.151845
O O2 0.139168 0.471996 0.369281
O O3 0.146898 0.310010 0.290544
O O4 0.322056 0.418915 0.695948
O O5 0.693957 0.889099 0.727023
O O6 0.547245 0.808548 0.536152
O O7 0.625522 0.735368 0.486258
O O8 0.750000 0.750000 0.000000
O O9 0.500000 0.050189 0.750000
O O10 0.481653 0.667862 0.482161
O O11 0.500000 0.432269 0.250000
O O12 0.500000 0.500000 0.000000
#
# Coordination Sequence:
#
# PCOD8146275 Si02
#       5
#     8   8   8   8   8
#     4  11  24  45  69 101 142 182 233 297 353 431
#     4  10  22  40  75  99 142 185 232 293 367 428
#     4  11  22  43  68 103 135 179 233 289 355 429
#     4  10  24  46  66 106 138 184 243 289 356 441
#     4  12  29  47  71 102 143 189 243 300 367 437
#
# _framework density 22.245940999999998
#
# number of rings (size 3 to 8) (size 9 to 14) (size 15 to 20)
#    0.000    1.200    4.000    2.400   11.200    2.400 
#    0.000    0.000    0.000    0.000    0.000    0.000 
#    0.000    0.000    0.000    0.000    0.000    0.000 
#
# Total GULP energy -247899.462789 kJ/mol
# GULP energy per Si atom -12394.973139 kJ/mol
# Density = 2.219531 g / cm^3
# Si number density = 22.245941 Si / 1000 Ang^3
#
#
#
# Elastic Constant Matrix: (Units=GPa)
#
#
# Indices 1 2 3 4 5 6 
#
# 1 62.3383 33.7670 7.2699 0.0000 3.9839 0.0000
# 2 33.7670 114.5398 35.6363 0.0000 -9.6124 0.0000
# 3 7.2699 35.6363 97.1780 0.0000 -2.2087 0.0000
# 4 0.0000 0.0000 0.0000 32.2783 0.0000 2.9074
# 5 3.9839 -9.6124 -2.2087 0.0000 42.0830 0.0000
# 6 0.0000 0.0000 0.0000 2.9074 0.0000 39.3187
#
#
#
# Elastic Compliance Matrix: (Units=1/GPa)
#
#
# Indices 1 2 3 4 5 6 
#
# 1 0.019560 -0.006277 0.000765 0.000000 -0.003245 0.000000
# 2 -0.006277 0.012051 -0.003878 0.000000 0.003143 0.000000
# 3 0.000765 -0.003878 0.011648 0.000000 -0.000347 0.000000
# 4 0.000000 0.000000 0.000000 0.031188 0.000000 -0.002306
# 5 -0.003245 0.003143 -0.000347 0.000000 0.024770 0.000000
# 6 0.000000 0.000000 0.000000 -0.002306 0.000000 0.025604
#
#
# Mechanical properties :
#
#
# Convention : Reuss Voigt Hill
#
# Bulk Modulus (GPa) = 40.85299 47.48916 44.17108
# Shear Modulus (GPa) = 32.94678 35.89486 34.42082
#
# Velocity S-wave (km/s) = 3.85258 4.02126 3.93782
# Velocity P-wave (km/s) = 6.18013 6.55396 6.36978
#
# Compressibility (1/GPa) = 0.02447801
#
# Stress axis : x y z
#
# Youngs Moduli (GPa) = 51.12597 82.97789 85.85487
#
# Poissons Ratio (x) = 0.52081 -0.06565
# Poissons Ratio (y) = 0.32089 0.33298
# Poissons Ratio (z) = -0.03909 0.32182
#
# Static dielectric constant tensor:
#      x y z
#    x 4.266790 0.000000 -0.025270 
#    y 0.000000 4.175970 0.000000 
#    z -0.025270 0.000000 3.891190 
# 
# 
# High freq. dielectric constant tensor:
#      x y z
#    x 1.886460 0.000000 0.004240 
#    y 0.000000 1.866810 0.000000 
#    z 0.004240 0.000000 1.877070 
# 
# From -- ./inp_files/62880.got.cif
#   From: 2010.06.25/outbox.cif.g09.slc.cpg/sg15_32_cif.got.tgz:62880.got - 2010.06.28 07:06:18.
