data_PCOD8146696
_publ_section_title
;
Structure prediction by ZEFSAII (Michael W. Deem and Ramdas Pophale) SiO2 
 PCOD8146696
Probable space group: C 2/C
;
_chemical_formula_sum "Si O2"
_cell_formula_units_Z 44
_cell_length_a 10.460947
_cell_length_b 8.968134
_cell_length_c 22.926929
_cell_angle_alpha 90.000000
_cell_angle_beta 109.526083
_cell_angle_gamma 90.000000
_cell_volume 2027.194720
_symmetry_space_group_name_H-M "C 2/C"
_symmetry_group_IT_number 15
_symmetry_cell_setting 'monoclinic'
loop_
_space_group_symop_operation_xyz
x,y,z
-x,y,1/2-z
-x,-y,-z
x,-y,1/2+z
1/2+x,1/2+y,z
1/2-x,1/2+y,1/2-z
1/2-x,1/2-y,-z
1/2+x,1/2-y,1/2+z
loop_
_atom_site_type_symbol
_atom_site_label
_atom_site_fract_x
_atom_site_fract_y
_atom_site_fract_z
Si Si1 0.759960 0.977947 0.776733
Si Si2 0.348446 0.741895 0.655370
Si Si3 0.152138 0.668646 0.528671
Si Si4 0.648001 0.826988 0.528591
Si Si5 0.855297 0.289354 0.837812
Si Si6 0.000000 0.989022 0.250000
O O1 0.693077 0.896797 0.821191
O O2 0.672143 0.937495 0.705306
O O3 0.916390 0.918712 0.786234
O O4 0.771285 0.152850 0.795541
O O5 0.216675 0.684941 0.601926
O O6 0.482087 0.763580 0.635757
O O7 0.380041 0.616371 0.707742
O O8 0.250000 0.750000 0.500000
O O9 0.144195 0.497784 0.508666
O O10 0.002245 0.741499 0.504175
O O11 0.750000 0.750000 0.500000
O O12 0.694339 0.808754 0.603118
#
# Coordination Sequence:
#
# PCOD8146696 Si02
#       6
#     8   8   8   8   8   4
#     4  11  22  41  69  98 132 180 224 288 355 400
#     4  11  21  43  70  94 138 181 227 283 351 416
#     4  11  25  45  71  98 139 189 228 286 355 409
#     4  11  27  46  70 108 141 181 242 292 340 429
#     4  11  24  44  69 100 141 179 237 289 348 423
#     4  10  22  42  62 100 134 176 218 292 346 410
#
# _framework density 21.704872000000002
#
# number of rings (size 3 to 8) (size 9 to 14) (size 15 to 20)
#    0.000    1.091    5.455    1.091    2.545    5.091 
#    3.273    1.818    0.000    0.000    0.000    0.000 
#    0.000    0.000    0.000    0.000    0.000    0.000 
#
# Total GULP energy -272613.241720 kJ/mol
# GULP energy per Si atom -12391.510987 kJ/mol
# Density = 2.165547 g / cm^3
# Si number density = 21.704872 Si / 1000 Ang^3
#
#
#
# Elastic Constant Matrix: (Units=GPa)
#
#
# Indices 1 2 3 4 5 6 
#
# 1 145.7204 55.9438 51.3124 0.0000 -9.1010 0.0000
# 2 55.9438 64.4714 39.1838 0.0000 -0.9557 0.0000
# 3 51.3124 39.1838 127.2612 0.0000 5.2486 0.0000
# 4 0.0000 0.0000 0.0000 -9.8714 0.0000 -8.2804
# 5 -9.1010 -0.9557 5.2486 0.0000 46.3137 0.0000
# 6 0.0000 0.0000 0.0000 -8.2804 0.0000 36.7454
#
#
#
# Elastic Compliance Matrix: (Units=1/GPa)
#
#
# Indices 1 2 3 4 5 6 
#
# 1 0.010820 -0.008182 -0.001933 0.000000 0.002177 0.000000
# 2 -0.008182 0.025321 -0.004473 0.000000 -0.000578 0.000000
# 3 -0.001933 -0.004473 0.010081 0.000000 -0.001615 0.000000
# 4 0.000000 0.000000 0.000000 -0.085198 0.000000 -0.019199
# 5 0.002177 -0.000578 -0.001615 0.000000 0.022191 0.000000
# 6 0.000000 0.000000 0.000000 -0.019199 0.000000 0.022888
#
#
# Mechanical properties :
#
#
# Convention : Reuss Voigt Hill
#
# Bulk Modulus (GPa) = 58.66806 70.03700 64.35253
# Shear Modulus (GPa) = 122.06449 27.37172 74.71811
#
# Velocity S-wave (km/s) = 7.50736 3.55503 5.87361
# Velocity P-wave (km/s) = 10.11117 7.01348 8.70128
#
# Compressibility (1/GPa) = 0.01704505
#
# Stress axis : x y z
#
# Youngs Moduli (GPa) = 92.41902 39.49353 99.19280
#
# Poissons Ratio (x) = 0.32313 0.19178
# Poissons Ratio (y) = 0.75615 0.44373
# Poissons Ratio (z) = 0.17868 0.17667
#
# Static dielectric constant tensor:
#      x y z
#    x 4.263570 0.000000 0.220180 
#    y 0.000000 3.763290 0.000000 
#    z 0.220180 0.000000 3.677770 
# 
# 
# High freq. dielectric constant tensor:
#      x y z
#    x 1.868660 0.000000 -0.007390 
#    y 0.000000 1.834070 0.000000 
#    z -0.007390 0.000000 1.856660 
# 
# From -- ./inp_files/236223.got.cif
#   From: 2010.06.25/outbox.cif.g09.slc.cpg/sg15_119_cif.got.tgz:236223.got - 2010.06.28 07:06:18.
