data_PCOD8146985
_publ_section_title
;
Structure prediction by ZEFSAII (Michael W. Deem and Ramdas Pophale) SiO2 
 PCOD8146985
Probable space group: C 2/C
;
_chemical_formula_sum "Si O2"
_cell_formula_units_Z 60
_cell_length_a 8.335524
_cell_length_b 16.976376
_cell_length_c 20.724266
_cell_angle_alpha 90.000000
_cell_angle_beta 119.851232
_cell_angle_gamma 90.000000
_cell_volume 2543.529482
_symmetry_space_group_name_H-M "C 2/C"
_symmetry_group_IT_number 15
_symmetry_cell_setting 'monoclinic'
loop_
_space_group_symop_operation_xyz
x,y,z
-x,y,1/2-z
-x,-y,-z
x,-y,1/2+z
1/2+x,1/2+y,z
1/2-x,1/2+y,1/2-z
1/2-x,1/2-y,-z
1/2+x,1/2-y,1/2+z
loop_
_atom_site_type_symbol
_atom_site_label
_atom_site_fract_x
_atom_site_fract_y
_atom_site_fract_z
Si Si1 0.715730 0.513673 0.301372
Si Si2 0.444060 0.895631 0.420235
Si Si3 0.253519 0.195928 0.318850
Si Si4 0.907801 0.893894 0.941685
Si Si5 0.928380 0.236020 0.340116
Si Si6 0.888859 0.681364 0.043090
Si Si7 0.220787 0.064638 0.589577
Si Si8 0.000000 0.542843 0.750000
O O1 0.500000 0.489627 0.250000
O O2 0.782812 0.458296 0.373533
O O3 0.721009 0.603572 0.324031
O O4 0.860369 0.505265 0.269479
O O5 0.398724 0.817584 0.370144
O O6 0.452942 0.870823 0.495974
O O7 0.639655 0.937328 0.443437
O O8 0.246558 0.217678 0.241420
O O9 0.445125 0.223738 0.386872
O O10 0.103822 0.244367 0.329132
O O11 0.964367 0.836295 0.895586
O O12 0.702130 0.876920 0.924194
O O13 0.886154 0.983728 0.913436
O O14 0.053729 0.879942 0.030375
O O15 0.750000 0.750000 0.000000
O O16 0.352262 0.092871 0.676355
#
# Coordination Sequence:
#
# PCOD8146985 Si02
#       8
#     8   8   8   8   8   8   8   4
#     4  11  24  46  75 110 141 198 246 312 360 437
#     4  11  26  45  68 104 145 184 239 298 364 432
#     4  11  26  46  75 101 144 187 249 294 372 440
#     4  11  24  43  70 102 140 187 243 289 370 434
#     4  11  24  47  71 104 140 191 235 300 369 437
#     4  12  26  44  67 104 142 189 235 305 363 440
#     4  10  24  42  70 103 139 193 237 299 360 438
#     4  10  22  42  68 108 150 182 244 310 364 424
#
# _framework density 23.589269999999999
#
# number of rings (size 3 to 8) (size 9 to 14) (size 15 to 20)
#    0.000    1.067    2.667    3.200    3.733   10.133 
#    0.000    0.000    0.000    0.000    0.000    0.000 
#    0.000    0.000    0.000    0.000    0.000    0.000 
#
# Total GULP energy -371677.354676 kJ/mol
# GULP energy per Si atom -12389.245156 kJ/mol
# Density = 2.353558 g / cm^3
# Si number density = 23.589270 Si / 1000 Ang^3
#
#
#
# Elastic Constant Matrix: (Units=GPa)
#
#
# Indices 1 2 3 4 5 6 
#
# 1 82.1618 -2.4739 31.4141 0.0000 13.4035 0.0000
# 2 -2.4739 62.0665 11.6990 0.0000 5.8838 0.0000
# 3 31.4141 11.6990 151.4787 0.0000 24.7461 0.0000
# 4 0.0000 0.0000 0.0000 33.9419 0.0000 -3.6871
# 5 13.4035 5.8838 24.7461 0.0000 41.7550 0.0000
# 6 0.0000 0.0000 0.0000 -3.6871 0.0000 29.7097
#
#
#
# Elastic Compliance Matrix: (Units=1/GPa)
#
#
# Indices 1 2 3 4 5 6 
#
# 1 0.013645 0.001296 -0.002419 0.000000 -0.003129 0.000000
# 2 0.001296 0.016586 -0.001218 0.000000 -0.002031 0.000000
# 3 -0.002419 -0.001218 0.007797 0.000000 -0.003673 0.000000
# 4 0.000000 0.000000 0.000000 0.029865 0.000000 0.003706
# 5 -0.003129 -0.002031 -0.003673 0.000000 0.027417 0.000000
# 6 0.000000 0.000000 0.000000 0.003706 0.000000 0.034119
#
#
# Mechanical properties :
#
#
# Convention : Reuss Voigt Hill
#
# Bulk Modulus (GPa) = 29.98685 41.88727 35.93706
# Shear Modulus (GPa) = 34.42928 38.08586 36.25757
#
# Velocity S-wave (km/s) = 3.82453 4.02250 3.92476
# Velocity P-wave (km/s) = 5.67823 6.27451 5.98380
#
# Compressibility (1/GPa) = 0.03334795
#
# Stress axis : x y z
#
# Youngs Moduli (GPa) = 73.28451 60.29340 128.24964
#
# Poissons Ratio (x) = -0.07817 0.31020
# Poissons Ratio (y) = -0.09501 0.15620
# Poissons Ratio (z) = 0.17725 0.07343
#
# Static dielectric constant tensor:
#      x y z
#    x 3.817190 0.000000 -0.193320 
#    y 0.000000 3.271040 0.000000 
#    z -0.193320 0.000000 4.544280 
# 
# 
# High freq. dielectric constant tensor:
#      x y z
#    x 1.933770 0.000000 0.009870 
#    y 0.000000 1.928130 0.000000 
#    z 0.009870 0.000000 1.948160 
# 
# From -- ./inp_files/233079.got.cif
#   From: 2010.06.25/outbox.cif.g09.slc.cpg/sg15_117_cif.got.tgz:233079.got - 2010.06.28 07:06:18.
