data_PCOD8146108
_publ_section_title
;
Structure prediction by ZEFSAII (Michael W. Deem and Ramdas Pophale) SiO2 
 PCOD8146108
Probable space group: C 2/C
;
_chemical_formula_sum "Si O2"
_cell_formula_units_Z 60
_cell_length_a 18.852443
_cell_length_b 18.871235
_cell_length_c 10.418657
_cell_angle_alpha 90.000000
_cell_angle_beta 135.622646
_cell_angle_gamma 90.000000
_cell_volume 2592.348963
_symmetry_space_group_name_H-M "C 2/C"
_symmetry_group_IT_number 15
_symmetry_cell_setting 'monoclinic'
loop_
_space_group_symop_operation_xyz
x,y,z
-x,y,1/2-z
-x,-y,-z
x,-y,1/2+z
1/2+x,1/2+y,z
1/2-x,1/2+y,1/2-z
1/2-x,1/2-y,-z
1/2+x,1/2-y,1/2+z
loop_
_atom_site_type_symbol
_atom_site_label
_atom_site_fract_x
_atom_site_fract_y
_atom_site_fract_z
Si Si1 0.500000 0.623363 0.250000
Si Si2 0.904140 0.958329 0.422285
Si Si3 0.395211 0.264592 0.787978
Si Si4 0.325387 0.923916 0.635499
Si Si5 0.073827 0.716208 0.168231
Si Si6 0.176994 0.318006 0.543460
Si Si7 0.804528 0.523125 0.373162
Si Si8 0.108042 0.139195 0.823047
O O1 0.586014 0.571384 0.419995
O O2 0.546254 0.668721 0.195283
O O3 0.888948 0.889458 0.316567
O O4 0.814813 0.014362 0.297407
O O5 0.000000 0.000000 0.500000
O O6 0.291297 0.293392 0.708942
O O7 0.375943 0.205276 0.656241
O O8 0.454499 0.231432 0.986707
O O9 0.405670 0.859440 0.739489
O O10 0.351036 0.977825 0.787703
O O11 0.211411 0.892789 0.520466
O O12 0.342786 0.962122 0.520857
O O13 0.121075 0.719940 0.087820
O O14 0.116494 0.775704 0.320924
O O15 0.168099 0.402163 0.529260
O O16 0.000000 0.116862 0.750000
#
# Coordination Sequence:
#
# PCOD8146108 Si02
#       8
#     4   8   8   8   8   8   8   8
#     4  12  22  38  64  98 132 170 226 270 340 414
#     4  11  23  34  58  94 138 169 212 268 340 419
#     4  11  21  39  67 100 130 174 224 281 340 394
#     4  10  24  43  65  95 139 180 227 277 340 405
#     4  11  22  43  65  99 135 173 226 283 336 402
#     4  10  22  40  66  97 136 176 222 279 335 403
#     4  10  23  41  62  94 132 182 220 270 338 402
#     4  11  23  40  64  97 137 177 214 277 346 416
#
# _framework density 23.145032
#
# number of rings (size 3 to 8) (size 9 to 14) (size 15 to 20)
#    0.000    1.333    2.667    2.000   10.267    0.000 
#    2.400    0.667    0.000    1.600    0.000    0.000 
#    0.000    0.000    0.000    0.000    0.000    0.000 
#
# Total GULP energy -371845.517865 kJ/mol
# GULP energy per Si atom -12394.850596 kJ/mol
# Density = 2.309235 g / cm^3
# Si number density = 23.145032 Si / 1000 Ang^3
#
#
#
# Elastic Constant Matrix: (Units=GPa)
#
#
# Indices 1 2 3 4 5 6 
#
# 1 33.1457 24.1253 14.7175 0.0000 -13.5662 0.0000
# 2 24.1253 93.3565 42.4658 0.0000 -11.3941 0.0000
# 3 14.7175 42.4658 93.5093 0.0000 -13.2119 0.0000
# 4 0.0000 0.0000 0.0000 97.5807 0.0000 3.9083
# 5 -13.5662 -11.3941 -13.2119 0.0000 26.0683 0.0000
# 6 0.0000 0.0000 0.0000 3.9083 0.0000 27.0003
#
#
#
# Elastic Compliance Matrix: (Units=1/GPa)
#
#
# Indices 1 2 3 4 5 6 
#
# 1 0.044766 -0.009142 -0.000180 0.000000 0.019210 0.000000
# 2 -0.009142 0.015590 -0.005763 0.000000 -0.000864 0.000000
# 3 -0.000180 -0.005763 0.013971 0.000000 0.004468 0.000000
# 4 0.000000 0.000000 0.000000 0.010308 0.000000 -0.001492
# 5 0.019210 -0.000864 0.004468 0.000000 0.050244 0.000000
# 6 0.000000 0.000000 0.000000 -0.001492 0.000000 0.037253
#
#
# Mechanical properties :
#
#
# Convention : Reuss Voigt Hill
#
# Bulk Modulus (GPa) = 22.64660 42.51431 32.58045
# Shear Modulus (GPa) = 23.03918 39.37673 31.20796
#
# Velocity S-wave (km/s) = 3.15846 4.12916 3.67599
# Velocity P-wave (km/s) = 4.80698 6.41419 5.66784
#
# Compressibility (1/GPa) = 0.04415674
#
# Stress axis : x y z
#
# Youngs Moduli (GPa) = 22.33832 64.14264 71.57665
#
# Poissons Ratio (x) = 0.58640 0.01288
# Poissons Ratio (y) = 0.20422 0.41252
# Poissons Ratio (z) = 0.00402 0.36967
#
# Static dielectric constant tensor:
#      x y z
#    x 4.072040 0.000000 -0.095960 
#    y 0.000000 4.246180 0.000000 
#    z -0.095960 0.000000 4.702250 
# 
# 
# High freq. dielectric constant tensor:
#      x y z
#    x 1.897220 0.000000 -0.013370 
#    y 0.000000 1.918640 0.000000 
#    z -0.013370 0.000000 1.924730 
# 
# From -- ./inp_files/113810.got.cif
#   From: 2010.06.25/outbox.cif.g09.slc.cpg/sg15_57_cif.got.tgz:113810.got - 2010.06.28 07:06:18.
