data_PCOD8146937
_publ_section_title
;
Structure prediction by ZEFSAII (Michael W. Deem and Ramdas Pophale) SiO2 
 PCOD8146937
Probable space group: C 2/C
;
_chemical_formula_sum "Si O2"
_cell_formula_units_Z 56
_cell_length_a 29.496879
_cell_length_b 8.915806
_cell_length_c 20.780506
_cell_angle_alpha 90.000000
_cell_angle_beta 151.647287
_cell_angle_gamma 90.000000
_cell_volume 2595.333613
_symmetry_space_group_name_H-M "C 2/C"
_symmetry_group_IT_number 15
_symmetry_cell_setting 'monoclinic'
loop_
_space_group_symop_operation_xyz
x,y,z
-x,y,1/2-z
-x,-y,-z
x,-y,1/2+z
1/2+x,1/2+y,z
1/2-x,1/2+y,1/2-z
1/2-x,1/2-y,-z
1/2+x,1/2-y,1/2+z
loop_
_atom_site_type_symbol
_atom_site_label
_atom_site_fract_x
_atom_site_fract_y
_atom_site_fract_z
Si Si1 0.619059 0.101086 0.200374
Si Si2 0.916591 0.988586 0.947794
Si Si3 0.966547 0.847007 0.635783
Si Si4 0.137071 0.361060 0.317072
Si Si5 0.756605 0.871494 0.177827
Si Si6 0.787110 0.663708 0.449202
Si Si7 0.097852 0.659069 0.572896
O O1 0.708508 0.216263 0.311988
O O2 0.612777 0.026964 0.262689
O O3 0.632996 0.970157 0.164858
O O4 0.516408 0.180085 0.066287
O O5 0.865518 0.828506 0.870155
O O6 0.833868 0.110778 0.831847
O O7 0.950548 0.015167 0.065167
O O8 0.000000 0.000000 0.000000
O O9 0.875702 0.736935 0.522803
O O10 0.000000 0.902018 0.750000
O O11 0.046055 0.744357 0.703599
O O12 0.183668 0.383786 0.443394
O O13 0.208198 0.292455 0.353120
O O14 0.647057 0.873910 0.065434
O O15 0.761578 0.013427 0.137639
#
# Coordination Sequence:
#
# PCOD8146937 Si02
#       7
#     8   8   8   8   8   8   8
#     4  11  24  41  62  93 130 169 211 272 324 394
#     4  12  24  42  67  96 131 171 218 280 332 389
#     4  10  23  43  69  97 129 178 228 272 330 400
#     4  10  22  42  67  89 129 173 214 266 328 393
#     4  12  25  38  65  97 127 167 215 269 325 394
#     4  10  23  42  66  95 125 171 219 265 324 400
#     4  11  25  41  60  93 128 169 213 261 334 385
#
# _framework density 21.577189000000001
#
# number of rings (size 3 to 8) (size 9 to 14) (size 15 to 20)
#    0.000    1.143    1.429    4.286   10.000    0.571 
#    0.000    1.429    0.000    0.000    0.000    0.000 
#    0.000    0.000    0.000    0.000    0.000    0.000 
#
# Total GULP energy -346900.999382 kJ/mol
# GULP energy per Si atom -12389.321407 kJ/mol
# Density = 2.152808 g / cm^3
# Si number density = 21.577189 Si / 1000 Ang^3
#
#
#
# Elastic Constant Matrix: (Units=GPa)
#
#
# Indices 1 2 3 4 5 6 
#
# 1 389.1315 254.5066 -25.1926 0.0000 168.4424 0.0000
# 2 254.5066 266.8732 -12.4826 0.0000 104.7564 0.0000
# 3 -25.1926 -12.4826 74.4281 0.0000 -25.0978 0.0000
# 4 0.0000 0.0000 0.0000 37.6532 0.0000 6.7285
# 5 168.4424 104.7564 -25.0978 0.0000 119.5225 0.0000
# 6 0.0000 0.0000 0.0000 6.7285 0.0000 -11.3786
#
#
#
# Elastic Compliance Matrix: (Units=1/GPa)
#
#
# Indices 1 2 3 4 5 6 
#
# 1 0.011598 -0.007041 -0.000738 0.000000 -0.010329 0.000000
# 2 -0.007041 0.010029 -0.000344 0.000000 0.001060 0.000000
# 3 -0.000738 -0.000344 0.014616 0.000000 0.004411 0.000000
# 4 0.000000 0.000000 0.000000 0.024020 0.000000 0.014204
# 5 -0.010329 0.001060 0.004411 0.000000 0.022921 0.000000
# 6 0.000000 0.000000 0.000000 0.014204 0.000000 -0.079485
#
#
# Mechanical properties :
#
#
# Convention : Reuss Voigt Hill
#
# Bulk Modulus (GPa) = 50.00476 129.34396 89.67436
# Shear Modulus (GPa) = 187.90078 63.39951 125.65014
#
# Velocity S-wave (km/s) = 9.34195 5.42646 7.63932
# Velocity P-wave (km/s) = 11.81473 9.96679 10.92989
#
# Compressibility (1/GPa) = 0.01999810
#
# Stress axis : x y z
#
# Youngs Moduli (GPa) = 86.22171 99.70783 68.42015
#
# Poissons Ratio (x) = 0.70199 0.05051
# Poissons Ratio (y) = 0.60704 0.02352
# Poissons Ratio (z) = 0.06365 0.03427
#
# Static dielectric constant tensor:
#      x y z
#    x 3.934750 0.000000 0.217750 
#    y 0.000000 3.909740 0.000000 
#    z 0.217750 0.000000 3.811690 
# 
# 
# High freq. dielectric constant tensor:
#      x y z
#    x 1.855890 0.000000 0.014810 
#    y 0.000000 1.847990 0.000000 
#    z 0.014810 0.000000 1.844310 
# 
# From -- ./inp_files/258998.got.cif
#   From: 2010.06.25/outbox.cif.g09.slc.cpg/sg15_130_cif.got.tgz:258998.got - 2010.06.28 07:06:18.
