data_PCOD8146213
_publ_section_title
;
Structure prediction by ZEFSAII (Michael W. Deem and Ramdas Pophale) SiO2 
 PCOD8146213
Probable space group: C 2/C
;
_chemical_formula_sum "Si O2"
_cell_formula_units_Z 48
_cell_length_a 17.506405
_cell_length_b 5.178003
_cell_length_c 22.788945
_cell_angle_alpha 90.000000
_cell_angle_beta 98.646250
_cell_angle_gamma 90.000000
_cell_volume 2042.300414
_symmetry_space_group_name_H-M "C 2/C"
_symmetry_group_IT_number 15
_symmetry_cell_setting 'monoclinic'
loop_
_space_group_symop_operation_xyz
x,y,z
-x,y,1/2-z
-x,-y,-z
x,-y,1/2+z
1/2+x,1/2+y,z
1/2-x,1/2+y,1/2-z
1/2-x,1/2-y,-z
1/2+x,1/2-y,1/2+z
loop_
_atom_site_type_symbol
_atom_site_label
_atom_site_fract_x
_atom_site_fract_y
_atom_site_fract_z
Si Si1 0.818227 0.439752 0.489706
Si Si2 0.174695 0.138780 0.422130
Si Si3 0.026194 0.086322 0.940440
Si Si4 0.651690 0.050051 0.217063
Si Si5 0.058315 0.599004 0.593733
Si Si6 0.832165 0.942274 0.713544
O O1 0.750000 0.250000 0.500000
O O2 0.851521 0.591910 0.550516
O O3 0.767238 0.627908 0.441050
O O4 0.887882 0.336740 0.456921
O O5 0.149896 0.103586 0.352284
O O6 0.120837 0.917328 0.447688
O O7 0.003369 0.379444 0.927889
O O8 0.986203 0.866128 0.893544
O O9 0.000000 0.000000 0.000000
O O10 0.741289 0.054118 0.212536
O O11 0.629939 0.298957 0.254436
O O12 0.606071 0.030043 0.151501
O O13 0.628283 0.798178 0.250407
#
# Coordination Sequence:
#
# PCOD8146213 Si02
#       6
#     8   8   8   8   8   8
#     4  11  25  40  71 100 137 171 231 292 336 405
#     4  11  25  43  64 106 131 176 228 285 342 398
#     4  12  26  44  68  98 144 182 217 272 354 423
#     4  10  22  42  66  97 128 178 224 279 341 387
#     4  12  25  46  68  99 138 184 225 275 346 420
#     4  10  22  40  69  95 131 170 229 286 329 399
#
# _framework density 23.50291
#
# number of rings (size 3 to 8) (size 9 to 14) (size 15 to 20)
#    0.000    1.000    3.333    2.500    7.000    1.333 
#    0.000    5.000    0.000    0.000    0.000    0.000 
#    0.000    0.000    0.000    0.000    0.000    0.000 
#
# Total GULP energy -297401.116114 kJ/mol
# GULP energy per Si atom -12391.713171 kJ/mol
# Density = 2.344942 g / cm^3
# Si number density = 23.502910 Si / 1000 Ang^3
#
#
#
# Elastic Constant Matrix: (Units=GPa)
#
#
# Indices 1 2 3 4 5 6 
#
# 1 91.3865 45.4887 12.7207 0.0000 -6.0970 0.0000
# 2 45.4887 131.5847 26.3826 0.0000 5.4085 0.0000
# 3 12.7207 26.3826 112.9506 0.0000 -7.8131 0.0000
# 4 0.0000 0.0000 0.0000 30.0025 0.0000 1.7517
# 5 -6.0970 5.4085 -7.8131 0.0000 25.4575 0.0000
# 6 0.0000 0.0000 0.0000 1.7517 0.0000 34.5312
#
#
#
# Elastic Compliance Matrix: (Units=1/GPa)
#
#
# Indices 1 2 3 4 5 6 
#
# 1 0.013672 -0.004882 -0.000104 0.000000 0.004280 0.000000
# 2 -0.004882 0.009852 -0.002020 0.000000 -0.003882 0.000000
# 3 -0.000104 -0.002020 0.009568 0.000000 0.003341 0.000000
# 4 0.000000 0.000000 0.000000 0.033430 0.000000 -0.001696
# 5 0.004280 -0.003882 0.003341 0.000000 0.042156 0.000000
# 6 0.000000 0.000000 0.000000 -0.001696 0.000000 0.029045
#
#
# Mechanical properties :
#
#
# Convention : Reuss Voigt Hill
#
# Bulk Modulus (GPa) = 52.40545 56.12287 54.26416
# Shear Modulus (GPa) = 31.62670 34.75357 33.19013
#
# Velocity S-wave (km/s) = 3.67229 3.84955 3.76196
# Velocity P-wave (km/s) = 6.35034 6.60981 6.48137
#
# Compressibility (1/GPa) = 0.01908199
#
# Stress axis : x y z
#
# Youngs Moduli (GPa) = 73.13999 101.50403 104.51522
#
# Poissons Ratio (x) = 0.49551 0.01082
# Poissons Ratio (y) = 0.35705 0.21111
# Poissons Ratio (z) = 0.00757 0.20503
#
# Static dielectric constant tensor:
#      x y z
#    x 4.805730 0.000000 0.323950 
#    y 0.000000 4.578270 0.000000 
#    z 0.323950 0.000000 4.344320 
# 
# 
# High freq. dielectric constant tensor:
#      x y z
#    x 1.932450 0.000000 0.011690 
#    y 0.000000 1.947480 0.000000 
#    z 0.011690 0.000000 1.927790 
# 
# From -- ./inp_files/275709.got.cif
#   From: 2010.06.25/outbox.cif.g09.slc.cpg/sg15_138_cif.got.tgz:275709.got - 2010.06.28 07:06:18.
