data_PCOD8146121
_publ_section_title
;
Structure prediction by ZEFSAII (Michael W. Deem and Ramdas Pophale) SiO2 
 PCOD8146121
Probable space group: C 2/C
;
_chemical_formula_sum "Si O2"
_cell_formula_units_Z 40
_cell_length_a 22.607705
_cell_length_b 7.344631
_cell_length_c 12.219118
_cell_angle_alpha 90.000000
_cell_angle_beta 123.941924
_cell_angle_gamma 90.000000
_cell_volume 1683.205460
_symmetry_space_group_name_H-M "C 2/C"
_symmetry_group_IT_number 15
_symmetry_cell_setting 'monoclinic'
loop_
_space_group_symop_operation_xyz
x,y,z
-x,y,1/2-z
-x,-y,-z
x,-y,1/2+z
1/2+x,1/2+y,z
1/2-x,1/2+y,1/2-z
1/2-x,1/2-y,-z
1/2+x,1/2-y,1/2+z
loop_
_atom_site_type_symbol
_atom_site_label
_atom_site_fract_x
_atom_site_fract_y
_atom_site_fract_z
Si Si1 0.639026 0.032276 0.803204
Si Si2 0.915040 0.786783 0.399176
Si Si3 0.959304 0.131816 0.315955
Si Si4 0.793672 0.339039 0.447460
Si Si5 0.216620 0.022177 0.671331
O O1 0.596814 0.901844 0.676064
O O2 0.720008 0.065978 0.847738
O O3 0.600164 0.222162 0.775377
O O4 0.640272 0.943575 0.927192
O O5 0.986756 0.774752 0.542879
O O6 0.920204 0.953891 0.320146
O O7 0.845661 0.826561 0.403511
O O8 0.000000 0.068578 0.250000
O O9 0.750000 0.250000 0.500000
O O10 0.818098 0.176643 0.390240
O O11 0.746259 0.477946 0.326701
#
# Coordination Sequence:
#
# PCOD8146121 Si02
#       5
#     8   8   8   8   8
#     4  11  25  46  73 108 145 190 247 305 365 437
#     4  11  25  48  69 106 146 189 246 296 369 436
#     4  11  28  46  70 103 145 200 240 292 366 447
#     4  10  22  40  67 108 140 183 237 305 364 432
#     4  11  21  43  74 104 146 184 238 313 365 427
#
# _framework density 23.764182000000002
#
# number of rings (size 3 to 8) (size 9 to 14) (size 15 to 20)
#    0.000    1.200    4.000    1.800    5.600    0.800 
#    3.600    4.000    0.000    0.000    0.000    0.000 
#    0.000    0.000    0.000    0.000    0.000    0.000 
#
# Total GULP energy -247993.286804 kJ/mol
# GULP energy per Si atom -12399.664340 kJ/mol
# Density = 2.371009 g / cm^3
# Si number density = 23.764182 Si / 1000 Ang^3
#
#
#
# Elastic Constant Matrix: (Units=GPa)
#
#
# Indices 1 2 3 4 5 6 
#
# 1 73.3357 21.1022 8.8811 0.0000 4.3594 0.0000
# 2 21.1022 68.9203 12.2376 0.0000 -7.1713 0.0000
# 3 8.8811 12.2376 80.1885 0.0000 -10.2284 0.0000
# 4 0.0000 0.0000 0.0000 63.2609 0.0000 2.5593
# 5 4.3594 -7.1713 -10.2284 0.0000 32.9118 0.0000
# 6 0.0000 0.0000 0.0000 2.5593 0.0000 11.1444
#
#
#
# Elastic Compliance Matrix: (Units=1/GPa)
#
#
# Indices 1 2 3 4 5 6 
#
# 1 0.015409 -0.004834 -0.001420 0.000000 -0.003536 0.000000
# 2 -0.004834 0.016655 -0.001522 0.000000 0.003796 0.000000
# 3 -0.001420 -0.001522 0.013372 0.000000 0.004012 0.000000
# 4 0.000000 0.000000 0.000000 0.015956 0.000000 -0.003664
# 5 -0.003536 0.003796 0.004012 0.000000 0.032927 0.000000
# 6 0.000000 0.000000 0.000000 -0.003664 0.000000 0.090572
#
#
# Mechanical properties :
#
#
# Convention : Reuss Voigt Hill
#
# Bulk Modulus (GPa) = 33.46248 34.09848 33.78048
# Shear Modulus (GPa) = 23.76387 33.47833 28.62110
#
# Velocity S-wave (km/s) = 3.16569 3.75743 3.47418
# Velocity P-wave (km/s) = 5.24154 5.76231 5.50808
#
# Compressibility (1/GPa) = 0.02988422
#
# Stress axis : x y z
#
# Youngs Moduli (GPa) = 64.89739 60.04276 74.78352
#
# Poissons Ratio (x) = 0.29023 0.10618
# Poissons Ratio (y) = 0.31370 0.11383
# Poissons Ratio (z) = 0.09215 0.09139
#
# Static dielectric constant tensor:
#      x y z
#    x 4.210770 0.000000 -0.194720 
#    y 0.000000 4.442290 0.000000 
#    z -0.194720 0.000000 4.928830 
# 
# 
# High freq. dielectric constant tensor:
#      x y z
#    x 1.924470 0.000000 -0.002800 
#    y 0.000000 1.946580 0.000000 
#    z -0.002800 0.000000 1.953170 
# 
# From -- ./inp_files/116562.got.cif
#   From: 2010.06.25/outbox.cif.g09.slc.cpg/sg15_59_cif.got.tgz:116562.got - 2010.06.28 07:06:18.
