data_PCOD8146882
_publ_section_title
;
Structure prediction by ZEFSAII (Michael W. Deem and Ramdas Pophale) SiO2 
 PCOD8146882
Probable space group: C 2/C
;
_chemical_formula_sum "Si O2"
_cell_formula_units_Z 36
_cell_length_a 11.248028
_cell_length_b 20.825248
_cell_length_c 14.608685
_cell_angle_alpha 90.000000
_cell_angle_beta 149.417733
_cell_angle_gamma 90.000000
_cell_volume 1741.018764
_symmetry_space_group_name_H-M "C 2/C"
_symmetry_group_IT_number 15
_symmetry_cell_setting 'monoclinic'
loop_
_space_group_symop_operation_xyz
x,y,z
-x,y,1/2-z
-x,-y,-z
x,-y,1/2+z
1/2+x,1/2+y,z
1/2-x,1/2+y,1/2-z
1/2-x,1/2-y,-z
1/2+x,1/2-y,1/2+z
loop_
_atom_site_type_symbol
_atom_site_label
_atom_site_fract_x
_atom_site_fract_y
_atom_site_fract_z
Si Si1 0.141003 0.696212 0.756588
Si Si2 0.241239 0.458003 0.064158
Si Si3 0.877683 0.405336 0.963591
Si Si4 0.852214 0.174234 0.341709
Si Si5 0.500000 0.117123 0.250000
O O1 0.188655 0.752796 0.716533
O O2 0.000000 0.724528 0.750000
O O3 0.969431 0.644585 0.598504
O O4 0.385938 0.663968 0.947687
O O5 0.500000 0.432403 0.250000
O O6 0.096532 0.430354 0.051998
O O7 0.237096 0.535378 0.058776
O O8 0.157997 0.430634 0.912968
O O9 0.686471 0.373699 0.769268
O O10 0.664204 0.161955 0.296883
#
# Coordination Sequence:
#
# PCOD8146882 Si02
#       5
#     8   8   8   8   4
#     4  12  25  40  64  95 132 173 211 258 320 386
#     4  10  22  42  66  91 130 166 217 266 316 377
#     4  10  24  41  62  98 125 171 215 261 322 374
#     4  11  24  43  64  96 133 164 216 261 320 382
#     4  10  24  44  68  98 124 170 216 266 322 380
#
# _framework density 20.677548000000002
#
# number of rings (size 3 to 8) (size 9 to 14) (size 15 to 20)
#    0.000    1.333    2.222    2.000    4.667    0.889 
#    2.000    6.667    0.000    0.000    0.000    0.000 
#    0.000    0.000    0.000    0.000    0.000    0.000 
#
# Total GULP energy -223292.426371 kJ/mol
# GULP energy per Si atom -12405.134798 kJ/mol
# Density = 2.063048 g / cm^3
# Si number density = 20.677548 Si / 1000 Ang^3
#
#
#
# Elastic Constant Matrix: (Units=GPa)
#
#
# Indices 1 2 3 4 5 6 
#
# 1 82.3895 43.2992 59.1037 0.0001 -14.3596 0.0003
# 2 43.2992 91.3647 20.7819 -0.0007 -13.6104 0.0006
# 3 59.1037 20.7819 130.4410 -0.0002 -3.2397 0.0007
# 4 0.0001 -0.0007 -0.0002 32.4977 0.0002 2.4590
# 5 -14.3596 -13.6104 -3.2397 0.0002 27.1557 0.0002
# 6 0.0003 0.0006 0.0007 2.4590 0.0002 22.2530
#
#
#
# Elastic Compliance Matrix: (Units=1/GPa)
#
#
# Indices 1 2 3 4 5 6 
#
# 1 0.024927 -0.008433 -0.009758 0.000000 0.007790 0.000000
# 2 -0.008433 0.015090 0.001499 0.000000 0.003282 0.000000
# 3 -0.009758 0.001499 0.011774 0.000000 -0.003004 0.000000
# 4 0.000000 0.000000 0.000000 0.031031 0.000000 -0.003429
# 5 0.007790 0.003282 -0.003004 0.000000 0.042231 0.000000
# 6 0.000000 0.000000 0.000000 -0.003429 0.000000 0.045317
#
#
# Mechanical properties :
#
#
# Convention : Reuss Voigt Hill
#
# Bulk Modulus (GPa) = 54.32846 61.17387 57.75116
# Shear Modulus (GPa) = 23.82204 28.44865 26.13534
#
# Velocity S-wave (km/s) = 3.39790 3.71323 3.55906
# Velocity P-wave (km/s) = 6.45953 6.93059 6.69920
#
# Compressibility (1/GPa) = 0.01840656
#
# Stress axis : x y z
#
# Youngs Moduli (GPa) = 40.11699 66.26923 84.93189
#
# Poissons Ratio (x) = 0.55887 0.82873
# Poissons Ratio (y) = 0.33832 -0.12728
# Poissons Ratio (z) = 0.39144 -0.09931
#
# Static dielectric constant tensor:
#      x y z
#    x 3.686220 0.000000 0.020240 
#    y 0.000000 3.769180 0.000000 
#    z 0.020240 0.000000 3.828410 
# 
# 
# High freq. dielectric constant tensor:
#      x y z
#    x 1.813400 0.000000 0.000490 
#    y 0.000000 1.811490 0.000000 
#    z 0.000490 0.000000 1.827310 
# 
# From -- ./inp_files/146945.got.cif
#   From: 2010.06.25/outbox.cif.g09.slc.cpg/sg15_74_cif.got.tgz:146945.got - 2010.06.28 07:06:18.
