data_PCOD8146297
_publ_section_title
;
Structure prediction by ZEFSAII (Michael W. Deem and Ramdas Pophale) SiO2 
 PCOD8146297
Probable space group: C 2/C
;
_chemical_formula_sum "Si O2"
_cell_formula_units_Z 24
_cell_length_a 9.342054
_cell_length_b 7.875184
_cell_length_c 13.876992
_cell_angle_alpha 90.000000
_cell_angle_beta 96.015047
_cell_angle_gamma 90.000000
_cell_volume 1015.314918
_symmetry_space_group_name_H-M "C 2/C"
_symmetry_group_IT_number 15
_symmetry_cell_setting 'monoclinic'
loop_
_space_group_symop_operation_xyz
x,y,z
-x,y,1/2-z
-x,-y,-z
x,-y,1/2+z
1/2+x,1/2+y,z
1/2-x,1/2+y,1/2-z
1/2-x,1/2-y,-z
1/2+x,1/2-y,1/2+z
loop_
_atom_site_type_symbol
_atom_site_label
_atom_site_fract_x
_atom_site_fract_y
_atom_site_fract_z
Si Si1 0.653757 0.210048 0.721931
Si Si2 0.688065 0.404722 0.437475
Si Si3 0.865387 0.924330 0.379359
O O1 0.500000 0.150194 0.750000
O O2 0.707733 0.069861 0.647317
O O3 0.648187 0.394940 0.674792
O O4 0.763019 0.212141 0.820410
O O5 0.750000 0.250000 0.500000
O O6 0.529598 0.361731 0.384911
O O7 0.680637 0.563875 0.510544
#
# Coordination Sequence:
#
# PCOD8146297 Si02
#       3
#     8   8   8
#     4  11  22  37  61  90 120 155 197 246 295 349
#     4   9  20  40  62  85 119 159 197 242 293 349
#     4  10  22  41  61  86 121 157 198 245 293 350
#
# _framework density 23.637986000000001
#
# number of rings (size 3 to 8) (size 9 to 14) (size 15 to 20)
#    0.000    2.000    0.000    3.000    0.000    6.667 
#    0.000   23.333    0.000    0.000    0.000    0.000 
#    0.000    0.000    0.000    0.000    0.000    0.000 
#
# Total GULP energy -148734.789349 kJ/mol
# GULP energy per Si atom -12394.565779 kJ/mol
# Density = 2.358418 g / cm^3
# Si number density = 23.637986 Si / 1000 Ang^3
#
#
#
# Elastic Constant Matrix: (Units=GPa)
#
#
# Indices 1 2 3 4 5 6 
#
# 1 184.9136 40.3406 88.5350 0.0000 15.5978 0.0000
# 2 40.3406 42.4812 20.1812 0.0000 12.9262 0.0000
# 3 88.5350 20.1812 131.3171 0.0000 21.5152 0.0000
# 4 0.0000 0.0000 0.0000 40.9728 0.0000 13.0308
# 5 15.5978 12.9262 21.5152 0.0000 52.7883 0.0000
# 6 0.0000 0.0000 0.0000 13.0308 0.0000 31.0783
#
#
#
# Elastic Compliance Matrix: (Units=1/GPa)
#
#
# Indices 1 2 3 4 5 6 
#
# 1 0.009395 -0.006644 -0.005491 0.000000 0.001089 0.000000
# 2 -0.006644 0.031364 0.000639 0.000000 -0.005977 0.000000
# 3 -0.005491 0.000639 0.011765 0.000000 -0.003329 0.000000
# 4 0.000000 0.000000 0.000000 0.028162 0.000000 -0.011808
# 5 0.001089 -0.005977 -0.003329 0.000000 0.021442 0.000000
# 6 0.000000 0.000000 0.000000 -0.011808 0.000000 0.037128
#
#
# Mechanical properties :
#
#
# Convention : Reuss Voigt Hill
#
# Bulk Modulus (GPa) = 33.86344 72.98059 53.42201
# Shear Modulus (GPa) = 29.05410 38.94489 33.99949
#
# Velocity S-wave (km/s) = 3.50969 4.06341 3.79666
# Velocity P-wave (km/s) = 5.54805 7.27712 6.47060
#
# Compressibility (1/GPa) = 0.02953038
#
# Stress axis : x y z
#
# Youngs Moduli (GPa) = 106.44261 31.88321 84.99978
#
# Poissons Ratio (x) = 0.21183 0.46677
# Poissons Ratio (y) = 0.70720 -0.05428
# Poissons Ratio (z) = 0.58452 -0.02036
#
# Static dielectric constant tensor:
#      x y z
#    x 4.510300 0.000000 -0.396830 
#    y 0.000000 3.721150 0.000000 
#    z -0.396830 0.000000 5.477570 
# 
# 
# High freq. dielectric constant tensor:
#      x y z
#    x 1.940200 0.000000 -0.001390 
#    y 0.000000 1.896520 0.000000 
#    z -0.001390 0.000000 1.971830 
# 
# From -- ./inp_files/74768.got.cif
#   From: 2010.06.25/outbox.cif.g09.slc.cpg/sg15_38_cif.got.tgz:74768.got - 2010.06.28 07:06:18.
