data_PCOD8146940
_publ_section_title
;
Structure prediction by ZEFSAII (Michael W. Deem and Ramdas Pophale) SiO2 
 PCOD8146940
Probable space group: C 2/C
;
_chemical_formula_sum "Si O2"
_cell_formula_units_Z 64
_cell_length_a 9.263380
_cell_length_b 19.962556
_cell_length_c 20.513656
_cell_angle_alpha 90.000000
_cell_angle_beta 122.021918
_cell_angle_gamma 90.000000
_cell_volume 3216.216844
_symmetry_space_group_name_H-M "C 2/C"
_symmetry_group_IT_number 15
_symmetry_cell_setting 'monoclinic'
loop_
_space_group_symop_operation_xyz
x,y,z
-x,y,1/2-z
-x,-y,-z
x,-y,1/2+z
1/2+x,1/2+y,z
1/2-x,1/2+y,1/2-z
1/2-x,1/2-y,-z
1/2+x,1/2-y,1/2+z
loop_
_atom_site_type_symbol
_atom_site_label
_atom_site_fract_x
_atom_site_fract_y
_atom_site_fract_z
Si Si1 0.583579 0.170403 0.608341
Si Si2 0.080224 0.429643 0.340420
Si Si3 0.416993 0.959549 0.893987
Si Si4 0.777212 0.569240 0.947733
Si Si5 0.653450 0.273793 0.239126
Si Si6 0.141823 0.256808 0.537830
Si Si7 0.798771 0.162905 0.187189
Si Si8 0.579179 0.372896 0.106678
O O1 0.440153 0.136335 0.619265
O O2 0.715213 0.114865 0.614833
O O3 0.677363 0.221116 0.677837
O O4 0.524884 0.204429 0.526860
O O5 0.283573 0.430627 0.378247
O O6 0.000000 0.420657 0.250000
O O7 0.001585 0.493136 0.358982
O O8 0.280502 0.911232 0.827131
O O9 0.308324 0.994835 0.926132
O O10 0.572427 0.917907 0.963644
O O11 0.595635 0.584693 0.936949
O O12 0.500000 0.260939 0.250000
O O13 0.683316 0.206305 0.207411
O O14 0.621303 0.339582 0.186933
O O15 0.250000 0.250000 0.500000
O O16 0.266307 0.303150 0.610021
O O17 0.078104 0.187751 0.554569
O O18 0.000000 0.161240 0.250000
#
# Coordination Sequence:
#
# PCOD8146940 Si02
#       8
#     8   8   8   8   8   8   8   8
#     4  11  20  39  65  91 129 170 208 257 326 372
#     4  11  23  39  65  92 128 170 218 266 306 376
#     4  10  24  45  63  88 131 173 211 266 321 372
#     4  10  22  42  67  90 124 171 221 264 309 379
#     4  11  23  39  64  99 130 163 206 268 324 384
#     4  11  22  37  65  96 130 161 206 264 325 376
#     4  11  25  43  65  93 131 170 209 257 330 398
#     4  11  23  38  65 103 125 163 221 264 316 381
#
# _framework density 19.899155
#
# number of rings (size 3 to 8) (size 9 to 14) (size 15 to 20)
#    0.000    1.250    5.000    0.750    1.750    3.500 
#    0.000    1.250    0.000    0.000    0.000    0.000 
#    0.000    0.000    0.000    0.000    0.000    0.000 
#
# Total GULP energy -396521.664349 kJ/mol
# GULP energy per Si atom -12391.302011 kJ/mol
# Density = 1.985386 g / cm^3
# Si number density = 19.899155 Si / 1000 Ang^3
#
#
#
# Elastic Constant Matrix: (Units=GPa)
#
#
# Indices 1 2 3 4 5 6 
#
# 1 151.8923 56.2487 51.1910 0.0000 8.1132 0.0000
# 2 56.2487 89.7834 46.1845 0.0000 7.6386 0.0000
# 3 51.1910 46.1845 125.4340 0.0000 3.7493 0.0000
# 4 0.0000 0.0000 0.0000 26.5100 0.0000 7.2521
# 5 8.1132 7.6386 3.7493 0.0000 35.6217 0.0000
# 6 0.0000 0.0000 0.0000 7.2521 0.0000 23.0979
#
#
#
# Elastic Compliance Matrix: (Units=1/GPa)
#
#
# Indices 1 2 3 4 5 6 
#
# 1 0.008972 -0.004536 -0.001965 0.000000 -0.000864 0.000000
# 2 -0.004536 0.016245 -0.004070 0.000000 -0.002022 0.000000
# 3 -0.001965 -0.004070 0.010266 0.000000 0.000240 0.000000
# 4 0.000000 0.000000 0.000000 0.041266 0.000000 -0.012956
# 5 -0.000864 -0.002022 0.000240 0.000000 0.028678 0.000000
# 6 0.000000 0.000000 0.000000 -0.012956 0.000000 0.047362
#
#
# Mechanical properties :
#
#
# Convention : Reuss Voigt Hill
#
# Bulk Modulus (GPa) = 69.73492 74.92867 72.33180
# Shear Modulus (GPa) = 27.97792 31.27828 29.62810
#
# Velocity S-wave (km/s) = 3.75371 3.96894 3.86283
# Velocity P-wave (km/s) = 7.34217 7.66416 7.50489
#
# Compressibility (1/GPa) = 0.01434002
#
# Stress axis : x y z
#
# Youngs Moduli (GPa) = 111.45667 61.55569 97.41122
#
# Poissons Ratio (x) = 0.27924 0.19146
# Poissons Ratio (y) = 0.50561 0.39644
# Poissons Ratio (z) = 0.21907 0.25051
#
# Static dielectric constant tensor:
#      x y z
#    x 3.600050 0.000000 -0.084110 
#    y 0.000000 3.426290 0.000000 
#    z -0.084110 0.000000 3.345540 
# 
# 
# High freq. dielectric constant tensor:
#      x y z
#    x 1.783270 0.000000 -0.005180 
#    y 0.000000 1.765050 0.000000 
#    z -0.005180 0.000000 1.784620 
# 
# From -- ./inp_files/233845.got.cif
#   From: 2010.06.25/outbox.cif.g09.slc.cpg/sg15_117_cif.got.tgz:233845.got - 2010.06.28 07:06:18.
