data_PCOD8146235
_publ_section_title
;
Structure prediction by ZEFSAII (Michael W. Deem and Ramdas Pophale) SiO2 
 PCOD8146235
Probable space group: C 2/C
;
_chemical_formula_sum "Si O2"
_cell_formula_units_Z 44
_cell_length_a 8.727843
_cell_length_b 11.812869
_cell_length_c 18.718530
_cell_angle_alpha 90.000000
_cell_angle_beta 103.009770
_cell_angle_gamma 90.000000
_cell_volume 1880.359472
_symmetry_space_group_name_H-M "C 2/C"
_symmetry_group_IT_number 15
_symmetry_cell_setting 'monoclinic'
loop_
_space_group_symop_operation_xyz
x,y,z
-x,y,1/2-z
-x,-y,-z
x,-y,1/2+z
1/2+x,1/2+y,z
1/2-x,1/2+y,1/2-z
1/2-x,1/2-y,-z
1/2+x,1/2-y,1/2+z
loop_
_atom_site_type_symbol
_atom_site_label
_atom_site_fract_x
_atom_site_fract_y
_atom_site_fract_z
Si Si1 0.761348 0.802408 0.202678
Si Si2 0.233394 0.029626 0.622176
Si Si3 0.181812 0.277041 0.634959
Si Si4 0.330726 0.178848 0.069703
Si Si5 0.426458 0.531994 0.171827
Si Si6 0.000000 0.416785 0.250000
O O1 0.839271 0.749936 0.282661
O O2 0.761087 0.711884 0.139709
O O3 0.580486 0.835957 0.199186
O O4 0.853424 0.912829 0.186839
O O5 0.240482 0.162130 0.602352
O O6 0.363083 0.007447 0.699160
O O7 0.282965 0.954073 0.558752
O O8 0.058631 0.993608 0.627142
O O9 0.297689 0.380336 0.628675
O O10 0.016194 0.309723 0.583758
O O11 0.250000 0.250000 0.000000
O O12 0.500000 0.590325 0.250000
#
# Coordination Sequence:
#
# PCOD8146235 Si02
#       6
#     8   8   8   8   8   4
#     4  11  23  43  72 104 141 182 232 296 354 416
#     4  11  25  42  69 105 139 180 230 291 348 418
#     4  11  25  44  73 104 138 181 237 296 350 410
#     4  12  27  47  70 100 147 193 231 288 357 425
#     4  12  21  42  70 106 140 176 226 298 358 406
#     4  10  22  40  70 108 136 170 240 292 348 410
#
# _framework density 23.399781000000001
#
# number of rings (size 3 to 8) (size 9 to 14) (size 15 to 20)
#    0.000    0.727    5.455    2.727   12.727    0.727 
#    0.000    4.545    0.000    0.000    0.000    0.000 
#    0.000    0.000    0.000    0.000    0.000    0.000 
#
# Total GULP energy -272777.816422 kJ/mol
# GULP energy per Si atom -12398.991656 kJ/mol
# Density = 2.334652 g / cm^3
# Si number density = 23.399781 Si / 1000 Ang^3
#
#
#
# Elastic Constant Matrix: (Units=GPa)
#
#
# Indices 1 2 3 4 5 6 
#
# 1 132.4703 34.6492 21.2183 0.0000 33.9070 0.0000
# 2 34.6492 98.3405 3.5545 0.0000 10.0202 0.0000
# 3 21.2183 3.5545 28.5970 0.0000 14.4838 0.0000
# 4 0.0000 0.0000 0.0000 21.4578 0.0000 -7.6242
# 5 33.9070 10.0202 14.4838 0.0000 21.9300 0.0000
# 6 0.0000 0.0000 0.0000 -7.6242 0.0000 49.0929
#
#
#
# Elastic Compliance Matrix: (Units=1/GPa)
#
#
# Indices 1 2 3 4 5 6 
#
# 1 0.013138 -0.002672 0.000382 0.000000 -0.019344 0.000000
# 2 -0.002672 0.011265 0.001648 0.000000 -0.002105 0.000000
# 3 0.000382 0.001648 0.052834 0.000000 -0.036238 0.000000
# 4 0.000000 0.000000 0.000000 0.049325 0.000000 0.007660
# 5 -0.019344 -0.002105 -0.036238 0.000000 0.100404 0.000000
# 6 0.000000 0.000000 0.000000 0.007660 0.000000 0.021559
#
#
# Mechanical properties :
#
#
# Convention : Reuss Voigt Hill
#
# Bulk Modulus (GPa) = 13.16592 42.02795 27.59693
# Shear Modulus (GPa) = 18.17340 31.82852 25.00096
#
# Velocity S-wave (km/s) = 2.78986 3.69210 3.27223
# Velocity P-wave (km/s) = 4.00206 6.01459 5.10841
#
# Compressibility (1/GPa) = 0.07595369
#
# Stress axis : x y z
#
# Youngs Moduli (GPa) = 76.11541 88.77046 18.92703
#
# Poissons Ratio (x) = 0.23717 -0.00722
# Poissons Ratio (y) = 0.20336 -0.03120
# Poissons Ratio (z) = -0.02904 -0.14632
#
# Static dielectric constant tensor:
#      x y z
#    x 4.435340 0.000000 0.177910 
#    y 0.000000 4.469350 0.000000 
#    z 0.177910 0.000000 3.728580 
# 
# 
# High freq. dielectric constant tensor:
#      x y z
#    x 1.944720 0.000000 0.018440 
#    y 0.000000 1.946200 0.000000 
#    z 0.018440 0.000000 1.867370 
# 
# From -- ./inp_files/230298.got.cif
#   From: 2010.06.25/outbox.cif.g09.slc.cpg/sg15_116_cif.got.tgz:230298.got - 2010.06.28 07:06:18.
