data_PCOD8146272
_publ_section_title
;
Structure prediction by ZEFSAII (Michael W. Deem and Ramdas Pophale) SiO2 
 PCOD8146272
Probable space group: C 2/C
;
_chemical_formula_sum "Si O2"
_cell_formula_units_Z 44
_cell_length_a 25.942432
_cell_length_b 7.621920
_cell_length_c 14.544338
_cell_angle_alpha 90.000000
_cell_angle_beta 39.130908
_cell_angle_gamma 90.000000
_cell_volume 1814.944398
_symmetry_space_group_name_H-M "C 2/C"
_symmetry_group_IT_number 15
_symmetry_cell_setting 'monoclinic'
loop_
_space_group_symop_operation_xyz
x,y,z
-x,y,1/2-z
-x,-y,-z
x,-y,1/2+z
1/2+x,1/2+y,z
1/2-x,1/2+y,1/2-z
1/2-x,1/2-y,-z
1/2+x,1/2-y,1/2+z
loop_
_atom_site_type_symbol
_atom_site_label
_atom_site_fract_x
_atom_site_fract_y
_atom_site_fract_z
Si Si1 0.769517 0.410689 0.167362
Si Si2 0.495648 0.353189 0.583797
Si Si3 0.353231 0.743299 0.879736
Si Si4 0.861916 0.367846 0.671555
Si Si5 0.192744 0.118624 0.132578
Si Si6 0.000000 0.043780 0.750000
O O1 0.827785 0.450871 0.175010
O O2 0.694720 0.283650 0.294481
O O3 0.727894 0.591541 0.187019
O O4 0.827721 0.329188 0.009724
O O5 0.500000 0.500000 0.500000
O O6 0.544180 0.177449 0.486182
O O7 0.400384 0.310681 0.737159
O O8 0.540149 0.420159 0.615939
O O9 0.355359 0.878834 0.791151
O O10 0.296870 0.576143 0.929347
O O11 0.442086 0.667020 0.771571
O O12 0.250000 0.250000 0.000000
#
# Coordination Sequence:
#
# PCOD8146272 Si02
#       6
#     8   8   8   8   8   4
#     4  11  25  41  72  99 145 186 237 305 357 424
#     4  11  21  44  72 105 139 191 239 291 357 456
#     4  10  23  47  69 100 147 187 237 298 364 431
#     4  11  24  45  72 107 135 189 247 289 367 442
#     4  10  22  42  72 105 139 186 237 295 369 433
#     4  10  22  40  74  96 144 192 226 286 380 416
#
# _framework density 24.243169000000002
#
# number of rings (size 3 to 8) (size 9 to 14) (size 15 to 20)
#    0.000    1.455    5.455    2.182    7.636    1.455 
#    3.273    0.909    0.000    0.000    0.000    0.000 
#    0.000    0.000    0.000    0.000    0.000    0.000 
#
# Total GULP energy -272656.049468 kJ/mol
# GULP energy per Si atom -12393.456794 kJ/mol
# Density = 2.418799 g / cm^3
# Si number density = 24.243169 Si / 1000 Ang^3
#
#
#
# Elastic Constant Matrix: (Units=GPa)
#
#
# Indices 1 2 3 4 5 6 
#
# 1 82.3950 -1.9492 19.1947 -0.0005 21.3364 -0.0013
# 2 -1.9492 36.7773 22.0265 -0.0086 6.7196 0.0025
# 3 19.1947 22.0265 129.7184 -0.0026 1.4790 0.0009
# 4 -0.0005 -0.0086 -0.0026 31.1366 -0.0008 9.6541
# 5 21.3364 6.7196 1.4790 -0.0008 31.9893 0.0011
# 6 -0.0013 0.0025 0.0009 9.6541 0.0011 45.5703
#
#
#
# Elastic Compliance Matrix: (Units=1/GPa)
#
#
# Indices 1 2 3 4 5 6 
#
# 1 0.015930 0.004760 -0.003035 0.000001 -0.011485 0.000000
# 2 0.004760 0.032940 -0.006186 0.000009 -0.009808 -0.000003
# 3 -0.003035 -0.006186 0.009175 -0.000001 0.002899 0.000000
# 4 0.000001 0.000009 -0.000001 0.034374 -0.000001 -0.007282
# 5 -0.011485 -0.009808 0.002899 -0.000001 0.040847 -0.000001
# 6 0.000000 -0.000003 0.000000 -0.007282 -0.000001 0.023487
#
#
# Mechanical properties :
#
#
# Convention : Reuss Voigt Hill
#
# Bulk Modulus (GPa) = 20.35629 36.38163 28.36896
# Shear Modulus (GPa) = 27.46515 35.71382 31.58948
#
# Velocity S-wave (km/s) = 3.36951 3.84233 3.61366
# Velocity P-wave (km/s) = 4.85315 5.89272 5.39802
#
# Compressibility (1/GPa) = 0.04912487
#
# Stress axis : x y z
#
# Youngs Moduli (GPa) = 62.77378 30.35847 108.98780
#
# Poissons Ratio (x) = -0.14451 0.33073
# Poissons Ratio (y) = -0.29881 0.67417
# Poissons Ratio (z) = 0.19049 0.18779
#
# Static dielectric constant tensor:
#      x y z
#    x 5.149990 -0.000010 0.001820 
#    y -0.000010 4.203400 0.000020 
#    z 0.001820 0.000020 4.434680 
# 
# 
# High freq. dielectric constant tensor:
#      x y z
#    x 1.979100 0.000000 0.001780 
#    y 0.000000 1.938160 0.000000 
#    z 0.001780 0.000000 1.965620 
# 
# From -- ./inp_files/176448.got.cif
#   From: 2010.06.25/outbox.cif.g09.slc.cpg/sg15_89_cif.got.tgz:176448.got - 2010.06.28 07:06:18.
