data_PCOD8146973
_publ_section_title
;
Structure prediction by ZEFSAII (Michael W. Deem and Ramdas Pophale) SiO2 
 PCOD8146973
Probable space group: C 2/C
;
_chemical_formula_sum "Si O2"
_cell_formula_units_Z 36
_cell_length_a 14.513763
_cell_length_b 9.215700
_cell_length_c 12.957079
_cell_angle_alpha 90.000000
_cell_angle_beta 118.866216
_cell_angle_gamma 90.000000
_cell_volume 1517.732662
_symmetry_space_group_name_H-M "C 2/C"
_symmetry_group_IT_number 15
_symmetry_cell_setting 'monoclinic'
loop_
_space_group_symop_operation_xyz
x,y,z
-x,y,1/2-z
-x,-y,-z
x,-y,1/2+z
1/2+x,1/2+y,z
1/2-x,1/2+y,1/2-z
1/2-x,1/2-y,-z
1/2+x,1/2-y,1/2+z
loop_
_atom_site_type_symbol
_atom_site_label
_atom_site_fract_x
_atom_site_fract_y
_atom_site_fract_z
Si Si1 0.527967 0.249966 0.977645
Si Si2 0.156114 0.919202 0.272050
Si Si3 0.500000 0.086229 0.750000
Si Si4 0.922633 0.051292 0.557964
Si Si5 0.343634 0.101024 0.286295
O O1 0.514183 0.191106 0.855424
O O2 0.599829 0.397374 0.011884
O O3 0.421049 0.310123 0.977390
O O4 0.579173 0.121758 0.073440
O O5 0.163798 0.935763 0.400187
O O6 0.191191 0.755847 0.272463
O O7 0.039497 0.954570 0.170557
O O8 0.238186 0.022898 0.261821
O O9 0.599210 0.984683 0.776275
#
# Coordination Sequence:
#
# PCOD8146973 Si02
#       5
#     8   8   4   8   8
#     4  10  22  42  70  95 128 175 219 264 329 381
#     4  10  22  42  67  99 134 170 213 269 324 391
#     4  12  24  44  66  92 136 172 218 274 318 382
#     4   9  20  43  69  94 135 172 211 265 329 390
#     4  11  25  42  67 100 132 171 220 267 325 384
#
# _framework density 23.719594000000001
#
# number of rings (size 3 to 8) (size 9 to 14) (size 15 to 20)
#    0.000    1.778    0.000    4.667    6.222    0.889 
#    8.000    2.222    0.000    0.000    0.000    0.000 
#    0.000    0.000    0.000    0.000    0.000    0.000 
#
# Total GULP energy -223013.691973 kJ/mol
# GULP energy per Si atom -12389.649554 kJ/mol
# Density = 2.366561 g / cm^3
# Si number density = 23.719594 Si / 1000 Ang^3
#
#
#
# Elastic Constant Matrix: (Units=GPa)
#
#
# Indices 1 2 3 4 5 6 
#
# 1 138.8545 44.2419 19.0560 0.0000 -32.9315 0.0000
# 2 44.2419 107.7992 12.5973 0.0000 -2.1389 0.0000
# 3 19.0560 12.5973 61.7784 0.0000 -24.5029 0.0000
# 4 0.0000 0.0000 0.0000 34.2334 0.0000 -5.1345
# 5 -32.9315 -2.1389 -24.5029 0.0000 38.1843 0.0000
# 6 0.0000 0.0000 0.0000 -5.1345 0.0000 27.0445
#
#
#
# Elastic Compliance Matrix: (Units=1/GPa)
#
#
# Indices 1 2 3 4 5 6 
#
# 1 0.010774 -0.004404 0.001559 0.000000 0.010045 0.000000
# 2 -0.004404 0.011330 -0.002960 0.000000 -0.005063 0.000000
# 3 0.001559 -0.002960 0.022505 0.000000 0.015620 0.000000
# 4 0.000000 0.000000 0.000000 0.030067 0.000000 0.005708
# 5 0.010045 -0.005063 0.015620 0.000000 0.044592 0.000000
# 6 0.000000 0.000000 0.000000 0.005708 0.000000 0.038060
#
#
# Mechanical properties :
#
#
# Convention : Reuss Voigt Hill
#
# Bulk Modulus (GPa) = 30.30515 51.13582 40.72049
# Shear Modulus (GPa) = 27.78751 35.39489 31.59120
#
# Velocity S-wave (km/s) = 3.42643 3.86712 3.65343
# Velocity P-wave (km/s) = 5.33461 6.44552 5.91620
#
# Compressibility (1/GPa) = 0.03299769
#
# Stress axis : x y z
#
# Youngs Moduli (GPa) = 92.81984 88.26460 44.43476
#
# Poissons Ratio (x) = 0.38876 -0.06928
# Poissons Ratio (y) = 0.40882 0.13152
# Poissons Ratio (z) = -0.14472 0.26125
#
# Static dielectric constant tensor:
#      x y z
#    x 4.217880 0.000000 -0.672220 
#    y 0.000000 4.565620 0.000000 
#    z -0.672220 0.000000 4.459280 
# 
# 
# High freq. dielectric constant tensor:
#      x y z
#    x 1.925160 0.000000 -0.045590 
#    y 0.000000 1.956500 0.000000 
#    z -0.045590 0.000000 1.939210 
# 
# From -- ./inp_files/150398.got.cif
#   From: 2010.06.25/outbox.cif.g09.slc.cpg/sg15_76_cif.got.tgz:150398.got - 2010.06.28 07:06:18.
