data_PCOD8146301
_publ_section_title
;
Structure prediction by ZEFSAII (Michael W. Deem and Ramdas Pophale) SiO2 
 PCOD8146301
Probable space group: C 2/C
;
_chemical_formula_sum "Si O2"
_cell_formula_units_Z 56
_cell_length_a 8.634431
_cell_length_b 13.565417
_cell_length_c 28.582407
_cell_angle_alpha 90.000000
_cell_angle_beta 56.043247
_cell_angle_gamma 90.000000
_cell_volume 2776.903659
_symmetry_space_group_name_H-M "C 2/C"
_symmetry_group_IT_number 15
_symmetry_cell_setting 'monoclinic'
loop_
_space_group_symop_operation_xyz
x,y,z
-x,y,1/2-z
-x,-y,-z
x,-y,1/2+z
1/2+x,1/2+y,z
1/2-x,1/2+y,1/2-z
1/2-x,1/2-y,-z
1/2+x,1/2-y,1/2+z
loop_
_atom_site_type_symbol
_atom_site_label
_atom_site_fract_x
_atom_site_fract_y
_atom_site_fract_z
Si Si1 0.019559 0.038668 0.875150
Si Si2 0.519654 0.953933 0.373127
Si Si3 0.362179 0.054611 0.057841
Si Si4 0.587293 0.226877 0.990998
Si Si5 0.290093 0.689251 0.862996
Si Si6 0.125598 0.410940 0.684217
Si Si7 0.110888 0.911133 0.460488
O O1 0.970746 0.118144 0.842016
O O2 0.078919 0.101731 0.910330
O O3 0.850912 0.967273 0.919830
O O4 0.184292 0.964209 0.831516
O O5 0.659720 0.858726 0.343744
O O6 0.331414 0.919351 0.431066
O O7 0.621212 0.028375 0.390601
O O8 0.482035 0.013582 0.331901
O O9 0.420558 0.167589 0.044009
O O10 0.500000 0.000000 0.000000
O O11 0.672605 0.175595 0.930820
O O12 0.750000 0.250000 0.000000
O O13 0.477936 0.324075 0.994277
O O14 0.339542 0.803134 0.844982
O O15 0.000000 0.390261 0.750000
O O16 0.000000 0.000000 0.500000
#
# Coordination Sequence:
#
# PCOD8146301 Si02
#       7
#     8   8   8   8   8   8   8
#     4  10  22  41  61  91 127 165 209 261 313 382
#     4  10  23  40  60  94 125 163 217 262 309 386
#     4  11  19  36  61  93 132 163 195 240 309 393
#     4  12  20  32  59  91 132 174 194 234 315 382
#     4  11  23  41  66  96 127 165 214 258 316 389
#     4  11  26  47  67  86 121 166 222 287 327 356
#     4  11  21  33  55  87 131 170 206 243 300 382
#
# _framework density 20.166345
#
# number of rings (size 3 to 8) (size 9 to 14) (size 15 to 20)
#    0.000    1.143    4.286    4.286    2.000    1.714 
#    0.000    2.143    0.000    0.000    0.000    0.000 
#    0.000    0.000    0.000    0.000    0.000    0.000 
#
# Total GULP energy -346991.591830 kJ/mol
# GULP energy per Si atom -12392.556851 kJ/mol
# Density = 2.012045 g / cm^3
# Si number density = 20.166345 Si / 1000 Ang^3
#
#
#
# Elastic Constant Matrix: (Units=GPa)
#
#
# Indices 1 2 3 4 5 6 
#
# 1 93.7653 41.8860 20.7347 0.0000 -4.7460 0.0000
# 2 41.8860 119.2315 15.4719 0.0000 -3.4466 0.0000
# 3 20.7347 15.4719 62.9988 0.0000 -6.3762 0.0000
# 4 0.0000 0.0000 0.0000 20.4558 0.0000 -0.7273
# 5 -4.7460 -3.4466 -6.3762 0.0000 20.6812 0.0000
# 6 0.0000 0.0000 0.0000 -0.7273 0.0000 36.9343
#
#
#
# Elastic Compliance Matrix: (Units=1/GPa)
#
#
# Indices 1 2 3 4 5 6 
#
# 1 0.013333 -0.004228 -0.003212 0.000000 0.001365 0.000000
# 2 -0.004228 0.010017 -0.001030 0.000000 0.000382 0.000000
# 3 -0.003212 -0.001030 0.017642 0.000000 0.004530 0.000000
# 4 0.000000 0.000000 0.000000 0.048920 0.000000 0.000963
# 5 0.001365 0.000382 0.004530 0.000000 0.050127 0.000000
# 6 0.000000 0.000000 0.000000 0.000963 0.000000 0.027094
#
#
# Mechanical properties :
#
#
# Convention : Reuss Voigt Hill
#
# Bulk Modulus (GPa) = 41.57525 48.02011 44.79768
# Shear Modulus (GPa) = 26.02963 28.80779 27.41871
#
# Velocity S-wave (km/s) = 3.59659 3.78366 3.69131
# Velocity P-wave (km/s) = 6.15697 6.55376 6.35846
#
# Compressibility (1/GPa) = 0.02405277
#
# Stress axis : x y z
#
# Youngs Moduli (GPa) = 75.00329 99.83148 56.68320
#
# Poissons Ratio (x) = 0.42204 0.18206
# Poissons Ratio (y) = 0.31708 0.05838
# Poissons Ratio (z) = 0.24090 0.10283
#
# Static dielectric constant tensor:
#      x y z
#    x -1.691000 -0.000050 0.574520 
#    y -0.000050 0.589640 0.000010 
#    z 0.574520 0.000010 3.306170 
# 
# 
# High freq. dielectric constant tensor:
#      x y z
#    x 1.800920 0.000000 -0.001450 
#    y 0.000000 1.800350 0.000000 
#    z -0.001450 0.000000 1.747310 
# 
# From -- ./inp_files/288377.got.cif
#   From: 2010.06.25/outbox.cif.g09.slc.cpg/sg15_145_cif.got.tgz:288377.got - 2010.06.28 07:06:18.
