data_PCOD8146704
_publ_section_title
;
Structure prediction by ZEFSAII (Michael W. Deem and Ramdas Pophale) SiO2 
 PCOD8146704
Probable space group: C 2/C
;
_chemical_formula_sum "Si O2"
_cell_formula_units_Z 44
_cell_length_a 13.423781
_cell_length_b 11.204871
_cell_length_c 15.725419
_cell_angle_alpha 90.000000
_cell_angle_beta 114.323632
_cell_angle_gamma 90.000000
_cell_volume 2155.329173
_symmetry_space_group_name_H-M "C 2/C"
_symmetry_group_IT_number 15
_symmetry_cell_setting 'monoclinic'
loop_
_space_group_symop_operation_xyz
x,y,z
-x,y,1/2-z
-x,-y,-z
x,-y,1/2+z
1/2+x,1/2+y,z
1/2-x,1/2+y,1/2-z
1/2-x,1/2-y,-z
1/2+x,1/2-y,1/2+z
loop_
_atom_site_type_symbol
_atom_site_label
_atom_site_fract_x
_atom_site_fract_y
_atom_site_fract_z
Si Si1 0.979109 0.248460 0.130245
Si Si2 0.609705 0.136803 0.339017
Si Si3 0.157349 0.625138 0.801756
Si Si4 0.928224 0.383081 0.479454
Si Si5 0.000000 0.028988 0.250000
Si Si6 0.789788 0.134913 0.692132
O O1 0.856824 0.285229 0.121412
O O2 0.005659 0.113120 0.167795
O O3 0.057644 0.347076 0.202567
O O4 0.003540 0.272001 0.039657
O O5 0.500000 0.162611 0.250000
O O6 0.591076 0.157562 0.431685
O O7 0.697725 0.231841 0.338211
O O8 0.658097 0.008291 0.336421
O O9 0.268723 0.643252 0.786927
O O10 0.814648 0.417704 0.393781
O O11 0.000000 0.500000 0.500000
O O12 0.893447 0.947436 0.208961
#
# Coordination Sequence:
#
# PCOD8146704 Si02
#       6
#     8   8   8   8   4   8
#     4   9  19  40  62  89 123 169 203 258 310 375
#     4  12  21  40  66  92 126 166 216 264 315 372
#     4   9  18  35  61  89 116 163 210 244 306 370
#     4  11  22  43  65  94 126 161 223 262 306 377
#     4  10  22  42  62  90 140 164 208 248 330 380
#     4  11  24  38  62  97 127 167 205 264 315 371
#
# _framework density 20.414515999999999
#
# number of rings (size 3 to 8) (size 9 to 14) (size 15 to 20)
#    0.000    1.818    4.545    1.636    7.636    0.000 
#    0.000    3.636    0.000    0.000    0.000    0.000 
#    0.000    0.000    0.000    0.000    0.000    0.000 
#
# Total GULP energy -272627.851076 kJ/mol
# GULP energy per Si atom -12392.175049 kJ/mol
# Density = 2.036805 g / cm^3
# Si number density = 20.414516 Si / 1000 Ang^3
#
#
#
# Elastic Constant Matrix: (Units=GPa)
#
#
# Indices 1 2 3 4 5 6 
#
# 1 128.7031 37.1386 55.8727 0.0000 -21.8527 0.0000
# 2 37.1386 89.5517 17.8360 0.0000 -6.8497 0.0000
# 3 55.8727 17.8360 69.8838 0.0000 -22.3634 0.0000
# 4 0.0000 0.0000 0.0000 -13.1891 0.0000 -48.2434
# 5 -21.8527 -6.8497 -22.3634 0.0000 47.4241 0.0000
# 6 0.0000 0.0000 0.0000 -48.2434 0.0000 -28.6206
#
#
#
# Elastic Compliance Matrix: (Units=1/GPa)
#
#
# Indices 1 2 3 4 5 6 
#
# 1 0.012896 -0.003455 -0.009053 0.000000 0.001174 0.000000
# 2 -0.003455 0.012695 -0.000471 0.000000 0.000019 0.000000
# 3 -0.009053 -0.000471 0.023921 0.000000 0.007040 0.000000
# 4 0.000000 0.000000 0.000000 0.014678 0.000000 -0.024741
# 5 0.001174 0.000019 0.007040 0.000000 0.024950 0.000000
# 6 0.000000 0.000000 0.000000 -0.024741 0.000000 0.006764
#
#
# Mechanical properties :
#
#
# Convention : Reuss Voigt Hill
#
# Bulk Modulus (GPa) = 42.45808 56.64812 49.55310
# Shear Modulus (GPa) = 38.54611 12.94228 25.74420
#
# Velocity S-wave (km/s) = 4.35002 2.52062 3.55501
# Velocity P-wave (km/s) = 6.78774 6.02333 6.41693
#
# Compressibility (1/GPa) = 0.02355265
#
# Stress axis : x y z
#
# Youngs Moduli (GPa) = 77.54051 78.77055 41.80461
#
# Poissons Ratio (x) = 0.27219 0.37846
# Poissons Ratio (y) = 0.26794 0.01970
# Poissons Ratio (z) = 0.70198 0.03713
#
# Static dielectric constant tensor:
#      x y z
#    x 4.602170 0.000000 -0.504580 
#    y 0.000000 3.603180 0.000000 
#    z -0.504580 0.000000 3.711960 
# 
# 
# High freq. dielectric constant tensor:
#      x y z
#    x 1.813230 0.000000 -0.029340 
#    y 0.000000 1.793920 0.000000 
#    z -0.029340 0.000000 1.769610 
# 
# From -- ./inp_files/196303.got.cif
#   From: 2010.06.25/outbox.cif.g09.slc.cpg/sg15_99_cif.got.tgz:196303.got - 2010.06.28 07:06:18.
