data_PCOD8146294
_publ_section_title
;
Structure prediction by ZEFSAII (Michael W. Deem and Ramdas Pophale) SiO2 
 PCOD8146294
Probable space group: C 2/C
;
_chemical_formula_sum "Si O2"
_cell_formula_units_Z 60
_cell_length_a 11.181213
_cell_length_b 26.072387
_cell_length_c 16.233585
_cell_angle_alpha 90.000000
_cell_angle_beta 141.913526
_cell_angle_gamma 90.000000
_cell_volume 2919.199540
_symmetry_space_group_name_H-M "C 2/C"
_symmetry_group_IT_number 15
_symmetry_cell_setting 'monoclinic'
loop_
_space_group_symop_operation_xyz
x,y,z
-x,y,1/2-z
-x,-y,-z
x,-y,1/2+z
1/2+x,1/2+y,z
1/2-x,1/2+y,1/2-z
1/2-x,1/2-y,-z
1/2+x,1/2-y,1/2+z
loop_
_atom_site_type_symbol
_atom_site_label
_atom_site_fract_x
_atom_site_fract_y
_atom_site_fract_z
Si Si1 0.191450 0.166332 0.179449
Si Si2 0.647698 0.703520 0.400428
Si Si3 0.554267 0.558551 0.103870
Si Si4 0.202993 0.464044 0.314954
Si Si5 0.500000 0.506864 0.250000
Si Si6 0.975505 0.340087 0.974334
Si Si7 0.868494 0.548865 0.911111
Si Si8 0.220028 0.756043 0.388130
O O1 0.373320 0.179620 0.335854
O O2 0.214130 0.201319 0.111959
O O3 0.979043 0.173190 0.102932
O O4 0.196326 0.106201 0.165393
O O5 0.500000 0.723899 0.250000
O O6 0.750000 0.750000 0.500000
O O7 0.814673 0.665048 0.458803
O O8 0.680856 0.516701 0.125829
O O9 0.522390 0.543736 0.182731
O O10 0.346621 0.570944 0.948209
O O11 0.168453 0.440841 0.205664
O O12 0.000000 0.471513 0.250000
O O13 0.325200 0.466627 0.145628
O O14 0.042294 0.399124 0.003393
O O15 0.155756 0.301908 0.085965
O O16 0.000000 0.500000 0.000000
O O17 0.250000 0.750000 0.500000
O O18 0.000000 0.770035 0.250000
#
# Coordination Sequence:
#
# PCOD8146294 Si02
#       8
#     8   8   8   8   4   8   8   8
#     4  11  24  43  68  98 127 177 220 276 340 395
#     4  10  22  41  67  94 128 165 218 273 330 393
#     4  10  23  41  66  95 134 173 225 273 335 406
#     4  10  22  41  60  96 135 173 219 277 331 397
#     4  10  22  42  68  98 134 176 222 280 334 406
#     4  11  24  44  69  98 131 178 224 276 341 401
#     4  11  24  42  67  98 133 176 224 272 340 405
#     4  12  26  47  69  96 137 175 228 280 334 412
#
# _framework density 20.553578999999999
#
# number of rings (size 3 to 8) (size 9 to 14) (size 15 to 20)
#    0.000    1.333    2.667    2.400    7.467    1.600 
#    9.600    0.000    0.000    0.000    0.000    0.000 
#    0.000    0.000    0.000    0.000    0.000    0.000 
#
# Total GULP energy -371911.536988 kJ/mol
# GULP energy per Si atom -12397.051233 kJ/mol
# Density = 2.050680 g / cm^3
# Si number density = 20.553579 Si / 1000 Ang^3
#
#
#
# Elastic Constant Matrix: (Units=GPa)
#
#
# Indices 1 2 3 4 5 6 
#
# 1 99.7141 38.9365 46.2883 0.0000 12.6835 0.0000
# 2 38.9365 117.4517 36.1715 0.0000 8.5948 0.0000
# 3 46.2883 36.1715 111.6522 0.0001 17.1236 0.0000
# 4 0.0000 0.0000 0.0001 35.4678 0.0000 3.7569
# 5 12.6835 8.5948 17.1236 0.0000 42.7034 0.0000
# 6 0.0000 0.0000 0.0000 3.7569 0.0000 28.1916
#
#
#
# Elastic Compliance Matrix: (Units=1/GPa)
#
#
# Indices 1 2 3 4 5 6 
#
# 1 0.013422 -0.002992 -0.004343 0.000000 -0.001643 0.000000
# 2 -0.002992 0.010145 -0.001992 0.000000 -0.000355 0.000000
# 3 -0.004343 -0.001992 0.011873 0.000000 -0.003070 0.000000
# 4 0.000000 0.000000 0.000000 0.028598 0.000000 -0.003811
# 5 -0.001643 -0.000355 -0.003070 0.000000 0.025208 0.000000
# 6 0.000000 0.000000 0.000000 -0.003811 0.000000 0.035979
#
#
# Mechanical properties :
#
#
# Convention : Reuss Voigt Hill
#
# Bulk Modulus (GPa) = 59.57193 63.51228 61.54211
# Shear Modulus (GPa) = 33.45024 35.10067 34.27545
#
# Velocity S-wave (km/s) = 4.03856 4.13699 4.08807
# Velocity P-wave (km/s) = 7.12694 7.33400 7.23121
#
# Compressibility (1/GPa) = 0.01678643
#
# Stress axis : x y z
#
# Youngs Moduli (GPa) = 74.50427 98.56707 84.22316
#
# Poissons Ratio (x) = 0.29489 0.36581
# Poissons Ratio (y) = 0.22290 0.16778
# Poissons Ratio (z) = 0.32359 0.19635
#
# Static dielectric constant tensor:
#      x y z
#    x 3.739300 0.000000 0.134770 
#    y 0.000000 3.004740 0.000000 
#    z 0.134770 0.000000 3.976760 
# 
# 
# High freq. dielectric constant tensor:
#      x y z
#    x 1.808420 0.000000 0.011110 
#    y 0.000000 1.795290 0.000000 
#    z 0.011110 0.000000 1.822300 
# 
# From -- ./inp_files/201277.got.cif
#   From: 2010.06.25/outbox.cif.g09.slc.cpg/sg15_101_cif.got.tgz:201277.got - 2010.06.28 07:06:18.
