data_PCOD8146769
_publ_section_title
;
Structure prediction by ZEFSAII (Michael W. Deem and Ramdas Pophale) SiO2 
 PCOD8146769
Probable space group: C 2/C
;
_chemical_formula_sum "Si O2"
_cell_formula_units_Z 52
_cell_length_a 11.303593
_cell_length_b 26.164352
_cell_length_c 8.323158
_cell_angle_alpha 90.000000
_cell_angle_beta 103.741425
_cell_angle_gamma 90.000000
_cell_volume 2391.127491
_symmetry_space_group_name_H-M "C 2/C"
_symmetry_group_IT_number 15
_symmetry_cell_setting 'monoclinic'
loop_
_space_group_symop_operation_xyz
x,y,z
-x,y,1/2-z
-x,-y,-z
x,-y,1/2+z
1/2+x,1/2+y,z
1/2-x,1/2+y,1/2-z
1/2-x,1/2-y,-z
1/2+x,1/2-y,1/2+z
loop_
_atom_site_type_symbol
_atom_site_label
_atom_site_fract_x
_atom_site_fract_y
_atom_site_fract_z
Si Si1 0.347761 0.823583 0.428113
Si Si2 0.231407 0.594476 0.996462
Si Si3 0.292042 0.298714 0.414510
Si Si4 0.043842 0.223833 0.095931
Si Si5 0.693775 0.626048 0.145370
Si Si6 0.482591 0.556742 0.933283
Si Si7 0.500000 0.106074 0.750000
O O1 0.239972 0.799542 0.284158
O O2 0.412562 0.770559 0.505310
O O3 0.297518 0.860326 0.550780
O O4 0.440746 0.859564 0.367242
O O5 0.247835 0.590451 0.194839
O O6 0.219946 0.654806 0.969243
O O7 0.346051 0.572414 0.937345
O O8 0.105105 0.571980 0.877172
O O9 0.250000 0.250000 0.500000
O O10 0.437232 0.305624 0.468220
O O11 0.143021 0.181528 0.183110
O O12 0.000000 0.249421 0.250000
O O13 0.582396 0.593554 0.041673
O O14 0.500000 0.559202 0.750000
O O15 0.500000 0.500000 0.000000
#
# Coordination Sequence:
#
# PCOD8146769 Si02
#       7
#     8   8   8   8   8   8   4
#     4  11  23  37  57  91 131 183 235 274 336 400
#     4  11  22  42  67  97 135 175 219 278 335 402
#     4  11  19  34  58  83 129 185 225 274 324 394
#     4  12  19  35  58  87 133 180 230 279 333 393
#     4  12  24  39  63 100 134 173 226 286 342 398
#     4  12  25  46  76 106 134 168 219 281 346 401
#     4  10  22  42  64  88 136 184 228 274 332 400
#
# _framework density 21.747062
#
# number of rings (size 3 to 8) (size 9 to 14) (size 15 to 20)
#    0.000    0.615    5.385    4.615    0.000    0.615 
#    0.000    1.538    0.000    8.308    0.000    0.000 
#    0.000    0.000    0.000    0.000    0.000    0.000 
#
# Total GULP energy -322151.561662 kJ/mol
# GULP energy per Si atom -12390.444679 kJ/mol
# Density = 2.169757 g / cm^3
# Si number density = 21.747062 Si / 1000 Ang^3
#
#
#
# Elastic Constant Matrix: (Units=GPa)
#
#
# Indices 1 2 3 4 5 6 
#
# 1 148.1224 35.1266 73.1174 0.0000 0.4290 0.0000
# 2 35.1266 73.9388 23.7455 0.0000 -7.9533 0.0000
# 3 73.1174 23.7455 140.6809 0.0000 5.7435 0.0000
# 4 0.0000 0.0000 0.0000 25.1659 0.0000 -2.0116
# 5 0.4290 -7.9533 5.7435 0.0000 41.2142 0.0000
# 6 0.0000 0.0000 0.0000 -2.0116 0.0000 17.7822
#
#
#
# Elastic Compliance Matrix: (Units=1/GPa)
#
#
# Indices 1 2 3 4 5 6 
#
# 1 0.009738 -0.003184 -0.004520 0.000000 -0.000086 0.000000
# 2 -0.003184 0.015749 -0.001136 0.000000 0.003231 0.000000
# 3 -0.004520 -0.001136 0.009712 0.000000 -0.001525 0.000000
# 4 0.000000 0.000000 0.000000 0.040099 0.000000 0.004536
# 5 -0.000086 0.003231 -0.001525 0.000000 0.025100 0.000000
# 6 0.000000 0.000000 0.000000 0.004536 0.000000 0.056749
#
#
# Mechanical properties :
#
#
# Convention : Reuss Voigt Hill
#
# Bulk Modulus (GPa) = 57.07834 69.63568 63.35701
# Shear Modulus (GPa) = 27.67537 32.21595 29.94566
#
# Velocity S-wave (km/s) = 3.57123 3.85306 3.71482
# Velocity P-wave (km/s) = 6.58091 7.20313 6.89903
#
# Compressibility (1/GPa) = 0.01751978
#
# Stress axis : x y z
#
# Youngs Moduli (GPa) = 102.69328 63.49445 102.97018
#
# Poissons Ratio (x) = 0.20215 0.46545
# Poissons Ratio (y) = 0.32695 0.11692
# Poissons Ratio (z) = 0.46419 0.07210
#
# Static dielectric constant tensor:
#      x y z
#    x 4.181060 0.000000 0.196280 
#    y 0.000000 3.705640 0.000000 
#    z 0.196280 0.000000 4.114020 
# 
# 
# High freq. dielectric constant tensor:
#      x y z
#    x 1.860710 0.000000 0.010790 
#    y 0.000000 1.825030 0.000000 
#    z 0.010790 0.000000 1.860220 
# 
# From -- ./inp_files/33719.got.cif
#   From: 2010.06.25/outbox.cif.g09.slc.cpg/sg15_17_cif.got.tgz:33719.got - 2010.06.28 07:06:18.
