data_PCOD8146625
_publ_section_title
;
Structure prediction by ZEFSAII (Michael W. Deem and Ramdas Pophale) SiO2 
 PCOD8146625
Probable space group: C 2/C
;
_chemical_formula_sum "Si O2"
_cell_formula_units_Z 40
_cell_length_a 30.177450
_cell_length_b 8.274864
_cell_length_c 13.988432
_cell_angle_alpha 90.000000
_cell_angle_beta 150.076190
_cell_angle_gamma 90.000000
_cell_volume 1742.531465
_symmetry_space_group_name_H-M "C 2/C"
_symmetry_group_IT_number 15
_symmetry_cell_setting 'monoclinic'
loop_
_space_group_symop_operation_xyz
x,y,z
-x,y,1/2-z
-x,-y,-z
x,-y,1/2+z
1/2+x,1/2+y,z
1/2-x,1/2+y,1/2-z
1/2-x,1/2-y,-z
1/2+x,1/2-y,1/2+z
loop_
_atom_site_type_symbol
_atom_site_label
_atom_site_fract_x
_atom_site_fract_y
_atom_site_fract_z
Si Si1 0.710372 0.229001 0.071092
Si Si2 0.853525 0.759725 0.210222
Si Si3 0.366450 0.896573 0.259142
Si Si4 0.352852 0.468685 0.389582
Si Si5 0.495698 0.725087 0.642378
O O1 0.773345 0.356413 0.135155
O O2 0.658625 0.325279 0.056191
O O3 0.765694 0.082732 0.222247
O O4 0.638882 0.157574 0.862009
O O5 0.887956 0.584994 0.307383
O O6 0.872349 0.894995 0.322766
O O7 0.905078 0.814809 0.209878
O O8 0.750000 0.750000 0.000000
O O9 0.446417 0.809163 0.462404
O O10 0.441301 0.568752 0.577548
O O11 0.500000 0.830072 0.750000
#
# Coordination Sequence:
#
# PCOD8146625 Si02
#       5
#     8   8   8   8   8
#     4  10  22  41  70 107 135 189 227 293 345 420
#     4  12  25  44  74 106 140 186 235 292 353 417
#     4  10  23  44  72 100 145 179 238 283 354 414
#     4  11  24  42  70 104 145 181 241 283 358 417
#     4  11  28  46  68 102 145 188 236 292 350 419
#
# _framework density 22.955107999999999
#
# number of rings (size 3 to 8) (size 9 to 14) (size 15 to 20)
#    0.000    1.200    2.000    2.400    8.400    3.200 
#    0.000    1.000    0.000    0.000    0.000    0.000 
#    0.000    0.000    0.000    0.000    0.000    0.000 
#
# Total GULP energy -248010.966087 kJ/mol
# GULP energy per Si atom -12400.548304 kJ/mol
# Density = 2.290286 g / cm^3
# Si number density = 22.955108 Si / 1000 Ang^3
#
#
#
# Elastic Constant Matrix: (Units=GPa)
#
#
# Indices 1 2 3 4 5 6 
#
# 1 142.6732 37.9285 54.6815 0.0000 9.9154 0.0000
# 2 37.9285 106.3739 22.6466 0.0000 3.2747 0.0000
# 3 54.6815 22.6466 125.9558 0.0000 -1.6068 0.0000
# 4 0.0000 0.0000 0.0000 4.0487 0.0000 -4.3330
# 5 9.9154 3.2747 -1.6068 0.0000 36.5353 0.0000
# 6 0.0000 0.0000 0.0000 -4.3330 0.0000 45.9777
#
#
#
# Elastic Compliance Matrix: (Units=1/GPa)
#
#
# Indices 1 2 3 4 5 6 
#
# 1 0.009202 -0.002443 -0.003587 0.000000 -0.002436 0.000000
# 2 -0.002443 0.010457 -0.000824 0.000000 -0.000311 0.000000
# 3 -0.003587 -0.000824 0.009663 0.000000 0.001472 0.000000
# 4 0.000000 0.000000 0.000000 0.274700 0.000000 0.025888
# 5 -0.002436 -0.000311 0.001472 0.000000 0.028125 0.000000
# 6 0.000000 0.000000 0.000000 0.025888 0.000000 0.024189
#
#
# Mechanical properties :
#
#
# Convention : Reuss Voigt Hill
#
# Bulk Modulus (GPa) = 64.03658 67.27957 65.65808
# Shear Modulus (GPa) = 13.32453 34.62876 23.97664
#
# Velocity S-wave (km/s) = 2.41189 3.88821 3.23538
# Velocity P-wave (km/s) = 5.97606 7.03778 6.52854
#
# Compressibility (1/GPa) = 0.01561607
#
# Stress axis : x y z
#
# Youngs Moduli (GPa) = 108.66687 95.63309 103.48327
#
# Poissons Ratio (x) = 0.23359 0.37119
# Poissons Ratio (y) = 0.26542 0.08523
# Poissons Ratio (z) = 0.38979 0.07877
#
# Static dielectric constant tensor:
#      x y z
#    x 3.223820 0.000000 0.688310 
#    y 0.000000 3.917750 0.000000 
#    z 0.688310 0.000000 3.600490 
# 
# 
# High freq. dielectric constant tensor:
#      x y z
#    x 1.916760 0.000000 -0.008360 
#    y 0.000000 1.902420 0.000000 
#    z -0.008360 0.000000 1.911750 
# 
# From -- ./inp_files/181288.got.cif
#   From: 2010.06.25/outbox.cif.g09.slc.cpg/sg15_91_cif.got.tgz:181288.got - 2010.06.28 07:06:18.
