data_PCOD8146163
_publ_section_title
;
Structure prediction by ZEFSAII (Michael W. Deem and Ramdas Pophale) SiO2 
 PCOD8146163
Probable space group: C 2/C
;
_chemical_formula_sum "Si O2"
_cell_formula_units_Z 36
_cell_length_a 20.082401
_cell_length_b 8.610022
_cell_length_c 10.586847
_cell_angle_alpha 90.000000
_cell_angle_beta 71.807267
_cell_angle_gamma 90.000000
_cell_volume 1739.063610
_symmetry_space_group_name_H-M "C 2/C"
_symmetry_group_IT_number 15
_symmetry_cell_setting 'monoclinic'
loop_
_space_group_symop_operation_xyz
x,y,z
-x,y,1/2-z
-x,-y,-z
x,-y,1/2+z
1/2+x,1/2+y,z
1/2-x,1/2+y,1/2-z
1/2-x,1/2-y,-z
1/2+x,1/2-y,1/2+z
loop_
_atom_site_type_symbol
_atom_site_label
_atom_site_fract_x
_atom_site_fract_y
_atom_site_fract_z
Si Si1 0.555880 0.868668 0.992642
Si Si2 0.211508 0.570204 0.404933
Si Si3 0.567673 0.555549 0.884835
Si Si4 0.720238 0.432843 0.380719
Si Si5 0.000000 0.158818 0.250000
O O1 0.534855 0.768226 0.126156
O O2 0.628697 0.955757 0.973870
O O3 0.563058 0.744168 0.872096
O O4 0.500000 0.000000 0.000000
O O5 0.234084 0.484406 0.265039
O O6 0.250558 0.497341 0.504575
O O7 0.229384 0.749454 0.379790
O O8 0.639862 0.512571 0.912774
O O9 0.563193 0.456245 0.758366
O O10 0.500000 0.500000 0.000000
#
# Coordination Sequence:
#
# PCOD8146163 Si02
#       5
#     8   8   8   8   4
#     4  10  23  41  64  98 126 168 218 270 328 380
#     4  10  24  42  64  96 130 169 211 267 328 383
#     4   9  21  39  62  92 120 174 213 255 318 389
#     4  10  23  41  65  92 133 164 216 264 320 387
#     4  10  22  40  68  84 134 170 218 270 318 386
#
# _framework density 20.700796
#
# number of rings (size 3 to 8) (size 9 to 14) (size 15 to 20)
#    0.000    2.222    0.000    0.000   15.556    3.556 
#    4.000    0.000    0.000    0.000    0.000    0.000 
#    0.000    0.000    0.000    0.000    0.000    0.000 
#
# Total GULP energy -223082.087252 kJ/mol
# GULP energy per Si atom -12393.449292 kJ/mol
# Density = 2.065368 g / cm^3
# Si number density = 20.700796 Si / 1000 Ang^3
#
#
#
# Elastic Constant Matrix: (Units=GPa)
#
#
# Indices 1 2 3 4 5 6 
#
# 1 191.3665 75.1433 73.6060 0.0000 1.0688 0.0000
# 2 75.1433 77.8196 47.1329 0.0000 6.1181 0.0000
# 3 73.6060 47.1329 125.7262 0.0000 12.1515 0.0000
# 4 0.0000 0.0000 0.0000 44.6846 0.0000 3.4141
# 5 1.0688 6.1181 12.1515 0.0000 35.0733 0.0000
# 6 0.0000 0.0000 0.0000 3.4141 0.0000 32.6432
#
#
#
# Elastic Compliance Matrix: (Units=1/GPa)
#
#
# Indices 1 2 3 4 5 6 
#
# 1 0.009164 -0.007296 -0.002821 0.000000 0.001971 0.000000
# 2 -0.007296 0.022453 -0.003920 0.000000 -0.002336 0.000000
# 3 -0.002821 -0.003920 0.011381 0.000000 -0.003173 0.000000
# 4 0.000000 0.000000 0.000000 0.022559 0.000000 -0.002359
# 5 0.001971 -0.002336 -0.003173 0.000000 0.029959 0.000000
# 6 0.000000 0.000000 0.000000 -0.002359 0.000000 0.030881
#
#
# Mechanical properties :
#
#
# Convention : Reuss Voigt Hill
#
# Bulk Modulus (GPa) = 66.99880 87.40852 77.20366
# Shear Modulus (GPa) = 31.35856 35.74889 33.55373
#
# Velocity S-wave (km/s) = 3.89633 4.16015 4.03040
# Velocity P-wave (km/s) = 7.25792 8.08654 7.68341
#
# Compressibility (1/GPa) = 0.01492564
#
# Stress axis : x y z
#
# Youngs Moduli (GPa) = 109.12002 44.53741 87.86198
#
# Poissons Ratio (x) = 0.32493 0.24782
# Poissons Ratio (y) = 0.79610 0.34445
# Poissons Ratio (z) = 0.30778 0.17460
#
# Static dielectric constant tensor:
#      x y z
#    x 4.230690 0.000000 0.411880 
#    y 0.000000 4.042440 0.000000 
#    z 0.411880 0.000000 4.182120 
# 
# 
# High freq. dielectric constant tensor:
#      x y z
#    x 1.824890 0.000000 -0.003930 
#    y 0.000000 1.803400 0.000000 
#    z -0.003930 0.000000 1.805390 
# 
# From -- ./inp_files/102432.got.cif
#   From: 2010.06.25/outbox.cif.g09.slc.cpg/sg15_52_cif.got.tgz:102432.got - 2010.06.28 07:06:18.
