data_PCOD8146837
_publ_section_title
;
Structure prediction by ZEFSAII (Michael W. Deem and Ramdas Pophale) SiO2 
 PCOD8146837
Probable space group: C 2/C
;
_chemical_formula_sum "Si O2"
_cell_formula_units_Z 64
_cell_length_a 18.186123
_cell_length_b 27.263401
_cell_length_c 9.096832
_cell_angle_alpha 90.000000
_cell_angle_beta 41.625118
_cell_angle_gamma 90.000000
_cell_volume 2996.018517
_symmetry_space_group_name_H-M "C 2/C"
_symmetry_group_IT_number 15
_symmetry_cell_setting 'monoclinic'
loop_
_space_group_symop_operation_xyz
x,y,z
-x,y,1/2-z
-x,-y,-z
x,-y,1/2+z
1/2+x,1/2+y,z
1/2-x,1/2+y,1/2-z
1/2-x,1/2-y,-z
1/2+x,1/2-y,1/2+z
loop_
_atom_site_type_symbol
_atom_site_label
_atom_site_fract_x
_atom_site_fract_y
_atom_site_fract_z
Si Si1 0.208348 0.639118 0.594438
Si Si2 0.256034 0.012092 0.309730
Si Si3 0.352968 0.213199 0.330284
Si Si4 0.614120 0.584161 0.992173
Si Si5 0.386549 0.041157 0.840292
Si Si6 0.900809 0.276618 0.072348
Si Si7 0.202102 0.828176 0.837810
Si Si8 0.606455 0.409517 0.162705
O O1 0.298280 0.624283 0.581935
O O2 0.114959 0.597272 0.714097
O O3 0.149013 0.690572 0.721948
O O4 0.272943 0.642145 0.345417
O O5 0.212890 0.057580 0.469965
O O6 0.163199 0.970134 0.437370
O O7 0.366256 0.993115 0.228651
O O8 0.285766 0.030989 0.103303
O O9 0.250000 0.250000 0.500000
O O10 0.379439 0.192303 0.453688
O O11 0.314385 0.173261 0.269109
O O12 0.469073 0.235346 0.096119
O O13 0.590399 0.597645 0.859416
O O14 0.500000 0.588217 0.250000
O O15 0.500000 0.027859 0.750000
O O16 0.840380 0.224903 0.148252
O O17 0.113727 0.856701 0.070251
O O18 0.500000 0.436205 0.250000
#
# Coordination Sequence:
#
# PCOD8146837 Si02
#       8
#     8   8   8   8   8   8   8   8
#     4  11  24  42  64 100 137 173 227 285 339 410
#     4  11  23  44  68  97 136 177 224 281 346 414
#     4   9  21  40  64  91 125 177 232 275 333 403
#     4  11  25  45  66 100 141 176 223 287 349 410
#     4  11  24  43  68  97 135 178 227 282 339 410
#     4  10  22  42  65  93 134 180 223 287 342 398
#     4  11  23  41  66  97 135 175 235 277 341 407
#     4  12  25  39  71 100 132 180 229 278 344 417
#
# _framework density 21.361682999999999
#
# number of rings (size 3 to 8) (size 9 to 14) (size 15 to 20)
#    0.000    1.250    2.500    2.625    7.000    1.000 
#    4.500    0.000    0.000    0.000    0.000    0.000 
#    0.000    0.000    0.000    0.000    0.000    0.000 
#
# Total GULP energy -396713.687618 kJ/mol
# GULP energy per Si atom -12397.302738 kJ/mol
# Density = 2.131306 g / cm^3
# Si number density = 21.361683 Si / 1000 Ang^3
#
#
#
# Elastic Constant Matrix: (Units=GPa)
#
#
# Indices 1 2 3 4 5 6 
#
# 1 122.5716 26.6387 34.5248 0.0000 1.2757 0.0000
# 2 26.6387 99.4529 27.9774 0.0000 0.8279 0.0000
# 3 34.5248 27.9774 92.2986 0.0000 4.3494 0.0000
# 4 0.0000 0.0000 0.0000 27.7993 0.0000 4.5206
# 5 1.2757 0.8279 4.3494 0.0000 44.8846 0.0000
# 6 0.0000 0.0000 0.0000 4.5206 0.0000 21.6746
#
#
#
# Elastic Compliance Matrix: (Units=1/GPa)
#
#
# Indices 1 2 3 4 5 6 
#
# 1 0.009365 -0.001665 -0.003001 0.000000 0.000055 0.000000
# 2 -0.001665 0.011289 -0.002804 0.000000 0.000111 0.000000
# 3 -0.003001 -0.002804 0.012859 0.000000 -0.001109 0.000000
# 4 0.000000 0.000000 0.000000 0.037235 0.000000 -0.007766
# 5 0.000055 0.000111 -0.001109 0.000000 0.022383 0.000000
# 6 0.000000 0.000000 0.000000 -0.007766 0.000000 0.047757
#
#
# Mechanical properties :
#
#
# Convention : Reuss Voigt Hill
#
# Bulk Modulus (GPa) = 53.84180 54.73388 54.28784
# Shear Modulus (GPa) = 30.86052 33.88385 32.37219
#
# Velocity S-wave (km/s) = 3.80500 3.98703 3.89708
# Velocity P-wave (km/s) = 6.67560 6.84641 6.76154
#
# Compressibility (1/GPa) = 0.01857293
#
# Stress axis : x y z
#
# Youngs Moduli (GPa) = 106.78043 88.58261 77.76475
#
# Poissons Ratio (x) = 0.14746 0.23338
# Poissons Ratio (y) = 0.17775 0.21809
# Poissons Ratio (z) = 0.32045 0.24842
#
# Static dielectric constant tensor:
#      x y z
#    x 4.273130 0.000000 0.119840 
#    y 0.000000 3.689460 0.000000 
#    z 0.119840 0.000000 3.795050 
# 
# 
# High freq. dielectric constant tensor:
#      x y z
#    x 1.854730 0.000000 0.004500 
#    y 0.000000 1.825040 0.000000 
#    z 0.004500 0.000000 1.838340 
# 
# From -- ./inp_files/52833.got.cif
#   From: 2010.06.25/outbox.cif.g09.slc.cpg/sg15_27_cif.got.tgz:52833.got - 2010.06.28 07:06:18.
