data_PCOD8146616
_publ_section_title
;
Structure prediction by ZEFSAII (Michael W. Deem and Ramdas Pophale) SiO2 
 PCOD8146616
Probable space group: C 2/C
;
_chemical_formula_sum "Si O2"
_cell_formula_units_Z 56
_cell_length_a 28.125860
_cell_length_b 9.118513
_cell_length_c 10.851629
_cell_angle_alpha 90.000000
_cell_angle_beta 102.034101
_cell_angle_gamma 90.000000
_cell_volume 2721.912384
_symmetry_space_group_name_H-M "C 2/C"
_symmetry_group_IT_number 15
_symmetry_cell_setting 'monoclinic'
loop_
_space_group_symop_operation_xyz
x,y,z
-x,y,1/2-z
-x,-y,-z
x,-y,1/2+z
1/2+x,1/2+y,z
1/2-x,1/2+y,1/2-z
1/2-x,1/2-y,-z
1/2+x,1/2-y,1/2+z
loop_
_atom_site_type_symbol
_atom_site_label
_atom_site_fract_x
_atom_site_fract_y
_atom_site_fract_z
Si Si1 0.726371 0.231436 0.856615
Si Si2 0.636921 0.573932 0.295295
Si Si3 0.326772 0.311166 0.053440
Si Si4 0.918223 0.169504 0.454852
Si Si5 0.993406 0.373900 0.391873
Si Si6 0.538728 0.421932 0.881626
Si Si7 0.739897 0.099404 0.346007
O O1 0.670875 0.284492 0.826253
O O2 0.761285 0.320939 0.784926
O O3 0.725229 0.065499 0.811840
O O4 0.750000 0.250000 0.000000
O O5 0.668965 0.427965 0.333311
O O6 0.613330 0.563552 0.148536
O O7 0.594611 0.582665 0.372575
O O8 0.300376 0.165012 0.084107
O O9 0.381104 0.267428 0.037179
O O10 0.294379 0.386036 0.929307
O O11 0.939747 0.305169 0.386695
O O12 0.962688 0.066312 0.529937
O O13 0.000000 0.426882 0.250000
O O14 0.000000 0.500000 0.500000
O O15 0.029648 0.237501 0.438639
O O16 0.500000 0.444642 0.750000
#
# Coordination Sequence:
#
# PCOD8146616 Si02
#       7
#     8   8   8   8   8   8   8
#     4  12  25  41  68  95 137 183 222 277 339 398
#     4  11  21  40  67  97 131 170 227 277 344 397
#     4  10  23  41  65  97 130 171 222 287 327 405
#     4  11  22  42  71  97 129 172 227 282 334 411
#     4  11  24  45  67  97 139 177 215 278 340 405
#     4  10  22  41  69  99 130 173 225 280 343 408
#     4  11  24  41  65  96 135 175 229 272 340 395
#
# _framework density 20.573772000000002
#
# number of rings (size 3 to 8) (size 9 to 14) (size 15 to 20)
#    0.000    1.143    5.714    1.286    2.000    1.714 
#    2.571    0.000    0.000    0.000    0.000    0.000 
#    0.000    0.000    0.000    0.000    0.000    0.000 
#
# Total GULP energy -347048.723296 kJ/mol
# GULP energy per Si atom -12394.597261 kJ/mol
# Density = 2.052694 g / cm^3
# Si number density = 20.573772 Si / 1000 Ang^3
#
#
#
# Elastic Constant Matrix: (Units=GPa)
#
#
# Indices 1 2 3 4 5 6 
#
# 1 99.2037 44.4948 24.0196 0.0000 0.2194 0.0000
# 2 44.4948 132.2945 56.9232 0.0000 -4.5442 0.0000
# 3 24.0196 56.9232 124.3576 0.0000 -1.1321 0.0000
# 4 0.0000 0.0000 0.0000 37.0012 0.0000 -3.7632
# 5 0.2194 -4.5442 -1.1321 0.0000 27.7018 0.0000
# 6 0.0000 0.0000 0.0000 -3.7632 0.0000 27.6988
#
#
#
# Elastic Compliance Matrix: (Units=1/GPa)
#
#
# Indices 1 2 3 4 5 6 
#
# 1 0.011920 -0.003787 -0.000576 0.000000 -0.000739 0.000000
# 2 -0.003787 0.010668 -0.004137 0.000000 0.001611 0.000000
# 3 -0.000576 -0.004137 0.010044 0.000000 -0.000264 0.000000
# 4 0.000000 0.000000 0.000000 0.027405 0.000000 0.003723
# 5 -0.000739 0.001611 -0.000264 0.000000 0.036358 0.000000
# 6 0.000000 0.000000 0.000000 0.003723 0.000000 0.036609
#
#
# Mechanical properties :
#
#
# Convention : Reuss Voigt Hill
#
# Bulk Modulus (GPa) = 63.96900 67.41453 65.69177
# Shear Modulus (GPa) = 32.21392 33.84157 33.02774
#
# Velocity S-wave (km/s) = 3.96128 4.06012 4.01101
# Velocity P-wave (km/s) = 7.21681 7.40391 7.31096
#
# Compressibility (1/GPa) = 0.01563257
#
# Stress axis : x y z
#
# Youngs Moduli (GPa) = 83.89490 93.73956 99.56384
#
# Poissons Ratio (x) = 0.35496 0.05732
# Poissons Ratio (y) = 0.31768 0.41190
# Poissons Ratio (z) = 0.04830 0.38780
#
# Static dielectric constant tensor:
#      x y z
#    x 3.973530 0.000000 -0.152190 
#    y 0.000000 4.361750 0.000000 
#    z -0.152190 0.000000 3.789860 
# 
# 
# High freq. dielectric constant tensor:
#      x y z
#    x 1.823650 0.000000 -0.013210 
#    y 0.000000 1.790700 0.000000 
#    z -0.013210 0.000000 1.803460 
# 
# From -- ./inp_files/121993.got.cif
#   From: 2010.06.25/outbox.cif.g09.slc.cpg/sg15_61_cif.got.tgz:121993.got - 2010.06.28 07:06:18.
