data_PCOD8146893
_publ_section_title
;
Structure prediction by ZEFSAII (Michael W. Deem and Ramdas Pophale) SiO2 
 PCOD8146893
Probable space group: C 2/C
;
_chemical_formula_sum "Si O2"
_cell_formula_units_Z 48
_cell_length_a 11.373858
_cell_length_b 8.651271
_cell_length_c 25.415766
_cell_angle_alpha 90.000000
_cell_angle_beta 112.115744
_cell_angle_gamma 90.000000
_cell_volume 2316.867987
_symmetry_space_group_name_H-M "C 2/C"
_symmetry_group_IT_number 15
_symmetry_cell_setting 'monoclinic'
loop_
_space_group_symop_operation_xyz
x,y,z
-x,y,1/2-z
-x,-y,-z
x,-y,1/2+z
1/2+x,1/2+y,z
1/2-x,1/2+y,1/2-z
1/2-x,1/2-y,-z
1/2+x,1/2-y,1/2+z
loop_
_atom_site_type_symbol
_atom_site_label
_atom_site_fract_x
_atom_site_fract_y
_atom_site_fract_z
Si Si1 0.881889 0.691276 0.045731
Si Si2 0.000000 0.945580 0.750000
Si Si3 0.848759 0.345342 0.078549
Si Si4 0.000000 0.440762 0.750000
Si Si5 0.182075 0.309056 0.308045
Si Si6 0.437752 0.666938 0.999754
Si Si7 0.975176 0.193449 0.833836
O O1 0.882502 0.516250 0.064978
O O2 0.925866 0.803123 0.101016
O O3 0.750000 0.750000 0.000000
O O4 0.981026 0.701635 0.015048
O O5 0.999262 0.043403 0.696544
O O6 0.128067 0.844180 0.771078
O O7 0.880168 0.319212 0.144515
O O8 0.928532 0.215657 0.059650
O O9 0.700000 0.322955 0.047847
O O10 0.128123 0.542480 0.768136
O O11 0.999456 0.342285 0.697098
O O12 0.333310 0.307814 0.333068
O O13 0.500000 0.500000 0.000000
#
# Coordination Sequence:
#
# PCOD8146893 Si02
#       7
#     8   4   8   4   8   8   8
#     4  12  24  43  67 100 134 176 221 266 332 398
#     4  10  26  42  66 100 126 172 222 268 324 396
#     4  11  24  41  66  96 129 174 219 271 328 391
#     4  10  22  42  66  94 124 170 218 266 332 386
#     4  11  22  42  67  95 127 168 221 269 332 383
#     4  11  24  43  65  92 135 174 214 271 327 390
#     4  11  23  43  66  94 135 169 213 274 323 384
#
# _framework density 20.717624000000001
#
# number of rings (size 3 to 8) (size 9 to 14) (size 15 to 20)
#    0.000    1.000    5.000    1.500    2.333    0.000 
#    3.000    1.667    0.000    0.000    0.000    0.000 
#    0.000    0.000    0.000    0.000    0.000    0.000 
#
# Total GULP energy -297605.537652 kJ/mol
# GULP energy per Si atom -12400.230736 kJ/mol
# Density = 2.067047 g / cm^3
# Si number density = 20.717624 Si / 1000 Ang^3
#
#
#
# Elastic Constant Matrix: (Units=GPa)
#
#
# Indices 1 2 3 4 5 6 
#
# 1 118.6728 48.9217 45.2070 0.0000 -2.6490 0.0000
# 2 48.9217 118.1014 35.7951 0.0000 0.6043 0.0000
# 3 45.2070 35.7951 111.1789 0.0000 9.8496 0.0000
# 4 0.0000 0.0000 0.0000 30.4673 0.0000 -11.8729
# 5 -2.6490 0.6043 9.8496 0.0000 30.1086 0.0000
# 6 0.0000 0.0000 0.0000 -11.8729 0.0000 35.4416
#
#
#
# Elastic Compliance Matrix: (Units=1/GPa)
#
#
# Indices 1 2 3 4 5 6 
#
# 1 0.011358 -0.003608 -0.003658 0.000000 0.002268 0.000000
# 2 -0.003608 0.010549 -0.001939 0.000000 0.000105 0.000000
# 3 -0.003658 -0.001939 0.011463 0.000000 -0.004033 0.000000
# 4 0.000000 0.000000 0.000000 0.037750 0.000000 0.012646
# 5 0.002268 0.000105 -0.004033 0.000000 0.034730 0.000000
# 6 0.000000 0.000000 0.000000 0.012646 0.000000 0.032452
#
#
# Mechanical properties :
#
#
# Convention : Reuss Voigt Hill
#
# Bulk Modulus (GPa) = 66.83727 67.53339 67.18533
# Shear Modulus (GPa) = 30.92201 33.73879 32.33040
#
# Velocity S-wave (km/s) = 3.86754 4.03985 3.95464
# Velocity P-wave (km/s) = 7.23014 7.37756 7.30422
#
# Compressibility (1/GPa) = 0.01496171
#
# Stress axis : x y z
#
# Youngs Moduli (GPa) = 88.04544 94.79749 87.23575
#
# Poissons Ratio (x) = 0.34201 0.31908
# Poissons Ratio (y) = 0.31765 0.16912
# Poissons Ratio (z) = 0.32204 0.18377
#
# Static dielectric constant tensor:
#      x y z
#    x 3.763310 0.000000 -0.099380 
#    y 0.000000 3.811070 0.000000 
#    z -0.099380 0.000000 3.863780 
# 
# 
# High freq. dielectric constant tensor:
#      x y z
#    x 1.812060 0.000000 -0.004420 
#    y 0.000000 1.819650 0.000000 
#    z -0.004420 0.000000 1.821730 
# 
# From -- ./inp_files/267676.got.cif
#   From: 2010.06.25/outbox.cif.g09.slc.cpg/sg15_134_cif.got.tgz:267676.got - 2010.06.28 07:06:18.
