data_PCOD8146980
_publ_section_title
;
Structure prediction by ZEFSAII (Michael W. Deem and Ramdas Pophale) SiO2 
 PCOD8146980
Probable space group: C 2/C
;
_chemical_formula_sum "Si O2"
_cell_formula_units_Z 48
_cell_length_a 15.688837
_cell_length_b 24.213893
_cell_length_c 9.525248
_cell_angle_alpha 90.000000
_cell_angle_beta 142.814372
_cell_angle_gamma 90.000000
_cell_volume 2187.034384
_symmetry_space_group_name_H-M "C 2/C"
_symmetry_group_IT_number 15
_symmetry_cell_setting 'monoclinic'
loop_
_space_group_symop_operation_xyz
x,y,z
-x,y,1/2-z
-x,-y,-z
x,-y,1/2+z
1/2+x,1/2+y,z
1/2-x,1/2+y,1/2-z
1/2-x,1/2-y,-z
1/2+x,1/2-y,1/2+z
loop_
_atom_site_type_symbol
_atom_site_label
_atom_site_fract_x
_atom_site_fract_y
_atom_site_fract_z
Si Si1 0.051389 0.811815 0.059288
Si Si2 0.227319 0.535410 0.967781
Si Si3 0.000000 0.898694 0.750000
Si Si4 0.000000 0.126221 0.750000
Si Si5 0.263360 0.933214 0.705547
Si Si6 0.976328 0.370161 0.372210
Si Si7 0.697183 0.768151 0.278717
O O1 0.094778 0.838261 0.265144
O O2 0.171258 0.771166 0.155699
O O3 0.012569 0.859701 0.900377
O O4 0.911894 0.777431 0.915041
O O5 0.203609 0.473674 0.880544
O O6 0.096162 0.570762 0.742165
O O7 0.367255 0.561612 0.086973
O O8 0.232828 0.533192 0.143463
O O9 0.893456 0.090077 0.517984
O O10 0.375786 0.882503 0.855100
O O11 0.876616 0.328199 0.324787
O O12 0.000000 0.342648 0.250000
O O13 0.750000 0.750000 0.500000
#
# Coordination Sequence:
#
# PCOD8146980 Si02
#       7
#     8   8   4   4   8   8   8
#     4  12  26  44  72 103 141 183 236 290 351 421
#     4  11  23  42  69 100 137 177 239 289 361 413
#     4  12  21  42  72 102 132 178 235 296 340 422
#     4  12  29  48  64 104 148 184 237 288 368 422
#     4  11  26  43  69 100 137 191 230 301 350 428
#     4  10  22  42  68 102 143 177 235 295 351 420
#     4  12  23  43  76 108 136 185 237 290 346 426
#
# _framework density 21.947528999999999
#
# number of rings (size 3 to 8) (size 9 to 14) (size 15 to 20)
#    0.000    0.667    5.000    2.000    7.000    2.000 
#    0.000    1.667    0.000    0.000    0.000    0.000 
#    0.000    0.000    0.000    0.000    0.000    0.000 
#
# Total GULP energy -297683.530248 kJ/mol
# GULP energy per Si atom -12403.480427 kJ/mol
# Density = 2.189758 g / cm^3
# Si number density = 21.947529 Si / 1000 Ang^3
#
#
#
# Elastic Constant Matrix: (Units=GPa)
#
#
# Indices 1 2 3 4 5 6 
#
# 1 89.0130 25.5474 37.9333 0.0000 -11.2747 0.0000
# 2 25.5474 64.6178 31.9497 0.0000 -9.2230 0.0000
# 3 37.9333 31.9497 111.3118 0.0000 4.9339 0.0000
# 4 0.0000 0.0000 0.0000 21.7503 0.0000 4.5704
# 5 -11.2747 -9.2230 4.9339 0.0000 38.4556 0.0000
# 6 0.0000 0.0000 0.0000 4.5704 0.0000 16.2027
#
#
#
# Elastic Compliance Matrix: (Units=1/GPa)
#
#
# Indices 1 2 3 4 5 6 
#
# 1 0.014416 -0.003036 -0.004220 0.000000 0.004040 0.000000
# 2 -0.003036 0.019692 -0.004815 0.000000 0.004450 0.000000
# 3 -0.004220 -0.004815 0.011978 0.000000 -0.003929 0.000000
# 4 0.000000 0.000000 0.000000 0.048873 0.000000 -0.013786
# 5 0.004040 0.004450 -0.003929 0.000000 0.028760 0.000000
# 6 0.000000 0.000000 0.000000 -0.013786 0.000000 0.065607
#
#
# Mechanical properties :
#
#
# Convention : Reuss Voigt Hill
#
# Bulk Modulus (GPa) = 45.57174 50.64481 48.10828
# Shear Modulus (GPa) = 22.64672 26.58253 24.61463
#
# Velocity S-wave (km/s) = 3.21574 3.48398 3.35255
# Velocity P-wave (km/s) = 5.88192 6.26974 6.07893
#
# Compressibility (1/GPa) = 0.02194342
#
# Stress axis : x y z
#
# Youngs Moduli (GPa) = 69.36774 50.78265 83.48581
#
# Poissons Ratio (x) = 0.15419 0.35234
# Poissons Ratio (y) = 0.21061 0.40196
# Poissons Ratio (z) = 0.29275 0.24450
#
# Static dielectric constant tensor:
#      x y z
#    x 3.677320 0.000000 0.132340 
#    y 0.000000 3.883620 0.000000 
#    z 0.132340 0.000000 3.961010 
# 
# 
# High freq. dielectric constant tensor:
#      x y z
#    x 1.866120 0.000000 0.013610 
#    y 0.000000 1.862820 0.000000 
#    z 0.013610 0.000000 1.862270 
# 
# From -- ./inp_files/33828.got.cif
#   From: 2010.06.25/outbox.cif.g09.slc.cpg/sg15_17_cif.got.tgz:33828.got - 2010.06.28 07:06:18.
