data_PCOD8146229
_publ_section_title
;
Structure prediction by ZEFSAII (Michael W. Deem and Ramdas Pophale) SiO2 
 PCOD8146229
Probable space group: C 2/C
;
_chemical_formula_sum "Si O2"
_cell_formula_units_Z 44
_cell_length_a 22.891909
_cell_length_b 7.440667
_cell_length_c 12.742900
_cell_angle_alpha 90.000000
_cell_angle_beta 118.754145
_cell_angle_gamma 90.000000
_cell_volume 1902.870251
_symmetry_space_group_name_H-M "C 2/C"
_symmetry_group_IT_number 15
_symmetry_cell_setting 'monoclinic'
loop_
_space_group_symop_operation_xyz
x,y,z
-x,y,1/2-z
-x,-y,-z
x,-y,1/2+z
1/2+x,1/2+y,z
1/2-x,1/2+y,1/2-z
1/2-x,1/2-y,-z
1/2+x,1/2-y,1/2+z
loop_
_atom_site_type_symbol
_atom_site_label
_atom_site_fract_x
_atom_site_fract_y
_atom_site_fract_z
Si Si1 0.904325 0.411653 0.794286
Si Si2 0.295186 0.153410 0.796343
Si Si3 0.459622 0.672948 0.001851
Si Si4 0.318077 0.535160 0.923794
Si Si5 0.299759 0.635501 0.611518
Si Si6 0.500000 0.858248 0.250000
O O1 0.862468 0.544556 0.833355
O O2 0.964561 0.328953 0.917470
O O3 0.859046 0.256171 0.707047
O O4 0.936707 0.518906 0.725120
O O5 0.313370 0.345534 0.858431
O O6 0.244291 0.050026 0.833030
O O7 0.249497 0.152292 0.651284
O O8 0.381020 0.637572 0.933345
O O9 0.500000 0.500000 0.000000
O O10 0.484713 0.733607 0.136995
O O11 0.329764 0.514325 0.059432
O O12 0.250000 0.750000 0.500000
#
# Coordination Sequence:
#
# PCOD8146229 Si02
#       6
#     8   8   8   8   8   4
#     4  12  26  49  73 106 150 191 247 306 372 444
#     4  11  21  44  71 110 140 186 237 305 379 432
#     4  12  29  50  70 107 145 202 254 306 363 438
#     4  11  23  42  74 102 145 184 240 305 372 437
#     4  10  22  40  70 103 140 179 224 296 372 424
#     4  12  32  48  76 106 142 212 252 302 368 442
#
# _framework density 23.122965000000001
#
# number of rings (size 3 to 8) (size 9 to 14) (size 15 to 20)
#    0.000    0.727    5.455    1.636   10.182    1.455 
#    0.000    2.727    0.000    0.000    0.000    0.000 
#    0.000    0.000    0.000    0.000    0.000    0.000 
#
# Total GULP energy -272688.807918 kJ/mol
# GULP energy per Si atom -12394.945814 kJ/mol
# Density = 2.307034 g / cm^3
# Si number density = 23.122965 Si / 1000 Ang^3
#
#
#
# Elastic Constant Matrix: (Units=GPa)
#
#
# Indices 1 2 3 4 5 6 
#
# 1 115.5153 36.8719 31.1563 0.0000 -12.3739 0.0000
# 2 36.8719 52.8168 42.0131 0.0000 -9.9955 0.0000
# 3 31.1563 42.0131 141.1215 0.0000 -6.9079 0.0000
# 4 0.0000 0.0000 0.0000 48.6410 0.0000 2.3640
# 5 -12.3739 -9.9955 -6.9079 0.0000 39.1516 0.0000
# 6 0.0000 0.0000 0.0000 2.3640 0.0000 37.9996
#
#
#
# Elastic Compliance Matrix: (Units=1/GPa)
#
#
# Indices 1 2 3 4 5 6 
#
# 1 0.011241 -0.007374 -0.000206 0.000000 0.001634 0.000000
# 2 -0.007374 0.030687 -0.007301 0.000000 0.004216 0.000000
# 3 -0.000206 -0.007301 0.009291 0.000000 -0.000290 0.000000
# 4 0.000000 0.000000 0.000000 0.020621 0.000000 -0.001283
# 5 0.001634 0.004216 -0.000290 0.000000 0.027083 0.000000
# 6 0.000000 0.000000 0.000000 -0.001283 0.000000 0.026396
#
#
# Mechanical properties :
#
#
# Convention : Reuss Voigt Hill
#
# Bulk Modulus (GPa) = 46.60842 58.83736 52.72289
# Shear Modulus (GPa) = 30.81929 38.45260 34.63595
#
# Velocity S-wave (km/s) = 3.65477 4.08237 3.87447
# Velocity P-wave (km/s) = 6.16525 6.90808 6.54721
#
# Compressibility (1/GPa) = 0.02145535
#
# Stress axis : x y z
#
# Youngs Moduli (GPa) = 88.95688 32.58691 107.62905
#
# Poissons Ratio (x) = 0.24031 0.02222
# Poissons Ratio (y) = 0.65600 0.78584
# Poissons Ratio (z) = 0.01837 0.23793
#
# Static dielectric constant tensor:
#      x y z
#    x 4.524060 0.000000 -0.570260 
#    y 0.000000 3.942700 0.000000 
#    z -0.570260 0.000000 5.061240 
# 
# 
# High freq. dielectric constant tensor:
#      x y z
#    x 1.915280 0.000000 -0.005540 
#    y 0.000000 1.907800 0.000000 
#    z -0.005540 0.000000 1.932680 
# 
# From -- ./inp_files/116517.got.cif
#   From: 2010.06.25/outbox.cif.g09.slc.cpg/sg15_59_cif.got.tgz:116517.got - 2010.06.28 07:06:18.
