data_PCOD8146995
_publ_section_title
;
Structure prediction by ZEFSAII (Michael W. Deem and Ramdas Pophale) SiO2 
 PCOD8146995
Probable space group: C 2/C
;
_chemical_formula_sum "Si O2"
_cell_formula_units_Z 56
_cell_length_a 12.137735
_cell_length_b 17.701770
_cell_length_c 14.956403
_cell_angle_alpha 90.000000
_cell_angle_beta 121.101807
_cell_angle_gamma 90.000000
_cell_volume 2751.582197
_symmetry_space_group_name_H-M "C 2/C"
_symmetry_group_IT_number 15
_symmetry_cell_setting 'monoclinic'
loop_
_space_group_symop_operation_xyz
x,y,z
-x,y,1/2-z
-x,-y,-z
x,-y,1/2+z
1/2+x,1/2+y,z
1/2-x,1/2+y,1/2-z
1/2-x,1/2-y,-z
1/2+x,1/2-y,1/2+z
loop_
_atom_site_type_symbol
_atom_site_label
_atom_site_fract_x
_atom_site_fract_y
_atom_site_fract_z
Si Si1 0.066493 0.691805 0.181556
Si Si2 0.500000 0.577893 0.250000
Si Si3 0.445729 0.949108 0.555478
Si Si4 0.994390 0.851058 0.075296
Si Si5 0.674391 0.555588 0.870068
Si Si6 0.667762 0.620765 0.164246
Si Si7 0.730550 0.555336 0.691995
Si Si8 0.500000 0.959437 0.250000
O O1 0.216102 0.674833 0.259249
O O2 0.000000 0.689117 0.250000
O O3 0.004097 0.634697 0.082980
O O4 0.051354 0.770937 0.125765
O O5 0.389802 0.526577 0.158910
O O6 0.561637 0.628597 0.198086
O O7 0.292082 0.946167 0.488303
O O8 0.500000 0.000000 0.500000
O O9 0.493729 0.986248 0.664625
O O10 0.929294 0.884898 0.137291
O O11 0.112067 0.904495 0.092192
O O12 0.892096 0.847097 0.952272
O O13 0.725251 0.579557 0.793814
O O14 0.716953 0.534752 0.173250
O O15 0.865854 0.586614 0.706596
#
# Coordination Sequence:
#
# PCOD8146995 Si02
#       8
#     8   4   8   8   8   8   8   4
#     4  12  25  45  65  97 142 169 214 280 346 396
#     4  10  22  42  68  94 128 172 224 284 322 394
#     4  12  23  41  68  99 132 179 221 269 335 397
#     4  12  25  40  69 102 129 174 224 279 340 397
#     4  11  20  38  65 100 129 168 224 276 334 383
#     4  11  23  44  64  94 131 176 221 276 332 401
#     4  11  21  41  66  98 134 169 226 277 326 404
#     4  12  22  40  64 102 130 172 220 278 326 392
#
# _framework density 20.351927
#
# number of rings (size 3 to 8) (size 9 to 14) (size 15 to 20)
#    0.000    0.571    6.429    3.857    2.000    3.429 
#    0.000    1.429    0.000    0.000    0.000    0.000 
#    0.000    0.000    0.000    0.000    0.000    0.000 
#
# Total GULP energy -347218.045201 kJ/mol
# GULP energy per Si atom -12400.644471 kJ/mol
# Density = 2.030560 g / cm^3
# Si number density = 20.351927 Si / 1000 Ang^3
#
#
#
# Elastic Constant Matrix: (Units=GPa)
#
#
# Indices 1 2 3 4 5 6 
#
# 1 150.3572 45.7935 36.9535 0.0000 8.1006 0.0000
# 2 45.7935 100.0184 51.5695 0.0000 2.1214 0.0000
# 3 36.9535 51.5695 112.3638 0.0000 11.7074 0.0000
# 4 0.0000 0.0000 0.0000 31.0644 0.0000 0.5178
# 5 8.1006 2.1214 11.7074 0.0000 44.5921 0.0000
# 6 0.0000 0.0000 0.0000 0.5178 0.0000 9.4982
#
#
#
# Elastic Compliance Matrix: (Units=1/GPa)
#
#
# Indices 1 2 3 4 5 6 
#
# 1 0.007898 -0.003025 -0.001105 0.000000 -0.001001 0.000000
# 2 -0.003025 0.014298 -0.005710 0.000000 0.001368 0.000000
# 3 -0.001105 -0.005710 0.012167 0.000000 -0.002722 0.000000
# 4 0.000000 0.000000 0.000000 0.032220 0.000000 -0.001756
# 5 -0.001001 0.001368 -0.002722 0.000000 0.023257 0.000000
# 6 0.000000 0.000000 0.000000 -0.001756 0.000000 0.105379
#
#
# Mechanical properties :
#
#
# Convention : Reuss Voigt Hill
#
# Bulk Modulus (GPa) = 68.10315 70.15248 69.12782
# Shear Modulus (GPa) = 22.74864 32.25912 27.50388
#
# Velocity S-wave (km/s) = 3.34692 3.98561 3.68015
# Velocity P-wave (km/s) = 6.96213 7.46489 7.21789
#
# Compressibility (1/GPa) = 0.01468361
#
# Stress axis : x y z
#
# Youngs Moduli (GPa) = 126.62101 69.93882 82.18861
#
# Poissons Ratio (x) = 0.21157 0.09079
# Poissons Ratio (y) = 0.38304 0.46929
# Poissons Ratio (z) = 0.13987 0.39934
#
# Static dielectric constant tensor:
#      x y z
#    x 4.046900 0.000000 0.206780 
#    y 0.000000 3.471100 0.000000 
#    z 0.206780 0.000000 4.051050 
# 
# 
# High freq. dielectric constant tensor:
#      x y z
#    x 1.809950 0.000000 0.011770 
#    y 0.000000 1.758980 0.000000 
#    z 0.011770 0.000000 1.811660 
# 
# From -- ./inp_files/146205.got.cif
#   From: 2010.06.25/outbox.cif.g09.slc.cpg/sg15_74_cif.got.tgz:146205.got - 2010.06.28 07:06:18.
