data_PCOD8146975
_publ_section_title
;
Structure prediction by ZEFSAII (Michael W. Deem and Ramdas Pophale) SiO2 
 PCOD8146975
Probable space group: C 2/C
;
_chemical_formula_sum "Si O2"
_cell_formula_units_Z 56
_cell_length_a 24.800332
_cell_length_b 14.382335
_cell_length_c 15.035779
_cell_angle_alpha 90.000000
_cell_angle_beta 26.673459
_cell_angle_gamma 90.000000
_cell_volume 2407.506030
_symmetry_space_group_name_H-M "C 2/C"
_symmetry_group_IT_number 15
_symmetry_cell_setting 'monoclinic'
loop_
_space_group_symop_operation_xyz
x,y,z
-x,y,1/2-z
-x,-y,-z
x,-y,1/2+z
1/2+x,1/2+y,z
1/2-x,1/2+y,1/2-z
1/2-x,1/2-y,-z
1/2+x,1/2-y,1/2+z
loop_
_atom_site_type_symbol
_atom_site_label
_atom_site_fract_x
_atom_site_fract_y
_atom_site_fract_z
Si Si1 0.661505 0.695147 0.195581
Si Si2 0.071642 0.828391 0.274495
Si Si3 0.235762 0.550298 0.113182
Si Si4 0.096784 0.136033 0.935283
Si Si5 0.300585 0.137928 0.756537
Si Si6 0.324172 0.424672 0.668378
Si Si7 0.980779 0.380108 0.680017
O O1 0.541336 0.651883 0.329244
O O2 0.619409 0.779757 0.320599
O O3 0.725826 0.617242 0.164050
O O4 0.750000 0.750000 0.000000
O O5 0.121798 0.821556 0.301148
O O6 0.067770 0.725544 0.239073
O O7 0.938053 0.865915 0.469807
O O8 0.153494 0.898396 0.096616
O O9 0.249272 0.437094 0.097271
O O10 0.228488 0.581295 0.228429
O O11 0.114445 0.565173 0.238807
O O12 0.185107 0.183351 0.876712
O O13 0.128658 0.027795 0.884272
O O14 0.390781 0.095127 0.551914
O O15 0.000000 0.421317 0.750000
#
# Coordination Sequence:
#
# PCOD8146975 Si02
#       7
#     8   8   8   8   8   8   8
#     4  11  24  41  67  98 138 176 231 287 350 414
#     4  11  21  39  69 101 132 175 236 286 352 407
#     4  11  25  40  69  97 138 179 228 295 353 418
#     4  10  23  43  68  97 136 185 228 294 337 418
#     4  11  25  44  65  98 139 180 232 286 358 419
#     4  10  22  42  67  99 135 181 240 286 344 414
#     4  12  24  43  67 100 136 179 238 292 359 418
#
# _framework density 23.260584999999999
#
# number of rings (size 3 to 8) (size 9 to 14) (size 15 to 20)
#    0.000    1.143    2.857    4.714    6.000    0.571 
#    0.000    0.000    0.000    0.000    0.000    0.000 
#    0.000    0.000    0.000    0.000    0.000    0.000 
#
# Total GULP energy -346934.639436 kJ/mol
# GULP energy per Si atom -12390.522837 kJ/mol
# Density = 2.320764 g / cm^3
# Si number density = 23.260585 Si / 1000 Ang^3
#
#
#
# Elastic Constant Matrix: (Units=GPa)
#
#
# Indices 1 2 3 4 5 6 
#
# 1 173.3439 31.7241 54.2435 0.0000 -24.9396 0.0000
# 2 31.7241 77.6669 22.7569 0.0000 -6.6003 0.0000
# 3 54.2435 22.7569 90.5480 0.0000 7.7189 0.0000
# 4 0.0000 0.0000 0.0000 41.6667 0.0000 3.7212
# 5 -24.9396 -6.6003 7.7189 0.0000 28.6183 0.0000
# 6 0.0000 0.0000 0.0000 3.7212 0.0000 32.2325
#
#
#
# Elastic Compliance Matrix: (Units=1/GPa)
#
#
# Indices 1 2 3 4 5 6 
#
# 1 0.009225 -0.001205 -0.006023 0.000000 0.009385 0.000000
# 2 -0.001205 0.014579 -0.003213 0.000000 0.003179 0.000000
# 3 -0.006023 -0.003213 0.016346 0.000000 -0.010399 0.000000
# 4 0.000000 0.000000 0.000000 0.024250 0.000000 -0.002800
# 5 0.009385 0.003179 -0.010399 0.000000 0.046659 0.000000
# 6 0.000000 0.000000 0.000000 -0.002800 0.000000 0.031348
#
#
# Mechanical properties :
#
#
# Convention : Reuss Voigt Hill
#
# Bulk Modulus (GPa) = 51.90267 62.11198 57.00733
# Shear Modulus (GPa) = 29.46153 36.02579 32.74366
#
# Velocity S-wave (km/s) = 3.56277 3.93974 3.75599
# Velocity P-wave (km/s) = 6.26789 6.88883 6.58569
#
# Compressibility (1/GPa) = 0.01926683
#
# Stress axis : x y z
#
# Youngs Moduli (GPa) = 108.40567 68.58977 61.17689
#
# Poissons Ratio (x) = 0.08268 0.36848
# Poissons Ratio (y) = 0.13068 0.19656
# Poissons Ratio (z) = 0.65295 0.22038
#
# Static dielectric constant tensor:
#      x y z
#    x 4.914560 0.000000 0.165590 
#    y 0.000000 4.379910 0.000000 
#    z 0.165590 0.000000 3.997550 
# 
# 
# High freq. dielectric constant tensor:
#      x y z
#    x 1.936990 0.000000 0.001640 
#    y 0.000000 1.922810 0.000000 
#    z 0.001640 0.000000 1.901240 
# 
# From -- ./inp_files/173796.got.cif
#   From: 2010.06.25/outbox.cif.g09.slc.cpg/sg15_87_cif.got.tgz:173796.got - 2010.06.28 07:06:18.
