data_PCOD8146860
_publ_section_title
;
Structure prediction by ZEFSAII (Michael W. Deem and Ramdas Pophale) SiO2 
 PCOD8146860
Probable space group: C 2/C
;
_chemical_formula_sum "Si O2"
_cell_formula_units_Z 48
_cell_length_a 6.034982
_cell_length_b 26.892065
_cell_length_c 15.271841
_cell_angle_alpha 90.000000
_cell_angle_beta 120.749612
_cell_angle_gamma 90.000000
_cell_volume 2130.060134
_symmetry_space_group_name_H-M "C 2/C"
_symmetry_group_IT_number 15
_symmetry_cell_setting 'monoclinic'
loop_
_space_group_symop_operation_xyz
x,y,z
-x,y,1/2-z
-x,-y,-z
x,-y,1/2+z
1/2+x,1/2+y,z
1/2-x,1/2+y,1/2-z
1/2-x,1/2-y,-z
1/2+x,1/2-y,1/2+z
loop_
_atom_site_type_symbol
_atom_site_label
_atom_site_fract_x
_atom_site_fract_y
_atom_site_fract_z
Si Si1 0.092059 0.641246 0.023344
Si Si2 0.547410 0.373777 0.350764
Si Si3 0.784451 0.028147 0.838508
Si Si4 0.034274 0.285978 0.860527
Si Si5 0.250155 0.964799 0.964631
Si Si6 0.917189 0.204196 0.961383
O O1 0.256611 0.591782 0.072977
O O2 0.028662 0.661071 0.107715
O O3 0.204519 0.689287 0.991342
O O4 0.851405 0.618266 0.921956
O O5 0.500000 0.343617 0.250000
O O6 0.377604 0.423328 0.305068
O O7 0.458168 0.346935 0.419822
O O8 0.500000 0.010984 0.750000
O O9 0.791514 0.040363 0.941425
O O10 0.999701 0.986325 0.864215
O O11 0.000000 0.288251 0.750000
O O12 0.852285 0.244491 0.871691
O O13 0.335151 0.274029 0.937644
O O14 0.500000 0.000000 0.000000
#
# Coordination Sequence:
#
# PCOD8146860 Si02
#       6
#     8   8   8   8   8   8
#     4  11  22  42  68  94 136 184 227 276 346 406
#     4  11  22  37  67 100 133 169 223 289 340 408
#     4  11  24  40  66  97 134 178 232 285 346 409
#     4  10  23  43  68  97 139 176 227 281 338 415
#     4  11  23  43  66  93 138 183 224 288 342 403
#     4  10  22  42  66 101 132 177 220 282 348 400
#
# _framework density 22.534575
#
# number of rings (size 3 to 8) (size 9 to 14) (size 15 to 20)
#    0.000    1.333    3.333    2.000    0.000    0.667 
#    0.000    6.667    0.000    0.000    0.000    1.167 
#    0.000    0.000    0.000    0.000    0.000    0.000 
#
# Total GULP energy -297334.407491 kJ/mol
# GULP energy per Si atom -12388.933645 kJ/mol
# Density = 2.248329 g / cm^3
# Si number density = 22.534575 Si / 1000 Ang^3
#
#
#
# Elastic Constant Matrix: (Units=GPa)
#
#
# Indices 1 2 3 4 5 6 
#
# 1 108.5361 42.8307 47.2114 0.0000 4.9811 0.0000
# 2 42.8307 105.4331 45.2774 0.0000 1.5338 0.0000
# 3 47.2114 45.2774 133.9644 0.0000 -3.6219 0.0000
# 4 0.0000 0.0000 0.0000 22.7019 0.0000 4.4193
# 5 4.9811 1.5338 -3.6219 0.0000 45.4058 0.0000
# 6 0.0000 0.0000 0.0000 4.4193 0.0000 32.4325
#
#
#
# Elastic Compliance Matrix: (Units=1/GPa)
#
#
# Indices 1 2 3 4 5 6 
#
# 1 0.012015 -0.003538 -0.003077 0.000000 -0.001444 0.000000
# 2 -0.003538 0.012158 -0.002869 0.000000 -0.000251 0.000000
# 3 -0.003077 -0.002869 0.009551 0.000000 0.001196 0.000000
# 4 0.000000 0.000000 0.000000 0.045249 0.000000 -0.006166
# 5 -0.001444 -0.000251 0.001196 0.000000 0.022286 0.000000
# 6 0.000000 0.000000 0.000000 -0.006166 0.000000 0.031673
#
#
# Mechanical properties :
#
#
# Convention : Reuss Voigt Hill
#
# Bulk Modulus (GPa) = 67.77590 68.73029 68.25310
# Shear Modulus (GPa) = 31.88376 34.28232 33.08304
#
# Velocity S-wave (km/s) = 3.76557 3.90464 3.83574
# Velocity P-wave (km/s) = 7.00341 7.13404 7.06902
#
# Compressibility (1/GPa) = 0.01475451
#
# Stress axis : x y z
#
# Youngs Moduli (GPa) = 83.23174 82.25210 104.69908
#
# Poissons Ratio (x) = 0.29103 0.32220
# Poissons Ratio (y) = 0.29449 0.30038
# Poissons Ratio (z) = 0.25613 0.23598
#
# Static dielectric constant tensor:
#      x y z
#    x 4.297520 0.000000 0.002980 
#    y 0.000000 4.035860 0.000000 
#    z 0.002980 0.000000 3.923780 
# 
# 
# High freq. dielectric constant tensor:
#      x y z
#    x 1.897390 0.000000 -0.014630 
#    y 0.000000 1.891480 0.000000 
#    z -0.014630 0.000000 1.875980 
# 
# From -- ./inp_files/130937.got.cif
#   From: 2010.06.25/outbox.cif.g09.slc.cpg/sg15_66_cif.got.tgz:130937.got - 2010.06.28 07:06:18.
