data_PCOD8146607
_publ_section_title
;
Structure prediction by ZEFSAII (Michael W. Deem and Ramdas Pophale) SiO2 
 PCOD8146607
Probable space group: C 2/C
;
_chemical_formula_sum "Si O2"
_cell_formula_units_Z 40
_cell_length_a 13.661583
_cell_length_b 4.921910
_cell_length_c 22.211715
_cell_angle_alpha 90.000000
_cell_angle_beta 94.909005
_cell_angle_gamma 90.000000
_cell_volume 1488.061235
_symmetry_space_group_name_H-M "C 2/C"
_symmetry_group_IT_number 15
_symmetry_cell_setting 'monoclinic'
loop_
_space_group_symop_operation_xyz
x,y,z
-x,y,1/2-z
-x,-y,-z
x,-y,1/2+z
1/2+x,1/2+y,z
1/2-x,1/2+y,1/2-z
1/2-x,1/2-y,-z
1/2+x,1/2-y,1/2+z
loop_
_atom_site_type_symbol
_atom_site_label
_atom_site_fract_x
_atom_site_fract_y
_atom_site_fract_z
Si Si1 0.373595 0.042486 0.778761
Si Si2 0.050253 0.498561 0.591544
Si Si3 0.645792 0.291288 0.922668
Si Si4 0.840535 0.002968 0.948814
Si Si5 0.850151 0.041581 0.701761
O O1 0.266887 0.014253 0.802286
O O2 0.387874 0.836168 0.723779
O O3 0.450575 0.987183 0.835989
O O4 0.396385 0.335951 0.752716
O O5 0.069837 0.198978 0.566499
O O6 0.944215 0.596406 0.563063
O O7 0.136243 0.699991 0.572153
O O8 0.739496 0.101447 0.911791
O O9 0.615719 0.478337 0.864380
O O10 0.671776 0.490716 0.979559
#
# Coordination Sequence:
#
# PCOD8146607 Si02
#       5
#     8   8   8   8   8
#     4  10  22  41  69  96 136 183 229 289 350 406
#     4  12  25  47  73 105 146 186 235 300 352 424
#     4  11  26  46  76 106 143 192 238 289 361 427
#     4  11  27  46  72 109 146 185 237 296 354 426
#     4  10  22  41  69  96 136 185 228 286 352 411
#
# _framework density 26.880616
#
# number of rings (size 3 to 8) (size 9 to 14) (size 15 to 20)
#    0.000    1.200    2.000    2.400    5.600    8.800 
#    0.000    2.000    0.000    0.000    0.000    0.000 
#    0.000    0.000    0.000    0.000    0.000    0.000 
#
# Total GULP energy -248218.681179 kJ/mol
# GULP energy per Si atom -12410.934059 kJ/mol
# Density = 2.681943 g / cm^3
# Si number density = 26.880616 Si / 1000 Ang^3
#
#
#
# Elastic Constant Matrix: (Units=GPa)
#
#
# Indices 1 2 3 4 5 6 
#
# 1 63.5868 -8.5634 4.3136 0.0000 -12.9219 0.0000
# 2 -8.5634 73.6702 -2.7703 0.0000 -5.6631 0.0000
# 3 4.3136 -2.7703 116.3973 0.0000 2.9016 0.0000
# 4 0.0000 0.0000 0.0000 36.0717 0.0000 0.0424
# 5 -12.9219 -5.6631 2.9016 0.0000 32.7985 0.0000
# 6 0.0000 0.0000 0.0000 0.0424 0.0000 1.6166
#
#
#
# Elastic Compliance Matrix: (Units=1/GPa)
#
#
# Indices 1 2 3 4 5 6 
#
# 1 0.017647 0.002596 -0.000778 0.000000 0.007470 0.000000
# 2 0.002596 0.014147 0.000154 0.000000 0.003452 0.000000
# 3 -0.000778 0.000154 0.008650 0.000000 -0.001045 0.000000
# 4 0.000000 0.000000 0.000000 0.027723 0.000000 -0.000727
# 5 0.007470 0.003452 -0.001045 0.000000 0.034121 0.000000
# 6 0.000000 0.000000 0.000000 -0.000727 0.000000 0.618598
#
#
# Mechanical properties :
#
#
# Convention : Reuss Voigt Hill
#
# Bulk Modulus (GPa) = 22.52848 26.62377 24.57613
# Shear Modulus (GPa) = 6.83305 31.47566 19.15436
#
# Velocity S-wave (km/s) = 1.59609 3.42562 2.67230
# Velocity P-wave (km/s) = 3.43450 5.05692 4.32251
#
# Compressibility (1/GPa) = 0.04438826
#
# Stress axis : x y z
#
# Youngs Moduli (GPa) = 56.66700 70.68659 115.60901
#
# Poissons Ratio (x) = -0.18352 0.08999
# Poissons Ratio (y) = -0.14712 -0.01785
# Poissons Ratio (z) = 0.04411 -0.01092
#
# Static dielectric constant tensor:
#      x y z
#    x 4.767500 0.000000 0.000290 
#    y 0.000000 4.657620 0.000000 
#    z 0.000290 0.000000 4.691560 
# 
# 
# High freq. dielectric constant tensor:
#      x y z
#    x 2.083690 0.000000 -0.001950 
#    y 0.000000 2.072100 0.000000 
#    z -0.001950 0.000000 2.089080 
# 
# From -- ./inp_files/271740.got.cif
#   From: 2010.06.25/outbox.cif.g09.slc.cpg/sg15_136_cif.got.tgz:271740.got - 2010.06.28 07:06:18.
