data_PCOD8146907
_publ_section_title
;
Structure prediction by ZEFSAII (Michael W. Deem and Ramdas Pophale) SiO2 
 PCOD8146907
Probable space group: C 2/C
;
_chemical_formula_sum "Si O2"
_cell_formula_units_Z 36
_cell_length_a 12.003457
_cell_length_b 8.502569
_cell_length_c 16.580211
_cell_angle_alpha 90.000000
_cell_angle_beta 66.563806
_cell_angle_gamma 90.000000
_cell_volume 1552.581183
_symmetry_space_group_name_H-M "C 2/C"
_symmetry_group_IT_number 15
_symmetry_cell_setting 'monoclinic'
loop_
_space_group_symop_operation_xyz
x,y,z
-x,y,1/2-z
-x,-y,-z
x,-y,1/2+z
1/2+x,1/2+y,z
1/2-x,1/2+y,1/2-z
1/2-x,1/2-y,-z
1/2+x,1/2-y,1/2+z
loop_
_atom_site_type_symbol
_atom_site_label
_atom_site_fract_x
_atom_site_fract_y
_atom_site_fract_z
Si Si1 0.868386 0.655836 0.417715
Si Si2 0.186942 0.778833 0.758237
Si Si3 0.106546 0.126763 0.454526
Si Si4 0.000000 0.536581 0.750000
Si Si5 0.638438 0.586311 0.699883
O O1 0.917605 0.703831 0.492698
O O2 0.739336 0.563078 0.447528
O O3 0.837904 0.832810 0.392411
O O4 0.971840 0.571525 0.335789
O O5 0.110226 0.838755 0.857885
O O6 0.318564 0.712725 0.744942
O O7 0.116688 0.640414 0.733899
O O8 0.210985 0.922546 0.689556
O O9 0.000000 0.000000 0.500000
O O10 0.500000 0.541371 0.750000
#
# Coordination Sequence:
#
# PCOD8146907 Si02
#       5
#     8   8   8   4   8
#     4  10  23  41  67  94 139 173 222 282 332 394
#     4  11  24  40  69  99 134 177 230 272 340 402
#     4  10  22  42  66  95 131 182 219 274 345 395
#     4  12  24  42  66 106 134 178 232 274 332 406
#     4  11  21  41  66  96 131 178 220 284 324 394
#
# _framework density 23.187192
#
# number of rings (size 3 to 8) (size 9 to 14) (size 15 to 20)
#    0.000    1.333    2.222    4.000    0.000    0.889 
#    0.000    1.111    0.000    0.000    0.000    0.000 
#    0.000    0.000    0.000    0.000    0.000    0.000 
#
# Total GULP energy -223005.930399 kJ/mol
# GULP energy per Si atom -12389.218355 kJ/mol
# Density = 2.313442 g / cm^3
# Si number density = 23.187192 Si / 1000 Ang^3
#
#
#
# Elastic Constant Matrix: (Units=GPa)
#
#
# Indices 1 2 3 4 5 6 
#
# 1 70.2402 21.5282 1.6165 0.0000 -5.8684 0.0000
# 2 21.5282 109.7597 27.6403 0.0000 -2.4515 0.0000
# 3 1.6165 27.6403 50.7030 0.0000 6.0273 0.0000
# 4 0.0000 0.0000 0.0000 22.9363 0.0000 -3.5705
# 5 -5.8684 -2.4515 6.0273 0.0000 27.5235 0.0000
# 6 0.0000 0.0000 0.0000 -3.5705 0.0000 49.9155
#
#
#
# Elastic Compliance Matrix: (Units=1/GPa)
#
#
# Indices 1 2 3 4 5 6 
#
# 1 0.015429 -0.003194 0.000916 0.000000 0.002805 0.000000
# 2 -0.003194 0.011361 -0.006294 0.000000 0.001709 0.000000
# 3 0.000916 -0.006294 0.023788 0.000000 -0.005575 0.000000
# 4 0.000000 0.000000 0.000000 0.044090 0.000000 0.003154
# 5 0.002805 0.001709 -0.005575 0.000000 0.038304 0.000000
# 6 0.000000 0.000000 0.000000 0.003154 0.000000 0.020259
#
#
# Mechanical properties :
#
#
# Convention : Reuss Voigt Hill
#
# Bulk Modulus (GPa) = 29.91165 36.91921 33.41543
# Shear Modulus (GPa) = 27.54520 32.06958 29.80739
#
# Velocity S-wave (km/s) = 3.45040 3.72300 3.58929
# Velocity P-wave (km/s) = 5.36673 5.86837 5.62315
#
# Compressibility (1/GPa) = 0.03343179
#
# Stress axis : x y z
#
# Youngs Moduli (GPa) = 64.81244 88.02337 42.03883
#
# Poissons Ratio (x) = 0.28117 -0.03851
# Poissons Ratio (y) = 0.20703 0.26461
# Poissons Ratio (z) = -0.05937 0.55406
#
# Static dielectric constant tensor:
#      x y z
#    x 4.349470 0.000000 0.257170 
#    y 0.000000 4.165130 0.000000 
#    z 0.257170 0.000000 4.217650 
# 
# 
# High freq. dielectric constant tensor:
#      x y z
#    x 1.922080 0.000000 0.005730 
#    y 0.000000 1.903590 0.000000 
#    z 0.005730 0.000000 1.906710 
# 
# From -- ./inp_files/194949.got.cif
#   From: 2010.06.25/outbox.cif.g09.slc.cpg/sg15_98_cif.got.tgz:194949.got - 2010.06.28 07:06:18.
