data_PCOD8146935
_publ_section_title
;
Structure prediction by ZEFSAII (Michael W. Deem and Ramdas Pophale) SiO2 
 PCOD8146935
Probable space group: C 2/C
;
_chemical_formula_sum "Si O2"
_cell_formula_units_Z 56
_cell_length_a 9.695474
_cell_length_b 21.298488
_cell_length_c 11.815247
_cell_angle_alpha 90.000000
_cell_angle_beta 93.489827
_cell_angle_gamma 90.000000
_cell_volume 2435.311564
_symmetry_space_group_name_H-M "C 2/C"
_symmetry_group_IT_number 15
_symmetry_cell_setting 'monoclinic'
loop_
_space_group_symop_operation_xyz
x,y,z
-x,y,1/2-z
-x,-y,-z
x,-y,1/2+z
1/2+x,1/2+y,z
1/2-x,1/2+y,1/2-z
1/2-x,1/2-y,-z
1/2+x,1/2-y,1/2+z
loop_
_atom_site_type_symbol
_atom_site_label
_atom_site_fract_x
_atom_site_fract_y
_atom_site_fract_z
Si Si1 0.242039 0.567668 0.605218
Si Si2 0.950342 0.032769 0.111133
Si Si3 0.246700 0.869465 0.996867
Si Si4 0.341708 0.328053 0.269167
Si Si5 0.737258 0.573406 0.146377
Si Si6 0.552176 0.963755 0.369735
Si Si7 0.152816 0.313598 0.717829
O O1 0.343088 0.515736 0.664551
O O2 0.240308 0.626425 0.692227
O O3 0.291703 0.591792 0.485446
O O4 0.094605 0.531549 0.571350
O O5 0.907139 0.044067 0.309805
O O6 0.874474 0.097861 0.079990
O O7 0.000000 0.000000 0.000000
O O8 0.180868 0.832565 0.097891
O O9 0.348581 0.921450 0.051435
O O10 0.329680 0.822452 0.917234
O O11 0.500000 0.345372 0.250000
O O12 0.306761 0.255985 0.237959
O O13 0.868917 0.527341 0.164698
O O14 0.750774 0.637105 0.214906
O O15 0.500000 0.931230 0.250000
O O16 0.000000 0.329543 0.750000
#
# Coordination Sequence:
#
# PCOD8146935 Si02
#       7
#     8   8   8   8   8   8   8
#     4  11  23  41  70 105 141 179 234 293 358 428
#     4  10  22  42  67 107 140 181 225 293 366 419
#     4  12  24  47  71 104 146 182 245 296 358 428
#     4  11  25  47  73 100 140 195 242 289 353 426
#     4  11  24  43  67 108 146 180 231 293 360 433
#     4  12  24  39  67 109 142 181 229 295 372 418
#     4  11  27  47  71 102 142 198 240 290 351 428
#
# _framework density 22.995006
#
# number of rings (size 3 to 8) (size 9 to 14) (size 15 to 20)
#    0.000    0.857    4.286    3.857    4.000    1.143 
#    2.571    4.286    0.000    0.000    0.000    0.000 
#    0.000    0.000    0.000    0.000    0.000    0.000 
#
# Total GULP energy -347110.265712 kJ/mol
# GULP energy per Si atom -12396.795204 kJ/mol
# Density = 2.294267 g / cm^3
# Si number density = 22.995006 Si / 1000 Ang^3
#
#
#
# Elastic Constant Matrix: (Units=GPa)
#
#
# Indices 1 2 3 4 5 6 
#
# 1 138.4507 74.4137 51.8155 0.0000 -5.4082 0.0000
# 2 74.4137 117.7630 25.5558 0.0000 4.7172 0.0000
# 3 51.8155 25.5558 107.7586 0.0000 -11.5903 0.0000
# 4 0.0000 0.0000 0.0000 13.0552 0.0000 34.0522
# 5 -5.4082 4.7172 -11.5903 0.0000 47.0456 0.0000
# 6 0.0000 0.0000 0.0000 34.0522 0.0000 -25.9413
#
#
#
# Elastic Compliance Matrix: (Units=1/GPa)
#
#
# Indices 1 2 3 4 5 6 
#
# 1 0.012717 -0.007148 -0.004300 0.000000 0.001119 0.000000
# 2 -0.007148 0.013068 0.000111 0.000000 -0.002105 0.000000
# 3 -0.004300 0.000111 0.011573 0.000000 0.002346 0.000000
# 4 0.000000 0.000000 0.000000 0.017315 0.000000 0.022728
# 5 0.001119 -0.002105 0.002346 0.000000 0.022174 0.000000
# 6 0.000000 0.000000 0.000000 0.022728 0.000000 -0.008714
#
#
# Mechanical properties :
#
#
# Convention : Reuss Voigt Hill
#
# Bulk Modulus (GPa) = 68.08687 74.17136 71.12911
# Shear Modulus (GPa) = 52.24572 20.97771 36.61171
#
# Velocity S-wave (km/s) = 4.77177 3.02366 3.99452
# Velocity P-wave (km/s) = 7.74812 6.67199 7.23011
#
# Compressibility (1/GPa) = 0.01468712
#
# Stress axis : x y z
#
# Youngs Moduli (GPa) = 78.63219 76.52013 86.40539
#
# Poissons Ratio (x) = 0.54696 0.37151
# Poissons Ratio (y) = 0.56205 -0.00962
# Poissons Ratio (z) = 0.33809 -0.00852
#
# Static dielectric constant tensor:
#      x y z
#    x 5.190630 0.000000 -0.196640 
#    y 0.000000 3.930470 0.000000 
#    z -0.196640 0.000000 4.579620 
# 
# 
# High freq. dielectric constant tensor:
#      x y z
#    x 1.920670 0.000000 -0.016340 
#    y 0.000000 1.883550 0.000000 
#    z -0.016340 0.000000 1.944220 
# 
# From -- ./inp_files/88899.got.cif
#   From: 2010.06.25/outbox.cif.g09.slc.cpg/sg15_45_cif.got.tgz:88899.got - 2010.06.28 07:06:18.
