data_PCOD8146012
_publ_section_title
;
Structure prediction by ZEFSAII (Michael W. Deem and Ramdas Pophale) SiO2 
 PCOD8146012
Probable space group: C 2/C
;
_chemical_formula_sum "Si O2"
_cell_formula_units_Z 40
_cell_length_a 12.326578
_cell_length_b 24.040633
_cell_length_c 8.291992
_cell_angle_alpha 90.000000
_cell_angle_beta 135.935576
_cell_angle_gamma 90.000000
_cell_volume 1708.927670
_symmetry_space_group_name_H-M "C 2/C"
_symmetry_group_IT_number 15
_symmetry_cell_setting 'monoclinic'
loop_
_space_group_symop_operation_xyz
x,y,z
-x,y,1/2-z
-x,-y,-z
x,-y,1/2+z
1/2+x,1/2+y,z
1/2-x,1/2+y,1/2-z
1/2-x,1/2-y,-z
1/2+x,1/2-y,1/2+z
loop_
_atom_site_type_symbol
_atom_site_label
_atom_site_fract_x
_atom_site_fract_y
_atom_site_fract_z
Si Si1 0.694270 0.673321 0.213694
Si Si2 0.168690 0.526065 0.642948
Si Si3 0.158554 0.363428 0.322283
Si Si4 0.827453 0.938529 0.998721
Si Si5 0.507381 0.224451 0.446586
O O1 0.701193 0.651716 0.405216
O O2 0.840321 0.713587 0.343881
O O3 0.697396 0.624162 0.087043
O O4 0.542137 0.710971 0.023222
O O5 0.204840 0.578933 0.791529
O O6 0.192765 0.545571 0.484428
O O7 0.000000 0.500000 0.500000
O O8 0.300045 0.479680 0.819227
O O9 0.000000 0.372779 0.250000
O O10 0.137018 0.315879 0.164380
O O11 0.000000 0.946458 0.250000
O O12 0.500000 0.212884 0.250000
#
# Coordination Sequence:
#
# PCOD8146012 Si02
#       5
#     8   8   8   8   8
#     4  11  24  43  65  96 138 182 232 288 349 414
#     4  12  24  44  73 102 135 184 237 290 349 425
#     4  10  22  40  65 100 135 174 227 290 348 410
#     4  12  26  45  68 103 142 183 230 293 359 419
#     4  11  22  40  64  93 129 177 230 285 343 412
#
# _framework density 23.406493000000001
#
# number of rings (size 3 to 8) (size 9 to 14) (size 15 to 20)
#    0.000    0.800    0.000    9.000    0.000    1.600 
#    0.000    2.000    0.000    0.000    0.000    0.000 
#    0.000    0.000    0.000    0.000    0.000    0.000 
#
# Total GULP energy -248075.443715 kJ/mol
# GULP energy per Si atom -12403.772186 kJ/mol
# Density = 2.335322 g / cm^3
# Si number density = 23.406493 Si / 1000 Ang^3
#
#
#
# Elastic Constant Matrix: (Units=GPa)
#
#
# Indices 1 2 3 4 5 6 
#
# 1 52.4070 37.2448 32.3278 0.0000 -11.7207 0.0000
# 2 37.2448 175.0904 55.5916 0.0000 -5.8706 0.0000
# 3 32.3278 55.5916 123.5651 0.0000 -8.3722 0.0000
# 4 0.0000 0.0000 0.0000 40.6898 0.0000 -3.0605
# 5 -11.7207 -5.8706 -8.3722 0.0000 35.5175 0.0000
# 6 0.0000 0.0000 0.0000 -3.0605 0.0000 37.3621
#
#
#
# Elastic Compliance Matrix: (Units=1/GPa)
#
#
# Indices 1 2 3 4 5 6 
#
# 1 0.026257 -0.003874 -0.004657 0.000000 0.006927 0.000000
# 2 -0.003874 0.007240 -0.002286 0.000000 -0.000621 0.000000
# 3 -0.004657 -0.002286 0.010376 0.000000 0.000531 0.000000
# 4 0.000000 0.000000 0.000000 0.024729 0.000000 0.002026
# 5 0.006927 -0.000621 0.000531 0.000000 0.030464 0.000000
# 6 0.000000 0.000000 0.000000 0.002026 0.000000 0.026931
#
#
# Mechanical properties :
#
#
# Convention : Reuss Voigt Hill
#
# Bulk Modulus (GPa) = 44.96750 66.82120 55.89435
# Shear Modulus (GPa) = 32.24903 37.77376 35.01139
#
# Velocity S-wave (km/s) = 3.71587 4.02159 3.87175
# Velocity P-wave (km/s) = 6.13706 7.08339 6.62714
#
# Compressibility (1/GPa) = 0.02223828
#
# Stress axis : x y z
#
# Youngs Moduli (GPa) = 38.08538 138.11287 96.37906
#
# Poissons Ratio (x) = 0.53511 0.44884
# Poissons Ratio (y) = 0.14756 0.22031
# Poissons Ratio (z) = 0.17737 0.31571
#
# Static dielectric constant tensor:
#      x y z
#    x 4.037320 0.000000 -0.299000 
#    y 0.000000 4.422340 0.000000 
#    z -0.299000 0.000000 4.562940 
# 
# 
# High freq. dielectric constant tensor:
#      x y z
#    x 1.908470 0.000000 -0.014140 
#    y 0.000000 1.944580 0.000000 
#    z -0.014140 0.000000 1.941260 
# 
# From -- ./inp_files/42440.got.cif
#   From: 2010.06.25/outbox.cif.g09.slc.cpg/sg15_22_cif.got.tgz:42440.got - 2010.06.28 07:06:18.
