data_PCOD8146888
_publ_section_title
;
Structure prediction by ZEFSAII (Michael W. Deem and Ramdas Pophale) SiO2 
 PCOD8146888
Probable space group: C 2/C
;
_chemical_formula_sum "Si O2"
_cell_formula_units_Z 52
_cell_length_a 28.669857
_cell_length_b 12.197194
_cell_length_c 11.480129
_cell_angle_alpha 90.000000
_cell_angle_beta 40.767652
_cell_angle_gamma 90.000000
_cell_volume 2621.445478
_symmetry_space_group_name_H-M "C 2/C"
_symmetry_group_IT_number 15
_symmetry_cell_setting 'monoclinic'
loop_
_space_group_symop_operation_xyz
x,y,z
-x,y,1/2-z
-x,-y,-z
x,-y,1/2+z
1/2+x,1/2+y,z
1/2-x,1/2+y,1/2-z
1/2-x,1/2-y,-z
1/2+x,1/2-y,1/2+z
loop_
_atom_site_type_symbol
_atom_site_label
_atom_site_fract_x
_atom_site_fract_y
_atom_site_fract_z
Si Si1 0.666106 0.693722 0.277155
Si Si2 0.072181 0.359147 0.073263
Si Si3 0.332206 0.324251 0.457937
Si Si4 0.321762 0.123051 0.919739
Si Si5 0.425351 0.474671 0.699611
Si Si6 0.000000 0.846589 0.750000
Si Si7 0.677292 0.886764 0.676694
O O1 0.643798 0.694694 0.454450
O O2 0.655785 0.814850 0.241922
O O3 0.619041 0.605078 0.298935
O O4 0.748542 0.665761 0.110573
O O5 0.119154 0.348764 0.098664
O O6 0.000000 0.425526 0.250000
O O7 0.048185 0.235424 0.078453
O O8 0.114135 0.413514 0.887614
O O9 0.380413 0.416133 0.306523
O O10 0.344708 0.211647 0.366066
O O11 0.249462 0.359736 0.610081
O O12 0.313231 0.994000 0.918159
O O13 0.500000 0.500000 0.500000
O O14 0.442855 0.419270 0.789443
#
# Coordination Sequence:
#
# PCOD8146888 Si02
#       7
#     8   8   8   8   8   4   8
#     4  11  23  42  66 103 131 173 229 274 333 394
#     4  10  22  43  66  95 127 178 218 271 335 398
#     4  11  25  40  66 103 136 174 222 280 332 397
#     4  11  23  42  69  96 133 173 226 276 333 401
#     4  12  23  43  66  99 134 179 219 272 336 395
#     4  10  22  42  66  92 132 174 220 264 336 400
#     4  11  24  43  66 100 134 175 225 275 338 396
#
# _framework density 19.836385
#
# number of rings (size 3 to 8) (size 9 to 14) (size 15 to 20)
#    0.462    0.615    4.615    1.846    2.154    0.615 
#    0.000    0.000    1.692    0.000    0.000    0.000 
#    0.000    0.000    0.000    0.000    0.000    0.000 
#
# Total GULP energy -322326.360509 kJ/mol
# GULP energy per Si atom -12397.167712 kJ/mol
# Density = 1.979124 g / cm^3
# Si number density = 19.836385 Si / 1000 Ang^3
#
#
#
# Elastic Constant Matrix: (Units=GPa)
#
#
# Indices 1 2 3 4 5 6 
#
# 1 125.6392 33.6816 31.2167 0.0000 1.2587 0.0000
# 2 33.6816 95.7928 5.0630 0.0000 12.4853 0.0000
# 3 31.2167 5.0630 91.7781 0.0000 5.9751 0.0000
# 4 0.0000 0.0000 0.0000 22.8899 0.0000 -3.1349
# 5 1.2587 12.4853 5.9751 0.0000 28.3327 0.0000
# 6 0.0000 0.0000 0.0000 -3.1349 0.0000 32.6702
#
#
#
# Elastic Compliance Matrix: (Units=1/GPa)
#
#
# Indices 1 2 3 4 5 6 
#
# 1 0.009667 -0.003460 -0.003213 0.000000 0.001773 0.000000
# 2 -0.003460 0.012322 0.000852 0.000000 -0.005456 0.000000
# 3 -0.003213 0.000852 0.012123 0.000000 -0.002790 0.000000
# 4 0.000000 0.000000 0.000000 0.044269 0.000000 0.004248
# 5 0.001773 -0.005456 -0.002790 0.000000 0.038209 0.000000
# 6 0.000000 0.000000 0.000000 0.004248 0.000000 0.031017
#
#
# Mechanical properties :
#
#
# Convention : Reuss Voigt Hill
#
# Bulk Modulus (GPa) = 44.50146 50.34805 47.42475
# Shear Modulus (GPa) = 29.98704 32.99517 31.49111
#
# Velocity S-wave (km/s) = 3.89230 4.08286 3.98872
# Velocity P-wave (km/s) = 6.53322 6.90385 6.72109
#
# Compressibility (1/GPa) = 0.02247117
#
# Stress axis : x y z
#
# Youngs Moduli (GPa) = 103.43975 81.15588 82.48659
#
# Poissons Ratio (x) = 0.28083 0.26501
# Poissons Ratio (y) = 0.35795 -0.07032
# Poissons Ratio (z) = 0.33233 -0.06918
#
# Static dielectric constant tensor:
#      x y z
#    x 3.793430 0.000000 0.014950 
#    y 0.000000 3.664840 0.000000 
#    z 0.014950 0.000000 3.636800 
# 
# 
# High freq. dielectric constant tensor:
#      x y z
#    x 1.785760 0.000000 -0.007430 
#    y 0.000000 1.772430 0.000000 
#    z -0.007430 0.000000 1.772610 
# 
# From -- ./inp_files/126413.got.cif
#   From: 2010.06.25/outbox.cif.g09.slc.cpg/sg15_64_cif.got.tgz:126413.got - 2010.06.28 07:06:18.
