data_PCOD8146091
_publ_section_title
;
Structure prediction by ZEFSAII (Michael W. Deem and Ramdas Pophale) SiO2 
 PCOD8146091
Probable space group: C 2/C
;
_chemical_formula_sum "Si O2"
_cell_formula_units_Z 48
_cell_length_a 21.324079
_cell_length_b 11.212314
_cell_length_c 11.098853
_cell_angle_alpha 90.000000
_cell_angle_beta 56.352168
_cell_angle_gamma 90.000000
_cell_volume 2209.054693
_symmetry_space_group_name_H-M "C 2/C"
_symmetry_group_IT_number 15
_symmetry_cell_setting 'monoclinic'
loop_
_space_group_symop_operation_xyz
x,y,z
-x,y,1/2-z
-x,-y,-z
x,-y,1/2+z
1/2+x,1/2+y,z
1/2-x,1/2+y,1/2-z
1/2-x,1/2-y,-z
1/2+x,1/2-y,1/2+z
loop_
_atom_site_type_symbol
_atom_site_label
_atom_site_fract_x
_atom_site_fract_y
_atom_site_fract_z
Si Si1 0.557917 0.260891 0.914306
Si Si2 0.403468 0.801135 0.674138
Si Si3 0.152700 0.116430 0.126368
Si Si4 0.926359 0.547160 0.759202
Si Si5 0.087820 0.872452 0.130832
Si Si6 0.810231 0.350153 0.554217
O O1 0.579478 0.351950 0.784378
O O2 0.587659 0.129678 0.843788
O O3 0.467420 0.259575 0.022501
O O4 0.597624 0.301171 0.995645
O O5 0.375076 0.705808 0.802079
O O6 0.334746 0.851023 0.667854
O O7 0.440666 0.912007 0.704594
O O8 0.174475 0.215530 0.005627
O O9 0.134621 0.994971 0.074857
O O10 0.223885 0.107996 0.141045
O O11 0.856247 0.555745 0.924452
O O12 0.000000 0.595062 0.750000
O O13 0.000000 0.896115 0.250000
#
# Coordination Sequence:
#
# PCOD8146091 Si02
#       6
#     8   8   8   8   8   8
#     4  10  22  40  66  94 127 167 217 266 323 382
#     4  11  23  39  66 100 126 167 220 275 319 381
#     4  10  24  44  63  91 130 176 208 267 326 396
#     4  11  21  39  69  93 128 169 215 278 317 381
#     4  10  24  39  66 100 128 163 219 272 320 379
#     4  10  24  43  63  92 129 172 220 254 332 393
#
# _framework density 21.728752
#
# number of rings (size 3 to 8) (size 9 to 14) (size 15 to 20)
#    0.000    1.667    1.667    2.000    7.000    2.667 
#    6.000    1.667    0.000    0.000    0.000    0.000 
#    0.000    0.000    0.000    0.000    0.000    0.000 
#
# Total GULP energy -297658.575524 kJ/mol
# GULP energy per Si atom -12402.440647 kJ/mol
# Density = 2.167930 g / cm^3
# Si number density = 21.728752 Si / 1000 Ang^3
#
#
#
# Elastic Constant Matrix: (Units=GPa)
#
#
# Indices 1 2 3 4 5 6 
#
# 1 102.4182 40.0067 18.0252 0.0000 9.7056 0.0000
# 2 40.0067 104.9464 39.1490 0.0000 0.6248 0.0000
# 3 18.0252 39.1490 51.9754 0.0000 9.7932 0.0000
# 4 0.0000 0.0000 0.0000 11.7493 0.0000 5.0626
# 5 9.7056 0.6248 9.7932 0.0000 25.7866 0.0000
# 6 0.0000 0.0000 0.0000 5.0626 0.0000 33.8795
#
#
#
# Elastic Compliance Matrix: (Units=1/GPa)
#
#
# Indices 1 2 3 4 5 6 
#
# 1 0.011949 -0.004583 0.000145 0.000000 -0.004441 0.000000
# 2 -0.004583 0.015353 -0.011018 0.000000 0.005537 0.000000
# 3 0.000145 -0.011018 0.029564 0.000000 -0.011015 0.000000
# 4 0.000000 0.000000 0.000000 0.090968 0.000000 -0.013593
# 5 -0.004441 0.005537 -0.011015 0.000000 0.044501 0.000000
# 6 0.000000 0.000000 0.000000 -0.013593 0.000000 0.031548
#
#
# Mechanical properties :
#
#
# Convention : Reuss Voigt Hill
#
# Bulk Modulus (GPa) = 38.52960 50.41130 44.47045
# Shear Modulus (GPa) = 18.97911 25.09368 22.03640
#
# Velocity S-wave (km/s) = 2.95864 3.40201 3.18804
# Velocity P-wave (km/s) = 5.42604 6.21950 5.83627
#
# Compressibility (1/GPa) = 0.02595407
#
# Stress axis : x y z
#
# Youngs Moduli (GPa) = 83.68582 65.13417 33.82443
#
# Poissons Ratio (x) = 0.29849 -0.00489
# Poissons Ratio (y) = 0.38351 0.37268
# Poissons Ratio (z) = -0.01210 0.71766
#
# Static dielectric constant tensor:
#      x y z
#    x 3.821550 0.000000 0.089190 
#    y 0.000000 3.800280 0.000000 
#    z 0.089190 0.000000 3.823750 
# 
# 
# High freq. dielectric constant tensor:
#      x y z
#    x 1.844960 0.000000 0.012880 
#    y 0.000000 1.850600 0.000000 
#    z 0.012880 0.000000 1.846640 
# 
# From -- ./inp_files/110885.got.cif
#   From: 2010.06.25/outbox.cif.g09.slc.cpg/sg15_56_cif.got.tgz:110885.got - 2010.06.28 07:06:18.
