data_PCOD8146040
_publ_section_title
;
Structure prediction by ZEFSAII (Michael W. Deem and Ramdas Pophale) SiO2 
 PCOD8146040
Probable space group: C 2/C
;
_chemical_formula_sum "Si O2"
_cell_formula_units_Z 40
_cell_length_a 13.394154
_cell_length_b 14.423133
_cell_length_c 14.101979
_cell_angle_alpha 90.000000
_cell_angle_beta 42.623477
_cell_angle_gamma 90.000000
_cell_volume 1844.834868
_symmetry_space_group_name_H-M "C 2/C"
_symmetry_group_IT_number 15
_symmetry_cell_setting 'monoclinic'
loop_
_space_group_symop_operation_xyz
x,y,z
-x,y,1/2-z
-x,-y,-z
x,-y,1/2+z
1/2+x,1/2+y,z
1/2-x,1/2+y,1/2-z
1/2-x,1/2-y,-z
1/2+x,1/2-y,1/2+z
loop_
_atom_site_type_symbol
_atom_site_label
_atom_site_fract_x
_atom_site_fract_y
_atom_site_fract_z
Si Si1 0.140479 0.461635 0.510554
Si Si2 0.132483 0.070087 0.798632
Si Si3 0.961143 0.647927 0.988500
Si Si4 0.804007 0.064208 0.081132
Si Si5 0.771849 0.238643 0.233378
O O1 0.295096 0.471963 0.346456
O O2 0.054406 0.558740 0.566871
O O3 0.171179 0.440847 0.598895
O O4 0.039923 0.381061 0.533419
O O5 0.162025 0.179667 0.779189
O O6 0.210905 0.018808 0.832743
O O7 0.958916 0.052472 0.918601
O O8 0.801127 0.692085 0.122546
O O9 0.065114 0.720539 0.859387
O O10 0.791217 0.164169 0.137220
#
# Coordination Sequence:
#
# PCOD8146040 Si02
#       5
#     8   8   8   8   8
#     4  10  22  42  64  94 129 173 215 266 319 388
#     4  10  22  40  65  95 128 170 215 270 316 387
#     4  10  22  41  64  94 134 167 214 270 322 380
#     4  11  22  40  69  92 130 173 215 262 330 378
#     4  11  21  42  65  93 132 170 208 270 326 376
#
# _framework density 21.682155999999999
#
# number of rings (size 3 to 8) (size 9 to 14) (size 15 to 20)
#    0.000    1.600    4.000    0.600    0.000    4.000 
#    7.200    1.000    8.800    0.000    0.000    0.000 
#    0.000    0.000    0.000    0.000    0.000    0.000 
#
# Total GULP energy -247982.014797 kJ/mol
# GULP energy per Si atom -12399.100740 kJ/mol
# Density = 2.163281 g / cm^3
# Si number density = 21.682156 Si / 1000 Ang^3
#
#
#
# Elastic Constant Matrix: (Units=GPa)
#
#
# Indices 1 2 3 4 5 6 
#
# 1 44.3370 33.2700 1.0968 0.0001 3.6760 -0.0001
# 2 33.2700 118.1624 37.8787 0.0000 -10.9632 0.0000
# 3 1.0968 37.8787 85.7195 0.0000 -16.2316 -0.0001
# 4 0.0001 0.0000 0.0000 33.2230 -0.0001 -8.9764
# 5 3.6760 -10.9632 -16.2316 -0.0001 14.1387 0.0002
# 6 -0.0001 0.0000 -0.0001 -8.9764 0.0002 19.7686
#
#
#
# Elastic Compliance Matrix: (Units=1/GPa)
#
#
# Indices 1 2 3 4 5 6 
#
# 1 0.031913 -0.010874 0.001570 0.000000 -0.014926 0.000000
# 2 -0.010874 0.013692 -0.004301 0.000000 0.008507 0.000000
# 3 0.001570 -0.004301 0.016403 0.000000 0.015089 0.000000
# 4 0.000000 0.000000 0.000000 0.034309 0.000000 0.015579
# 5 -0.014926 0.008507 0.015089 0.000000 0.098527 -0.000001
# 6 0.000000 0.000000 0.000000 0.015579 -0.000001 0.057659
#
#
# Mechanical properties :
#
#
# Convention : Reuss Voigt Hill
#
# Bulk Modulus (GPa) = 28.73504 43.63442 36.18473
# Shear Modulus (GPa) = 17.16376 25.15760 21.16068
#
# Velocity S-wave (km/s) = 2.81660 3.41000 3.12741
# Velocity P-wave (km/s) = 4.88460 5.97264 5.45581
#
# Compressibility (1/GPa) = 0.03480072
#
# Stress axis : x y z
#
# Youngs Moduli (GPa) = 31.33560 73.03318 60.96301
#
# Poissons Ratio (x) = 0.79413 -0.09573
# Poissons Ratio (y) = 0.34073 0.26217
# Poissons Ratio (z) = -0.04921 0.31408
#
# Static dielectric constant tensor:
#      x y z
#    x 3.522000 0.000000 -0.287950 
#    y 0.000000 4.004570 0.000000 
#    z -0.287950 0.000000 4.181300 
# 
# 
# High freq. dielectric constant tensor:
#      x y z
#    x 1.806650 0.000000 -0.023550 
#    y 0.000000 1.861380 0.000000 
#    z -0.023550 0.000000 1.871640 
# 
# From -- ./inp_files/86269.got.cif
#   From: 2010.06.25/outbox.cif.g09.slc.cpg/sg15_44_cif.got.tgz:86269.got - 2010.06.28 07:06:18.
