data_PCOD8146062
_publ_section_title
;
Structure prediction by ZEFSAII (Michael W. Deem and Ramdas Pophale) SiO2 
 PCOD8146062
Probable space group: C 2/C
;
_chemical_formula_sum "Si O2"
_cell_formula_units_Z 48
_cell_length_a 9.349974
_cell_length_b 11.663662
_cell_length_c 22.899355
_cell_angle_alpha 90.000000
_cell_angle_beta 65.912902
_cell_angle_gamma 90.000000
_cell_volume 2279.839132
_symmetry_space_group_name_H-M "C 2/C"
_symmetry_group_IT_number 15
_symmetry_cell_setting 'monoclinic'
loop_
_space_group_symop_operation_xyz
x,y,z
-x,y,1/2-z
-x,-y,-z
x,-y,1/2+z
1/2+x,1/2+y,z
1/2-x,1/2+y,1/2-z
1/2-x,1/2-y,-z
1/2+x,1/2-y,1/2+z
loop_
_atom_site_type_symbol
_atom_site_label
_atom_site_fract_x
_atom_site_fract_y
_atom_site_fract_z
Si Si1 0.214743 0.193901 0.567790
Si Si2 0.667287 0.920709 0.154672
Si Si3 0.506254 0.508821 0.067694
Si Si4 0.994419 0.344900 0.685722
Si Si5 0.160043 0.225038 0.244351
Si Si6 0.471305 0.759066 0.112502
O O1 0.250000 0.250000 0.500000
O O2 0.378294 0.181502 0.574954
O O3 0.094122 0.273184 0.623086
O O4 0.144238 0.068067 0.571198
O O5 0.660746 0.851811 0.216217
O O6 0.615389 0.838530 0.109475
O O7 0.547101 0.024624 0.177602
O O8 0.840683 0.967610 0.119347
O O9 0.543052 0.638344 0.080200
O O10 0.500000 0.500000 0.000000
O O11 0.811318 0.344665 0.697456
O O12 0.000000 0.290753 0.750000
O O13 0.155522 0.238041 0.314949
O O14 0.000000 0.160472 0.250000
#
# Coordination Sequence:
#
# PCOD8146062 Si02
#       6
#     8   8   8   8   8   8
#     4  12  24  44  69 100 134 182 233 276 341 407
#     4  11  24  43  70 100 139 176 222 288 341 402
#     4  12  24  46  68  93 141 183 224 286 338 401
#     4  12  21  42  71  96 139 181 219 281 345 401
#     4  10  22  40  66 103 133 172 227 276 345 407
#     4  11  24  42  66 101 131 175 231 273 343 413
#
# _framework density 21.054117000000002
#
# number of rings (size 3 to 8) (size 9 to 14) (size 15 to 20)
#    0.000    0.667    6.667    1.500    0.000    3.333 
#    0.000    5.833    0.000    0.000    0.000    0.000 
#    0.000    0.000    0.000    0.000    0.000    0.000 
#
# Total GULP energy -297624.516343 kJ/mol
# GULP energy per Si atom -12401.021514 kJ/mol
# Density = 2.100620 g / cm^3
# Si number density = 21.054117 Si / 1000 Ang^3
#
#
#
# Elastic Constant Matrix: (Units=GPa)
#
#
# Indices 1 2 3 4 5 6 
#
# 1 89.8152 38.0487 16.0003 0.0000 5.7131 0.0000
# 2 38.0487 117.4122 25.1317 0.0000 10.3600 0.0000
# 3 16.0003 25.1317 106.4235 0.0000 18.7333 0.0000
# 4 0.0000 0.0000 0.0000 35.5856 0.0000 2.7071
# 5 5.7131 10.3600 18.7333 0.0000 38.2560 0.0000
# 6 0.0000 0.0000 0.0000 2.7071 0.0000 43.1817
#
#
#
# Elastic Compliance Matrix: (Units=1/GPa)
#
#
# Indices 1 2 3 4 5 6 
#
# 1 0.013014 -0.003979 -0.000946 0.000000 -0.000403 0.000000
# 2 -0.003979 0.010269 -0.001578 0.000000 -0.001414 0.000000
# 3 -0.000946 -0.001578 0.010737 0.000000 -0.004689 0.000000
# 4 0.000000 0.000000 0.000000 0.028236 0.000000 -0.001770
# 5 -0.000403 -0.001414 -0.004689 0.000000 0.028879 0.000000
# 6 0.000000 0.000000 0.000000 -0.001770 0.000000 0.023269
#
#
# Mechanical properties :
#
#
# Convention : Reuss Voigt Hill
#
# Bulk Modulus (GPa) = 47.58893 52.44582 50.01738
# Shear Modulus (GPa) = 37.19853 39.03600 38.11727
#
# Velocity S-wave (km/s) = 4.20790 4.31057 4.25955
# Velocity P-wave (km/s) = 6.80153 7.05257 6.92819
#
# Compressibility (1/GPa) = 0.02101329
#
# Stress axis : x y z
#
# Youngs Moduli (GPa) = 76.84114 97.38018 93.13909
#
# Poissons Ratio (x) = 0.38750 0.08811
# Poissons Ratio (y) = 0.30577 0.14696
# Poissons Ratio (z) = 0.07269 0.15365
#
# Static dielectric constant tensor:
#      x y z
#    x 5.998910 0.000000 -0.942600 
#    y 0.000000 3.968830 0.000000 
#    z -0.942600 0.000000 4.476590 
# 
# 
# High freq. dielectric constant tensor:
#      x y z
#    x 1.835260 0.000000 -0.000020 
#    y 0.000000 1.816930 0.000000 
#    z -0.000020 0.000000 1.835160 
# 
# From -- ./inp_files/263507.got.cif
#   From: 2010.06.25/outbox.cif.g09.slc.cpg/sg15_132_cif.got.tgz:263507.got - 2010.06.28 07:06:18.
