data_PCOD8146971
_publ_section_title
;
Structure prediction by ZEFSAII (Michael W. Deem and Ramdas Pophale) SiO2 
 PCOD8146971
Probable space group: C 2/C
;
_chemical_formula_sum "Si O2"
_cell_formula_units_Z 64
_cell_length_a 16.577851
_cell_length_b 9.673838
_cell_length_c 29.029950
_cell_angle_alpha 90.000000
_cell_angle_beta 139.547063
_cell_angle_gamma 90.000000
_cell_volume 3020.645221
_symmetry_space_group_name_H-M "C 2/C"
_symmetry_group_IT_number 15
_symmetry_cell_setting 'monoclinic'
loop_
_space_group_symop_operation_xyz
x,y,z
-x,y,1/2-z
-x,-y,-z
x,-y,1/2+z
1/2+x,1/2+y,z
1/2-x,1/2+y,1/2-z
1/2-x,1/2-y,-z
1/2+x,1/2-y,1/2+z
loop_
_atom_site_type_symbol
_atom_site_label
_atom_site_fract_x
_atom_site_fract_y
_atom_site_fract_z
Si Si1 0.182129 0.207794 0.361559
Si Si2 0.690345 0.764727 0.176570
Si Si3 0.933425 0.009167 0.905138
Si Si4 0.918119 0.824922 0.779127
Si Si5 0.314389 0.534954 0.947992
Si Si6 0.715733 0.253687 0.431419
Si Si7 0.138463 0.453217 0.069367
Si Si8 0.938368 0.133881 0.813556
O O1 0.143783 0.245420 0.292498
O O2 0.224808 0.335123 0.411788
O O3 0.065075 0.158971 0.339483
O O4 0.281770 0.088927 0.402041
O O5 0.656401 0.620072 0.139592
O O6 0.619876 0.774057 0.195021
O O7 0.649311 0.889613 0.125361
O O8 0.839472 0.759135 0.249233
O O9 0.892385 0.069978 0.935663
O O10 0.920358 0.127439 0.860863
O O11 0.079671 0.966378 0.966593
O O12 0.887273 0.986902 0.772070
O O13 0.228576 0.398543 0.914482
O O14 0.750000 0.250000 0.500000
O O15 0.818922 0.344402 0.450600
O O16 0.577658 0.315196 0.361315
O O17 0.000000 0.500000 0.000000
#
# Coordination Sequence:
#
# PCOD8146971 Si02
#       8
#     8   8   8   8   8   8   8   8
#     4  11  23  44  70 100 139 187 227 292 352 412
#     4  11  23  43  69 101 132 184 235 281 350 422
#     4  10  22  42  67  98 136 179 222 286 348 404
#     4  10  23  43  68 100 140 180 232 290 358 409
#     4  11  23  43  69  97 142 178 230 285 350 412
#     4  12  26  47  70 106 137 187 234 295 353 421
#     4  12  26  45  72 103 136 186 242 282 348 433
#     4  11  22  44  71  95 142 182 232 290 350 422
#
# _framework density 21.187525999999998
#
# number of rings (size 3 to 8) (size 9 to 14) (size 15 to 20)
#    0.000    1.000    5.000    1.500    1.750    2.500 
#    9.000    2.500    0.000    0.000    0.000    0.000 
#    0.000    0.000    0.000    0.000    0.000    0.000 
#
# Total GULP energy -396596.024976 kJ/mol
# GULP energy per Si atom -12393.625780 kJ/mol
# Density = 2.113930 g / cm^3
# Si number density = 21.187526 Si / 1000 Ang^3
#
#
#
# Elastic Constant Matrix: (Units=GPa)
#
#
# Indices 1 2 3 4 5 6 
#
# 1 107.3720 31.0746 38.8503 0.0000 6.6210 0.0000
# 2 31.0746 106.0413 34.0522 0.0000 9.3452 0.0000
# 3 38.8503 34.0522 115.1033 0.0000 20.0385 0.0000
# 4 0.0000 0.0000 0.0000 34.1463 0.0000 0.8961
# 5 6.6210 9.3452 20.0385 0.0000 32.9596 0.0000
# 6 0.0000 0.0000 0.0000 0.8961 0.0000 33.5627
#
#
#
# Elastic Compliance Matrix: (Units=1/GPa)
#
#
# Indices 1 2 3 4 5 6 
#
# 1 0.011082 -0.002272 -0.003123 0.000000 0.000317 0.000000
# 2 -0.002272 0.010929 -0.002244 0.000000 -0.001278 0.000000
# 3 -0.003123 -0.002244 0.011392 0.000000 -0.005662 0.000000
# 4 0.000000 0.000000 0.000000 0.029306 0.000000 -0.000782
# 5 0.000317 -0.001278 -0.005662 0.000000 0.034081 0.000000
# 6 0.000000 0.000000 0.000000 -0.000782 0.000000 0.029816
#
#
# Mechanical properties :
#
#
# Convention : Reuss Voigt Hill
#
# Bulk Modulus (GPa) = 55.17667 59.60787 57.39227
# Shear Modulus (GPa) = 33.80063 35.10302 34.45183
#
# Velocity S-wave (km/s) = 3.99846 4.07477 4.03680
# Velocity P-wave (km/s) = 6.88589 7.09457 6.99101
#
# Compressibility (1/GPa) = 0.01812360
#
# Stress axis : x y z
#
# Youngs Moduli (GPa) = 90.23968 91.49645 87.78410
#
# Poissons Ratio (x) = 0.20791 0.27417
# Poissons Ratio (y) = 0.20506 0.19697
# Poissons Ratio (z) = 0.28184 0.20530
#
# Static dielectric constant tensor:
#      x y z
#    x 4.027270 0.000000 0.015620 
#    y 0.000000 3.742800 0.000000 
#    z 0.015620 0.000000 4.175080 
# 
# 
# High freq. dielectric constant tensor:
#      x y z
#    x 1.838720 0.000000 0.001780 
#    y 0.000000 1.821150 0.000000 
#    z 0.001780 0.000000 1.843150 
# 
# From -- ./inp_files/315758.got.cif
#   From: 2010.06.25/outbox.cif.g09.slc.cpg/sg15_158_cif.got.tgz:315758.got - 2010.06.28 07:06:18.
