data_PCOD8146562
_publ_section_title
;
Structure prediction by ZEFSAII (Michael W. Deem and Ramdas Pophale) SiO2 
 PCOD8146562
Probable space group: C 2/C
;
_chemical_formula_sum "Si O2"
_cell_formula_units_Z 48
_cell_length_a 27.723844
_cell_length_b 16.129323
_cell_length_c 14.775344
_cell_angle_alpha 90.000000
_cell_angle_beta 20.243853
_cell_angle_gamma 90.000000
_cell_volume 2286.145519
_symmetry_space_group_name_H-M "C 2/C"
_symmetry_group_IT_number 15
_symmetry_cell_setting 'monoclinic'
loop_
_space_group_symop_operation_xyz
x,y,z
-x,y,1/2-z
-x,-y,-z
x,-y,1/2+z
1/2+x,1/2+y,z
1/2-x,1/2+y,1/2-z
1/2-x,1/2-y,-z
1/2+x,1/2-y,1/2+z
loop_
_atom_site_type_symbol
_atom_site_label
_atom_site_fract_x
_atom_site_fract_y
_atom_site_fract_z
Si Si1 0.075513 0.089696 0.726025
Si Si2 0.000000 0.434118 0.250000
Si Si3 0.740975 0.154978 0.760045
Si Si4 0.773168 0.662503 0.504679
Si Si5 0.786906 0.842812 0.691812
Si Si6 0.490110 0.050962 0.426602
Si Si7 0.000000 0.062367 0.250000
O O1 0.148224 0.099824 0.695427
O O2 0.165986 0.147278 0.496566
O O3 0.080456 0.995408 0.681344
O O4 0.913744 0.115264 0.023684
O O5 0.946680 0.491827 0.262332
O O6 0.865018 0.382194 0.521002
O O7 0.722530 0.248330 0.756499
O O8 0.898504 0.124456 0.480218
O O9 0.700168 0.160754 0.936057
O O10 0.657238 0.087446 0.847928
O O11 0.750000 0.750000 0.500000
O O12 0.917857 0.630236 0.211268
O O13 0.500000 0.000000 0.500000
#
# Coordination Sequence:
#
# PCOD8146562 Si02
#       7
#     8   4   8   8   8   8   4
#     4  10  22  42  64  92 132 173 210 282 333 388
#     4  12  23  46  69 104 132 182 222 288 339 400
#     4  12  23  43  66  97 129 178 224 274 336 406
#     4  12  23  39  68  98 127 169 231 275 330 402
#     4  10  22  41  68  92 138 170 221 275 336 394
#     4  12  26  44  70  99 135 174 230 282 336 404
#     4  10  23  40  61  90 134 170 214 276 335 396
#
# _framework density 20.996037999999999
#
# number of rings (size 3 to 8) (size 9 to 14) (size 15 to 20)
#    0.000    1.000    3.333    5.500    2.333    0.667 
#    3.000    0.833    0.000    0.000    0.000    0.000 
#    0.000    0.000    0.000    0.000    0.000    0.000 
#
# Total GULP energy -297352.136805 kJ/mol
# GULP energy per Si atom -12389.672367 kJ/mol
# Density = 2.094825 g / cm^3
# Si number density = 20.996038 Si / 1000 Ang^3
#
#
#
# Elastic Constant Matrix: (Units=GPa)
#
#
# Indices 1 2 3 4 5 6 
#
# 1 113.6688 31.1487 28.8372 0.0004 -4.2345 -0.0005
# 2 31.1487 116.0632 56.1781 0.0005 8.5757 -0.0004
# 3 28.8372 56.1781 120.8671 0.0006 -12.3035 -0.0005
# 4 0.0004 0.0005 0.0006 35.8185 -0.0005 -12.2569
# 5 -4.2345 8.5757 -12.3035 -0.0005 26.5158 0.0003
# 6 -0.0005 -0.0004 -0.0005 -12.2569 0.0003 26.5445
#
#
#
# Elastic Compliance Matrix: (Units=1/GPa)
#
#
# Indices 1 2 3 4 5 6 
#
# 1 0.009751 -0.002201 -0.001126 0.000000 0.001747 0.000000
# 2 -0.002201 0.012712 -0.006127 0.000000 -0.007306 0.000000
# 3 -0.001126 -0.006127 0.012147 0.000000 0.007438 0.000000
# 4 0.000000 0.000000 0.000000 0.033158 0.000001 0.015311
# 5 0.001747 -0.007306 0.007438 0.000001 0.043807 0.000000
# 6 0.000000 0.000000 0.000000 0.015311 0.000000 0.044742
#
#
# Mechanical properties :
#
#
# Convention : Reuss Voigt Hill
#
# Bulk Modulus (GPa) = 63.68279 64.76966 64.22622
# Shear Modulus (GPa) = 27.70706 33.40477 30.55592
#
# Velocity S-wave (km/s) = 3.63662 3.99307 3.81900
# Velocity P-wave (km/s) = 6.93037 7.22322 7.07831
#
# Compressibility (1/GPa) = 0.01570283
#
# Stress axis : x y z
#
# Youngs Moduli (GPa) = 102.54998 78.66404 82.32438
#
# Poissons Ratio (x) = 0.17316 0.09266
# Poissons Ratio (y) = 0.22574 0.50441
# Poissons Ratio (z) = 0.11543 0.48198
#
# Static dielectric constant tensor:
#      x y z
#    x 3.860130 0.000000 -0.163940 
#    y 0.000000 4.261610 0.000010 
#    z -0.163940 0.000010 3.609820 
# 
# 
# High freq. dielectric constant tensor:
#      x y z
#    x 1.817780 0.000000 -0.017520 
#    y 0.000000 1.834950 0.000000 
#    z -0.017520 0.000000 1.816350 
# 
# From -- ./inp_files/182484.got.cif
#   From: 2010.06.25/outbox.cif.g09.slc.cpg/sg15_92_cif.got.tgz:182484.got - 2010.06.28 07:06:18.
