data_PCOD8146791
_publ_section_title
;
Structure prediction by ZEFSAII (Michael W. Deem and Ramdas Pophale) SiO2 
 PCOD8146791
Probable space group: C 2/C
;
_chemical_formula_sum "Si O2"
_cell_formula_units_Z 32
_cell_length_a 13.471451
_cell_length_b 7.326697
_cell_length_c 26.110605
_cell_angle_alpha 90.000000
_cell_angle_beta 40.422043
_cell_angle_gamma 90.000000
_cell_volume 1671.056540
_symmetry_space_group_name_H-M "C 2/C"
_symmetry_group_IT_number 15
_symmetry_cell_setting 'monoclinic'
loop_
_space_group_symop_operation_xyz
x,y,z
-x,y,1/2-z
-x,-y,-z
x,-y,1/2+z
1/2+x,1/2+y,z
1/2-x,1/2+y,1/2-z
1/2-x,1/2-y,-z
1/2+x,1/2-y,1/2+z
loop_
_atom_site_type_symbol
_atom_site_label
_atom_site_fract_x
_atom_site_fract_y
_atom_site_fract_z
Si Si1 0.878560 0.466748 0.686234
Si Si2 0.578952 0.648577 0.357869
Si Si3 0.367230 0.330886 0.413261
Si Si4 0.860080 0.415089 0.085167
O O1 0.734452 0.450656 0.779937
O O2 0.949362 0.670476 0.666302
O O3 0.823792 0.451713 0.647963
O O4 0.003135 0.315322 0.651603
O O5 0.437679 0.512309 0.410192
O O6 0.594293 0.714395 0.410974
O O7 0.250000 0.250000 0.500000
O O8 0.287101 0.392699 0.392543
O O9 0.000000 0.500000 0.000000
#
# Coordination Sequence:
#
# PCOD8146791 Si02
#       4
#     8   8   8   8
#     4  10  22  42  64  94 132 169 222 277 322 392
#     4  10  23  42  65  93 134 171 221 273 330 389
#     4  12  22  42  68  94 132 174 217 273 333 390
#     4  10  23  42  64  98 133 164 224 276 319 390
#
# _framework density 19.149562
#
# number of rings (size 3 to 8) (size 9 to 14) (size 15 to 20)
#    1.500    0.000    5.000    0.000    0.000    9.000 
#    4.500    2.500    0.000    0.000    0.000    0.000 
#    0.000    0.000    0.000    0.000    0.000    0.000 
#
# Total GULP energy -198284.548553 kJ/mol
# GULP energy per Si atom -12392.784285 kJ/mol
# Density = 1.910598 g / cm^3
# Si number density = 19.149562 Si / 1000 Ang^3
#
#
#
# Elastic Constant Matrix: (Units=GPa)
#
#
# Indices 1 2 3 4 5 6 
#
# 1 110.6481 37.4480 59.4583 0.0001 -18.7693 -0.0004
# 2 37.4480 102.7547 53.4721 0.0001 -10.6889 -0.0010
# 3 59.4583 53.4721 115.1332 -0.0001 3.5526 0.0000
# 4 0.0001 0.0001 -0.0001 47.1890 0.0002 -7.1470
# 5 -18.7693 -10.6889 3.5526 0.0002 20.0262 0.0003
# 6 -0.0004 -0.0010 0.0000 -7.1470 0.0003 46.3612
#
#
#
# Elastic Compliance Matrix: (Units=1/GPa)
#
#
# Indices 1 2 3 4 5 6 
#
# 1 0.017093 0.000713 -0.009718 0.000000 0.018124 0.000000
# 2 0.000713 0.014259 -0.007286 0.000000 0.009572 0.000000
# 3 -0.009718 -0.007286 0.017585 0.000000 -0.016116 0.000000
# 4 0.000000 0.000000 0.000000 0.021698 0.000000 0.003345
# 5 0.018124 0.009572 -0.016116 0.000000 0.074889 0.000000
# 6 0.000000 0.000000 0.000000 0.003345 0.000000 0.022085
#
#
# Mechanical properties :
#
#
# Convention : Reuss Voigt Hill
#
# Bulk Modulus (GPa) = 61.14011 69.92143 65.53077
# Shear Modulus (GPa) = 24.31395 34.59246 29.45320
#
# Velocity S-wave (km/s) = 3.56713 4.25483 3.92607
# Velocity P-wave (km/s) = 6.99735 7.79299 7.40586
#
# Compressibility (1/GPa) = 0.01635588
#
# Stress axis : x y z
#
# Youngs Moduli (GPa) = 58.50467 70.12936 56.86581
#
# Poissons Ratio (x) = -0.05000 0.55260
# Poissons Ratio (y) = -0.04171 0.41433
# Poissons Ratio (z) = 0.56852 0.51097
#
# Static dielectric constant tensor:
#      x y z
#    x 3.662120 -0.000010 -0.083900 
#    y -0.000010 3.758490 0.000000 
#    z -0.083900 0.000000 3.464390 
# 
# 
# High freq. dielectric constant tensor:
#      x y z
#    x 1.725780 0.000000 -0.000620 
#    y 0.000000 1.752590 0.000000 
#    z -0.000620 0.000000 1.750260 
# 
# From -- ./inp_files/180632.got.cif
#   From: 2010.06.25/outbox.cif.g09.slc.cpg/sg15_91_cif.got.tgz:180632.got - 2010.06.28 07:06:18.
