data_PCOD8146848
_publ_section_title
;
Structure prediction by ZEFSAII (Michael W. Deem and Ramdas Pophale) SiO2 
 PCOD8146848
Probable space group: C 2/C
;
_chemical_formula_sum "Si O2"
_cell_formula_units_Z 28
_cell_length_a 8.977990
_cell_length_b 11.328287
_cell_length_c 15.218198
_cell_angle_alpha 90.000000
_cell_angle_beta 40.614224
_cell_angle_gamma 90.000000
_cell_volume 1007.540909
_symmetry_space_group_name_H-M "C 2/C"
_symmetry_group_IT_number 15
_symmetry_cell_setting 'monoclinic'
loop_
_space_group_symop_operation_xyz
x,y,z
-x,y,1/2-z
-x,-y,-z
x,-y,1/2+z
1/2+x,1/2+y,z
1/2-x,1/2+y,1/2-z
1/2-x,1/2-y,-z
1/2+x,1/2-y,1/2+z
loop_
_atom_site_type_symbol
_atom_site_label
_atom_site_fract_x
_atom_site_fract_y
_atom_site_fract_z
Si Si1 0.226671 0.588835 0.984715
Si Si2 0.701008 0.640198 0.857420
Si Si3 0.540362 0.167005 0.555715
Si Si4 0.500000 0.928832 0.750000
O O1 0.474529 0.633839 0.901115
O O2 0.166338 0.650489 0.920645
O O3 0.203398 0.447738 0.983988
O O4 0.036642 0.639992 0.141678
O O5 0.915595 0.689575 0.704828
O O6 0.765062 0.506165 0.855050
O O7 0.679997 0.717103 0.958309
#
# Coordination Sequence:
#
# PCOD8146848 Si02
#       4
#     8   8   8   4
#     4  10  22  42  65  97 134 174 219 275 330 404
#     4  11  23  44  66  98 135 171 224 277 328 407
#     4  10  24  43  67 101 129 176 226 266 346 391
#     4  10  24  42  64 102 122 176 224 264 350 382
#
# _framework density 27.790434000000001
#
# number of rings (size 3 to 8) (size 9 to 14) (size 15 to 20)
#    0.000    1.714    0.000    2.571    4.000    4.571 
#   25.714    0.000    0.000    0.000    0.000    0.000 
#    0.000    0.000    0.000    0.000    0.000    0.000 
#
# Total GULP energy -173554.721432 kJ/mol
# GULP energy per Si atom -12396.765817 kJ/mol
# Density = 2.772718 g / cm^3
# Si number density = 27.790434 Si / 1000 Ang^3
#
#
#
# Elastic Constant Matrix: (Units=GPa)
#
#
# Indices 1 2 3 4 5 6 
#
# 1 67.8446 7.8381 27.3641 -0.0002 15.6312 0.0001
# 2 7.8381 71.3583 22.5737 -0.0002 -6.5690 0.0001
# 3 27.3641 22.5737 127.6321 -0.0009 26.2826 0.0002
# 4 -0.0002 -0.0002 -0.0009 42.2518 0.0003 5.6476
# 5 15.6312 -6.5690 26.2826 0.0003 59.8679 -0.0001
# 6 0.0001 0.0001 0.0002 5.6476 -0.0001 43.6218
#
#
#
# Elastic Compliance Matrix: (Units=1/GPa)
#
#
# Indices 1 2 3 4 5 6 
#
# 1 0.016737 -0.001301 -0.002670 0.000000 -0.003340 0.000000
# 2 -0.001301 0.015473 -0.003163 0.000000 0.003426 0.000000
# 3 -0.002670 -0.003163 0.009779 0.000000 -0.003943 0.000000
# 4 0.000000 0.000000 0.000000 0.024084 0.000000 -0.003118
# 5 -0.003340 0.003426 -0.003943 0.000000 0.019682 0.000000
# 6 0.000000 0.000000 0.000000 -0.003118 0.000000 0.023328
#
#
# Mechanical properties :
#
#
# Convention : Reuss Voigt Hill
#
# Bulk Modulus (GPa) = 36.07634 42.48743 39.28188
# Shear Modulus (GPa) = 37.70967 43.08556 40.39762
#
# Velocity S-wave (km/s) = 3.68765 3.94175 3.81682
# Velocity P-wave (km/s) = 5.58045 6.00318 5.79567
#
# Compressibility (1/GPa) = 0.02771900
#
# Stress axis : x y z
#
# Youngs Moduli (GPa) = 59.74960 64.62976 102.26075
#
# Poissons Ratio (x) = 0.08409 0.27307
# Poissons Ratio (y) = 0.07774 0.32347
# Poissons Ratio (z) = 0.15955 0.20443
#
# Static dielectric constant tensor:
#      x y z
#    x 5.797350 0.000000 0.511930 
#    y 0.000000 5.079280 0.000000 
#    z 0.511930 0.000000 5.117420 
# 
# 
# High freq. dielectric constant tensor:
#      x y z
#    x 2.177000 0.000000 0.014120 
#    y 0.000000 2.107590 0.000000 
#    z 0.014120 0.000000 2.124710 
# 
# From -- ./inp_files/27302.got.cif
#   From: 2010.06.25/outbox.cif.g09.slc.cpg/sg15_14_cif.got.tgz:27302.got - 2010.06.28 07:06:18.
