data_PCOD8146385
_publ_section_title
;
Structure prediction by ZEFSAII (Michael W. Deem and Ramdas Pophale) SiO2 
 PCOD8146385
Probable space group: C 2/C
;
_chemical_formula_sum "Si O2"
_cell_formula_units_Z 44
_cell_length_a 12.964198
_cell_length_b 5.028776
_cell_length_c 31.050654
_cell_angle_alpha 90.000000
_cell_angle_beta 106.378670
_cell_angle_gamma 90.000000
_cell_volume 1942.169014
_symmetry_space_group_name_H-M "C 2/C"
_symmetry_group_IT_number 15
_symmetry_cell_setting 'monoclinic'
loop_
_space_group_symop_operation_xyz
x,y,z
-x,y,1/2-z
-x,-y,-z
x,-y,1/2+z
1/2+x,1/2+y,z
1/2-x,1/2+y,1/2-z
1/2-x,1/2-y,-z
1/2+x,1/2-y,1/2+z
loop_
_atom_site_type_symbol
_atom_site_label
_atom_site_fract_x
_atom_site_fract_y
_atom_site_fract_z
Si Si1 0.663619 0.179458 0.389570
Si Si2 0.694487 0.321993 0.225614
Si Si3 0.175217 0.179607 0.333940
Si Si4 0.883856 0.720363 0.956144
Si Si5 0.500000 0.514530 0.250000
Si Si6 0.504794 0.272780 0.443580
O O1 0.679231 0.381384 0.352129
O O2 0.761362 0.200187 0.434470
O O3 0.554739 0.239347 0.402344
O O4 0.656198 0.882671 0.370340
O O5 0.746148 0.613500 0.236478
O O6 0.711745 0.239194 0.177508
O O7 0.569015 0.332660 0.224703
O O8 0.079874 0.199984 0.287294
O O9 0.905854 0.431084 0.938106
O O10 0.963141 0.927616 0.942254
O O11 0.904925 0.713899 0.009672
#
# Coordination Sequence:
#
# PCOD8146385 Si02
#       6
#     8   8   8   8   4   8
#     4  12  24  41  62  95 129 160 202 258 309 358
#     4  10  22  42  64  88 115 154 207 253 305 368
#     4  11  25  40  64  93 122 162 209 254 311 365
#     4  10  22  41  64  92 128 163 207 252 294 365
#     4  10  24  46  66  84 122 168 204 256 310 366
#     4  10  22  41  66  93 123 169 205 240 309 369
#
# _framework density 22.655083999999999
#
# number of rings (size 3 to 8) (size 9 to 14) (size 15 to 20)
#    0.000    1.455    0.000    4.909    0.000   10.909 
#    0.000   12.727    0.000    0.000    0.000    0.000 
#    0.000    0.000    0.000    0.000    0.000    0.000 
#
# Total GULP energy -272891.167466 kJ/mol
# GULP energy per Si atom -12404.143976 kJ/mol
# Density = 2.260352 g / cm^3
# Si number density = 22.655084 Si / 1000 Ang^3
#
#
#
# Elastic Constant Matrix: (Units=GPa)
#
#
# Indices 1 2 3 4 5 6 
#
# 1 102.9454 10.9130 21.8924 0.0000 -22.5517 0.0000
# 2 10.9130 81.9414 11.8227 0.0000 -4.4512 0.0001
# 3 21.8924 11.8227 51.8761 0.0000 -16.9769 0.0000
# 4 0.0000 0.0000 0.0000 35.2730 0.0000 -3.1688
# 5 -22.5517 -4.4512 -16.9769 0.0000 49.1949 0.0000
# 6 0.0000 0.0001 0.0000 -3.1688 0.0000 24.5213
#
#
#
# Elastic Compliance Matrix: (Units=1/GPa)
#
#
# Indices 1 2 3 4 5 6 
#
# 1 0.011381 -0.000821 -0.003306 0.000000 0.004002 0.000000
# 2 -0.000821 0.012679 -0.002582 0.000000 -0.000120 0.000000
# 3 -0.003306 -0.002582 0.023322 0.000000 0.006299 0.000000
# 4 0.000000 0.000000 0.000000 0.028683 0.000000 0.003707
# 5 0.004002 -0.000120 0.006299 0.000000 0.024325 0.000000
# 6 0.000000 0.000000 0.000000 0.003707 0.000000 0.041260
#
#
# Mechanical properties :
#
#
# Convention : Reuss Voigt Hill
#
# Bulk Modulus (GPa) = 29.44440 36.22436 32.83438
# Shear Modulus (GPa) = 30.04992 34.60684 32.32838
#
# Velocity S-wave (km/s) = 3.64594 3.91263 3.78164
# Velocity P-wave (km/s) = 5.54517 6.03621 5.79589
#
# Compressibility (1/GPa) = 0.03396232
#
# Stress axis : x y z
#
# Youngs Moduli (GPa) = 87.86826 78.86876 42.87829
#
# Poissons Ratio (x) = 0.06478 0.14175
# Poissons Ratio (y) = 0.07217 0.11073
# Poissons Ratio (z) = 0.29049 0.20368
#
# Static dielectric constant tensor:
#      x y z
#    x 4.041880 0.000000 -0.104850 
#    y 0.000000 4.004030 0.000000 
#    z -0.104850 0.000000 3.959250 
# 
# 
# High freq. dielectric constant tensor:
#      x y z
#    x 1.889680 0.000000 -0.012500 
#    y 0.000000 1.899980 0.000000 
#    z -0.012500 0.000000 1.890390 
# 
# From -- ./inp_files/309447.got.cif
#   From: 2010.06.25/outbox.cif.g09.slc.cpg/sg15_155_cif.got.tgz:309447.got - 2010.06.28 07:06:18.
