data_PCOD8146371
_publ_section_title
;
Structure prediction by ZEFSAII (Michael W. Deem and Ramdas Pophale) SiO2 
 PCOD8146371
Probable space group: C 2/C
;
_chemical_formula_sum "Si O2"
_cell_formula_units_Z 44
_cell_length_a 17.501485
_cell_length_b 7.805277
_cell_length_c 14.485143
_cell_angle_alpha 90.000000
_cell_angle_beta 116.632041
_cell_angle_gamma 90.000000
_cell_volume 1768.791908
_symmetry_space_group_name_H-M "C 2/C"
_symmetry_group_IT_number 15
_symmetry_cell_setting 'monoclinic'
loop_
_space_group_symop_operation_xyz
x,y,z
-x,y,1/2-z
-x,-y,-z
x,-y,1/2+z
1/2+x,1/2+y,z
1/2-x,1/2+y,1/2-z
1/2-x,1/2-y,-z
1/2+x,1/2-y,1/2+z
loop_
_atom_site_type_symbol
_atom_site_label
_atom_site_fract_x
_atom_site_fract_y
_atom_site_fract_z
Si Si1 0.104446 0.528438 0.473940
Si Si2 0.585250 0.595905 0.015844
Si Si3 0.288992 0.424827 0.556234
Si Si4 0.369603 0.100660 0.318795
Si Si5 0.311960 0.716332 0.259982
Si Si6 0.000000 0.556760 0.250000
O O1 0.064549 0.717357 0.463747
O O2 0.207053 0.552836 0.516305
O O3 0.087135 0.411503 0.555520
O O4 0.054906 0.447390 0.357196
O O5 0.645323 0.608368 0.136626
O O6 0.500000 0.500000 0.000000
O O7 0.635403 0.486810 0.967219
O O8 0.250000 0.250000 0.500000
O O9 0.330567 0.392060 0.678299
O O10 0.345691 0.908892 0.272949
O O11 0.434091 0.171349 0.274933
O O12 0.289941 0.227581 0.277664
#
# Coordination Sequence:
#
# PCOD8146371 Si02
#       6
#     8   8   8   8   8   4
#     4  10  24  41  62  92 128 164 206 252 307 375
#     4  11  25  42  62  94 128 161 207 258 308 367
#     4  11  23  42  68  93 120 164 212 252 308 376
#     4  10  23  41  64  91 121 161 206 251 306 368
#     4  10  22  41  64  88 125 163 200 253 310 365
#     4  12  22  38  66  94 124 160 204 258 308 352
#
# _framework density 24.875734999999999
#
# number of rings (size 3 to 8) (size 9 to 14) (size 15 to 20)
#    0.000    1.455    0.000    4.364    0.000   15.273 
#    0.000    0.000    0.000    1.091    0.000    0.000 
#    0.000    0.000    0.000    0.000    0.000    0.000 
#
# Total GULP energy -272685.447218 kJ/mol
# GULP energy per Si atom -12394.793055 kJ/mol
# Density = 2.481912 g / cm^3
# Si number density = 24.875735 Si / 1000 Ang^3
#
#
#
# Elastic Constant Matrix: (Units=GPa)
#
#
# Indices 1 2 3 4 5 6 
#
# 1 182.2201 32.4962 42.5512 0.0000 -33.9852 0.0000
# 2 32.4962 45.2856 16.5825 0.0000 0.6961 0.0000
# 3 42.5512 16.5825 203.0906 0.0000 -15.0845 0.0000
# 4 0.0000 0.0000 0.0000 22.0306 0.0000 0.0646
# 5 -33.9852 0.6961 -15.0845 0.0000 38.0942 0.0000
# 6 0.0000 0.0000 0.0000 0.0646 0.0000 24.2484
#
#
#
# Elastic Compliance Matrix: (Units=1/GPa)
#
#
# Indices 1 2 3 4 5 6 
#
# 1 0.007924 -0.005537 -0.000696 0.000000 0.006895 0.000000
# 2 -0.005537 0.026684 -0.001465 0.000000 -0.006007 0.000000
# 3 -0.000696 -0.001465 0.005301 0.000000 0.001505 0.000000
# 4 0.000000 0.000000 0.000000 0.045392 0.000000 -0.000121
# 5 0.006895 -0.006007 0.001505 0.000000 0.033107 0.000000
# 6 0.000000 0.000000 0.000000 -0.000121 0.000000 0.041240
#
#
# Mechanical properties :
#
#
# Convention : Reuss Voigt Hill
#
# Bulk Modulus (GPa) = 40.79439 68.20624 54.50031
# Shear Modulus (GPa) = 27.29029 39.47239 33.38134
#
# Velocity S-wave (km/s) = 3.31579 3.98777 3.66720
# Velocity P-wave (km/s) = 5.57621 6.97720 6.31567
#
# Compressibility (1/GPa) = 0.02451318
#
# Stress axis : x y z
#
# Youngs Moduli (GPa) = 126.20313 37.47544 188.63938
#
# Poissons Ratio (x) = 0.20750 0.13129
# Poissons Ratio (y) = 0.69880 0.27633
# Poissons Ratio (z) = 0.08783 0.05490
#
# Static dielectric constant tensor:
#      x y z
#    x 4.579320 0.000000 0.075530 
#    y 0.000000 4.096750 0.000000 
#    z 0.075530 0.000000 5.098520 
# 
# 
# High freq. dielectric constant tensor:
#      x y z
#    x 2.009440 0.000000 -0.004450 
#    y 0.000000 1.949590 0.000000 
#    z -0.004450 0.000000 2.017140 
# 
# From -- ./inp_files/159668.got.cif
#   From: 2010.06.25/outbox.cif.g09.slc.cpg/sg15_80_cif.got.tgz:159668.got - 2010.06.28 07:06:18.
