data_PCOD8146362
_publ_section_title
;
Structure prediction by ZEFSAII (Michael W. Deem and Ramdas Pophale) SiO2 
 PCOD8146362
Probable space group: C 2/C
;
_chemical_formula_sum "Si O2"
_cell_formula_units_Z 44
_cell_length_a 12.319245
_cell_length_b 7.612350
_cell_length_c 20.795874
_cell_angle_alpha 90.000000
_cell_angle_beta 117.858837
_cell_angle_gamma 90.000000
_cell_volume 1724.178332
_symmetry_space_group_name_H-M "C 2/C"
_symmetry_group_IT_number 15
_symmetry_cell_setting 'monoclinic'
loop_
_space_group_symop_operation_xyz
x,y,z
-x,y,1/2-z
-x,-y,-z
x,-y,1/2+z
1/2+x,1/2+y,z
1/2-x,1/2+y,1/2-z
1/2-x,1/2-y,-z
1/2+x,1/2-y,1/2+z
loop_
_atom_site_type_symbol
_atom_site_label
_atom_site_fract_x
_atom_site_fract_y
_atom_site_fract_z
Si Si1 0.799214 0.228775 0.856729
Si Si2 0.538012 0.537897 0.896104
Si Si3 0.305385 0.989259 0.961558
Si Si4 0.500000 0.345249 0.250000
Si Si5 0.522958 0.146439 0.597633
Si Si6 0.156754 0.457114 0.740550
O O1 0.766188 0.298941 0.918668
O O2 0.760515 0.382265 0.795173
O O3 0.731718 0.051284 0.817698
O O4 0.948107 0.193262 0.896680
O O5 0.680377 0.577014 0.955221
O O6 0.536746 0.528600 0.818479
O O7 0.492573 0.354237 0.911780
O O8 0.369475 0.101990 0.923184
O O9 0.397960 0.955839 0.045544
O O10 0.389115 0.218788 0.238461
O O11 0.554977 0.084411 0.679536
#
# Coordination Sequence:
#
# PCOD8146362 Si02
#       6
#     8   8   8   4   8   8
#     4  10  23  40  66  96 130 165 223 269 324 381
#     4  11  24  41  66  96 127 168 217 271 314 397
#     4  10  24  45  66  96 129 173 213 266 332 395
#     4  10  26  38  62 104 126 170 230 254 338 376
#     4  10  23  43  68  93 133 171 214 268 331 381
#     4  10  22  41  63  97 132 168 217 278 314 395
#
# _framework density 25.519401999999999
#
# number of rings (size 3 to 8) (size 9 to 14) (size 15 to 20)
#    0.000    1.818    0.000    1.636   17.818    0.727 
#    0.000   14.545    0.000    0.000    0.000    0.000 
#    0.000    0.000    0.000    0.000    0.000    0.000 
#
# Total GULP energy -272718.660905 kJ/mol
# GULP energy per Si atom -12396.302768 kJ/mol
# Density = 2.546132 g / cm^3
# Si number density = 25.519402 Si / 1000 Ang^3
#
#
#
# Elastic Constant Matrix: (Units=GPa)
#
#
# Indices 1 2 3 4 5 6 
#
# 1 59.1414 3.9263 33.9583 0.0000 20.3593 0.0000
# 2 3.9263 57.2822 14.6518 0.0000 10.6572 0.0000
# 3 33.9583 14.6518 81.9105 0.0000 26.1275 0.0000
# 4 0.0000 0.0000 0.0000 34.3932 0.0000 5.3848
# 5 20.3593 10.6572 26.1275 0.0000 32.4915 0.0000
# 6 0.0000 0.0000 0.0000 5.3848 0.0000 25.5227
#
#
#
# Elastic Compliance Matrix: (Units=1/GPa)
#
#
# Indices 1 2 3 4 5 6 
#
# 1 0.024436 0.002071 -0.007263 0.000000 -0.010150 0.000000
# 2 0.002071 0.018980 -0.002494 0.000000 -0.005518 0.000000
# 3 -0.007263 -0.002494 0.018767 0.000000 -0.009722 0.000000
# 4 0.000000 0.000000 0.000000 0.030069 0.000000 -0.006344
# 5 -0.010150 -0.005518 -0.009722 0.000000 0.046765 0.000000
# 6 0.000000 0.000000 0.000000 -0.006344 0.000000 0.040519
#
#
# Mechanical properties :
#
#
# Convention : Reuss Voigt Hill
#
# Bulk Modulus (GPa) = 21.36240 33.71191 27.53716
# Shear Modulus (GPa) = 23.75175 28.20132 25.97653
#
# Velocity S-wave (km/s) = 3.05410 3.32790 3.19394
# Velocity P-wave (km/s) = 4.56354 5.29203 4.94123
#
# Compressibility (1/GPa) = 0.04681121
#
# Stress axis : x y z
#
# Youngs Moduli (GPa) = 40.92343 52.68726 53.28567
#
# Poissons Ratio (x) = -0.10914 0.38704
# Poissons Ratio (y) = -0.08477 0.13288
# Poissons Ratio (z) = 0.29724 0.13138
#
# Static dielectric constant tensor:
#      x y z
#    x 4.533600 0.000000 0.014080 
#    y 0.000000 4.463970 0.000000 
#    z 0.014080 0.000000 4.979980 
# 
# 
# High freq. dielectric constant tensor:
#      x y z
#    x 2.005590 0.000000 0.008150 
#    y 0.000000 2.018010 0.000000 
#    z 0.008150 0.000000 2.016350 
# 
# From -- ./inp_files/242639.got.cif
#   From: 2010.06.25/outbox.cif.g09.slc.cpg/sg15_122_cif.got.tgz:242639.got - 2010.06.28 07:06:18.
