data_PCOD8146668
_publ_section_title
;
Structure prediction by ZEFSAII (Michael W. Deem and Ramdas Pophale) SiO2 
 PCOD8146668
Probable space group: C 2/C
;
_chemical_formula_sum "Si O2"
_cell_formula_units_Z 40
_cell_length_a 19.963972
_cell_length_b 16.496914
_cell_length_c 9.576003
_cell_angle_alpha 90.000000
_cell_angle_beta 38.372345
_cell_angle_gamma 90.000000
_cell_volume 1957.781706
_symmetry_space_group_name_H-M "C 2/C"
_symmetry_group_IT_number 15
_symmetry_cell_setting 'monoclinic'
loop_
_space_group_symop_operation_xyz
x,y,z
-x,y,1/2-z
-x,-y,-z
x,-y,1/2+z
1/2+x,1/2+y,z
1/2-x,1/2+y,1/2-z
1/2-x,1/2-y,-z
1/2+x,1/2-y,1/2+z
loop_
_atom_site_type_symbol
_atom_site_label
_atom_site_fract_x
_atom_site_fract_y
_atom_site_fract_z
Si Si1 0.500000 0.385497 0.250000
Si Si2 0.295879 0.045272 0.696639
Si Si3 0.858194 0.836871 0.713490
Si Si4 0.135222 0.333515 0.199223
Si Si5 0.500000 0.950841 0.250000
Si Si6 0.843926 0.011675 0.835626
O O1 0.406505 0.332845 0.477507
O O2 0.552278 0.438211 0.287564
O O3 0.317458 0.133654 0.729869
O O4 0.207704 0.051907 0.717944
O O5 0.405838 0.007511 0.460298
O O6 0.247370 0.986661 0.895120
O O7 0.906389 0.758480 0.715071
O O8 0.888965 0.920834 0.738340
O O9 0.727409 0.832993 0.927701
O O10 0.039535 0.392975 0.310503
#
# Coordination Sequence:
#
# PCOD8146668 Si02
#       6
#     4   8   8   8   4   8
#     4  12  22  40  64  94 116 164 214 252 298 378
#     4  11  22  40  63  92 122 163 209 255 302 366
#     4  10  22  42  58  89 130 156 202 259 305 364
#     4  10  23  41  61  89 128 162 201 257 312 358
#     4  12  20  40  66  92 116 170 212 248 298 382
#     4  11  22  41  64  89 123 164 207 255 306 364
#
# _framework density 20.431287000000001
#
# number of rings (size 3 to 8) (size 9 to 14) (size 15 to 20)
#    0.000    1.200    6.000    1.200    0.000    1.600 
#    7.200    1.000    0.000    0.000    0.000    0.000 
#    0.000    0.000    0.000    0.000    0.000    0.000 
#
# Total GULP energy -247927.612577 kJ/mol
# GULP energy per Si atom -12396.380629 kJ/mol
# Density = 2.038478 g / cm^3
# Si number density = 20.431287 Si / 1000 Ang^3
#
#
#
# Elastic Constant Matrix: (Units=GPa)
#
#
# Indices 1 2 3 4 5 6 
#
# 1 123.2507 44.1147 39.6453 0.0000 11.2837 0.0000
# 2 44.1147 95.1667 50.9709 0.0000 -2.5726 0.0000
# 3 39.6453 50.9709 122.2072 0.0000 9.3324 0.0000
# 4 0.0000 0.0000 0.0000 16.8602 0.0000 2.5472
# 5 11.2837 -2.5726 9.3324 0.0000 26.2960 0.0000
# 6 0.0000 0.0000 0.0000 2.5472 0.0000 15.1964
#
#
#
# Elastic Compliance Matrix: (Units=1/GPa)
#
#
# Indices 1 2 3 4 5 6 
#
# 1 0.010466 -0.004296 -0.001263 0.000000 -0.004463 0.000000
# 2 -0.004296 0.015600 -0.005520 0.000000 0.005328 0.000000
# 3 -0.001263 -0.005520 0.011198 0.000000 -0.003972 0.000000
# 4 0.000000 0.000000 0.000000 0.060852 0.000000 -0.010200
# 5 -0.004463 0.005328 -0.003972 0.000000 0.041875 0.000000
# 6 0.000000 0.000000 0.000000 -0.010200 0.000000 0.067515
#
#
# Mechanical properties :
#
#
# Convention : Reuss Voigt Hill
#
# Bulk Modulus (GPa) = 66.19418 67.78741 66.99079
# Shear Modulus (GPa) = 21.30402 25.39674 23.35038
#
# Velocity S-wave (km/s) = 3.23261 3.52949 3.38431
# Velocity P-wave (km/s) = 6.81189 7.06116 6.93764
#
# Compressibility (1/GPa) = 0.01510707
#
# Stress axis : x y z
#
# Youngs Moduli (GPa) = 95.54828 64.10421 89.30190
#
# Poissons Ratio (x) = 0.27538 0.11276
# Poissons Ratio (y) = 0.41046 0.49292
# Poissons Ratio (z) = 0.12065 0.35383
#
# Static dielectric constant tensor:
#      x y z
#    x 3.587340 0.000000 0.067920 
#    y 0.000000 3.700190 0.000000 
#    z 0.067920 0.000000 3.961750 
# 
# 
# High freq. dielectric constant tensor:
#      x y z
#    x 1.776660 0.000000 -0.001710 
#    y 0.000000 1.785480 0.000000 
#    z -0.001710 0.000000 1.820160 
# 
# From -- ./inp_files/29141.got.cif
#   From: 2010.06.25/outbox.cif.g09.slc.cpg/sg15_15_cif.got.tgz:29141.got - 2010.06.28 07:06:18.
