data_PCOD8146112
_publ_section_title
;
Structure prediction by ZEFSAII (Michael W. Deem and Ramdas Pophale) SiO2 
 PCOD8146112
Probable space group: C 2/C
;
_chemical_formula_sum "Si O2"
_cell_formula_units_Z 60
_cell_length_a 12.684874
_cell_length_b 28.183113
_cell_length_c 8.327313
_cell_angle_alpha 90.000000
_cell_angle_beta 73.142573
_cell_angle_gamma 90.000000
_cell_volume 2849.083995
_symmetry_space_group_name_H-M "C 2/C"
_symmetry_group_IT_number 15
_symmetry_cell_setting 'monoclinic'
loop_
_space_group_symop_operation_xyz
x,y,z
-x,y,1/2-z
-x,-y,-z
x,-y,1/2+z
1/2+x,1/2+y,z
1/2-x,1/2+y,1/2-z
1/2-x,1/2-y,-z
1/2+x,1/2-y,1/2+z
loop_
_atom_site_type_symbol
_atom_site_label
_atom_site_fract_x
_atom_site_fract_y
_atom_site_fract_z
Si Si1 0.388359 0.372038 0.043017
Si Si2 0.500000 0.689646 0.250000
Si Si3 0.278387 0.706070 0.195642
Si Si4 0.770027 0.031487 0.051726
Si Si5 0.071008 0.464692 0.073579
Si Si6 0.598132 0.534347 0.805355
Si Si7 0.779281 0.606256 0.159153
Si Si8 0.131964 0.794129 0.198656
O O1 0.445505 0.415754 0.106627
O O2 0.334139 0.337548 0.200339
O O3 0.484395 0.343306 0.912090
O O4 0.302967 0.394848 0.955335
O O5 0.386821 0.718284 0.259934
O O6 0.210066 0.660813 0.291774
O O7 0.190990 0.748170 0.247837
O O8 0.318302 0.696189 0.997980
O O9 0.759532 0.077516 0.167540
O O10 0.667740 0.995985 0.107373
O O11 0.875105 0.002534 0.067831
O O12 0.794761 0.044483 0.855775
O O13 0.000000 0.443134 0.250000
O O14 0.109395 0.419105 0.952197
O O15 0.000000 0.500000 0.000000
O O16 0.500000 0.510792 0.750000
O O17 0.000000 0.786407 0.250000
#
# Coordination Sequence:
#
# PCOD8146112 Si02
#       8
#     8   4   8   8   8   8   8   8
#     4  11  23  40  67  93 134 170 226 270 339 410
#     4  10  22  40  66  98 128 182 214 274 344 402
#     4  10  24  45  72  99 141 174 229 289 340 420
#     4  12  23  44  60  93 136 168 231 279 331 396
#     4  12  23  44  69  89 128 188 225 278 339 400
#     4  12  24  37  62  93 130 178 215 278 333 400
#     4  11  24  43  65  98 132 177 227 280 336 403
#     4  11  22  46  73 104 134 182 225 282 356 415
#
# _framework density 21.0594
#
# number of rings (size 3 to 8) (size 9 to 14) (size 15 to 20)
#    0.000    0.800    5.333    1.600    3.733    2.133 
#    4.800    1.333    1.467    0.000    0.000    0.000 
#    0.000    0.000    0.000    0.000    0.000    0.000 
#
# Total GULP energy -371873.930121 kJ/mol
# GULP energy per Si atom -12395.797671 kJ/mol
# Density = 2.101147 g / cm^3
# Si number density = 21.059400 Si / 1000 Ang^3
#
#
#
# Elastic Constant Matrix: (Units=GPa)
#
#
# Indices 1 2 3 4 5 6 
#
# 1 77.3920 24.4343 1.4347 0.0000 8.4414 0.0000
# 2 24.4343 88.1853 10.2305 0.0000 10.3273 0.0000
# 3 1.4347 10.2305 71.8539 0.0000 0.7934 0.0000
# 4 0.0000 0.0000 0.0000 42.7672 0.0000 5.8684
# 5 8.4414 10.3273 0.7934 0.0000 31.0521 0.0000
# 6 0.0000 0.0000 0.0000 5.8684 0.0000 27.7514
#
#
#
# Elastic Compliance Matrix: (Units=1/GPa)
#
#
# Indices 1 2 3 4 5 6 
#
# 1 0.014377 -0.003701 0.000269 0.000000 -0.002685 0.000000
# 2 -0.003701 0.012948 -0.001734 0.000000 -0.003256 0.000000
# 3 0.000269 -0.001734 0.014157 0.000000 0.000142 0.000000
# 4 0.000000 0.000000 0.000000 0.024081 0.000000 -0.005092
# 5 -0.002685 -0.003256 0.000142 0.000000 0.034013 0.000000
# 6 0.000000 0.000000 0.000000 -0.005092 0.000000 0.037111
#
#
# Mechanical properties :
#
#
# Convention : Reuss Voigt Hill
#
# Bulk Modulus (GPa) = 32.10015 34.40334 33.25174
# Shear Modulus (GPa) = 31.76607 33.73625 32.75116
#
# Velocity S-wave (km/s) = 3.88803 4.00679 3.94786
# Velocity P-wave (km/s) = 5.95243 6.14635 6.05017
#
# Compressibility (1/GPa) = 0.03115251
#
# Stress axis : x y z
#
# Youngs Moduli (GPa) = 69.55366 77.23493 70.63632
#
# Poissons Ratio (x) = 0.28581 -0.01903
# Poissons Ratio (y) = 0.25739 0.12246
# Poissons Ratio (z) = -0.01874 0.13390
#
# Static dielectric constant tensor:
#      x y z
#    x 4.165290 0.000000 -0.120250 
#    y 0.000000 3.739920 0.000000 
#    z -0.120250 0.000000 4.236810 
# 
# 
# High freq. dielectric constant tensor:
#      x y z
#    x 1.817050 0.000000 0.007870 
#    y 0.000000 1.812060 0.000000 
#    z 0.007870 0.000000 1.853210 
# 
# From -- ./inp_files/35202.got.cif
#   From: 2010.06.25/outbox.cif.g09.slc.cpg/sg15_18_cif.got.tgz:35202.got - 2010.06.28 07:06:18.
