data_PCOD8146175
_publ_section_title
;
Structure prediction by ZEFSAII (Michael W. Deem and Ramdas Pophale) SiO2 
 PCOD8146175
Probable space group: C 2/C
;
_chemical_formula_sum "Si O2"
_cell_formula_units_Z 48
_cell_length_a 7.836617
_cell_length_b 22.953388
_cell_length_c 12.816590
_cell_angle_alpha 90.000000
_cell_angle_beta 113.313843
_cell_angle_gamma 90.000000
_cell_volume 2117.173818
_symmetry_space_group_name_H-M "C 2/C"
_symmetry_group_IT_number 15
_symmetry_cell_setting 'monoclinic'
loop_
_space_group_symop_operation_xyz
x,y,z
-x,y,1/2-z
-x,-y,-z
x,-y,1/2+z
1/2+x,1/2+y,z
1/2-x,1/2+y,1/2-z
1/2-x,1/2-y,-z
1/2+x,1/2-y,1/2+z
loop_
_atom_site_type_symbol
_atom_site_label
_atom_site_fract_x
_atom_site_fract_y
_atom_site_fract_z
Si Si1 0.495454 0.746434 0.954747
Si Si2 0.295842 0.979740 0.474931
Si Si3 0.500000 0.544318 0.750000
Si Si4 0.000000 0.680592 0.250000
Si Si5 0.103942 0.686541 0.878108
Si Si6 0.810492 0.133466 0.448821
Si Si7 0.824763 0.920313 0.417364
O O1 0.466126 0.778992 0.840222
O O2 0.309885 0.711323 0.933169
O O3 0.520158 0.793691 0.053481
O O4 0.665940 0.699131 0.995443
O O5 0.160624 0.994169 0.344124
O O6 0.293460 0.910369 0.496240
O O7 0.500000 0.000000 0.500000
O O8 0.218049 0.013850 0.557564
O O9 0.600098 0.583004 0.683973
O O10 0.818797 0.640073 0.185247
O O11 0.134472 0.616433 0.883973
O O12 0.000000 0.708364 0.750000
O O13 0.011306 0.106319 0.469148
#
# Coordination Sequence:
#
# PCOD8146175 Si02
#       7
#     8   8   4   4   8   8   8
#     4  10  23  42  62 101 134 177 233 283 347 421
#     4  11  26  44  69 104 141 182 241 289 356 437
#     4  10  22  43  70  92 138 188 223 298 350 408
#     4  12  24  39  70  98 136 180 227 292 352 420
#     4  10  22  40  68  93 135 179 225 282 347 417
#     4  10  23  43  66  96 139 178 233 287 347 420
#     4  10  24  44  65 102 138 177 235 284 351 425
#
# _framework density 22.671735000000002
#
# number of rings (size 3 to 8) (size 9 to 14) (size 15 to 20)
#    0.000    1.667    0.000    3.500    4.667   10.000 
#    0.000    0.000    1.833    0.000    0.000    0.000 
#    0.000    0.000    0.000    0.000    0.000    0.000 
#
# Total GULP energy -297484.837951 kJ/mol
# GULP energy per Si atom -12395.201581 kJ/mol
# Density = 2.262013 g / cm^3
# Si number density = 22.671735 Si / 1000 Ang^3
#
#
#
# Elastic Constant Matrix: (Units=GPa)
#
#
# Indices 1 2 3 4 5 6 
#
# 1 102.1376 59.0579 59.0123 0.0000 -0.0750 0.0000
# 2 59.0579 130.8803 64.0121 0.0000 -9.8078 0.0000
# 3 59.0123 64.0121 165.6092 0.0000 0.5804 0.0000
# 4 0.0000 0.0000 0.0000 31.9849 0.0000 1.5539
# 5 -0.0750 -9.8078 0.5804 0.0000 36.9887 0.0000
# 6 0.0000 0.0000 0.0000 1.5539 0.0000 24.1401
#
#
#
# Elastic Compliance Matrix: (Units=1/GPa)
#
#
# Indices 1 2 3 4 5 6 
#
# 1 0.014608 -0.005109 -0.003226 0.000000 -0.001275 0.000000
# 2 -0.005109 0.011457 -0.002618 0.000000 0.003069 0.000000
# 3 -0.003226 -0.002618 0.008203 0.000000 -0.000830 0.000000
# 4 0.000000 0.000000 0.000000 0.031363 0.000000 -0.002019
# 5 -0.001275 0.003069 -0.000830 0.000000 0.027859 0.000000
# 6 0.000000 0.000000 0.000000 -0.002019 0.000000 0.041555
#
#
# Mechanical properties :
#
#
# Convention : Reuss Voigt Hill
#
# Bulk Modulus (GPa) = 80.90610 84.75463 82.83037
# Shear Modulus (GPa) = 31.04203 33.05907 32.05055
#
# Velocity S-wave (km/s) = 3.70428 3.82273 3.76397
# Velocity P-wave (km/s) = 7.35248 7.54645 7.45010
#
# Compressibility (1/GPa) = 0.01236001
#
# Stress axis : x y z
#
# Youngs Moduli (GPa) = 68.45573 87.28537 121.90929
#
# Poissons Ratio (x) = 0.44597 0.39328
# Poissons Ratio (y) = 0.34977 0.31921
# Poissons Ratio (z) = 0.22084 0.22855
#
# Static dielectric constant tensor:
#      x y z
#    x 4.357330 0.000000 0.215610 
#    y 0.000000 4.305820 0.000000 
#    z 0.215610 0.000000 4.116390 
# 
# 
# High freq. dielectric constant tensor:
#      x y z
#    x 1.902610 0.000000 0.021850 
#    y 0.000000 1.895160 0.000000 
#    z 0.021850 0.000000 1.885260 
# 
# From -- ./inp_files/79932.got.cif
#   From: 2010.06.25/outbox.cif.g09.slc.cpg/sg15_40_cif.got.tgz:79932.got - 2010.06.28 07:06:18.
