data_PCOD8146478
_publ_section_title
;
Structure prediction by ZEFSAII (Michael W. Deem and Ramdas Pophale) SiO2 
 PCOD8146478
Probable space group: C 2/C
;
_chemical_formula_sum "Si O2"
_cell_formula_units_Z 56
_cell_length_a 25.309188
_cell_length_b 8.959564
_cell_length_c 14.332117
_cell_angle_alpha 90.000000
_cell_angle_beta 122.280438
_cell_angle_gamma 90.000000
_cell_volume 2747.643566
_symmetry_space_group_name_H-M "C 2/C"
_symmetry_group_IT_number 15
_symmetry_cell_setting 'monoclinic'
loop_
_space_group_symop_operation_xyz
x,y,z
-x,y,1/2-z
-x,-y,-z
x,-y,1/2+z
1/2+x,1/2+y,z
1/2-x,1/2+y,1/2-z
1/2-x,1/2-y,-z
1/2+x,1/2-y,1/2+z
loop_
_atom_site_type_symbol
_atom_site_label
_atom_site_fract_x
_atom_site_fract_y
_atom_site_fract_z
Si Si1 0.568416 0.769990 0.832625
Si Si2 0.743798 0.543130 0.161110
Si Si3 0.392526 0.983273 0.999975
Si Si4 0.842105 0.989935 0.080548
Si Si5 0.255549 0.104961 0.860164
Si Si6 0.612477 0.983065 0.721128
Si Si7 0.927963 0.260676 0.185016
O O1 0.500000 0.705661 0.750000
O O2 0.610523 0.636471 0.909142
O O3 0.595325 0.833802 0.760703
O O4 0.563528 0.893971 0.909353
O O5 0.734661 0.720892 0.151444
O O6 0.725745 0.480138 0.244686
O O7 0.813639 0.492918 0.202248
O O8 0.697262 0.459116 0.046525
O O9 0.320973 0.030174 0.950561
O O10 0.409157 0.968531 0.906695
O O11 0.406706 0.827825 0.065222
O O12 0.881499 0.123835 0.162852
O O13 0.793256 0.914879 0.103878
O O14 0.578178 0.122999 0.735992
O O15 0.000000 0.207385 0.250000
#
# Coordination Sequence:
#
# PCOD8146478 Si02
#       7
#     8   8   8   8   8   8   8
#     4  11  22  39  62  88 120 169 210 248 302 365
#     4  11  24  41  66  98 126 157 204 256 314 376
#     4  10  22  41  66  90 122 159 207 258 309 364
#     4  12  24  40  64  89 132 162 198 260 312 359
#     4  11  24  41  66  98 126 157 204 256 314 376
#     4  10  22  41  66  90 122 159 207 258 309 364
#     4  11  26  42  60  93 125 165 215 251 296 368
#
# _framework density 20.381101999999998
#
# number of rings (size 3 to 8) (size 9 to 14) (size 15 to 20)
#    0.000    1.143    2.857    4.286    8.000    3.429 
#    0.000    0.000    0.000    5.143    0.000    0.000 
#    0.000    0.000    0.000    0.000    0.000    0.000 
#
# Total GULP energy -347289.657130 kJ/mol
# GULP energy per Si atom -12403.202040 kJ/mol
# Density = 2.033471 g / cm^3
# Si number density = 20.381102 Si / 1000 Ang^3
#
#
#
# Elastic Constant Matrix: (Units=GPa)
#
#
# Indices 1 2 3 4 5 6 
#
# 1 48.7658 6.6724 46.7120 0.0000 10.2813 0.0000
# 2 6.6724 59.2234 11.8890 0.0000 -2.7335 0.0000
# 3 46.7120 11.8890 113.8909 0.0000 -6.7042 0.0000
# 4 0.0000 0.0000 0.0000 27.2415 0.0000 4.1223
# 5 10.2813 -2.7335 -6.7042 0.0000 34.2259 0.0000
# 6 0.0000 0.0000 0.0000 4.1223 0.0000 26.4636
#
#
#
# Elastic Compliance Matrix: (Units=1/GPa)
#
#
# Indices 1 2 3 4 5 6 
#
# 1 0.040862 -0.001822 -0.017502 0.000000 -0.015848 0.000000
# 2 -0.001822 0.017364 -0.000963 0.000000 0.001745 0.000000
# 3 -0.017502 -0.000963 0.016555 0.000000 0.008423 0.000000
# 4 0.000000 0.000000 0.000000 0.037595 0.000000 -0.005856
# 5 -0.015848 0.001745 0.008423 0.000000 0.035768 0.000000
# 6 0.000000 0.000000 0.000000 -0.005856 0.000000 0.038700
#
#
# Mechanical properties :
#
#
# Convention : Reuss Voigt Hill
#
# Bulk Modulus (GPa) = 29.23282 39.15855 34.19568
# Shear Modulus (GPa) = 20.93631 28.02666 24.48149
#
# Velocity S-wave (km/s) = 3.20854 3.71230 3.46957
# Velocity P-wave (km/s) = 5.30099 6.13431 5.73281
#
# Compressibility (1/GPa) = 0.03420813
#
# Stress axis : x y z
#
# Youngs Moduli (GPa) = 24.47276 57.58949 60.40438
#
# Poissons Ratio (x) = 0.10491 1.05720
# Poissons Ratio (y) = 0.04458 0.05815
# Poissons Ratio (z) = 0.42832 0.05544
#
# Static dielectric constant tensor:
#      x y z
#    x 3.692010 0.000000 -0.027960 
#    y 0.000000 3.582140 0.000000 
#    z -0.027960 0.000000 4.009800 
# 
# 
# High freq. dielectric constant tensor:
#      x y z
#    x 1.796680 0.000000 0.007400 
#    y 0.000000 1.787880 0.000000 
#    z 0.007400 0.000000 1.809350 
# 
# From -- ./inp_files/172497.got.cif
#   From: 2010.06.25/outbox.cif.g09.slc.cpg/sg15_87_cif.got.tgz:172497.got - 2010.06.28 07:06:18.
