data_PCOD8146697
_publ_section_title
;
Structure prediction by ZEFSAII (Michael W. Deem and Ramdas Pophale) SiO2 
 PCOD8146697
Probable space group: C 2/C
;
_chemical_formula_sum "Si O2"
_cell_formula_units_Z 36
_cell_length_a 9.995129
_cell_length_b 19.944444
_cell_length_c 8.107628
_cell_angle_alpha 90.000000
_cell_angle_beta 78.935264
_cell_angle_gamma 90.000000
_cell_volume 1586.189459
_symmetry_space_group_name_H-M "C 2/C"
_symmetry_group_IT_number 15
_symmetry_cell_setting 'monoclinic'
loop_
_space_group_symop_operation_xyz
x,y,z
-x,y,1/2-z
-x,-y,-z
x,-y,1/2+z
1/2+x,1/2+y,z
1/2-x,1/2+y,1/2-z
1/2-x,1/2-y,-z
1/2+x,1/2-y,1/2+z
loop_
_atom_site_type_symbol
_atom_site_label
_atom_site_fract_x
_atom_site_fract_y
_atom_site_fract_z
Si Si1 0.213638 0.070816 0.450035
Si Si2 0.254307 0.830039 0.357249
Si Si3 0.500000 0.391615 0.250000
Si Si4 0.343332 0.691992 0.261824
Si Si5 0.643771 0.963985 0.269908
O O1 0.218765 0.145079 0.367732
O O2 0.342295 0.056587 0.541315
O O3 0.075532 0.063192 0.592364
O O4 0.229909 0.014361 0.304567
O O5 0.107829 0.843049 0.310872
O O6 0.326210 0.771448 0.230196
O O7 0.243488 0.815463 0.552242
O O8 0.346466 0.895952 0.335688
O O9 0.500000 0.671349 0.250000
O O10 0.500000 0.997001 0.250000
#
# Coordination Sequence:
#
# PCOD8146697 Si02
#       5
#     8   8   4   8   8
#     4  11  24  42  69  97 135 176 221 279 331 395
#     4  10  23  42  67  98 133 174 220 277 334 397
#     4  10  22  42  62 102 134 174 226 270 332 404
#     4  11  22  44  67  97 134 175 222 273 333 401
#     4  11  24  45  66  98 134 175 229 273 335 396
#
# _framework density 22.695900999999999
#
# number of rings (size 3 to 8) (size 9 to 14) (size 15 to 20)
#    0.000    1.333    2.222    2.667    0.000    7.111 
#   20.000    0.000    0.000    0.000    0.000    0.000 
#    0.000    0.000    0.000    0.000    0.000    0.000 
#
# Total GULP energy -223055.440291 kJ/mol
# GULP energy per Si atom -12391.968905 kJ/mol
# Density = 2.264424 g / cm^3
# Si number density = 22.695901 Si / 1000 Ang^3
#
#
#
# Elastic Constant Matrix: (Units=GPa)
#
#
# Indices 1 2 3 4 5 6 
#
# 1 90.2791 17.7811 31.4579 0.0000 8.7371 0.0000
# 2 17.7811 135.9520 52.6820 0.0000 -18.1347 0.0000
# 3 31.4579 52.6820 110.8876 0.0000 -4.7519 0.0000
# 4 0.0000 0.0000 0.0000 36.0957 0.0000 -1.9609
# 5 8.7371 -18.1347 -4.7519 0.0000 28.1490 0.0000
# 6 0.0000 0.0000 0.0000 -1.9609 0.0000 26.3875
#
#
#
# Elastic Compliance Matrix: (Units=1/GPa)
#
#
# Indices 1 2 3 4 5 6 
#
# 1 0.012988 -0.001092 -0.003393 0.000000 -0.005307 0.000000
# 2 -0.001092 0.009905 -0.004138 0.000000 0.006022 0.000000
# 3 -0.003393 -0.004138 0.011964 0.000000 0.000407 0.000000
# 4 0.000000 0.000000 0.000000 0.027816 0.000000 0.002067
# 5 -0.005307 0.006022 0.000407 0.000000 0.041121 0.000000
# 6 0.000000 0.000000 0.000000 0.002067 0.000000 0.038050
#
#
# Mechanical properties :
#
#
# Convention : Reuss Voigt Hill
#
# Bulk Modulus (GPa) = 56.78302 60.10675 58.44489
# Shear Modulus (GPa) = 30.31019 33.80627 32.05823
#
# Velocity S-wave (km/s) = 3.65840 3.86363 3.76242
# Velocity P-wave (km/s) = 6.55123 6.81502 6.68443
#
# Compressibility (1/GPa) = 0.01761090
#
# Stress axis : x y z
#
# Youngs Moduli (GPa) = 76.99515 100.95840 83.58257
#
# Poissons Ratio (x) = 0.11022 0.28362
# Poissons Ratio (y) = 0.08406 0.34587
# Poissons Ratio (z) = 0.26127 0.41777
#
# Static dielectric constant tensor:
#      x y z
#    x 3.816850 0.000000 -0.102140 
#    y 0.000000 4.288050 0.000000 
#    z -0.102140 0.000000 4.299190 
# 
# 
# High freq. dielectric constant tensor:
#      x y z
#    x 1.881320 0.000000 -0.000720 
#    y 0.000000 1.895480 0.000000 
#    z -0.000720 0.000000 1.903570 
# 
# From -- ./inp_files/28977.got.cif
#   From: 2010.06.25/outbox.cif.g09.slc.cpg/sg15_15_cif.got.tgz:28977.got - 2010.06.28 07:06:18.
