data_PCOD8146817
_publ_section_title
;
Structure prediction by ZEFSAII (Michael W. Deem and Ramdas Pophale) SiO2 
 PCOD8146817
Probable space group: C 2/C
;
_chemical_formula_sum "Si O2"
_cell_formula_units_Z 44
_cell_length_a 8.533645
_cell_length_b 21.078512
_cell_length_c 14.465887
_cell_angle_alpha 90.000000
_cell_angle_beta 61.581836
_cell_angle_gamma 90.000000
_cell_volume 2288.517936
_symmetry_space_group_name_H-M "C 2/C"
_symmetry_group_IT_number 15
_symmetry_cell_setting 'monoclinic'
loop_
_space_group_symop_operation_xyz
x,y,z
-x,y,1/2-z
-x,-y,-z
x,-y,1/2+z
1/2+x,1/2+y,z
1/2-x,1/2+y,1/2-z
1/2-x,1/2-y,-z
1/2+x,1/2-y,1/2+z
loop_
_atom_site_type_symbol
_atom_site_label
_atom_site_fract_x
_atom_site_fract_y
_atom_site_fract_z
Si Si1 0.784641 0.876455 0.076375
Si Si2 0.296704 0.927875 0.829304
Si Si3 0.465201 0.531421 0.659528
Si Si4 0.174397 0.492761 0.010918
Si Si5 0.972615 0.169469 0.154475
Si Si6 0.000000 0.710014 0.750000
O O1 0.938470 0.911701 0.093233
O O2 0.673253 0.830443 0.174180
O O3 0.866966 0.841290 0.963703
O O4 0.645698 0.929493 0.079406
O O5 0.500000 0.921085 0.750000
O O6 0.205547 0.860160 0.838313
O O7 0.203720 0.983907 0.795645
O O8 0.292328 0.944453 0.938405
O O9 0.500000 0.562448 0.750000
O O10 0.637227 0.486285 0.594561
O O11 0.000000 0.500000 0.000000
O O12 0.948498 0.245418 0.176281
O O13 0.000000 0.138754 0.250000
#
# Coordination Sequence:
#
# PCOD8146817 Si02
#       6
#     8   8   8   8   8   4
#     4  11  22  44  62  95 133 162 223 265 317 393
#     4  11  21  37  61  95 128 163 213 267 319 387
#     4  11  22  38  62  98 133 165 201 271 337 378
#     4  11  23  35  64  98 128 167 203 266 340 382
#     4  10  22  42  65  87 123 175 220 264 309 379
#     4  10  26  38  72  90 124 184 216 256 322 376
#
# _framework density 19.226417999999999
#
# number of rings (size 3 to 8) (size 9 to 14) (size 15 to 20)
#    0.545    0.727    3.636    3.273   10.182    0.000 
#    0.000    0.909    0.000    3.273    0.000    0.000 
#    0.000    0.000    0.000    0.000    0.000    0.000 
#
# Total GULP energy -272587.759425 kJ/mol
# GULP energy per Si atom -12390.352701 kJ/mol
# Density = 1.918266 g / cm^3
# Si number density = 19.226418 Si / 1000 Ang^3
#
#
#
# Elastic Constant Matrix: (Units=GPa)
#
#
# Indices 1 2 3 4 5 6 
#
# 1 139.8496 54.0057 45.9774 0.0000 -0.2470 0.0000
# 2 54.0057 104.0884 37.6913 0.0000 -1.6813 0.0000
# 3 45.9774 37.6913 93.7794 0.0000 0.7519 0.0000
# 4 0.0000 0.0000 0.0000 38.3387 0.0000 -3.6236
# 5 -0.2470 -1.6813 0.7519 0.0000 43.1079 0.0000
# 6 0.0000 0.0000 0.0000 -3.6236 0.0000 24.6889
#
#
#
# Elastic Compliance Matrix: (Units=1/GPa)
#
#
# Indices 1 2 3 4 5 6 
#
# 1 0.009698 -0.003875 -0.003197 0.000000 -0.000040 0.000000
# 2 -0.003875 0.012803 -0.003250 0.000000 0.000534 0.000000
# 3 -0.003197 -0.003250 0.013540 0.000000 -0.000381 0.000000
# 4 0.000000 0.000000 0.000000 0.026450 0.000000 0.003882
# 5 -0.000040 0.000534 -0.000381 0.000000 0.023225 0.000000
# 6 0.000000 0.000000 0.000000 0.003882 0.000000 0.041074
#
#
# Mechanical properties :
#
#
# Convention : Reuss Voigt Hill
#
# Bulk Modulus (GPa) = 64.94747 68.11846 66.53297
# Shear Modulus (GPa) = 32.77261 34.56331 33.66796
#
# Velocity S-wave (km/s) = 4.13311 4.24453 4.18919
# Velocity P-wave (km/s) = 7.52532 7.71543 7.62097
#
# Compressibility (1/GPa) = 0.01539706
#
# Stress axis : x y z
#
# Youngs Moduli (GPa) = 103.11638 78.10554 73.85436
#
# Poissons Ratio (x) = 0.30263 0.23611
# Poissons Ratio (y) = 0.39954 0.24006
# Poissons Ratio (z) = 0.32966 0.25388
#
# Static dielectric constant tensor:
#      x y z
#    x 3.388650 0.000000 0.118690 
#    y 0.000000 3.401140 0.000000 
#    z 0.118690 0.000000 3.438220 
# 
# 
# High freq. dielectric constant tensor:
#      x y z
#    x 1.741840 0.000000 -0.003100 
#    y 0.000000 1.726060 0.000000 
#    z -0.003100 0.000000 1.760090 
# 
# From -- ./inp_files/135387.got.cif
#   From: 2010.06.25/outbox.cif.g09.slc.cpg/sg15_68_cif.got.tgz:135387.got - 2010.06.28 07:06:18.
