data_PCOD8146022
_publ_section_title
;
Structure prediction by ZEFSAII (Michael W. Deem and Ramdas Pophale) SiO2 
 PCOD8146022
Probable space group: C 2/C
;
_chemical_formula_sum "Si O2"
_cell_formula_units_Z 48
_cell_length_a 31.373089
_cell_length_b 11.305830
_cell_length_c 23.296682
_cell_angle_alpha 90.000000
_cell_angle_beta 162.432520
_cell_angle_gamma 90.000000
_cell_volume 2494.103794
_symmetry_space_group_name_H-M "C 2/C"
_symmetry_group_IT_number 15
_symmetry_cell_setting 'monoclinic'
loop_
_space_group_symop_operation_xyz
x,y,z
-x,y,1/2-z
-x,-y,-z
x,-y,1/2+z
1/2+x,1/2+y,z
1/2-x,1/2+y,1/2-z
1/2-x,1/2-y,-z
1/2+x,1/2-y,1/2+z
loop_
_atom_site_type_symbol
_atom_site_label
_atom_site_fract_x
_atom_site_fract_y
_atom_site_fract_z
Si Si1 0.895991 0.330544 0.564376
Si Si2 0.328154 0.102199 0.753107
Si Si3 0.095570 0.928761 0.199588
Si Si4 0.662537 0.637450 0.202606
Si Si5 0.559163 0.558345 0.888013
Si Si6 0.924999 0.499388 0.494991
O O1 0.736543 0.352400 0.379010
O O2 0.896337 0.194082 0.547988
O O3 0.944447 0.411391 0.573463
O O4 0.000000 0.360232 0.750000
O O5 0.296088 0.241451 0.712637
O O6 0.396819 0.077461 0.902719
O O7 0.187067 0.028176 0.565178
O O8 0.432010 0.072919 0.833212
O O9 0.064252 0.964881 0.224702
O O10 0.114372 0.049921 0.190304
O O11 0.967426 0.850731 0.008792
O O12 0.798528 0.590998 0.343016
O O13 0.500000 0.527777 0.750000
#
# Coordination Sequence:
#
# PCOD8146022 Si02
#       6
#     8   8   8   8   8   8
#     4  10  24  41  65  90 124 163 204 259 306 363
#     4  11  24  38  64  91 125 160 206 253 300 369
#     4  10  22  41  64  91 123 163 205 252 311 363
#     4  10  22  40  65  91 124 161 201 259 306 360
#     4  11  25  40  63  93 125 163 204 254 311 363
#     4  10  23  39  62  93 119 160 209 251 304 362
#
# _framework density 19.24539
#
# number of rings (size 3 to 8) (size 9 to 14) (size 15 to 20)
#    0.000    1.667    1.667    1.000   11.667    1.333 
#    0.000    4.167    0.000    0.000    0.000    0.000 
#    0.000    0.000    0.000    0.000    0.000    0.000 
#
# Total GULP energy -297660.291974 kJ/mol
# GULP energy per Si atom -12402.512166 kJ/mol
# Density = 1.920159 g / cm^3
# Si number density = 19.245390 Si / 1000 Ang^3
#
#
#
# Elastic Constant Matrix: (Units=GPa)
#
#
# Indices 1 2 3 4 5 6 
#
# 1 134.6132 34.3129 51.2732 0.0003 18.1508 -0.0002
# 2 34.3129 101.5410 41.2370 0.0007 3.9800 -0.0003
# 3 51.2732 41.2370 65.4911 0.0007 -2.4891 -0.0001
# 4 0.0003 0.0007 0.0007 22.6620 0.0004 -6.1212
# 5 18.1508 3.9800 -2.4891 0.0004 30.2592 -0.0001
# 6 -0.0002 -0.0003 -0.0001 -6.1212 -0.0001 12.5397
#
#
#
# Elastic Compliance Matrix: (Units=1/GPa)
#
#
# Indices 1 2 3 4 5 6 
#
# 1 0.012339 0.000276 -0.010149 0.000000 -0.008273 0.000000
# 2 0.000276 0.013419 -0.008766 0.000000 -0.002652 0.000000
# 3 -0.010149 -0.008766 0.029101 -0.000001 0.009634 0.000000
# 4 0.000000 0.000000 -0.000001 0.050829 -0.000001 0.024812
# 5 -0.008273 -0.002652 0.009634 -0.000001 0.039152 0.000000
# 6 0.000000 0.000000 0.000000 0.024812 0.000000 0.091858
#
#
# Mechanical properties :
#
#
# Convention : Reuss Voigt Hill
#
# Bulk Modulus (GPa) = 56.87941 61.69904 59.28923
# Shear Modulus (GPa) = 17.86763 24.74699 21.30731
#
# Velocity S-wave (km/s) = 3.05029 3.58979 3.33098
# Velocity P-wave (km/s) = 6.48264 7.02217 6.75779
#
# Compressibility (1/GPa) = 0.01758105
#
# Stress axis : x y z
#
# Youngs Moduli (GPa) = 81.04117 74.52135 34.36345
#
# Poissons Ratio (x) = -0.02057 0.34875
# Poissons Ratio (y) = -0.02237 0.30124
# Poissons Ratio (z) = 0.82247 0.65327
#
# Static dielectric constant tensor:
#      x y z
#    x 3.723030 0.000000 0.110850 
#    y 0.000000 3.442830 0.000000 
#    z 0.110850 0.000000 3.524630 
# 
# 
# High freq. dielectric constant tensor:
#      x y z
#    x 1.763990 0.000000 0.012880 
#    y 0.000000 1.749350 0.000000 
#    z 0.012880 0.000000 1.746760 
# 
# From -- ./inp_files/103824.got.cif
#   From: 2010.06.25/outbox.cif.g09.slc.cpg/sg15_52_cif.got.tgz:103824.got - 2010.06.28 07:06:18.
