data_PCOD8146072
_publ_section_title
;
Structure prediction by ZEFSAII (Michael W. Deem and Ramdas Pophale) SiO2 
 PCOD8146072
Probable space group: C 2/C
;
_chemical_formula_sum "Si O2"
_cell_formula_units_Z 44
_cell_length_a 19.394155
_cell_length_b 13.997228
_cell_length_c 8.783724
_cell_angle_alpha 90.000000
_cell_angle_beta 112.352612
_cell_angle_gamma 90.000000
_cell_volume 2205.301615
_symmetry_space_group_name_H-M "C 2/C"
_symmetry_group_IT_number 15
_symmetry_cell_setting 'monoclinic'
loop_
_space_group_symop_operation_xyz
x,y,z
-x,y,1/2-z
-x,-y,-z
x,-y,1/2+z
1/2+x,1/2+y,z
1/2-x,1/2+y,1/2-z
1/2-x,1/2-y,-z
1/2+x,1/2-y,1/2+z
loop_
_atom_site_type_symbol
_atom_site_label
_atom_site_fract_x
_atom_site_fract_y
_atom_site_fract_z
Si Si1 0.345210 0.912784 0.263371
Si Si2 0.274097 0.267121 0.848606
Si Si3 0.927076 0.126040 0.449281
Si Si4 0.345157 0.111116 0.408780
Si Si5 0.504947 0.815671 0.078593
Si Si6 0.500000 0.491269 0.750000
O O1 0.293535 0.836047 0.300505
O O2 0.430731 0.894896 0.383052
O O3 0.322311 0.017662 0.296379
O O4 0.331242 0.906355 0.073312
O O5 0.340640 0.343842 0.885515
O O6 0.204573 0.302258 0.691651
O O7 0.250000 0.250000 0.000000
O O8 0.944703 0.073051 0.305136
O O9 0.977003 0.221469 0.504160
O O10 0.945725 0.056493 0.603682
O O11 0.430588 0.138651 0.448692
O O12 0.500000 0.783762 0.250000
#
# Coordination Sequence:
#
# PCOD8146072 Si02
#       6
#     8   8   8   8   8   4
#     4  10  22  41  61  92 123 163 214 257 312 385
#     4  11  25  42  61  94 131 165 211 267 323 387
#     4  10  22  41  61  93 123 163 218 264 313 378
#     4  11  22  40  65  91 124 168 202 261 327 373
#     4   9  19  38  64  88 123 160 209 261 309 372
#     4  10  22  40  66  90 120 172 218 260 312 374
#
# _framework density 19.951919
#
# number of rings (size 3 to 8) (size 9 to 14) (size 15 to 20)
#    0.000    1.818    0.909    2.182    2.545    2.909 
#    3.273    0.000    0.000    0.000    0.000    0.000 
#    0.000    0.000    0.000    0.000    0.000    0.000 
#
# Total GULP energy -272883.022063 kJ/mol
# GULP energy per Si atom -12403.773730 kJ/mol
# Density = 1.990651 g / cm^3
# Si number density = 19.951919 Si / 1000 Ang^3
#
#
#
# Elastic Constant Matrix: (Units=GPa)
#
#
# Indices 1 2 3 4 5 6 
#
# 1 110.0984 51.1623 57.8825 0.0000 -3.5551 0.0000
# 2 51.1623 90.1882 53.1968 0.0000 2.7651 0.0000
# 3 57.8825 53.1968 111.6165 0.0000 -0.7836 0.0000
# 4 0.0000 0.0000 0.0000 30.6657 0.0000 -2.7401
# 5 -3.5551 2.7651 -0.7836 0.0000 34.8136 0.0000
# 6 0.0000 0.0000 0.0000 -2.7401 0.0000 32.0712
#
#
#
# Elastic Compliance Matrix: (Units=1/GPa)
#
#
# Indices 1 2 3 4 5 6 
#
# 1 0.014089 -0.005207 -0.004812 0.000000 0.001744 0.000000
# 2 -0.005207 0.017416 -0.005614 0.000000 -0.002041 0.000000
# 3 -0.004812 -0.005614 0.014133 0.000000 0.000273 0.000000
# 4 0.000000 0.000000 0.000000 0.032861 0.000000 0.002807
# 5 0.001744 -0.002041 0.000273 0.000000 0.029071 0.000000
# 6 0.000000 0.000000 0.000000 0.002807 0.000000 0.031420
#
#
# Mechanical properties :
#
#
# Convention : Reuss Voigt Hill
#
# Bulk Modulus (GPa) = 69.59162 70.70960 70.15061
# Shear Modulus (GPa) = 28.56366 29.48753 29.02560
#
# Velocity S-wave (km/s) = 3.78779 3.84856 3.81829
# Velocity P-wave (km/s) = 7.35426 7.43407 7.39427
#
# Compressibility (1/GPa) = 0.01436955
#
# Stress axis : x y z
#
# Youngs Moduli (GPa) = 70.97780 57.41753 70.75876
#
# Poissons Ratio (x) = 0.29900 0.34050
# Poissons Ratio (y) = 0.36962 0.39727
# Poissons Ratio (z) = 0.34155 0.32237
#
# Static dielectric constant tensor:
#      x y z
#    x 3.757110 0.000000 -0.049770 
#    y 0.000000 3.640470 0.000000 
#    z -0.049770 0.000000 3.551810 
# 
# 
# High freq. dielectric constant tensor:
#      x y z
#    x 1.784520 0.000000 -0.006310 
#    y 0.000000 1.792000 0.000000 
#    z -0.006310 0.000000 1.775870 
# 
# From -- ./inp_files/47005.got.cif
#   From: 2010.06.25/outbox.cif.g09.slc.cpg/sg15_24_cif.got.tgz:47005.got - 2010.06.28 07:06:18.
