data_PCOD8146621
_publ_section_title
;
Structure prediction by ZEFSAII (Michael W. Deem and Ramdas Pophale) SiO2 
 PCOD8146621
Probable space group: C 2/C
;
_chemical_formula_sum "Si O2"
_cell_formula_units_Z 64
_cell_length_a 16.153919
_cell_length_b 23.732101
_cell_length_c 13.213322
_cell_angle_alpha 90.000000
_cell_angle_beta 144.571165
_cell_angle_gamma 90.000000
_cell_volume 2936.452016
_symmetry_space_group_name_H-M "C 2/C"
_symmetry_group_IT_number 15
_symmetry_cell_setting 'monoclinic'
loop_
_space_group_symop_operation_xyz
x,y,z
-x,y,1/2-z
-x,-y,-z
x,-y,1/2+z
1/2+x,1/2+y,z
1/2-x,1/2+y,1/2-z
1/2-x,1/2-y,-z
1/2+x,1/2-y,1/2+z
loop_
_atom_site_type_symbol
_atom_site_label
_atom_site_fract_x
_atom_site_fract_y
_atom_site_fract_z
Si Si1 0.354748 0.972329 0.458497
Si Si2 0.658452 0.062605 0.217204
Si Si3 0.255435 0.141968 0.771504
Si Si4 0.568929 0.184440 0.083398
Si Si5 0.154723 0.298936 0.449801
Si Si6 0.152419 0.989199 0.440255
Si Si7 0.856754 0.121196 0.051994
Si Si8 0.629796 0.723623 0.809255
O O1 0.520783 0.958341 0.643702
O O2 0.282989 0.923878 0.318769
O O3 0.341891 0.032953 0.392347
O O4 0.276398 0.976209 0.485648
O O5 0.655857 0.129440 0.203980
O O6 0.805889 0.045904 0.418737
O O7 0.153362 0.147460 0.571400
O O8 0.186222 0.170392 0.801540
O O9 0.405171 0.171395 0.893832
O O10 0.572739 0.228887 0.177007
O O11 0.648047 0.208761 0.063880
O O12 0.250000 0.250000 0.500000
O O13 0.223464 0.358928 0.487534
O O14 0.000000 0.294844 0.250000
O O15 0.144587 0.054479 0.459216
O O16 0.000000 0.966940 0.250000
O O17 0.000000 0.142999 0.250000
O O18 0.500000 0.702336 0.750000
O O19 0.750000 0.750000 0.000000
#
# Coordination Sequence:
#
# PCOD8146621 Si02
#       8
#     8   8   8   8   8   8   8   8
#     4  10  22  41  70 100 133 177 234 281 337 412
#     4  10  22  43  68 100 131 179 233 278 338 408
#     4  11  23  47  72  99 140 183 237 292 342 413
#     4  11  25  44  72 101 137 182 234 290 342 418
#     4  12  25  43  73 102 136 176 228 283 352 419
#     4  11  24  41  65  99 141 182 218 279 351 408
#     4  11  24  45  68 102 143 181 226 282 348 418
#     4  12  27  47  71 101 139 184 236 291 348 403
#
# _framework density 21.795009
#
# number of rings (size 3 to 8) (size 9 to 14) (size 15 to 20)
#    0.000    1.000    3.750    2.250    1.750    3.000 
#    2.250    0.000    0.000    0.000    0.000    0.000 
#    0.000    0.000    0.000    0.000    0.000    0.000 
#
# Total GULP energy -396944.101417 kJ/mol
# GULP energy per Si atom -12404.503169 kJ/mol
# Density = 2.174540 g / cm^3
# Si number density = 21.795009 Si / 1000 Ang^3
#
#
#
# Elastic Constant Matrix: (Units=GPa)
#
#
# Indices 1 2 3 4 5 6 
#
# 1 116.1579 23.8023 37.1955 0.0000 -4.8516 0.0000
# 2 23.8023 74.9266 30.3003 0.0000 7.2630 0.0000
# 3 37.1955 30.3003 152.6768 0.0000 4.2127 0.0000
# 4 0.0000 0.0000 0.0000 26.6988 0.0000 2.3694
# 5 -4.8516 7.2630 4.2127 0.0000 31.8418 0.0000
# 6 0.0000 0.0000 0.0000 2.3694 0.0000 29.1739
#
#
#
# Elastic Compliance Matrix: (Units=1/GPa)
#
#
# Indices 1 2 3 4 5 6 
#
# 1 0.009860 -0.002568 -0.001957 0.000000 0.002347 0.000000
# 2 -0.002568 0.015459 -0.002343 0.000000 -0.003608 0.000000
# 3 -0.001957 -0.002343 0.007512 0.000000 -0.000758 0.000000
# 4 0.000000 0.000000 0.000000 0.037727 0.000000 -0.003064
# 5 0.002347 -0.003608 -0.000758 0.000000 0.032686 0.000000
# 6 0.000000 0.000000 0.000000 -0.003064 0.000000 0.034526
#
#
# Mechanical properties :
#
#
# Convention : Reuss Voigt Hill
#
# Bulk Modulus (GPa) = 52.36906 58.48415 55.42660
# Shear Modulus (GPa) = 31.67115 34.37379 33.02247
#
# Velocity S-wave (km/s) = 3.81614 3.97563 3.89670
# Velocity P-wave (km/s) = 6.59526 6.92576 6.76253
#
# Compressibility (1/GPa) = 0.01909525
#
# Stress axis : x y z
#
# Youngs Moduli (GPa) = 101.41989 64.68551 133.11209
#
# Poissons Ratio (x) = 0.16613 0.26052
# Poissons Ratio (y) = 0.26048 0.31186
# Poissons Ratio (z) = 0.19850 0.15155
#
# Static dielectric constant tensor:
#      x y z
#    x 4.051260 0.000000 0.138160 
#    y 0.000000 3.964460 0.000000 
#    z 0.138160 0.000000 4.007270 
# 
# 
# High freq. dielectric constant tensor:
#      x y z
#    x 1.859480 0.000000 -0.003310 
#    y 0.000000 1.860180 0.000000 
#    z -0.003310 0.000000 1.865190 
# 
# From -- ./inp_files/101359.got.cif
#   From: 2010.06.25/outbox.cif.g09.slc.cpg/sg15_51_cif.got.tgz:101359.got - 2010.06.28 07:06:18.
