data_PCOD8146869
_publ_section_title
;
Structure prediction by ZEFSAII (Michael W. Deem and Ramdas Pophale) SiO2 
 PCOD8146869
Probable space group: C 2/C
;
_chemical_formula_sum "Si O2"
_cell_formula_units_Z 40
_cell_length_a 8.610904
_cell_length_b 12.100882
_cell_length_c 17.143563
_cell_angle_alpha 90.000000
_cell_angle_beta 97.695125
_cell_angle_gamma 90.000000
_cell_volume 1770.264448
_symmetry_space_group_name_H-M "C 2/C"
_symmetry_group_IT_number 15
_symmetry_cell_setting 'monoclinic'
loop_
_space_group_symop_operation_xyz
x,y,z
-x,y,1/2-z
-x,-y,-z
x,-y,1/2+z
1/2+x,1/2+y,z
1/2-x,1/2+y,1/2-z
1/2-x,1/2-y,-z
1/2+x,1/2-y,1/2+z
loop_
_atom_site_type_symbol
_atom_site_label
_atom_site_fract_x
_atom_site_fract_y
_atom_site_fract_z
Si Si1 0.737572 0.763120 0.358290
Si Si2 0.723477 0.042066 0.069783
Si Si3 0.823681 0.672631 0.208292
Si Si4 0.896796 0.480943 0.108737
Si Si5 0.950583 0.122354 0.659833
O O1 0.736370 0.672451 0.426933
O O2 0.711294 0.694824 0.275239
O O3 0.601190 0.853858 0.361719
O O4 0.897464 0.833065 0.375069
O O5 0.577252 0.020366 0.118674
O O6 0.878365 0.979140 0.108035
O O7 0.681722 0.004508 0.980485
O O8 0.793134 0.557995 0.160623
O O9 0.817386 0.780549 0.151914
O O10 0.000000 0.671426 0.250000
O O11 0.000000 0.083759 0.750000
#
# Coordination Sequence:
#
# PCOD8146869 Si02
#       5
#     8   8   8   8   8
#     4  10  22  42  66  88 133 168 216 270 316 381
#     4  11  23  43  65  98 135 164 215 269 326 389
#     4   9  19  39  62  87 126 169 208 262 316 370
#     4  11  23  41  69  96 130 174 209 270 331 376
#     4   9  21  42  63  89 132 171 206 267 322 377
#
# _framework density 22.595493999999999
#
# number of rings (size 3 to 8) (size 9 to 14) (size 15 to 20)
#    0.000    2.400    4.000    0.600    5.600    1.600 
#    3.600    1.000    0.000    0.000    0.000    0.000 
#    0.000    0.000    0.000    0.000    0.000    0.000 
#
# Total GULP energy -247920.827194 kJ/mol
# GULP energy per Si atom -12396.041360 kJ/mol
# Density = 2.254407 g / cm^3
# Si number density = 22.595494 Si / 1000 Ang^3
#
#
#
# Elastic Constant Matrix: (Units=GPa)
#
#
# Indices 1 2 3 4 5 6 
#
# 1 34.7147 39.5047 19.0121 0.0000 -2.4389 0.0000
# 2 39.5047 155.8629 44.8014 0.0000 8.4821 0.0000
# 3 19.0121 44.8014 63.9256 0.0000 0.1030 0.0000
# 4 0.0000 0.0000 0.0000 41.0527 0.0000 -0.3766
# 5 -2.4389 8.4821 0.1030 0.0000 13.2035 0.0000
# 6 0.0000 0.0000 0.0000 -0.3766 0.0000 29.5168
#
#
#
# Elastic Compliance Matrix: (Units=1/GPa)
#
#
# Indices 1 2 3 4 5 6 
#
# 1 0.045184 -0.010528 -0.006084 0.000000 0.015157 0.000000
# 2 -0.010528 0.010849 -0.004458 0.000000 -0.008879 0.000000
# 3 -0.006084 -0.004458 0.020574 0.000000 0.001580 0.000000
# 4 0.000000 0.000000 0.000000 0.024362 0.000000 0.000311
# 5 0.015157 -0.008879 0.001580 0.000000 0.084229 0.000000
# 6 0.000000 0.000000 0.000000 0.000311 0.000000 0.033883
#
#
# Mechanical properties :
#
#
# Convention : Reuss Voigt Hill
#
# Bulk Modulus (GPa) = 29.01316 51.23775 40.12546
# Shear Modulus (GPa) = 18.33445 26.83360 22.58403
#
# Velocity S-wave (km/s) = 2.85163 3.44984 3.16490
# Velocity P-wave (km/s) = 4.86935 6.21240 5.58142
#
# Compressibility (1/GPa) = 0.03446712
#
# Stress axis : x y z
#
# Youngs Moduli (GPa) = 22.13166 92.17459 48.60435
#
# Poissons Ratio (x) = 0.97045 0.29571
# Poissons Ratio (y) = 0.23301 0.21667
# Poissons Ratio (z) = 0.13465 0.41090
#
# Static dielectric constant tensor:
#      x y z
#    x 3.736470 0.000000 -0.294470 
#    y 0.000000 4.587560 0.000000 
#    z -0.294470 0.000000 3.901350 
# 
# 
# High freq. dielectric constant tensor:
#      x y z
#    x 1.855800 0.000000 -0.016130 
#    y 0.000000 1.906140 0.000000 
#    z -0.016130 0.000000 1.876560 
# 
# From -- ./inp_files/187890.got.cif
#   From: 2010.06.25/outbox.cif.g09.slc.cpg/sg15_94_cif.got.tgz:187890.got - 2010.06.28 07:06:18.
