data_PCOD8146146
_publ_section_title
;
Structure prediction by ZEFSAII (Michael W. Deem and Ramdas Pophale) SiO2 
 PCOD8146146
Probable space group: C 2/C
;
_chemical_formula_sum "Si O2"
_cell_formula_units_Z 56
_cell_length_a 15.703668
_cell_length_b 13.490724
_cell_length_c 10.660922
_cell_angle_alpha 90.000000
_cell_angle_beta 83.154325
_cell_angle_gamma 90.000000
_cell_volume 2242.455679
_symmetry_space_group_name_H-M "C 2/C"
_symmetry_group_IT_number 15
_symmetry_cell_setting 'monoclinic'
loop_
_space_group_symop_operation_xyz
x,y,z
-x,y,1/2-z
-x,-y,-z
x,-y,1/2+z
1/2+x,1/2+y,z
1/2-x,1/2+y,1/2-z
1/2-x,1/2-y,-z
1/2+x,1/2-y,1/2+z
loop_
_atom_site_type_symbol
_atom_site_label
_atom_site_fract_x
_atom_site_fract_y
_atom_site_fract_z
Si Si1 0.881686 0.313235 0.924031
Si Si2 0.930716 0.041162 0.171383
Si Si3 0.770836 0.266627 0.179492
Si Si4 0.488286 0.653841 0.553421
Si Si5 0.655371 0.758298 0.074096
Si Si6 0.747816 0.487510 0.238865
Si Si7 0.846113 0.475591 0.473056
O O1 0.812730 0.305678 0.820797
O O2 0.909117 0.428298 0.946410
O O3 0.832337 0.265384 0.049576
O O4 0.968103 0.249256 0.886252
O O5 0.837899 0.053344 0.250778
O O6 0.000000 0.091676 0.250000
O O7 0.949375 0.922925 0.159150
O O8 0.937345 0.095748 0.036643
O O9 0.833701 0.233771 0.281016
O O10 0.729525 0.373673 0.210146
O O11 0.409623 0.682936 0.477374
O O12 0.613078 0.868515 0.063529
O O13 0.750000 0.750000 0.000000
O O14 0.775400 0.495412 0.378874
O O15 0.810948 0.530128 0.121322
#
# Coordination Sequence:
#
# PCOD8146146 Si02
#       7
#     8   8   8   8   8   8   8
#     4  10  22  40  67  97 130 175 223 268 332 398
#     4  11  26  40  64  95 138 174 214 281 342 401
#     4   9  21  40  65  95 131 172 219 269 319 407
#     4  11  26  42  64 102 134 175 223 279 339 396
#     4  11  25  43  64  95 133 175 224 275 336 397
#     4  10  22  42  67  96 131 170 224 272 332 400
#     4  10  24  42  70  96 129 178 224 275 328 402
#
# _framework density 24.972622999999999
#
# number of rings (size 3 to 8) (size 9 to 14) (size 15 to 20)
#    0.000    1.714    0.000    2.571   16.000    0.571 
#    0.000    0.000    0.000    1.714    0.000    0.000 
#    0.000    0.000    0.000    0.000    0.000    0.000 
#
# Total GULP energy -347047.798253 kJ/mol
# GULP energy per Si atom -12394.564223 kJ/mol
# Density = 2.491578 g / cm^3
# Si number density = 24.972623 Si / 1000 Ang^3
#
#
#
# Elastic Constant Matrix: (Units=GPa)
#
#
# Indices 1 2 3 4 5 6 
#
# 1 55.9382 1.3501 -0.7807 0.0000 8.0031 0.0000
# 2 1.3501 108.2098 -10.7658 0.0000 -6.7584 0.0000
# 3 -0.7807 -10.7658 76.0601 0.0000 11.8505 0.0000
# 4 0.0000 0.0000 0.0000 31.1188 0.0000 5.2530
# 5 8.0031 -6.7584 11.8505 0.0000 28.5159 0.0000
# 6 0.0000 0.0000 0.0000 5.2530 0.0000 35.0082
#
#
#
# Elastic Compliance Matrix: (Units=1/GPa)
#
#
# Indices 1 2 3 4 5 6 
#
# 1 0.018733 -0.000494 0.001026 0.000000 -0.005801 0.000000
# 2 -0.000494 0.009472 0.001031 0.000000 0.001955 0.000000
# 3 0.001026 0.001031 0.014232 0.000000 -0.005958 0.000000
# 4 0.000000 0.000000 0.000000 0.032970 0.000000 -0.004947
# 5 -0.005801 0.001955 -0.005958 0.000000 0.039636 0.000000
# 6 0.000000 0.000000 0.000000 -0.004947 0.000000 0.029307
#
#
# Mechanical properties :
#
#
# Convention : Reuss Voigt Hill
#
# Bulk Modulus (GPa) = 21.94710 24.42392 23.18551
# Shear Modulus (GPa) = 31.96692 35.62221 33.79457
#
# Velocity S-wave (km/s) = 3.58170 3.78094 3.68267
# Velocity P-wave (km/s) = 5.09041 5.37235 5.23328
#
# Compressibility (1/GPa) = 0.04556410
#
# Stress axis : x y z
#
# Youngs Moduli (GPa) = 53.38155 105.57262 70.26275
#
# Poissons Ratio (x) = 0.05215 -0.07210
# Poissons Ratio (y) = 0.02637 -0.07244
# Poissons Ratio (z) = -0.05478 -0.10885
#
# Static dielectric constant tensor:
#      x y z
#    x 3.998620 0.000000 0.216700 
#    y 0.000000 4.917460 0.000000 
#    z 0.216700 0.000000 4.575100 
# 
# 
# High freq. dielectric constant tensor:
#      x y z
#    x 1.955070 0.000000 0.013070 
#    y 0.000000 2.019280 0.000000 
#    z 0.013070 0.000000 1.997560 
# 
# From -- ./inp_files/97013.got.cif
#   From: 2010.06.25/outbox.cif.g09.slc.cpg/sg15_49_cif.got.tgz:97013.got - 2010.06.28 07:06:18.
