data_PCOD8146744
_publ_section_title
;
Structure prediction by ZEFSAII (Michael W. Deem and Ramdas Pophale) SiO2 
 PCOD8146744
Probable space group: C 2/C
;
_chemical_formula_sum "Si O2"
_cell_formula_units_Z 28
_cell_length_a 17.894393
_cell_length_b 13.607392
_cell_length_c 5.357440
_cell_angle_alpha 90.000000
_cell_angle_beta 59.833148
_cell_angle_gamma 90.000000
_cell_volume 1127.839167
_symmetry_space_group_name_H-M "C 2/C"
_symmetry_group_IT_number 15
_symmetry_cell_setting 'monoclinic'
loop_
_space_group_symop_operation_xyz
x,y,z
-x,y,1/2-z
-x,-y,-z
x,-y,1/2+z
1/2+x,1/2+y,z
1/2-x,1/2+y,1/2-z
1/2-x,1/2-y,-z
1/2+x,1/2-y,1/2+z
loop_
_atom_site_type_symbol
_atom_site_label
_atom_site_fract_x
_atom_site_fract_y
_atom_site_fract_z
Si Si1 0.245299 0.109448 0.109285
Si Si2 0.816805 0.390070 0.988884
Si Si3 0.455100 0.368136 0.571904
Si Si4 0.000000 0.319821 0.750000
O O1 0.273438 0.163237 0.320352
O O2 0.143396 0.098765 0.258084
O O3 0.283715 0.164709 0.799233
O O4 0.287503 0.002053 0.058480
O O5 0.920702 0.386878 0.791013
O O6 0.500000 0.405279 0.750000
O O7 0.465363 0.249786 0.533167
O O8 0.500000 0.417301 0.250000
#
# Coordination Sequence:
#
# PCOD8146744 Si02
#       4
#     8   8   8   4
#     4  10  22  42  63  95 124 167 209 256 309 372
#     4  10  23  40  65  93 126 163 210 258 309 369
#     4  10  23  42  64  93 128 166 206 257 313 373
#     4  10  26  40  66  94 130 160 208 260 318 364
#
# _framework density 24.826233999999999
#
# number of rings (size 3 to 8) (size 9 to 14) (size 15 to 20)
#    0.857    1.143    0.000    1.714    4.000    6.857 
#    0.000   17.143    0.000    0.000    0.000    0.000 
#    0.000    0.000    0.000    0.000    0.000    0.000 
#
# Total GULP energy -173500.307882 kJ/mol
# GULP energy per Si atom -12392.879134 kJ/mol
# Density = 2.476973 g / cm^3
# Si number density = 24.826234 Si / 1000 Ang^3
#
#
#
# Elastic Constant Matrix: (Units=GPa)
#
#
# Indices 1 2 3 4 5 6 
#
# 1 261.9258 34.4184 112.3480 0.0000 -4.3994 0.0000
# 2 34.4184 42.3342 25.2897 0.0000 -18.7876 0.0000
# 3 112.3480 25.2897 175.0925 0.0000 33.2048 0.0000
# 4 0.0000 0.0000 0.0000 40.0646 0.0000 2.0192
# 5 -4.3994 -18.7876 33.2048 0.0000 76.2679 0.0000
# 6 0.0000 0.0000 0.0000 2.0192 0.0000 72.0539
#
#
#
# Elastic Compliance Matrix: (Units=1/GPa)
#
#
# Indices 1 2 3 4 5 6 
#
# 1 0.005636 -0.001747 -0.003645 0.000000 0.001482 0.000000
# 2 -0.001747 0.033080 -0.005650 0.000000 0.010508 0.000000
# 3 -0.003645 -0.005650 0.009995 0.000000 -0.005953 0.000000
# 4 0.000000 0.000000 0.000000 0.024995 0.000000 -0.000700
# 5 0.001482 0.010508 -0.005953 0.000000 0.018378 0.000000
# 6 0.000000 0.000000 0.000000 -0.000700 0.000000 0.013898
#
#
# Mechanical properties :
#
#
# Convention : Reuss Voigt Hill
#
# Bulk Modulus (GPa) = 37.55464 91.49609 64.52536
# Shear Modulus (GPa) = 36.51218 58.16372 47.33795
#
# Velocity S-wave (km/s) = 3.83914 4.84553 4.37140
# Velocity P-wave (km/s) = 5.90016 8.26076 7.17816
#
# Compressibility (1/GPa) = 0.02662787
#
# Stress axis : x y z
#
# Youngs Moduli (GPa) = 177.44077 30.22949 100.05041
#
# Poissons Ratio (x) = 0.05281 0.36466
# Poissons Ratio (y) = 0.31001 0.56525
# Poissons Ratio (z) = 0.64673 0.17079
#
# Static dielectric constant tensor:
#      x y z
#    x 4.950200 0.000000 1.277920 
#    y 0.000000 3.964920 0.000000 
#    z 1.277920 0.000000 6.373840 
# 
# 
# High freq. dielectric constant tensor:
#      x y z
#    x 1.998130 0.000000 0.010430 
#    y 0.000000 1.968170 0.000000 
#    z 0.010430 0.000000 2.003070 
# 
# From -- ./inp_files/3516.got.cif
#   From: 2010.06.25/outbox.cif.g09.slc.cpg/sg15_2_cif.got.tgz:3516.got - 2010.06.28 07:06:18.
