data_PCOD8146768
_publ_section_title
;
Structure prediction by ZEFSAII (Michael W. Deem and Ramdas Pophale) SiO2 
 PCOD8146768
Probable space group: C 2/C
;
_chemical_formula_sum "Si O2"
_cell_formula_units_Z 56
_cell_length_a 9.905799
_cell_length_b 8.977070
_cell_length_c 27.844600
_cell_angle_alpha 90.000000
_cell_angle_beta 73.656103
_cell_angle_gamma 90.000000
_cell_volume 2376.023929
_symmetry_space_group_name_H-M "C 2/C"
_symmetry_group_IT_number 15
_symmetry_cell_setting 'monoclinic'
loop_
_space_group_symop_operation_xyz
x,y,z
-x,y,1/2-z
-x,-y,-z
x,-y,1/2+z
1/2+x,1/2+y,z
1/2-x,1/2+y,1/2-z
1/2-x,1/2-y,-z
1/2+x,1/2-y,1/2+z
loop_
_atom_site_type_symbol
_atom_site_label
_atom_site_fract_x
_atom_site_fract_y
_atom_site_fract_z
Si Si1 0.687838 0.268866 0.774163
Si Si2 0.500000 0.512403 0.750000
Si Si3 0.374778 0.327571 0.610363
Si Si4 0.156880 0.324880 0.050474
Si Si5 0.840210 0.327343 0.950943
Si Si6 0.112569 0.173912 0.897462
Si Si7 0.000000 0.474649 0.250000
Si Si8 0.469437 0.768557 0.694223
O O1 0.630511 0.414789 0.753544
O O2 0.648254 0.263061 0.834329
O O3 0.853765 0.271518 0.749414
O O4 0.631569 0.124110 0.752138
O O5 0.550282 0.613736 0.698543
O O6 0.502027 0.244124 0.570497
O O7 0.229947 0.301862 0.594780
O O8 0.416154 0.500324 0.607881
O O9 0.142322 0.498762 0.039665
O O10 0.237538 0.299356 0.092784
O O11 0.250000 0.250000 0.000000
O O12 0.988388 0.243981 0.941474
O O13 0.750000 0.250000 0.000000
O O14 0.107715 0.267423 0.848752
O O15 0.048505 0.574273 0.197725
#
# Coordination Sequence:
#
# PCOD8146768 Si02
#       8
#     8   4   8   8   8   8   4   8
#     4  11  24  41  64  95 136 177 222 272 324 393
#     4  10  22  42  64  88 134 180 222 262 334 382
#     4  11  26  44  71 100 136 179 226 276 338 400
#     4  11  26  48  72 102 135 172 224 283 340 403
#     4  11  26  48  72 102 135 172 224 283 340 403
#     4  11  26  44  71 100 136 179 226 276 338 400
#     4  10  26  38  64  92 138 172 230 270 326 382
#     4  11  24  41  64  95 136 177 222 272 324 393
#
# _framework density 23.568784999999998
#
# number of rings (size 3 to 8) (size 9 to 14) (size 15 to 20)
#    0.000    1.143    1.429    2.571   10.000    5.714 
#    0.000    0.000    0.000    0.000    0.000    0.000 
#    0.000    0.000    0.000    0.000    0.000    0.000 
#
# Total GULP energy -347077.332104 kJ/mol
# GULP energy per Si atom -12395.619004 kJ/mol
# Density = 2.351514 g / cm^3
# Si number density = 23.568785 Si / 1000 Ang^3
#
#
#
# Elastic Constant Matrix: (Units=GPa)
#
#
# Indices 1 2 3 4 5 6 
#
# 1 61.8199 23.8507 -12.2976 0.0000 2.8981 0.0000
# 2 23.8507 135.1285 16.0873 0.0000 11.6180 0.0000
# 3 -12.2976 16.0873 75.5158 0.0000 4.9683 0.0000
# 4 0.0000 0.0000 0.0000 35.5017 0.0000 -1.2798
# 5 2.8981 11.6180 4.9683 0.0000 43.6831 0.0000
# 6 0.0000 0.0000 0.0000 -1.2798 0.0000 18.8152
#
#
#
# Elastic Compliance Matrix: (Units=1/GPa)
#
#
# Indices 1 2 3 4 5 6 
#
# 1 0.018370 -0.003637 0.003811 0.000000 -0.000685 0.000000
# 2 -0.003637 0.008464 -0.002280 0.000000 -0.001751 0.000000
# 3 0.003811 -0.002280 0.014433 0.000000 -0.001288 0.000000
# 4 0.000000 0.000000 0.000000 0.028237 0.000000 0.001921
# 5 -0.000685 -0.001751 -0.001288 0.000000 0.023550 0.000000
# 6 0.000000 0.000000 0.000000 0.001921 0.000000 0.053279
#
#
# Mechanical properties :
#
#
# Convention : Reuss Voigt Hill
#
# Bulk Modulus (GPa) = 26.98689 36.41612 31.70151
# Shear Modulus (GPa) = 30.69426 35.92159 33.30793
#
# Velocity S-wave (km/s) = 3.61269 3.90823 3.76336
# Velocity P-wave (km/s) = 5.37375 5.98750 5.68891
#
# Compressibility (1/GPa) = 0.03705503
#
# Stress axis : x y z
#
# Youngs Moduli (GPa) = 54.43792 118.14305 69.28354
#
# Poissons Ratio (x) = 0.42971 -0.26406
# Poissons Ratio (y) = 0.19800 0.15799
# Poissons Ratio (z) = -0.20748 0.26940
#
# Static dielectric constant tensor:
#      x y z
#    x 2.009820 0.000000 2.665400 
#    y 0.000000 4.726830 0.000000 
#    z 2.665400 0.000000 1.690880 
# 
# 
# High freq. dielectric constant tensor:
#      x y z
#    x 1.948560 0.000000 0.020200 
#    y 0.000000 1.952230 0.000000 
#    z 0.020200 0.000000 1.926890 
# 
# From -- ./inp_files/291545.got.cif
#   From: 2010.06.25/outbox.cif.g09.slc.cpg/sg15_146_cif.got.tgz:291545.got - 2010.06.28 07:06:18.
