data_PCOD8146377
_publ_section_title
;
Structure prediction by ZEFSAII (Michael W. Deem and Ramdas Pophale) SiO2 
 PCOD8146377
Probable space group: C 2/C
;
_chemical_formula_sum "Si O2"
_cell_formula_units_Z 64
_cell_length_a 18.568461
_cell_length_b 15.189364
_cell_length_c 10.946814
_cell_angle_alpha 90.000000
_cell_angle_beta 85.926391
_cell_angle_gamma 90.000000
_cell_volume 3079.673335
_symmetry_space_group_name_H-M "C 2/C"
_symmetry_group_IT_number 15
_symmetry_cell_setting 'monoclinic'
loop_
_space_group_symop_operation_xyz
x,y,z
-x,y,1/2-z
-x,-y,-z
x,-y,1/2+z
1/2+x,1/2+y,z
1/2-x,1/2+y,1/2-z
1/2-x,1/2-y,-z
1/2+x,1/2-y,1/2+z
loop_
_atom_site_type_symbol
_atom_site_label
_atom_site_fract_x
_atom_site_fract_y
_atom_site_fract_z
Si Si1 0.421379 0.418034 0.311195
Si Si2 0.339645 0.094725 0.897254
Si Si3 0.972712 0.251902 0.896608
Si Si4 0.445177 0.248866 0.859524
Si Si5 0.703229 0.855586 0.833172
Si Si6 0.351582 0.403069 0.868034
Si Si7 0.422511 0.923514 0.821007
Si Si8 0.692951 0.351068 0.360866
O O1 0.500000 0.445164 0.250000
O O2 0.425360 0.337627 0.409202
O O3 0.381053 0.498307 0.382343
O O4 0.374300 0.389456 0.202453
O O5 0.380402 0.181881 0.854597
O O6 0.266513 0.093185 0.822749
O O7 0.392517 0.011376 0.885608
O O8 0.312052 0.101499 0.036207
O O9 0.930934 0.344599 0.920027
O O10 0.000000 0.253391 0.750000
O O11 0.029734 0.248088 0.000606
O O12 0.500000 0.215846 0.750000
O O13 0.418584 0.344071 0.815104
O O14 0.782428 0.894475 0.784532
O O15 0.637741 0.890134 0.762524
O O16 0.705397 0.750563 0.827287
O O17 0.326799 0.357814 0.995835
O O18 0.500000 0.944204 0.750000
#
# Coordination Sequence:
#
# PCOD8146377 Si02
#       8
#     8   8   8   8   8   8   8   8
#     4  11  23  38  65  95 127 163 215 272 326 381
#     4  11  22  39  63  95 125 169 220 267 320 385
#     4  10  22  41  64  90 126 178 219 257 316 399
#     4  12  24  38  62  96 139 167 207 275 340 377
#     4  11  21  42  69  88 122 179 227 259 308 398
#     4  11  22  39  63  95 125 169 220 267 320 385
#     4  11  23  38  65  95 127 163 215 272 326 381
#     4  11  21  42  69  88 122 179 227 259 308 398
#
# _framework density 20.781424999999999
#
# number of rings (size 3 to 8) (size 9 to 14) (size 15 to 20)
#    0.000    1.000    3.750    5.250    0.000    6.000 
#    0.000    0.000    0.000    4.500    0.000    0.000 
#    0.000    0.000    0.000    0.000    0.000    0.000 
#
# Total GULP energy -396444.007388 kJ/mol
# GULP energy per Si atom -12388.875231 kJ/mol
# Density = 2.073413 g / cm^3
# Si number density = 20.781425 Si / 1000 Ang^3
#
#
#
# Elastic Constant Matrix: (Units=GPa)
#
#
# Indices 1 2 3 4 5 6 
#
# 1 151.3185 45.3971 34.6903 0.0000 27.2142 0.0000
# 2 45.3971 121.5393 11.3893 0.0000 7.1469 0.0000
# 3 34.6903 11.3893 49.4049 0.0000 4.6903 0.0000
# 4 0.0000 0.0000 0.0000 17.8089 0.0000 0.2264
# 5 27.2142 7.1469 4.6903 0.0000 18.5900 0.0000
# 6 0.0000 0.0000 0.0000 0.2264 0.0000 56.0454
#
#
#
# Elastic Compliance Matrix: (Units=1/GPa)
#
#
# Indices 1 2 3 4 5 6 
#
# 1 0.011360 -0.002858 -0.005987 0.000000 -0.014021 0.000000
# 2 -0.002858 0.009274 -0.000195 0.000000 0.000667 0.000000
# 3 -0.005987 -0.000195 0.024231 0.000000 0.002725 0.000000
# 4 0.000000 0.000000 0.000000 0.056154 0.000000 -0.000227
# 5 -0.014021 0.000667 0.002725 0.000000 0.073374 0.000000
# 6 0.000000 0.000000 0.000000 -0.000227 0.000000 0.017844
#
#
# Mechanical properties :
#
#
# Convention : Reuss Voigt Hill
#
# Bulk Modulus (GPa) = 37.33202 56.13512 46.73357
# Shear Modulus (GPa) = 22.80563 33.87461 28.34012
#
# Velocity S-wave (km/s) = 3.31630 4.04176 3.69687
# Velocity P-wave (km/s) = 5.71550 6.98941 6.38431
#
# Compressibility (1/GPa) = 0.02678666
#
# Stress axis : x y z
#
# Youngs Moduli (GPa) = 88.02793 107.82592 41.26997
#
# Poissons Ratio (x) = 0.30813 0.24707
# Poissons Ratio (y) = 0.25156 0.00804
# Poissons Ratio (z) = 0.52700 0.02100
#
# Static dielectric constant tensor:
#      x y z
#    x 4.421910 0.000000 0.174580 
#    y 0.000000 4.162220 0.000000 
#    z 0.174580 0.000000 3.403520 
# 
# 
# High freq. dielectric constant tensor:
#      x y z
#    x 1.839090 0.000000 0.021670 
#    y 0.000000 1.830900 0.000000 
#    z 0.021670 0.000000 1.772440 
# 
# From -- ./inp_files/105717.got.cif
#   From: 2010.06.25/outbox.cif.g09.slc.cpg/sg15_53_cif.got.tgz:105717.got - 2010.06.28 07:06:18.
