data_PCOD8146245
_publ_section_title
;
Structure prediction by ZEFSAII (Michael W. Deem and Ramdas Pophale) SiO2 
 PCOD8146245
Probable space group: C 2/C
;
_chemical_formula_sum "Si O2"
_cell_formula_units_Z 56
_cell_length_a 5.544114
_cell_length_b 14.061452
_cell_length_c 31.618132
_cell_angle_alpha 90.000000
_cell_angle_beta 93.658940
_cell_angle_gamma 90.000000
_cell_volume 2459.871172
_symmetry_space_group_name_H-M "C 2/C"
_symmetry_group_IT_number 15
_symmetry_cell_setting 'monoclinic'
loop_
_space_group_symop_operation_xyz
x,y,z
-x,y,1/2-z
-x,-y,-z
x,-y,1/2+z
1/2+x,1/2+y,z
1/2-x,1/2+y,1/2-z
1/2-x,1/2-y,-z
1/2+x,1/2-y,1/2+z
loop_
_atom_site_type_symbol
_atom_site_label
_atom_site_fract_x
_atom_site_fract_y
_atom_site_fract_z
Si Si1 0.842884 0.601499 0.829455
Si Si2 0.611724 0.079850 0.343564
Si Si3 0.816597 0.378506 0.917136
Si Si4 0.376616 0.822329 0.086910
Si Si5 0.995800 0.692517 0.998914
Si Si6 0.735984 0.720349 0.225192
Si Si7 0.993659 0.041395 0.890567
O O1 0.812744 0.671631 0.789723
O O2 0.580827 0.578159 0.845563
O O3 0.972346 0.503638 0.815808
O O4 0.992324 0.649935 0.868739
O O5 0.434305 0.138854 0.372104
O O6 0.756005 0.148927 0.314088
O O7 0.784377 0.033492 0.379994
O O8 0.627269 0.291780 0.917192
O O9 0.700497 0.483858 0.917856
O O10 0.995183 0.375523 0.959707
O O11 0.106552 0.868790 0.083842
O O12 0.516174 0.861930 0.046698
O O13 0.750000 0.750000 0.000000
O O14 0.250000 0.750000 0.000000
O O15 0.500000 0.689637 0.250000
O O16 0.000000 0.714464 0.250000
#
# Coordination Sequence:
#
# PCOD8146245 Si02
#       7
#     8   8   8   8   8   8   8
#     4  10  24  45  71 100 137 184 225 286 349 422
#     4  10  24  45  71 100 137 184 225 286 349 422
#     4  10  22  40  70  96 138 183 230 284 340 412
#     4  10  22  40  70  96 138 183 230 284 340 412
#     4  10  24  39  63 105 136 183 235 287 341 396
#     4  12  30  48  74 107 134 181 232 288 358 426
#     4  10  22  41  69 100 128 188 228 276 350 410
#
# _framework density 22.765418
#
# number of rings (size 3 to 8) (size 9 to 14) (size 15 to 20)
#    0.000    1.714    0.000    1.714   20.000    1.143 
#    0.000    6.429    0.000    0.000    0.000    0.000 
#    0.000    0.000    0.000    0.000    0.000    0.000 
#
# Total GULP energy -346940.122555 kJ/mol
# GULP energy per Si atom -12390.718663 kJ/mol
# Density = 2.271360 g / cm^3
# Si number density = 22.765418 Si / 1000 Ang^3
#
#
#
# Elastic Constant Matrix: (Units=GPa)
#
#
# Indices 1 2 3 4 5 6 
#
# 1 115.7181 15.8839 28.3112 0.0000 -15.5736 0.0000
# 2 15.8839 62.7576 12.5121 0.0000 -20.7201 0.0000
# 3 28.3112 12.5121 70.2800 0.0000 -23.2887 0.0000
# 4 0.0000 0.0000 0.0000 11.9064 0.0000 3.6873
# 5 -15.5736 -20.7201 -23.2887 0.0000 32.7219 0.0000
# 6 0.0000 0.0000 0.0000 3.6873 0.0000 30.9757
#
#
#
# Elastic Compliance Matrix: (Units=1/GPa)
#
#
# Indices 1 2 3 4 5 6 
#
# 1 0.009817 -0.001335 -0.003205 0.000000 0.001546 0.000000
# 2 -0.001335 0.020366 0.001276 0.000000 0.013168 0.000000
# 3 -0.003205 0.001276 0.019701 0.000000 0.013304 0.000000
# 4 0.000000 0.000000 0.000000 0.087204 0.000000 -0.010381
# 5 0.001546 0.013168 0.013304 0.000000 0.049104 0.000000
# 6 0.000000 0.000000 0.000000 -0.010381 0.000000 0.033519
#
#
# Mechanical properties :
#
#
# Convention : Reuss Voigt Hill
#
# Bulk Modulus (GPa) = 23.06514 40.24113 31.65314
# Shear Modulus (GPa) = 20.77356 27.92402 24.34879
#
# Velocity S-wave (km/s) = 3.02405 3.50608 3.27395
# Velocity P-wave (km/s) = 4.72724 5.83994 5.31280
#
# Compressibility (1/GPa) = 0.04335548
#
# Stress axis : x y z
#
# Youngs Moduli (GPa) = 101.86333 49.10240 50.75822
#
# Poissons Ratio (x) = 0.06557 0.16266
# Poissons Ratio (y) = 0.13603 -0.06476
# Poissons Ratio (z) = 0.32643 -0.06264
#
# Static dielectric constant tensor:
#      x y z
#    x 4.365260 0.000000 -0.203080 
#    y 0.000000 4.155370 0.000000 
#    z -0.203080 0.000000 4.290810 
# 
# 
# High freq. dielectric constant tensor:
#      x y z
#    x 1.905360 0.000000 -0.008660 
#    y 0.000000 1.895460 0.000000 
#    z -0.008660 0.000000 1.892530 
# 
# From -- ./inp_files/305386.got.cif
#   From: 2010.06.25/outbox.cif.g09.slc.cpg/sg15_153_cif.got.tgz:305386.got - 2010.06.28 07:06:18.
