data_PCOD8146645
_publ_section_title
;
Structure prediction by ZEFSAII (Michael W. Deem and Ramdas Pophale) SiO2 
 PCOD8146645
Probable space group: C 2/C
;
_chemical_formula_sum "Si O2"
_cell_formula_units_Z 48
_cell_length_a 11.419180
_cell_length_b 12.985248
_cell_length_c 19.468379
_cell_angle_alpha 90.000000
_cell_angle_beta 49.410309
_cell_angle_gamma 90.000000
_cell_volume 2192.193625
_symmetry_space_group_name_H-M "C 2/C"
_symmetry_group_IT_number 15
_symmetry_cell_setting 'monoclinic'
loop_
_space_group_symop_operation_xyz
x,y,z
-x,y,1/2-z
-x,-y,-z
x,-y,1/2+z
1/2+x,1/2+y,z
1/2-x,1/2+y,1/2-z
1/2-x,1/2-y,-z
1/2+x,1/2-y,1/2+z
loop_
_atom_site_type_symbol
_atom_site_label
_atom_site_fract_x
_atom_site_fract_y
_atom_site_fract_z
Si Si1 0.000000 0.605090 0.250000
Si Si2 0.252278 0.770362 0.918391
Si Si3 0.774464 0.569371 0.794349
Si Si4 0.216146 0.863398 0.578495
Si Si5 0.680681 0.561552 0.676691
Si Si6 0.500000 0.762471 0.250000
Si Si7 0.083670 0.167640 0.984421
O O1 0.916609 0.675092 0.339579
O O2 0.861842 0.535700 0.276292
O O3 0.244398 0.663596 0.881603
O O4 0.250000 0.750000 0.000000
O O5 0.102646 0.834901 0.948771
O O6 0.720130 0.546531 0.739899
O O7 0.637760 0.597602 0.899449
O O8 0.883541 0.667952 0.751959
O O9 0.067933 0.809214 0.666154
O O10 0.166695 0.885500 0.518550
O O11 0.361958 0.787532 0.534719
O O12 0.250333 0.969899 0.603681
O O13 0.500000 0.565379 0.750000
#
# Coordination Sequence:
#
# PCOD8146645 Si02
#       7
#     4   8   8   8   8   4   8
#     4  11  28  47  70 100 146 187 226 287 356 416
#     4  12  28  47  69 100 151 186 229 284 358 419
#     4  10  24  44  72 100 136 182 235 283 347 415
#     4  10  22  41  72 104 133 178 237 292 338 410
#     4  12  25  42  69 102 136 181 233 278 343 418
#     4   9  18  43  68  96 136 179 228 281 346 406
#     4  10  24  45  72 102 138 182 233 296 349 412
#
# _framework density 21.895878
#
# number of rings (size 3 to 8) (size 9 to 14) (size 15 to 20)
#    0.000    1.333    1.667    2.000    7.000    4.000 
#    0.000    0.000    0.000    0.000    0.000    0.000 
#    0.000    0.000    0.000    0.000    0.000    0.000 
#
# Total GULP energy -297467.489818 kJ/mol
# GULP energy per Si atom -12394.478742 kJ/mol
# Density = 2.184604 g / cm^3
# Si number density = 21.895878 Si / 1000 Ang^3
#
#
#
# Elastic Constant Matrix: (Units=GPa)
#
#
# Indices 1 2 3 4 5 6 
#
# 1 104.9990 36.9061 45.8228 0.0000 14.2921 0.0000
# 2 36.9061 113.2609 63.8572 0.0000 7.1042 0.0000
# 3 45.8228 63.8572 116.4784 0.0000 6.2379 0.0000
# 4 0.0000 0.0000 0.0000 67.6210 0.0000 0.1604
# 5 14.2921 7.1042 6.2379 0.0000 47.3593 0.0000
# 6 0.0000 0.0000 0.0000 0.1604 0.0000 -2.0337
#
#
#
# Elastic Compliance Matrix: (Units=1/GPa)
#
#
# Indices 1 2 3 4 5 6 
#
# 1 0.012124 -0.001688 -0.003688 0.000000 -0.002920 0.000000
# 2 -0.001688 0.013062 -0.006465 0.000000 -0.000598 0.000000
# 3 -0.003688 -0.006465 0.013564 0.000000 0.000296 0.000000
# 4 0.000000 0.000000 0.000000 0.014786 0.000000 0.001166
# 5 -0.002920 -0.000598 0.000296 0.000000 0.022047 0.000000
# 6 0.000000 0.000000 0.000000 0.001166 0.000000 -0.491611
#
#
# Mechanical properties :
#
#
# Convention : Reuss Voigt Hill
#
# Bulk Modulus (GPa) = 66.36225 69.76784 68.06504
# Shear Modulus (GPa) = -12.90907 35.13280 11.11187
#
# Velocity S-wave (km/s) = -2.43073 4.01002 2.25519
# Velocity P-wave (km/s) = 4.74299 7.30568 6.15909
#
# Compressibility (1/GPa) = 0.01506881
#
# Stress axis : x y z
#
# Youngs Moduli (GPa) = 82.48021 76.56028 73.72331
#
# Poissons Ratio (x) = 0.12926 0.27187
# Poissons Ratio (y) = 0.13926 0.47659
# Poissons Ratio (z) = 0.30416 0.49493
#
# Static dielectric constant tensor:
#      x y z
#    x 3.807900 0.000000 -0.041890 
#    y 0.000000 4.160320 0.000000 
#    z -0.041890 0.000000 3.985720 
# 
# 
# High freq. dielectric constant tensor:
#      x y z
#    x 1.860620 0.000000 0.000980 
#    y 0.000000 1.870270 0.000000 
#    z 0.000980 0.000000 1.874640 
# 
# From -- ./inp_files/237457.got.cif
#   From: 2010.06.25/outbox.cif.g09.slc.cpg/sg15_119_cif.got.tgz:237457.got - 2010.06.28 07:06:18.
