data_PCOD8146274
_publ_section_title
;
Structure prediction by ZEFSAII (Michael W. Deem and Ramdas Pophale) SiO2 
 PCOD8146274
Probable space group: C 2/C
;
_chemical_formula_sum "Si O2"
_cell_formula_units_Z 60
_cell_length_a 21.489004
_cell_length_b 12.123482
_cell_length_c 17.377669
_cell_angle_alpha 90.000000
_cell_angle_beta 144.104849
_cell_angle_gamma 90.000000
_cell_volume 2654.348170
_symmetry_space_group_name_H-M "C 2/C"
_symmetry_group_IT_number 15
_symmetry_cell_setting 'monoclinic'
loop_
_space_group_symop_operation_xyz
x,y,z
-x,y,1/2-z
-x,-y,-z
x,-y,1/2+z
1/2+x,1/2+y,z
1/2-x,1/2+y,1/2-z
1/2-x,1/2-y,-z
1/2+x,1/2-y,1/2+z
loop_
_atom_site_type_symbol
_atom_site_label
_atom_site_fract_x
_atom_site_fract_y
_atom_site_fract_z
Si Si1 0.684683 0.078079 0.845681
Si Si2 0.909371 0.561690 0.008992
Si Si3 0.982507 0.938797 0.146803
Si Si4 0.000000 0.526421 0.750000
Si Si5 0.734182 0.667767 0.056676
Si Si6 0.388114 0.355179 0.476348
Si Si7 0.988286 0.643913 0.942856
Si Si8 0.313642 0.350189 0.229637
O O1 0.792814 0.150798 0.945581
O O2 0.620294 0.097330 0.702665
O O3 0.600447 0.107195 0.829917
O O4 0.713176 0.952128 0.895798
O O5 0.973471 0.555141 0.152973
O O6 0.919162 0.446008 0.973534
O O7 0.960801 0.658749 0.006218
O O8 0.785403 0.577778 0.899529
O O9 0.000000 0.986948 0.250000
O O10 0.088890 0.882645 0.225424
O O11 0.891589 0.845681 0.056412
O O12 0.956836 0.037250 0.062478
O O13 0.784744 0.722945 0.183558
O O14 0.750000 0.750000 0.000000
O O15 0.469404 0.253494 0.556886
O O16 0.333847 0.368443 0.339395
#
# Coordination Sequence:
#
# PCOD8146274 Si02
#       8
#     8   8   8   4   8   8   8   8
#     4  10  23  46  68 104 143 179 245 294 357 430
#     4  10  23  43  69 104 139 178 246 300 356 423
#     4  11  26  48  67 105 155 185 243 306 362 446
#     4  10  22  40  74  98 142 182 224 312 366 406
#     4  11  24  43  74 108 141 185 233 309 373 423
#     4  11  26  44  70 101 150 199 239 293 364 442
#     4  10  23  45  69 100 137 195 240 298 345 434
#     4  12  25  41  71 107 138 194 242 297 377 430
#
# _framework density 22.604419
#
# number of rings (size 3 to 8) (size 9 to 14) (size 15 to 20)
#    0.000    1.333    2.667    1.200    9.333    2.133 
#    6.000    2.667    0.000    0.000    0.000    0.000 
#    0.000    0.000    0.000    0.000    0.000    0.000 
#
# Total GULP energy -371730.975210 kJ/mol
# GULP energy per Si atom -12391.032507 kJ/mol
# Density = 2.255297 g / cm^3
# Si number density = 22.604419 Si / 1000 Ang^3
#
#
#
# Elastic Constant Matrix: (Units=GPa)
#
#
# Indices 1 2 3 4 5 6 
#
# 1 160.2691 58.2001 66.2764 0.0000 17.9020 0.0000
# 2 58.2001 95.9947 42.2121 0.0000 10.4093 0.0000
# 3 66.2764 42.2121 108.6727 0.0000 7.1666 0.0000
# 4 0.0000 0.0000 0.0000 36.2524 0.0000 3.5910
# 5 17.9020 10.4093 7.1666 0.0000 53.6605 0.0000
# 6 0.0000 0.0000 0.0000 3.5910 0.0000 31.6209
#
#
#
# Elastic Compliance Matrix: (Units=1/GPa)
#
#
# Indices 1 2 3 4 5 6 
#
# 1 0.009565 -0.003718 -0.004264 0.000000 -0.001900 0.000000
# 2 -0.003718 0.014183 -0.003170 0.000000 -0.001088 0.000000
# 3 -0.004264 -0.003170 0.013014 0.000000 0.000299 0.000000
# 4 0.000000 0.000000 0.000000 0.027898 0.000000 -0.003168
# 5 -0.001900 -0.001088 0.000299 0.000000 0.019441 0.000000
# 6 0.000000 0.000000 0.000000 -0.003168 0.000000 0.031984
#
#
# Mechanical properties :
#
#
# Convention : Reuss Voigt Hill
#
# Bulk Modulus (GPa) = 69.16406 77.59041 73.37723
# Shear Modulus (GPa) = 34.91381 37.52330 36.21855
#
# Velocity S-wave (km/s) = 3.93435 4.07873 4.00719
# Velocity P-wave (km/s) = 7.16260 7.52205 7.34452
#
# Compressibility (1/GPa) = 0.01445838
#
# Stress axis : x y z
#
# Youngs Moduli (GPa) = 104.54452 70.50497 76.84025
#
# Poissons Ratio (x) = 0.26215 0.32765
# Poissons Ratio (y) = 0.38872 0.24358
# Poissons Ratio (z) = 0.44578 0.22350
#
# Static dielectric constant tensor:
#      x y z
#    x 4.494040 0.000000 0.141750 
#    y 0.000000 3.832480 0.000000 
#    z 0.141750 0.000000 4.210970 
# 
# 
# High freq. dielectric constant tensor:
#      x y z
#    x 1.912060 0.000000 0.010420 
#    y 0.000000 1.860630 0.000000 
#    z 0.010420 0.000000 1.901930 
# 
# From -- ./inp_files/215213.got.cif
#   From: 2010.06.25/outbox.cif.g09.slc.cpg/sg15_108_cif.got.tgz:215213.got - 2010.06.28 07:06:18.
