data_PCOD8146069
_publ_section_title
;
Structure prediction by ZEFSAII (Michael W. Deem and Ramdas Pophale) SiO2 
 PCOD8146069
Probable space group: C 2/C
;
_chemical_formula_sum "Si O2"
_cell_formula_units_Z 52
_cell_length_a 25.216491
_cell_length_b 8.379575
_cell_length_c 16.801233
_cell_angle_alpha 90.000000
_cell_angle_beta 136.019656
_cell_angle_gamma 90.000000
_cell_volume 2465.271392
_symmetry_space_group_name_H-M "C 2/C"
_symmetry_group_IT_number 15
_symmetry_cell_setting 'monoclinic'
loop_
_space_group_symop_operation_xyz
x,y,z
-x,y,1/2-z
-x,-y,-z
x,-y,1/2+z
1/2+x,1/2+y,z
1/2-x,1/2+y,1/2-z
1/2-x,1/2-y,-z
1/2+x,1/2-y,1/2+z
loop_
_atom_site_type_symbol
_atom_site_label
_atom_site_fract_x
_atom_site_fract_y
_atom_site_fract_z
Si Si1 0.000000 0.850649 0.250000
Si Si2 0.249063 0.193136 0.872689
Si Si3 0.400228 0.363463 0.007800
Si Si4 0.158098 0.815256 0.115991
Si Si5 0.206450 0.627603 0.010899
Si Si6 0.121113 0.617218 0.319787
Si Si7 0.024722 0.658422 0.065144
O O1 0.924657 0.744225 0.177953
O O2 0.034096 0.946387 0.362497
O O3 0.337626 0.242285 0.978146
O O4 0.224827 0.201821 0.753700
O O5 0.201255 0.311563 0.876539
O O6 0.238857 0.013644 0.896664
O O7 0.350536 0.498782 0.912583
O O8 0.449951 0.264073 0.999248
O O9 0.175532 0.720985 0.054142
O O10 0.079015 0.758368 0.066928
O O11 0.250000 0.750000 0.000000
O O12 0.137478 0.546655 0.885709
O O13 0.066451 0.587972 0.186904
O O14 0.000000 0.500000 0.000000
#
# Coordination Sequence:
#
# PCOD8146069 Si02
#       7
#     4   8   8   8   8   8   8
#     4  10  22  40  66  88 128 184 212 262 334 388
#     4  11  23  44  71  92 133 176 220 275 337 395
#     4  11  22  42  68  92 132 171 224 265 332 396
#     4  11  25  42  65 101 131 172 221 277 334 395
#     4  12  25  40  66 102 132 164 223 280 329 386
#     4  10  23  42  67  93 130 177 221 267 329 394
#     4  10  23  43  67  93 131 178 219 265 330 402
#
# _framework density 21.093012000000002
#
# number of rings (size 3 to 8) (size 9 to 14) (size 15 to 20)
#    0.000    1.231    1.538    3.692    4.308    4.923 
#    2.769    0.000    0.000    0.000    0.000    0.000 
#    0.000    0.000    0.000    0.000    0.000    0.000 
#
# Total GULP energy -322149.308990 kJ/mol
# GULP energy per Si atom -12390.358038 kJ/mol
# Density = 2.104500 g / cm^3
# Si number density = 21.093012 Si / 1000 Ang^3
#
#
#
# Elastic Constant Matrix: (Units=GPa)
#
#
# Indices 1 2 3 4 5 6 
#
# 1 94.5871 22.0429 46.5319 0.0000 -2.3600 0.0000
# 2 22.0429 93.1598 51.1329 0.0000 -8.0379 0.0000
# 3 46.5319 51.1329 106.9048 0.0000 3.2377 0.0000
# 4 0.0000 0.0000 0.0000 40.0907 0.0000 -13.2392
# 5 -2.3600 -8.0379 3.2377 0.0000 29.9952 0.0000
# 6 0.0000 0.0000 0.0000 -13.2392 0.0000 24.0237
#
#
#
# Elastic Compliance Matrix: (Units=1/GPa)
#
#
# Indices 1 2 3 4 5 6 
#
# 1 0.013545 0.000293 -0.006091 0.000000 0.001802 0.000000
# 2 0.000293 0.015244 -0.007568 0.000000 0.004925 0.000000
# 3 -0.006091 -0.007568 0.015752 0.000000 -0.004208 0.000000
# 4 0.000000 0.000000 0.000000 0.030493 0.000000 0.016804
# 5 0.001802 0.004925 -0.004208 0.000000 0.035254 0.000000
# 6 0.000000 0.000000 0.000000 0.016804 0.000000 0.050886
#
#
# Mechanical properties :
#
#
# Convention : Reuss Voigt Hill
#
# Bulk Modulus (GPa) = 56.14563 59.34077 57.74320
# Shear Modulus (GPa) = 25.79430 30.48488 28.13959
#
# Velocity S-wave (km/s) = 3.50077 3.80578 3.65646
# Velocity P-wave (km/s) = 6.55869 6.89246 6.72764
#
# Compressibility (1/GPa) = 0.01781082
#
# Stress axis : x y z
#
# Youngs Moduli (GPa) = 73.82746 65.60154 63.48260
#
# Poissons Ratio (x) = -0.01925 0.38665
# Poissons Ratio (y) = -0.02167 0.48043
# Poissons Ratio (z) = 0.44966 0.49647
#
# Static dielectric constant tensor:
#      x y z
#    x 4.328980 0.000000 -0.479940 
#    y 0.000000 3.669790 0.000000 
#    z -0.479940 0.000000 4.436020 
# 
# 
# High freq. dielectric constant tensor:
#      x y z
#    x 1.837960 0.000000 -0.009650 
#    y 0.000000 1.813410 0.000000 
#    z -0.009650 0.000000 1.851560 
# 
# From -- ./inp_files/221944.got.cif
#   From: 2010.06.25/outbox.cif.g09.slc.cpg/sg15_111_cif.got.tgz:221944.got - 2010.06.28 07:06:18.
