data_PCOD8146484
_publ_section_title
;
Structure prediction by ZEFSAII (Michael W. Deem and Ramdas Pophale) SiO2 
 PCOD8146484
Probable space group: C 2/C
;
_chemical_formula_sum "Si O2"
_cell_formula_units_Z 52
_cell_length_a 19.205000
_cell_length_b 6.754053
_cell_length_c 19.063242
_cell_angle_alpha 90.000000
_cell_angle_beta 95.451620
_cell_angle_gamma 90.000000
_cell_volume 2461.538705
_symmetry_space_group_name_H-M "C 2/C"
_symmetry_group_IT_number 15
_symmetry_cell_setting 'monoclinic'
loop_
_space_group_symop_operation_xyz
x,y,z
-x,y,1/2-z
-x,-y,-z
x,-y,1/2+z
1/2+x,1/2+y,z
1/2-x,1/2+y,1/2-z
1/2-x,1/2-y,-z
1/2+x,1/2-y,1/2+z
loop_
_atom_site_type_symbol
_atom_site_label
_atom_site_fract_x
_atom_site_fract_y
_atom_site_fract_z
Si Si1 0.500000 0.318644 0.250000
Si Si2 0.185928 0.855360 0.527644
Si Si3 0.169055 0.932548 0.890036
Si Si4 0.259582 0.586630 0.837656
Si Si5 0.657359 0.766301 0.779961
Si Si6 0.482747 0.475365 0.613190
Si Si7 0.958047 0.296542 0.493167
O O1 0.427620 0.197577 0.226545
O O2 0.477420 0.453540 0.313601
O O3 0.250000 0.750000 0.500000
O O4 0.199569 0.941052 0.605942
O O5 0.125818 0.684993 0.520800
O O6 0.168346 0.036692 0.474052
O O7 0.225065 0.767236 0.876219
O O8 0.089144 0.873740 0.866710
O O9 0.183543 0.133676 0.847975
O O10 0.317874 0.663432 0.789447
O O11 0.196654 0.475782 0.791093
O O12 0.475865 0.667562 0.562807
O O13 0.525093 0.308081 0.578278
O O14 0.000000 0.500000 0.500000
#
# Coordination Sequence:
#
# PCOD8146484 Si02
#       7
#     4   8   8   8   8   8   8
#     4  10  22  44  64  90 134 166 212 270 318 382
#     4  11  23  40  66  97 126 165 221 261 325 394
#     4  10  22  41  66  92 126 169 210 273 322 378
#     4  12  23  42  68  94 133 171 217 270 326 385
#     4  11  23  42  65  94 128 171 218 266 323 394
#     4   9  21  41  64  89 123 167 209 254 325 377
#     4  10  22  42  63  91 128 162 208 267 315 379
#
# _framework density 21.124998000000001
#
# number of rings (size 3 to 8) (size 9 to 14) (size 15 to 20)
#    0.000    1.538    3.077    1.385    2.154    0.000 
#    8.308    3.846    0.000    0.000    0.000    0.000 
#    0.000    0.000    0.000    0.000    0.000    0.000 
#
# Total GULP energy -322208.891434 kJ/mol
# GULP energy per Si atom -12392.649671 kJ/mol
# Density = 2.107692 g / cm^3
# Si number density = 21.124998 Si / 1000 Ang^3
#
#
#
# Elastic Constant Matrix: (Units=GPa)
#
#
# Indices 1 2 3 4 5 6 
#
# 1 132.4806 57.2211 24.8699 0.0000 -9.3004 0.0000
# 2 57.2211 76.8753 18.2492 0.0000 0.8181 0.0000
# 3 24.8699 18.2492 100.7650 0.0000 -7.8610 0.0000
# 4 0.0000 0.0000 0.0000 24.3576 0.0000 -5.2703
# 5 -9.3004 0.8181 -7.8610 0.0000 34.3640 0.0000
# 6 0.0000 0.0000 0.0000 -5.2703 0.0000 33.1678
#
#
#
# Elastic Compliance Matrix: (Units=1/GPa)
#
#
# Indices 1 2 3 4 5 6 
#
# 1 0.011603 -0.008409 -0.001100 0.000000 0.003089 0.000000
# 2 -0.008409 0.019713 -0.001740 0.000000 -0.003143 0.000000
# 3 -0.001100 -0.001740 0.010681 0.000000 0.002187 0.000000
# 4 0.000000 0.000000 0.000000 0.042517 0.000000 0.006756
# 5 0.003089 -0.003143 0.002187 0.000000 0.030511 0.000000
# 6 0.000000 0.000000 0.000000 0.006756 0.000000 0.031223
#
#
# Mechanical properties :
#
#
# Convention : Reuss Voigt Hill
#
# Bulk Modulus (GPa) = 51.28004 56.75569 54.01786
# Shear Modulus (GPa) = 28.53108 32.36325 30.44716
#
# Velocity S-wave (km/s) = 3.67902 3.91831 3.80055
# Velocity P-wave (km/s) = 6.50954 6.88446 6.69962
#
# Compressibility (1/GPa) = 0.01950077
#
# Stress axis : x y z
#
# Youngs Moduli (GPa) = 86.18097 50.72674 93.62106
#
# Poissons Ratio (x) = 0.42654 0.10299
# Poissons Ratio (y) = 0.72466 0.16291
# Poissons Ratio (z) = 0.09480 0.08827
#
# Static dielectric constant tensor:
#      x y z
#    x 3.865610 0.000000 -0.368380 
#    y 0.000000 3.543310 0.000000 
#    z -0.368380 0.000000 3.711160 
# 
# 
# High freq. dielectric constant tensor:
#      x y z
#    x 1.844120 0.000000 -0.010350 
#    y 0.000000 1.794990 0.000000 
#    z -0.010350 0.000000 1.844420 
# 
# From -- ./inp_files/251080.got.cif
#   From: 2010.06.25/outbox.cif.g09.slc.cpg/sg15_126_cif.got.tgz:251080.got - 2010.06.28 07:06:18.
