data_PCOD8146483
_publ_section_title
;
Structure prediction by ZEFSAII (Michael W. Deem and Ramdas Pophale) SiO2 
 PCOD8146483
Probable space group: C 2/C
;
_chemical_formula_sum "Si O2"
_cell_formula_units_Z 40
_cell_length_a 17.505652
_cell_length_b 4.959310
_cell_length_c 19.872338
_cell_angle_alpha 90.000000
_cell_angle_beta 105.497990
_cell_angle_gamma 90.000000
_cell_volume 1662.506124
_symmetry_space_group_name_H-M "C 2/C"
_symmetry_group_IT_number 15
_symmetry_cell_setting 'monoclinic'
loop_
_space_group_symop_operation_xyz
x,y,z
-x,y,1/2-z
-x,-y,-z
x,-y,1/2+z
1/2+x,1/2+y,z
1/2-x,1/2+y,1/2-z
1/2-x,1/2-y,-z
1/2+x,1/2-y,1/2+z
loop_
_atom_site_type_symbol
_atom_site_label
_atom_site_fract_x
_atom_site_fract_y
_atom_site_fract_z
Si Si1 0.842763 0.791267 0.017961
Si Si2 0.061172 0.574579 0.572181
Si Si3 0.159213 0.783264 0.185056
Si Si4 0.913536 0.711771 0.604575
Si Si5 0.660384 0.784346 0.273553
O O1 0.885477 0.589744 0.079978
O O2 0.865134 0.092252 0.044227
O O3 0.750000 0.750000 0.000000
O O4 0.870152 0.754629 0.946300
O O5 0.099768 0.302525 0.611638
O O6 0.000000 0.500000 0.500000
O O7 0.008952 0.734829 0.615793
O O8 0.249226 0.748067 0.179990
O O9 0.145669 0.587193 0.245522
O O10 0.142294 0.087041 0.205985
O O11 0.897545 0.780162 0.678428
#
# Coordination Sequence:
#
# PCOD8146483 Si02
#       5
#     8   8   8   8   8
#     4  11  23  40  66  94 128 172 215 259 313 383
#     4  10  24  43  64  95 131 167 205 261 325 382
#     4  10  22  41  66  92 125 164 215 263 311 379
#     4  11  23  41  63  94 131 164 212 265 321 381
#     4  10  22  41  66  94 121 167 217 264 312 369
#
# _framework density 24.060061000000001
#
# number of rings (size 3 to 8) (size 9 to 14) (size 15 to 20)
#    0.000    1.600    0.000    3.600    0.000   12.000 
#    0.000    2.000    0.000    0.000    0.000    0.000 
#    0.000    0.000    0.000    0.000    0.000    0.000 
#
# Total GULP energy -248060.886469 kJ/mol
# GULP energy per Si atom -12403.044323 kJ/mol
# Density = 2.400530 g / cm^3
# Si number density = 24.060061 Si / 1000 Ang^3
#
#
#
# Elastic Constant Matrix: (Units=GPa)
#
#
# Indices 1 2 3 4 5 6 
#
# 1 154.9102 7.5624 39.9340 0.0000 -28.9070 0.0000
# 2 7.5624 59.2549 -11.1365 -0.0002 -4.8920 0.0001
# 3 39.9340 -11.1365 77.3483 -0.0001 -19.4086 0.0000
# 4 0.0000 -0.0002 -0.0001 30.8767 0.0000 1.8822
# 5 -28.9070 -4.8920 -19.4086 0.0000 59.1412 0.0000
# 6 0.0000 0.0001 0.0000 1.8822 0.0000 31.1040
#
#
#
# Elastic Compliance Matrix: (Units=1/GPa)
#
#
# Indices 1 2 3 4 5 6 
#
# 1 0.007954 -0.001496 -0.003681 0.000000 0.002556 0.000000
# 2 -0.001496 0.017961 0.003866 0.000000 0.002023 0.000000
# 3 -0.003681 0.003866 0.016362 0.000000 0.003890 0.000000
# 4 0.000000 0.000000 0.000000 0.032507 0.000000 -0.001967
# 5 0.002556 0.002023 0.003890 0.000000 0.019602 0.000000
# 6 0.000000 0.000000 0.000000 -0.001967 0.000000 0.032269
#
#
# Mechanical properties :
#
#
# Convention : Reuss Voigt Hill
#
# Bulk Modulus (GPa) = 25.21721 40.47034 32.84377
# Shear Modulus (GPa) = 35.08914 41.23461 38.16188
#
# Velocity S-wave (km/s) = 3.82304 4.14432 3.98692
# Velocity P-wave (km/s) = 5.47642 6.30536 5.90546
#
# Compressibility (1/GPa) = 0.03965546
#
# Stress axis : x y z
#
# Youngs Moduli (GPa) = 125.71977 55.67690 61.11894
#
# Poissons Ratio (x) = 0.08328 0.22495
# Poissons Ratio (y) = 0.18806 -0.23628
# Poissons Ratio (z) = 0.46272 -0.21524
#
# Static dielectric constant tensor:
#      x y z
#    x 4.951590 0.000000 -0.364620 
#    y 0.000000 4.275570 0.000000 
#    z -0.364620 0.000000 4.178270 
# 
# 
# High freq. dielectric constant tensor:
#      x y z
#    x 1.967800 0.000000 -0.006300 
#    y 0.000000 1.953500 0.000000 
#    z -0.006300 0.000000 1.950100 
# 
# From -- ./inp_files/208092.got.cif
#   From: 2010.06.25/outbox.cif.g09.slc.cpg/sg15_105_cif.got.tgz:208092.got - 2010.06.28 07:06:18.
