data_PCOD8146620
_publ_section_title
;
Structure prediction by ZEFSAII (Michael W. Deem and Ramdas Pophale) SiO2 
 PCOD8146620
Probable space group: C 2/C
;
_chemical_formula_sum "Si O2"
_cell_formula_units_Z 40
_cell_length_a 5.922080
_cell_length_b 25.477802
_cell_length_c 14.442873
_cell_angle_alpha 90.000000
_cell_angle_beta 59.156481
_cell_angle_gamma 90.000000
_cell_volume 1870.966010
_symmetry_space_group_name_H-M "C 2/C"
_symmetry_group_IT_number 15
_symmetry_cell_setting 'monoclinic'
loop_
_space_group_symop_operation_xyz
x,y,z
-x,y,1/2-z
-x,-y,-z
x,-y,1/2+z
1/2+x,1/2+y,z
1/2-x,1/2+y,1/2-z
1/2-x,1/2-y,-z
1/2+x,1/2-y,1/2+z
loop_
_atom_site_type_symbol
_atom_site_label
_atom_site_fract_x
_atom_site_fract_y
_atom_site_fract_z
Si Si1 0.500000 0.409178 0.750000
Si Si2 0.007840 0.720344 0.409384
Si Si3 0.702786 0.627342 0.395159
Si Si4 0.500000 0.788207 0.250000
Si Si5 0.515744 0.943402 0.952720
Si Si6 0.137195 0.348254 0.046753
O O1 0.347397 0.374489 0.705003
O O2 0.303269 0.445238 0.847884
O O3 0.750000 0.750000 0.500000
O O4 0.917457 0.672826 0.362864
O O5 0.227329 0.755272 0.310470
O O6 0.158224 0.696937 0.465587
O O7 0.438768 0.639187 0.509031
O O8 0.808798 0.571670 0.414932
O O9 0.475987 0.826464 0.167208
O O10 0.489483 0.899636 0.038792
O O11 0.500000 0.000000 0.000000
#
# Coordination Sequence:
#
# PCOD8146620 Si02
#       6
#     4   8   8   4   8   8
#     4  10  22  41  70 100 132 174 230 275 348 400
#     4  11  24  44  64  95 141 181 229 279 339 406
#     4  10  22  45  67  96 141 172 230 290 328 414
#     4  12  24  43  68 100 132 186 230 273 350 404
#     4  10  23  46  69 100 134 173 222 286 351 411
#     4  10  24  45  61 101 135 172 231 282 334 419
#
# _framework density 21.379331000000001
#
# number of rings (size 3 to 8) (size 9 to 14) (size 15 to 20)
#    0.000    1.600    2.000    1.200    0.000   12.800 
#   14.400    0.000    0.000    0.000    0.000    0.000 
#    0.000    0.000    0.000    0.000    0.000    0.000 
#
# Total GULP energy -247897.906568 kJ/mol
# GULP energy per Si atom -12394.895328 kJ/mol
# Density = 2.133067 g / cm^3
# Si number density = 21.379331 Si / 1000 Ang^3
#
#
#
# Elastic Constant Matrix: (Units=GPa)
#
#
# Indices 1 2 3 4 5 6 
#
# 1 123.4122 60.5063 60.5014 0.0000 8.4316 0.0000
# 2 60.5063 137.4809 80.2931 0.0000 5.3345 0.0000
# 3 60.5014 80.2931 154.6435 0.0000 4.1936 0.0000
# 4 0.0000 0.0000 0.0000 38.8072 0.0000 -2.2423
# 5 8.4316 5.3345 4.1936 0.0000 43.9857 0.0000
# 6 0.0000 0.0000 0.0000 -2.2423 0.0000 18.8953
#
#
#
# Elastic Compliance Matrix: (Units=1/GPa)
#
#
# Indices 1 2 3 4 5 6 
#
# 1 0.011095 -0.003321 -0.002576 0.000000 -0.001478 0.000000
# 2 -0.003321 0.011458 -0.004642 0.000000 -0.000310 0.000000
# 3 -0.002576 -0.004642 0.009881 0.000000 0.000115 0.000000
# 4 0.000000 0.000000 0.000000 0.025946 0.000000 0.003079
# 5 -0.001478 -0.000310 0.000115 0.000000 0.023045 0.000000
# 6 0.000000 0.000000 0.000000 0.003079 0.000000 0.053289
#
#
# Mechanical properties :
#
#
# Convention : Reuss Voigt Hill
#
# Bulk Modulus (GPa) = 88.05305 90.90424 89.47865
# Shear Modulus (GPa) = 31.33267 34.62004 32.97636
#
# Velocity S-wave (km/s) = 3.83241 4.02845 3.93165
# Velocity P-wave (km/s) = 7.80120 8.01560 7.90913
#
# Compressibility (1/GPa) = 0.01135679
#
# Stress axis : x y z
#
# Youngs Moduli (GPa) = 90.12916 87.27371 101.20138
#
# Poissons Ratio (x) = 0.28984 0.26073
# Poissons Ratio (y) = 0.29932 0.46973
# Poissons Ratio (z) = 0.23221 0.40509
#
# Static dielectric constant tensor:
#      x y z
#    x 4.267390 0.000000 -0.013730 
#    y 0.000000 3.789990 0.000000 
#    z -0.013730 0.000000 4.092040 
# 
# 
# High freq. dielectric constant tensor:
#      x y z
#    x 1.855970 0.000000 -0.004530 
#    y 0.000000 1.820210 0.000000 
#    z -0.004530 0.000000 1.842200 
# 
# From -- ./inp_files/129311.got.cif
#   From: 2010.06.25/outbox.cif.g09.slc.cpg/sg15_65_cif.got.tgz:129311.got - 2010.06.28 07:06:18.
