data_PCOD8146460
_publ_section_title
;
Structure prediction by ZEFSAII (Michael W. Deem and Ramdas Pophale) SiO2 
 PCOD8146460
Probable space group: C 2/C
;
_chemical_formula_sum "Si O2"
_cell_formula_units_Z 36
_cell_length_a 15.933777
_cell_length_b 9.281542
_cell_length_c 25.485479
_cell_angle_alpha 90.000000
_cell_angle_beta 24.929799
_cell_angle_gamma 90.000000
_cell_volume 1588.682010
_symmetry_space_group_name_H-M "C 2/C"
_symmetry_group_IT_number 15
_symmetry_cell_setting 'monoclinic'
loop_
_space_group_symop_operation_xyz
x,y,z
-x,y,1/2-z
-x,-y,-z
x,-y,1/2+z
1/2+x,1/2+y,z
1/2-x,1/2+y,1/2-z
1/2-x,1/2-y,-z
1/2+x,1/2-y,1/2+z
loop_
_atom_site_type_symbol
_atom_site_label
_atom_site_fract_x
_atom_site_fract_y
_atom_site_fract_z
Si Si1 0.631106 0.607237 0.054119
Si Si2 0.783650 0.568590 0.560082
Si Si3 0.000000 0.682995 0.250000
Si Si4 0.203649 0.412518 0.150201
Si Si5 0.722821 0.136378 0.338231
O O1 0.728804 0.485263 0.033982
O O2 0.396321 0.621345 0.197371
O O3 0.750000 0.750000 0.000000
O O4 0.652719 0.564033 0.981100
O O5 0.666650 0.719215 0.628893
O O6 0.720871 0.458862 0.642315
O O7 0.020456 0.584213 0.426806
O O8 0.872560 0.570231 0.284655
O O9 0.311637 0.306641 0.129657
O O10 0.000000 0.325870 0.250000
#
# Coordination Sequence:
#
# PCOD8146460 Si02
#       5
#     8   8   4   8   8
#     4  12  20  42  71  94 133 177 231 280 350 409
#     4  11  23  42  69  97 131 182 229 284 336 424
#     4  10  22  44  62  92 144 176 218 284 352 388
#     4  10  22  41  65  96 132 182 215 285 350 395
#     4  11  22  43  69  96 131 180 235 276 351 407
#
# _framework density 22.660292999999999
#
# number of rings (size 3 to 8) (size 9 to 14) (size 15 to 20)
#    0.667    0.444    6.667    0.000    0.000    1.778 
#    8.000    0.000    0.000    0.000    0.000    0.000 
#    0.000    0.000    0.000    0.000    0.000    0.000 
#
# Total GULP energy -222985.449912 kJ/mol
# GULP energy per Si atom -12388.080551 kJ/mol
# Density = 2.260872 g / cm^3
# Si number density = 22.660293 Si / 1000 Ang^3
#
#
#
# Elastic Constant Matrix: (Units=GPa)
#
#
# Indices 1 2 3 4 5 6 
#
# 1 45.1722 19.8686 40.4881 -0.0048 3.2505 -0.0021
# 2 19.8686 149.8153 41.7209 -0.0032 -6.2684 -0.0024
# 3 40.4881 41.7209 180.1493 -0.0121 7.4977 -0.0122
# 4 -0.0048 -0.0032 -0.0121 40.1726 -0.0015 4.4215
# 5 3.2505 -6.2684 7.4977 -0.0015 23.1150 0.0022
# 6 -0.0021 -0.0024 -0.0122 4.4215 0.0022 7.4150
#
#
#
# Elastic Compliance Matrix: (Units=1/GPa)
#
#
# Indices 1 2 3 4 5 6 
#
# 1 0.028508 -0.002292 -0.005761 0.000002 -0.002762 -0.000002
# 2 -0.002292 0.007465 -0.001329 0.000000 0.002778 -0.000001
# 3 -0.005761 -0.001329 0.007233 0.000000 -0.001896 0.000010
# 4 0.000002 0.000000 0.000000 0.026641 0.000003 -0.015886
# 5 -0.002762 0.002778 -0.001896 0.000003 0.045019 -0.000018
# 6 -0.000002 -0.000001 0.000010 -0.015886 -0.000018 0.144334
#
#
# Mechanical properties :
#
#
# Convention : Reuss Voigt Hill
#
# Bulk Modulus (GPa) = 40.91528 64.36578 52.64053
# Shear Modulus (GPa) = 17.47564 32.34446 24.91005
#
# Velocity S-wave (km/s) = 2.78006 3.78214 3.31914
# Velocity P-wave (km/s) = 5.32918 6.89486 6.16195
#
# Compressibility (1/GPa) = 0.02444074
#
# Stress axis : x y z
#
# Youngs Moduli (GPa) = 35.07748 133.95335 138.26227
#
# Poissons Ratio (x) = 0.30700 0.79659
# Poissons Ratio (y) = 0.08039 0.18381
# Poissons Ratio (z) = 0.20210 0.17808
#
# Static dielectric constant tensor:
#      x y z
#    x 3.571880 0.000020 0.031570 
#    y 0.000020 4.406760 0.000030 
#    z 0.031570 0.000030 4.229640 
# 
# 
# High freq. dielectric constant tensor:
#      x y z
#    x 1.841990 0.000000 -0.005530 
#    y 0.000000 1.906820 0.000000 
#    z -0.005530 0.000000 1.917390 
# 
# From -- ./inp_files/295363.got.cif
#   From: 2010.06.25/outbox.cif.g09.slc.cpg/sg15_148_cif.got.tgz:295363.got - 2010.06.28 07:06:18.
