data_PCOD8146977
_publ_section_title
;
Structure prediction by ZEFSAII (Michael W. Deem and Ramdas Pophale) SiO2 
 PCOD8146977
Probable space group: C 2/C
;
_chemical_formula_sum "Si O2"
_cell_formula_units_Z 56
_cell_length_a 8.502888
_cell_length_b 16.728489
_cell_length_c 17.423418
_cell_angle_alpha 90.000000
_cell_angle_beta 74.942717
_cell_angle_gamma 90.000000
_cell_volume 2393.226108
_symmetry_space_group_name_H-M "C 2/C"
_symmetry_group_IT_number 15
_symmetry_cell_setting 'monoclinic'
loop_
_space_group_symop_operation_xyz
x,y,z
-x,y,1/2-z
-x,-y,-z
x,-y,1/2+z
1/2+x,1/2+y,z
1/2-x,1/2+y,1/2-z
1/2-x,1/2-y,-z
1/2+x,1/2-y,1/2+z
loop_
_atom_site_type_symbol
_atom_site_label
_atom_site_fract_x
_atom_site_fract_y
_atom_site_fract_z
Si Si1 0.829774 0.657957 0.671164
Si Si2 0.482694 0.506443 0.881453
Si Si3 0.500000 0.286014 0.750000
Si Si4 0.058612 0.688454 0.518313
Si Si5 0.743487 0.998572 0.270754
Si Si6 0.000000 0.777200 0.250000
Si Si7 0.402799 0.368238 0.011637
Si Si8 0.663758 0.845442 0.837790
O O1 0.863715 0.581996 0.722704
O O2 0.635091 0.668985 0.692038
O O3 0.920303 0.734725 0.693123
O O4 0.901727 0.645877 0.576282
O O5 0.650207 0.482365 0.817596
O O6 0.344985 0.520487 0.835882
O O7 0.520041 0.589098 0.923087
O O8 0.423945 0.432630 0.941141
O O9 0.362245 0.339920 0.809200
O O10 0.215886 0.662315 0.549839
O O11 0.013850 0.783240 0.519827
O O12 0.092862 0.650881 0.431420
O O13 0.620271 0.072075 0.300411
O O14 0.917827 0.727944 0.193239
#
# Coordination Sequence:
#
# PCOD8146977 Si02
#       8
#     8   8   4   8   8   4   8   8
#     4  11  26  43  66 101 136 178 229 280 351 397
#     4  10  22  42  67  99 139 184 227 272 341 416
#     4  10  22  42  74  96 128 180 240 280 318 416
#     4  11  24  41  70 100 137 177 228 291 337 403
#     4  11  24  41  67  97 140 184 221 281 335 409
#     4  10  26  46  66 100 134 186 232 282 340 416
#     4  10  22  42  68 106 134 179 229 283 339 413
#     4  11  24  45  69 100 140 179 233 279 342 410
#
# _framework density 23.399377999999999
#
# number of rings (size 3 to 8) (size 9 to 14) (size 15 to 20)
#    0.000    1.429    1.429    3.429   12.000    1.714 
#    0.000    0.000    0.000    0.000    0.000    0.000 
#    0.000    0.000    0.000    0.000    0.000    0.000 
#
# Total GULP energy -347024.682445 kJ/mol
# GULP energy per Si atom -12393.738659 kJ/mol
# Density = 2.334612 g / cm^3
# Si number density = 23.399378 Si / 1000 Ang^3
#
#
#
# Elastic Constant Matrix: (Units=GPa)
#
#
# Indices 1 2 3 4 5 6 
#
# 1 52.1768 14.8611 37.6753 0.0000 -21.1300 0.0000
# 2 14.8611 127.0000 20.0372 0.0000 -21.5200 0.0000
# 3 37.6753 20.0372 123.8795 0.0000 -35.2583 0.0000
# 4 0.0000 0.0000 0.0000 31.6043 0.0000 -11.5349
# 5 -21.1300 -21.5200 -35.2583 0.0000 44.7197 0.0000
# 6 0.0000 0.0000 0.0000 -11.5349 0.0000 -119.6139
#
#
#
# Elastic Compliance Matrix: (Units=1/GPa)
#
#
# Indices 1 2 3 4 5 6 
#
# 1 0.026697 -0.000921 -0.005810 0.000000 0.007590 0.000000
# 2 -0.000921 0.008612 -0.000074 0.000000 0.003651 0.000000
# 3 -0.005810 -0.000074 0.011681 0.000000 0.006429 0.000000
# 4 0.000000 0.000000 0.000000 0.030565 0.000000 -0.002948
# 5 0.007590 0.003651 0.006429 0.000000 0.032774 0.000000
# 6 0.000000 0.000000 0.000000 -0.002948 0.000000 -0.008076
#
#
# Mechanical properties :
#
#
# Convention : Reuss Voigt Hill
#
# Bulk Modulus (GPa) = 29.95770 49.80039 39.87905
# Shear Modulus (GPa) = 39.37322 6.70753 23.04038
#
# Velocity S-wave (km/s) = 4.10648 1.69492 3.14133
# Velocity P-wave (km/s) = 5.94262 5.01591 5.49882
#
# Compressibility (1/GPa) = 0.03338040
#
# Stress axis : x y z
#
# Youngs Moduli (GPa) = 37.45734 116.11593 85.60850
#
# Poissons Ratio (x) = 0.10696 0.49739
# Poissons Ratio (y) = 0.03450 0.00631
# Poissons Ratio (z) = 0.21763 0.00856
#
# Static dielectric constant tensor:
#      x y z
#    x 4.130250 0.000000 -0.156930 
#    y 0.000000 4.424720 0.000000 
#    z -0.156930 0.000000 4.242910 
# 
# 
# High freq. dielectric constant tensor:
#      x y z
#    x 1.899440 0.000000 -0.005460 
#    y 0.000000 1.947530 0.000000 
#    z -0.005460 0.000000 1.933660 
# 
# From -- ./inp_files/190977.got.cif
#   From: 2010.06.25/outbox.cif.g09.slc.cpg/sg15_96_cif.got.tgz:190977.got - 2010.06.28 07:06:18.
