data_PCOD8146342
_publ_section_title
;
Structure prediction by ZEFSAII (Michael W. Deem and Ramdas Pophale) SiO2 
 PCOD8146342
Probable space group: C 2/C
;
_chemical_formula_sum "Si O2"
_cell_formula_units_Z 44
_cell_length_a 24.178021
_cell_length_b 11.585849
_cell_length_c 11.770360
_cell_angle_alpha 90.000000
_cell_angle_beta 142.371603
_cell_angle_gamma 90.000000
_cell_volume 2013.032992
_symmetry_space_group_name_H-M "C 2/C"
_symmetry_group_IT_number 15
_symmetry_cell_setting 'monoclinic'
loop_
_space_group_symop_operation_xyz
x,y,z
-x,y,1/2-z
-x,-y,-z
x,-y,1/2+z
1/2+x,1/2+y,z
1/2-x,1/2+y,1/2-z
1/2-x,1/2-y,-z
1/2+x,1/2-y,1/2+z
loop_
_atom_site_type_symbol
_atom_site_label
_atom_site_fract_x
_atom_site_fract_y
_atom_site_fract_z
Si Si1 0.198691 0.611487 0.738649
Si Si2 0.730268 0.133726 0.535064
Si Si3 0.085522 0.419802 0.631375
Si Si4 0.500000 0.386353 0.250000
Si Si5 0.542368 0.726397 0.055544
Si Si6 0.637914 0.460392 0.855744
O O1 0.218641 0.662810 0.647876
O O2 0.158222 0.479155 0.662822
O O3 0.128612 0.690058 0.693521
O O4 0.290374 0.617284 0.960304
O O5 0.750000 0.250000 0.500000
O O6 0.635791 0.082785 0.334934
O O7 0.812168 0.043392 0.653315
O O8 0.000000 0.500000 0.500000
O O9 0.046535 0.292313 0.535782
O O10 0.519584 0.307028 0.389918
O O11 0.412990 0.464744 0.132654
O O12 0.564530 0.616325 0.168950
#
# Coordination Sequence:
#
# PCOD8146342 Si02
#       6
#     8   8   8   4   8   8
#     4  10  22  41  63  88 123 162 199 250 309 362
#     4  11  22  40  63  89 122 164 208 245 299 376
#     4   9  21  39  61  91 121 156 202 251 305 365
#     4  12  24  40  62  86 120 162 200 252 306 358
#     4  11  21  40  63  90 121 159 205 251 303 369
#     4  11  24  40  59  90 123 157 203 257 306 361
#
# _framework density 21.857564
#
# number of rings (size 3 to 8) (size 9 to 14) (size 15 to 20)
#    0.000    1.455    0.000    5.455    0.000    5.091 
#    0.000    7.273    0.000    0.000    0.000    0.000 
#    0.000    0.000    0.000    0.000    0.000    0.000 
#
# Total GULP energy -272747.753354 kJ/mol
# GULP energy per Si atom -12397.625152 kJ/mol
# Density = 2.180782 g / cm^3
# Si number density = 21.857564 Si / 1000 Ang^3
#
#
#
# Elastic Constant Matrix: (Units=GPa)
#
#
# Indices 1 2 3 4 5 6 
#
# 1 66.3132 19.0049 15.2376 0.0000 -3.0830 0.0000
# 2 19.0049 98.0651 38.9706 0.0000 -2.7063 0.0000
# 3 15.2376 38.9706 101.0211 0.0000 0.7140 0.0000
# 4 0.0000 0.0000 0.0000 41.4035 0.0000 9.4307
# 5 -3.0830 -2.7063 0.7140 0.0000 32.8028 0.0000
# 6 0.0000 0.0000 0.0000 9.4307 0.0000 41.3591
#
#
#
# Elastic Compliance Matrix: (Units=1/GPa)
#
#
# Indices 1 2 3 4 5 6 
#
# 1 0.016204 -0.002513 -0.001484 0.000000 0.001348 0.000000
# 2 -0.002513 0.012473 -0.004439 0.000000 0.000889 0.000000
# 3 -0.001484 -0.004439 0.011841 0.000000 -0.000763 0.000000
# 4 0.000000 0.000000 0.000000 0.025476 0.000000 -0.005809
# 5 0.001348 0.000889 -0.000763 0.000000 0.030702 0.000000
# 6 0.000000 0.000000 0.000000 -0.005809 0.000000 0.025503
#
#
# Mechanical properties :
#
#
# Convention : Reuss Voigt Hill
#
# Bulk Modulus (GPa) = 42.29250 45.75840 44.02545
# Shear Modulus (GPa) = 34.02471 35.92550 34.97510
#
# Velocity S-wave (km/s) = 3.94973 4.05855 4.00451
# Velocity P-wave (km/s) = 6.33969 6.55307 6.44726
#
# Compressibility (1/GPa) = 0.02364485
#
# Stress axis : x y z
#
# Youngs Moduli (GPa) = 61.71340 80.17386 84.45571
#
# Poissons Ratio (x) = 0.20150 0.12534
# Poissons Ratio (y) = 0.15511 0.37488
# Poissons Ratio (z) = 0.09159 0.35588
#
# Static dielectric constant tensor:
#      x y z
#    x 3.556450 0.000000 0.457150 
#    y 0.000000 4.267170 0.000000 
#    z 0.457150 0.000000 4.072900 
# 
# 
# High freq. dielectric constant tensor:
#      x y z
#    x 1.839720 0.000000 0.021830 
#    y 0.000000 1.867060 0.000000 
#    z 0.021830 0.000000 1.875440 
# 
# From -- ./inp_files/95071.got.cif
#   From: 2010.06.25/outbox.cif.g09.slc.cpg/sg15_48_cif.got.tgz:95071.got - 2010.06.28 07:06:18.
