data_PCOD8146067
_publ_section_title
;
Structure prediction by ZEFSAII (Michael W. Deem and Ramdas Pophale) SiO2 
 PCOD8146067
Probable space group: C 2/C
;
_chemical_formula_sum "Si O2"
_cell_formula_units_Z 48
_cell_length_a 12.801831
_cell_length_b 12.369210
_cell_length_c 20.307880
_cell_angle_alpha 90.000000
_cell_angle_beta 48.435760
_cell_angle_gamma 90.000000
_cell_volume 2406.043620
_symmetry_space_group_name_H-M "C 2/C"
_symmetry_group_IT_number 15
_symmetry_cell_setting 'monoclinic'
loop_
_space_group_symop_operation_xyz
x,y,z
-x,y,1/2-z
-x,-y,-z
x,-y,1/2+z
1/2+x,1/2+y,z
1/2-x,1/2+y,1/2-z
1/2-x,1/2-y,-z
1/2+x,1/2-y,1/2+z
loop_
_atom_site_type_symbol
_atom_site_label
_atom_site_fract_x
_atom_site_fract_y
_atom_site_fract_z
Si Si1 0.925841 0.249981 0.988348
Si Si2 0.648868 0.176813 0.838274
Si Si3 0.835168 0.991419 0.321737
Si Si4 0.750444 0.732726 0.162730
Si Si5 0.249375 0.424384 0.498461
Si Si6 0.162665 0.342269 0.075548
O O1 0.868922 0.134821 0.989251
O O2 0.090926 0.241039 0.920649
O O3 0.859635 0.263210 0.088491
O O4 0.886156 0.345996 0.953025
O O5 0.710880 0.253804 0.755669
O O6 0.492789 0.142032 0.885987
O O7 0.754373 0.074573 0.798215
O O8 0.778746 0.111440 0.345566
O O9 0.000000 0.988162 0.250000
O O10 0.800244 0.936517 0.403957
O O11 0.658283 0.810823 0.154495
O O12 0.227847 0.539113 0.541921
O O13 0.250000 0.250000 0.000000
#
# Coordination Sequence:
#
# PCOD8146067 Si02
#       6
#     8   8   8   8   8   8
#     4  10  22  43  63  93 121 167 207 254 311 366
#     4  11  24  41  61  92 125 162 209 255 312 367
#     4  11  22  39  63  90 124 166 208 254 309 373
#     4  12  24  39  65  91 128 160 209 256 311 370
#     4  10  22  40  66  87 126 165 207 255 309 368
#     4  12  22  40  61  91 122 164 204 254 309 366
#
# _framework density 19.949763999999998
#
# number of rings (size 3 to 8) (size 9 to 14) (size 15 to 20)
#    0.000    1.000    3.333    3.500    0.000    4.667 
#    0.000    1.667    0.000    0.000    0.000    0.000 
#    0.000    0.000    0.000    0.000    0.000    0.000 
#
# Total GULP energy -297548.084480 kJ/mol
# GULP energy per Si atom -12397.836853 kJ/mol
# Density = 1.990436 g / cm^3
# Si number density = 19.949764 Si / 1000 Ang^3
#
#
#
# Elastic Constant Matrix: (Units=GPa)
#
#
# Indices 1 2 3 4 5 6 
#
# 1 136.0146 68.4997 38.2641 0.0000 -13.4270 0.0000
# 2 68.4997 148.8648 36.9598 0.0000 -13.4372 0.0000
# 3 38.2641 36.9598 80.2043 0.0000 -1.9410 0.0000
# 4 0.0000 0.0000 0.0000 21.1334 0.0000 1.7740
# 5 -13.4270 -13.4372 -1.9410 0.0000 46.1049 0.0000
# 6 0.0000 0.0000 0.0000 1.7740 0.0000 36.8134
#
#
#
# Elastic Compliance Matrix: (Units=1/GPa)
#
#
# Indices 1 2 3 4 5 6 
#
# 1 0.010328 -0.003817 -0.003126 0.000000 0.001764 0.000000
# 2 -0.003817 0.009198 -0.002382 0.000000 0.001469 0.000000
# 3 -0.003126 -0.002382 0.015033 0.000000 -0.000972 0.000000
# 4 0.000000 0.000000 0.000000 0.047511 0.000000 -0.002289
# 5 0.001764 0.001469 -0.000972 0.000000 0.022590 0.000000
# 6 0.000000 0.000000 0.000000 -0.002289 0.000000 0.027274
#
#
# Mechanical properties :
#
#
# Convention : Reuss Voigt Hill
#
# Bulk Modulus (GPa) = 62.85372 72.50344 67.67858
# Shear Modulus (GPa) = 32.07442 35.56768 33.82105
#
# Velocity S-wave (km/s) = 4.01404 4.22698 4.12188
# Velocity P-wave (km/s) = 7.28407 7.76177 7.52671
#
# Compressibility (1/GPa) = 0.01590996
#
# Stress axis : x y z
#
# Youngs Moduli (GPa) = 96.82457 108.72013 66.51830
#
# Poissons Ratio (x) = 0.41500 0.20791
# Poissons Ratio (y) = 0.36960 0.15844
# Poissons Ratio (z) = 0.30263 0.25897
#
# Static dielectric constant tensor:
#      x y z
#    x 3.841840 0.000000 0.052310 
#    y 0.000000 3.707420 0.000000 
#    z 0.052310 0.000000 3.612290 
# 
# 
# High freq. dielectric constant tensor:
#      x y z
#    x 1.798320 0.000000 -0.001750 
#    y 0.000000 1.781830 0.000000 
#    z -0.001750 0.000000 1.775490 
# 
# From -- ./inp_files/237416.got.cif
#   From: 2010.06.25/outbox.cif.g09.slc.cpg/sg15_119_cif.got.tgz:237416.got - 2010.06.28 07:06:18.
