data_PCOD8146595
_publ_section_title
;
Structure prediction by ZEFSAII (Michael W. Deem and Ramdas Pophale) SiO2 
 PCOD8146595
Probable space group: C 2/C
;
_chemical_formula_sum "Si O2"
_cell_formula_units_Z 64
_cell_length_a 11.758733
_cell_length_b 20.151184
_cell_length_c 18.327217
_cell_angle_alpha 90.000000
_cell_angle_beta 48.099701
_cell_angle_gamma 90.000000
_cell_volume 3232.290177
_symmetry_space_group_name_H-M "C 2/C"
_symmetry_group_IT_number 15
_symmetry_cell_setting 'monoclinic'
loop_
_space_group_symop_operation_xyz
x,y,z
-x,y,1/2-z
-x,-y,-z
x,-y,1/2+z
1/2+x,1/2+y,z
1/2-x,1/2+y,1/2-z
1/2-x,1/2-y,-z
1/2+x,1/2-y,1/2+z
loop_
_atom_site_type_symbol
_atom_site_label
_atom_site_fract_x
_atom_site_fract_y
_atom_site_fract_z
Si Si1 0.582059 0.441095 0.006578
Si Si2 0.393040 0.770707 0.732420
Si Si3 0.087214 0.881788 0.284918
Si Si4 0.101594 0.578898 0.906013
Si Si5 0.078742 0.692536 0.439022
Si Si6 0.387161 0.364611 0.864193
Si Si7 0.568326 0.688654 0.420060
Si Si8 0.197945 0.513509 0.492404
O O1 0.475704 0.420751 0.119201
O O2 0.747096 0.464961 0.966469
O O3 0.500000 0.500000 0.000000
O O4 0.611763 0.380370 0.939615
O O5 0.500000 0.800292 0.750000
O O6 0.442912 0.695967 0.692389
O O7 0.418249 0.814547 0.649616
O O8 0.219982 0.772003 0.833730
O O9 0.268335 0.895614 0.204136
O O10 0.000000 0.907535 0.250000
O O11 0.174795 0.523363 0.925970
O O12 0.041914 0.639080 0.980930
O O13 0.962939 0.548413 0.917245
O O14 0.247363 0.679725 0.396546
O O15 0.029904 0.766305 0.483110
O O16 0.500000 0.382050 0.750000
O O17 0.472890 0.321852 0.887907
O O18 0.330663 0.432709 0.924081
#
# Coordination Sequence:
#
# PCOD8146595 Si02
#       8
#     8   8   8   8   8   8   8   8
#     4  12  25  42  65  96 137 173 219 272 329 392
#     4  11  25  40  63 102 131 169 217 268 337 393
#     4  11  22  41  69  94 127 177 222 267 323 397
#     4  10  22  41  69  91 126 166 221 271 317 386
#     4  11  23  43  67  96 131 164 221 274 329 387
#     4  11  23  41  68  93 125 174 219 267 322 394
#     4  12  24  43  67  95 134 172 215 273 333 386
#     4  10  23  41  62  94 124 171 214 261 324 382
#
# _framework density 19.800201999999999
#
# number of rings (size 3 to 8) (size 9 to 14) (size 15 to 20)
#    0.000    1.000    6.250    0.375    3.500    0.500 
#    2.250    0.625    2.750    0.000    0.000    0.000 
#    0.000    0.000    0.000    0.000    0.000    0.000 
#
# Total GULP energy -396953.754560 kJ/mol
# GULP energy per Si atom -12404.804830 kJ/mol
# Density = 1.975514 g / cm^3
# Si number density = 19.800202 Si / 1000 Ang^3
#
#
#
# Elastic Constant Matrix: (Units=GPa)
#
#
# Indices 1 2 3 4 5 6 
#
# 1 134.0462 38.8022 52.7119 0.0009 0.7256 -0.0014
# 2 38.8022 81.4792 21.1659 0.0004 -0.2596 -0.0007
# 3 52.7119 21.1659 92.0566 0.0009 0.8600 -0.0010
# 4 0.0009 0.0004 0.0009 23.6497 -0.0007 -2.7650
# 5 0.7256 -0.2596 0.8600 -0.0007 33.4128 0.0009
# 6 -0.0014 -0.0007 -0.0010 -2.7650 0.0009 32.6944
#
#
#
# Elastic Compliance Matrix: (Units=1/GPa)
#
#
# Indices 1 2 3 4 5 6 
#
# 1 0.010575 -0.003684 -0.005207 0.000000 -0.000124 0.000000
# 2 -0.003684 0.014337 -0.001189 0.000000 0.000222 0.000000
# 3 -0.005207 -0.001189 0.014120 0.000000 -0.000260 0.000000
# 4 0.000000 0.000000 0.000000 0.042706 0.000001 0.003612
# 5 -0.000124 0.000222 -0.000260 0.000001 0.029940 -0.000001
# 6 0.000000 0.000000 0.000000 0.003612 -0.000001 0.030892
#
#
# Mechanical properties :
#
#
# Convention : Reuss Voigt Hill
#
# Bulk Modulus (GPa) = 52.98795 59.21579 56.10187
# Shear Modulus (GPa) = 29.58233 30.94484 30.26359
#
# Velocity S-wave (km/s) = 3.86948 3.95758 3.91378
# Velocity P-wave (km/s) = 6.83983 7.13126 6.98706
#
# Compressibility (1/GPa) = 0.01887222
#
# Stress axis : x y z
#
# Youngs Moduli (GPa) = 94.56562 69.74992 70.82024
#
# Poissons Ratio (x) = 0.25694 0.36876
# Poissons Ratio (y) = 0.34835 0.08422
# Poissons Ratio (z) = 0.49240 0.08295
#
# Static dielectric constant tensor:
#      x y z
#    x 3.777950 0.000000 -0.082380 
#    y 0.000000 3.655900 0.000000 
#    z -0.082380 0.000000 3.522840 
# 
# 
# High freq. dielectric constant tensor:
#      x y z
#    x 1.783000 0.000000 -0.007400 
#    y 0.000000 1.780010 0.000000 
#    z -0.007400 0.000000 1.764990 
# 
# From -- ./inp_files/200362.got.cif
#   From: 2010.06.25/outbox.cif.g09.slc.cpg/sg15_101_cif.got.tgz:200362.got - 2010.06.28 07:06:18.
