data_PCOD8146515
_publ_section_title
;
Structure prediction by ZEFSAII (Michael W. Deem and Ramdas Pophale) SiO2 
 PCOD8146515
Probable space group: C 2/C
;
_chemical_formula_sum "Si O2"
_cell_formula_units_Z 48
_cell_length_a 18.288001
_cell_length_b 18.551828
_cell_length_c 10.033727
_cell_angle_alpha 90.000000
_cell_angle_beta 44.412084
_cell_angle_gamma 90.000000
_cell_volume 2382.307730
_symmetry_space_group_name_H-M "C 2/C"
_symmetry_group_IT_number 15
_symmetry_cell_setting 'monoclinic'
loop_
_space_group_symop_operation_xyz
x,y,z
-x,y,1/2-z
-x,-y,-z
x,-y,1/2+z
1/2+x,1/2+y,z
1/2-x,1/2+y,1/2-z
1/2-x,1/2-y,-z
1/2+x,1/2-y,1/2+z
loop_
_atom_site_type_symbol
_atom_site_label
_atom_site_fract_x
_atom_site_fract_y
_atom_site_fract_z
Si Si1 0.091569 0.696774 0.225949
Si Si2 0.176956 0.149035 0.545999
Si Si3 0.119831 0.844879 0.562466
Si Si4 0.111816 0.960097 0.344337
Si Si5 0.218048 0.895427 0.704895
Si Si6 0.588583 0.192813 0.526578
O O1 0.116433 0.778689 0.158394
O O2 0.042489 0.693294 0.437694
O O3 0.000000 0.665682 0.250000
O O4 0.199783 0.651519 0.074532
O O5 0.118866 0.084541 0.698715
O O6 0.160830 0.136810 0.409541
O O7 0.137511 0.908880 0.435202
O O8 0.176402 0.859043 0.626137
O O9 0.156087 0.767129 0.457004
O O10 0.000000 0.836937 0.750000
O O11 0.203265 0.019007 0.221338
O O12 0.000000 0.000000 0.500000
O O13 0.339931 0.877527 0.551666
O O14 0.500000 0.184754 0.750000
#
# Coordination Sequence:
#
# PCOD8146515 Si02
#       6
#     8   8   8   8   8   8
#     4  10  22  41  67  90 123 170 210 261 307 363
#     4  10  24  41  60  97 128 160 217 254 310 382
#     4  11  22  39  58  93 123 163 206 249 309 367
#     4  12  24  41  61  94 133 164 202 258 320 379
#     4  11  24  39  62  89 127 167 200 258 311 365
#     4  10  23  42  62  91 120 162 216 255 303 364
#
# _framework density 20.148530999999998
#
# number of rings (size 3 to 8) (size 9 to 14) (size 15 to 20)
#    0.000    1.333    3.333    1.500    7.000    1.333 
#    0.000    0.833    0.000    5.000    0.000    0.000 
#    0.000    0.000    0.000    0.000    0.000    0.000 
#
# Total GULP energy -297572.751698 kJ/mol
# GULP energy per Si atom -12398.864654 kJ/mol
# Density = 2.010267 g / cm^3
# Si number density = 20.148531 Si / 1000 Ang^3
#
#
#
# Elastic Constant Matrix: (Units=GPa)
#
#
# Indices 1 2 3 4 5 6 
#
# 1 92.5529 21.1173 46.8228 0.0000 31.3279 0.0000
# 2 21.1173 99.5705 35.3716 0.0000 2.8128 0.0000
# 3 46.8228 35.3716 130.0660 0.0000 25.9887 0.0000
# 4 0.0000 0.0000 0.0000 38.0067 0.0000 -0.2333
# 5 31.3279 2.8128 25.9887 0.0000 33.9874 0.0000
# 6 0.0000 0.0000 0.0000 -0.2333 0.0000 24.0904
#
#
#
# Elastic Compliance Matrix: (Units=1/GPa)
#
#
# Indices 1 2 3 4 5 6 
#
# 1 0.017417 -0.002268 -0.002931 0.000000 -0.013625 0.000000
# 2 -0.002268 0.011491 -0.002994 0.000000 0.003428 0.000000
# 3 -0.002931 -0.002994 0.010586 0.000000 -0.005145 0.000000
# 4 0.000000 0.000000 0.000000 0.026313 0.000000 0.000255
# 5 -0.013625 0.003428 -0.005145 0.000000 0.045632 0.000000
# 6 0.000000 0.000000 0.000000 0.000255 0.000000 0.041513
#
#
# Mechanical properties :
#
#
# Convention : Reuss Voigt Hill
#
# Bulk Modulus (GPa) = 43.27340 58.75698 51.01519
# Shear Modulus (GPa) = 28.24261 33.80876 31.02568
#
# Velocity S-wave (km/s) = 3.74802 4.10076 3.92835
# Velocity P-wave (km/s) = 6.34460 7.18657 6.77867
#
# Compressibility (1/GPa) = 0.02310888
#
# Stress axis : x y z
#
# Youngs Moduli (GPa) = 57.41646 87.02704 94.46797
#
# Poissons Ratio (x) = 0.19736 0.27685
# Poissons Ratio (y) = 0.13021 0.28279
# Poissons Ratio (z) = 0.16827 0.26052
#
# Static dielectric constant tensor:
#      x y z
#    x 3.593430 0.000000 0.128650 
#    y 0.000000 3.947470 0.000000 
#    z 0.128650 0.000000 3.825960 
# 
# 
# High freq. dielectric constant tensor:
#      x y z
#    x 1.780180 0.000000 0.019600 
#    y 0.000000 1.781490 0.000000 
#    z 0.019600 0.000000 1.799950 
# 
# From -- ./inp_files/48357.got.cif
#   From: 2010.06.25/outbox.cif.g09.slc.cpg/sg15_25_cif.got.tgz:48357.got - 2010.06.28 07:06:18.
