data_PCOD8146766
_publ_section_title
;
Structure prediction by ZEFSAII (Michael W. Deem and Ramdas Pophale) SiO2 
 PCOD8146766
Probable space group: C 2/C
;
_chemical_formula_sum "Si O2"
_cell_formula_units_Z 44
_cell_length_a 9.233618
_cell_length_b 16.644226
_cell_length_c 19.665444
_cell_angle_alpha 90.000000
_cell_angle_beta 44.031237
_cell_angle_gamma 90.000000
_cell_volume 2100.659142
_symmetry_space_group_name_H-M "C 2/C"
_symmetry_group_IT_number 15
_symmetry_cell_setting 'monoclinic'
loop_
_space_group_symop_operation_xyz
x,y,z
-x,y,1/2-z
-x,-y,-z
x,-y,1/2+z
1/2+x,1/2+y,z
1/2-x,1/2+y,1/2-z
1/2-x,1/2-y,-z
1/2+x,1/2-y,1/2+z
loop_
_atom_site_type_symbol
_atom_site_label
_atom_site_fract_x
_atom_site_fract_y
_atom_site_fract_z
Si Si1 0.568662 0.502380 0.400209
Si Si2 0.486803 0.790638 0.000213
Si Si3 0.576368 0.369197 0.655745
Si Si4 0.000000 0.429969 0.250000
Si Si5 0.131561 0.707011 0.804046
Si Si6 0.959778 0.832177 0.399690
O O1 0.500000 0.500000 0.500000
O O2 0.491925 0.582514 0.388226
O O3 0.815834 0.493556 0.318579
O O4 0.474286 0.427293 0.392595
O O5 0.438382 0.781916 0.095162
O O6 0.282199 0.819389 0.030706
O O7 0.675110 0.853801 0.927959
O O8 0.537348 0.704945 0.946475
O O9 0.500000 0.416425 0.750000
O O10 0.453391 0.285714 0.703455
O O11 0.972693 0.372671 0.193248
O O12 0.383599 0.703496 0.710743
#
# Coordination Sequence:
#
# PCOD8146766 Si02
#       6
#     8   8   8   4   8   8
#     4  11  24  41  62  92 130 168 209 265 331 386
#     4  11  22  39  67  90 124 169 211 270 312 383
#     4  12  23  39  62  96 129 163 214 269 322 382
#     4  10  22  42  64  88 128 166 222 258 312 400
#     4  11  20  42  67  87 123 169 218 260 315 383
#     4  10  23  42  62  95 125 162 225 255 320 394
#
# _framework density 20.945806999999999
#
# number of rings (size 3 to 8) (size 9 to 14) (size 15 to 20)
#    0.000    1.091    2.727    4.364    0.000    5.091 
#    3.273    0.000    0.000    0.000    0.000    0.000 
#    0.000    0.000    0.000    0.000    0.000    0.000 
#
# Total GULP energy -272663.794045 kJ/mol
# GULP energy per Si atom -12393.808820 kJ/mol
# Density = 2.089813 g / cm^3
# Si number density = 20.945807 Si / 1000 Ang^3
#
#
#
# Elastic Constant Matrix: (Units=GPa)
#
#
# Indices 1 2 3 4 5 6 
#
# 1 114.6235 53.7911 54.7695 -0.0007 -15.5895 0.0005
# 2 53.7911 63.9598 43.4177 0.0016 -19.2660 -0.0008
# 3 54.7695 43.4177 133.2789 -0.0004 3.6797 -0.0008
# 4 -0.0007 0.0016 -0.0004 25.6369 -0.0009 -0.5976
# 5 -15.5895 -19.2660 3.6797 -0.0009 49.7876 0.0003
# 6 0.0005 -0.0008 -0.0008 -0.5976 0.0003 31.4300
#
#
#
# Elastic Compliance Matrix: (Units=1/GPa)
#
#
# Indices 1 2 3 4 5 6 
#
# 1 0.015142 -0.010575 -0.002801 0.000001 0.000856 -0.000001
# 2 -0.010575 0.031548 -0.006190 -0.000002 0.009354 0.000001
# 3 -0.002801 -0.006190 0.010783 0.000000 -0.004069 0.000000
# 4 0.000001 -0.000002 0.000000 0.039024 0.000000 0.000742
# 5 0.000856 0.009354 -0.004069 0.000000 0.024274 0.000000
# 6 -0.000001 0.000001 0.000000 0.000742 0.000000 0.031831
#
#
# Mechanical properties :
#
#
# Convention : Reuss Voigt Hill
#
# Bulk Modulus (GPa) = 54.52301 68.42432 61.47367
# Shear Modulus (GPa) = 25.27207 32.02983 28.65095
#
# Velocity S-wave (km/s) = 3.47730 3.91471 3.70247
# Velocity P-wave (km/s) = 6.49686 7.29188 6.90582
#
# Compressibility (1/GPa) = 0.01834088
#
# Stress axis : x y z
#
# Youngs Moduli (GPa) = 66.04230 31.69741 92.73989
#
# Poissons Ratio (x) = 0.33521 0.25976
# Poissons Ratio (y) = 0.69842 0.57404
# Poissons Ratio (z) = 0.18498 0.19620
#
# Static dielectric constant tensor:
#      x y z
#    x 4.196450 -0.000010 -0.243310 
#    y -0.000010 3.760030 0.000010 
#    z -0.243310 0.000010 4.082710 
# 
# 
# High freq. dielectric constant tensor:
#      x y z
#    x 1.826330 0.000000 -0.005970 
#    y 0.000000 1.805530 0.000000 
#    z -0.005970 0.000000 1.842050 
# 
# From -- ./inp_files/134276.got.cif
#   From: 2010.06.25/outbox.cif.g09.slc.cpg/sg15_68_cif.got.tgz:134276.got - 2010.06.28 07:06:18.
