data_PCOD8146258
_publ_section_title
;
Structure prediction by ZEFSAII (Michael W. Deem and Ramdas Pophale) SiO2 
 PCOD8146258
Probable space group: C 2/C
;
_chemical_formula_sum "Si O2"
_cell_formula_units_Z 52
_cell_length_a 30.023148
_cell_length_b 13.482307
_cell_length_c 9.139400
_cell_angle_alpha 90.000000
_cell_angle_beta 140.668593
_cell_angle_gamma 90.000000
_cell_volume 2344.734964
_symmetry_space_group_name_H-M "C 2/C"
_symmetry_group_IT_number 15
_symmetry_cell_setting 'monoclinic'
loop_
_space_group_symop_operation_xyz
x,y,z
-x,y,1/2-z
-x,-y,-z
x,-y,1/2+z
1/2+x,1/2+y,z
1/2-x,1/2+y,1/2-z
1/2-x,1/2-y,-z
1/2+x,1/2-y,1/2+z
loop_
_atom_site_type_symbol
_atom_site_label
_atom_site_fract_x
_atom_site_fract_y
_atom_site_fract_z
Si Si1 0.500000 0.473201 0.750000
Si Si2 0.114198 0.877423 0.472202
Si Si3 0.388386 0.330027 0.355678
Si Si4 0.727963 0.534578 0.811642
Si Si5 0.825581 0.525164 0.804964
Si Si6 0.070248 0.641026 0.854954
Si Si7 0.568495 0.808978 0.017026
O O1 0.446474 0.540491 0.707973
O O2 0.455387 0.402509 0.530601
O O3 0.126809 0.815188 0.355331
O O4 0.090867 0.804148 0.542571
O O5 0.185990 0.930726 0.702632
O O6 0.320855 0.375491 0.263421
O O7 0.402401 0.226639 0.468973
O O8 0.758330 0.558648 0.728899
O O9 0.795835 0.527847 0.086316
O O10 0.868170 0.621673 0.869379
O O11 0.873516 0.446764 0.014588
O O12 0.052639 0.682828 0.649263
O O13 0.000000 0.596328 0.750000
O O14 0.500000 0.838097 0.750000
#
# Coordination Sequence:
#
# PCOD8146258 Si02
#       7
#     4   8   8   8   8   8   8
#     4  10  22  40  72 100 146 176 230 284 344 404
#     4  11  24  43  72 105 142 180 236 285 354 412
#     4  11  24  43  72 104 143 181 234 288 349 417
#     4  11  26  47  71 105 140 192 230 287 353 418
#     4  12  27  50  70  98 147 186 239 284 347 420
#     4  12  28  46  73 106 137 187 239 290 351 410
#     4  12  28  46  73 105 139 186 236 296 347 411
#
# _framework density 22.177346
#
# number of rings (size 3 to 8) (size 9 to 14) (size 15 to 20)
#    0.000    0.615    4.615    1.846    6.462    4.923 
#    0.000    0.000    0.000    0.000    0.000    0.000 
#    0.000    0.000    0.000    0.000    0.000    0.000 
#
# Total GULP energy -322530.896304 kJ/mol
# GULP energy per Si atom -12405.034473 kJ/mol
# Density = 2.212687 g / cm^3
# Si number density = 22.177346 Si / 1000 Ang^3
#
#
#
# Elastic Constant Matrix: (Units=GPa)
#
#
# Indices 1 2 3 4 5 6 
#
# 1 119.8637 20.2809 25.4921 0.0000 1.1758 0.0000
# 2 20.2809 53.3888 10.7706 0.0000 9.7042 0.0000
# 3 25.4921 10.7706 81.4094 0.0000 5.7299 0.0000
# 4 0.0000 0.0000 0.0000 26.6996 0.0000 0.1488
# 5 1.1758 9.7042 5.7299 0.0000 43.9546 0.0000
# 6 0.0000 0.0000 0.0000 0.1488 0.0000 33.3918
#
#
#
# Elastic Compliance Matrix: (Units=1/GPa)
#
#
# Indices 1 2 3 4 5 6 
#
# 1 0.009427 -0.003204 -0.002584 0.000000 0.000792 0.000000
# 2 -0.003204 0.021038 -0.001473 0.000000 -0.004367 0.000000
# 3 -0.002584 -0.001473 0.013383 0.000000 -0.001350 0.000000
# 4 0.000000 0.000000 0.000000 0.037455 0.000000 -0.000167
# 5 0.000792 -0.004367 -0.001350 0.000000 0.023870 0.000000
# 6 0.000000 0.000000 0.000000 -0.000167 0.000000 0.029948
#
#
# Mechanical properties :
#
#
# Convention : Reuss Voigt Hill
#
# Bulk Modulus (GPa) = 34.09807 40.86099 37.47953
# Shear Modulus (GPa) = 31.36445 34.01709 32.69077
#
# Velocity S-wave (km/s) = 3.76474 3.92071 3.84352
# Velocity P-wave (km/s) = 5.85715 6.24184 6.05256
#
# Compressibility (1/GPa) = 0.02932717
#
# Stress axis : x y z
#
# Youngs Moduli (GPa) = 106.08305 47.53218 74.72422
#
# Poissons Ratio (x) = 0.15227 0.19306
# Poissons Ratio (y) = 0.33985 0.11006
# Poissons Ratio (z) = 0.27409 0.07001
#
# Static dielectric constant tensor:
#      x y z
#    x 4.075330 0.000000 0.139820 
#    y 0.000000 3.846890 0.000000 
#    z 0.139820 0.000000 4.112770 
# 
# 
# High freq. dielectric constant tensor:
#      x y z
#    x 1.887700 0.000000 0.004380 
#    y 0.000000 1.866400 0.000000 
#    z 0.004380 0.000000 1.879140 
# 
# From -- ./inp_files/70183.got.cif
#   From: 2010.06.25/outbox.cif.g09.slc.cpg/sg15_36_cif.got.tgz:70183.got - 2010.06.28 07:06:18.
