data_PCOD8146364
_publ_section_title
;
Structure prediction by ZEFSAII (Michael W. Deem and Ramdas Pophale) SiO2 
 PCOD8146364
Probable space group: C 2/C
;
_chemical_formula_sum "Si O2"
_cell_formula_units_Z 56
_cell_length_a 12.838954
_cell_length_b 15.644943
_cell_length_c 16.700231
_cell_angle_alpha 90.000000
_cell_angle_beta 129.532914
_cell_angle_gamma 90.000000
_cell_volume 2587.178437
_symmetry_space_group_name_H-M "C 2/C"
_symmetry_group_IT_number 15
_symmetry_cell_setting 'monoclinic'
loop_
_space_group_symop_operation_xyz
x,y,z
-x,y,1/2-z
-x,-y,-z
x,-y,1/2+z
1/2+x,1/2+y,z
1/2-x,1/2+y,1/2-z
1/2-x,1/2-y,-z
1/2+x,1/2-y,1/2+z
loop_
_atom_site_type_symbol
_atom_site_label
_atom_site_fract_x
_atom_site_fract_y
_atom_site_fract_z
Si Si1 0.000000 0.411704 0.750000
Si Si2 0.444368 0.323017 0.882067
Si Si3 0.364856 0.869987 0.333996
Si Si4 0.158817 0.350853 0.688012
Si Si5 0.000000 0.909127 0.750000
Si Si6 0.823853 0.827957 0.387488
Si Si7 0.278582 0.010738 0.395476
Si Si8 0.629173 0.060372 0.889682
O O1 0.960319 0.348644 0.804374
O O2 0.873898 0.474461 0.666268
O O3 0.427110 0.221760 0.882565
O O4 0.296115 0.364351 0.806913
O O5 0.521868 0.347485 0.837754
O O6 0.532488 0.354798 0.002465
O O7 0.218684 0.872125 0.216996
O O8 0.472954 0.917974 0.330981
O O9 0.330689 0.915189 0.401706
O O10 0.173534 0.272385 0.633050
O O11 0.127392 0.430252 0.614902
O O12 0.875554 0.972151 0.703905
O O13 0.704459 0.856384 0.390016
O O14 0.291214 0.033398 0.493128
#
# Coordination Sequence:
#
# PCOD8146364 Si02
#       8
#     4   8   8   8   4   8   8   8
#     4  12  24  45  63  98 130 176 220 274 323 388
#     4  10  23  40  64  94 129 172 212 274 322 385
#     4  11  23  38  62  96 134 169 220 267 319 392
#     4  10  24  42  64  91 139 168 223 272 324 390
#     4  10  22  41  63  98 140 162 218 268 331 380
#     4  11  22  42  64  96 128 173 220 267 327 393
#     4  11  22  41  62 101 133 176 209 277 327 385
#     4  12  22  37  68  98 129 171 220 269 330 388
#
# _framework density 21.645202000000001
#
# number of rings (size 3 to 8) (size 9 to 14) (size 15 to 20)
#    0.000    1.143    4.286    1.286    8.000    1.143 
#    2.571    5.714    0.000    0.000    0.000    0.000 
#    0.000    0.000    0.000    0.000    0.000    0.000 
#
# Total GULP energy -346867.391266 kJ/mol
# GULP energy per Si atom -12388.121117 kJ/mol
# Density = 2.159594 g / cm^3
# Si number density = 21.645202 Si / 1000 Ang^3
#
#
#
# Elastic Constant Matrix: (Units=GPa)
#
#
# Indices 1 2 3 4 5 6 
#
# 1 90.4805 48.4037 12.0162 0.0000 -18.0011 0.0000
# 2 48.4037 88.2180 12.8201 0.0000 -6.9791 0.0000
# 3 12.0162 12.8201 109.8652 0.0000 4.0485 0.0000
# 4 0.0000 0.0000 0.0000 23.1736 0.0000 -9.6382
# 5 -18.0011 -6.9791 4.0485 0.0000 26.2290 0.0000
# 6 0.0000 0.0000 0.0000 -9.6382 0.0000 44.4980
#
#
#
# Elastic Compliance Matrix: (Units=1/GPa)
#
#
# Indices 1 2 3 4 5 6 
#
# 1 0.018007 -0.008883 -0.001309 0.000000 0.010196 0.000000
# 2 -0.008883 0.016204 -0.000858 0.000000 -0.001653 0.000000
# 3 -0.001309 -0.000858 0.009441 0.000000 -0.002584 0.000000
# 4 0.000000 0.000000 0.000000 0.047425 0.000000 0.010272
# 5 0.010196 -0.001653 -0.002584 0.000000 0.045083 0.000000
# 6 0.000000 0.000000 0.000000 0.010272 0.000000 0.024698
#
#
# Mechanical properties :
#
#
# Convention : Reuss Voigt Hill
#
# Bulk Modulus (GPa) = 46.40222 48.33818 47.37020
# Shear Modulus (GPa) = 26.29645 33.13502 29.71574
#
# Velocity S-wave (km/s) = 3.48930 3.91682 3.70923
# Velocity P-wave (km/s) = 6.14148 6.54491 6.34640
#
# Compressibility (1/GPa) = 0.02155070
#
# Stress axis : x y z
#
# Youngs Moduli (GPa) = 55.53523 61.71492 105.92598
#
# Poissons Ratio (x) = 0.54822 0.13861
# Poissons Ratio (y) = 0.49332 0.09092
# Poissons Ratio (z) = 0.07267 0.05297
#
# Static dielectric constant tensor:
#      x y z
#    x 3.632380 0.000000 -0.010510 
#    y 0.000000 3.768230 0.000000 
#    z -0.010510 0.000000 4.206200 
# 
# 
# High freq. dielectric constant tensor:
#      x y z
#    x 1.824310 0.000000 -0.001420 
#    y 0.000000 1.834430 0.000000 
#    z -0.001420 0.000000 1.869990 
# 
# From -- ./inp_files/205520.got.cif
#   From: 2010.06.25/outbox.cif.g09.slc.cpg/sg15_103_cif.got.tgz:205520.got - 2010.06.28 07:06:18.
