data_PCOD8146176
_publ_section_title
;
Structure prediction by ZEFSAII (Michael W. Deem and Ramdas Pophale) SiO2 
 PCOD8146176
Probable space group: C 2/C
;
_chemical_formula_sum "Si O2"
_cell_formula_units_Z 60
_cell_length_a 12.572826
_cell_length_b 13.680704
_cell_length_c 19.257894
_cell_angle_alpha 90.000000
_cell_angle_beta 118.756595
_cell_angle_gamma 90.000000
_cell_volume 2903.935563
_symmetry_space_group_name_H-M "C 2/C"
_symmetry_group_IT_number 15
_symmetry_cell_setting 'monoclinic'
loop_
_space_group_symop_operation_xyz
x,y,z
-x,y,1/2-z
-x,-y,-z
x,-y,1/2+z
1/2+x,1/2+y,z
1/2-x,1/2+y,1/2-z
1/2-x,1/2-y,-z
1/2+x,1/2-y,1/2+z
loop_
_atom_site_type_symbol
_atom_site_label
_atom_site_fract_x
_atom_site_fract_y
_atom_site_fract_z
Si Si1 0.445347 0.334396 0.809149
Si Si2 0.500000 0.195395 0.250000
Si Si3 0.622412 0.142841 0.754988
Si Si4 0.768199 0.903042 0.971049
Si Si5 0.192254 0.244534 0.590311
Si Si6 0.724096 0.062515 0.297452
Si Si7 0.825621 0.891185 0.537930
Si Si8 0.058729 0.257173 0.915415
O O1 0.500000 0.343199 0.750000
O O2 0.417453 0.218450 0.819273
O O3 0.322634 0.396333 0.775363
O O4 0.538539 0.379936 0.892271
O O5 0.603841 0.126253 0.251256
O O6 0.452295 0.263156 0.171463
O O7 0.500000 0.099518 0.750000
O O8 0.693636 0.219628 0.825862
O O9 0.703112 0.048660 0.762878
O O10 0.878900 0.831417 0.024311
O O11 0.783890 0.997035 0.024163
O O12 0.772737 0.933181 0.891604
O O13 0.639479 0.854635 0.950159
O O14 0.169065 0.147729 0.538611
O O15 0.226155 0.335115 0.552198
O O16 0.074156 0.275231 0.596090
#
# Coordination Sequence:
#
# PCOD8146176 Si02
#       8
#     8   4   8   8   8   8   8   8
#     4  11  24  42  60  96 138 162 210 277 327 380
#     4  10  22  40  68  94 128 174 216 266 326 392
#     4  11  21  42  65  93 126 168 212 272 315 381
#     4  10  23  44  67  94 131 171 219 267 317 399
#     4  11  22  40  68  95 126 168 217 272 314 384
#     4  11  22  41  70  94 124 177 222 260 324 393
#     4  11  23  40  66  96 126 170 216 265 327 376
#     4  10  23  43  66  95 133 169 218 268 326 385
#
# _framework density 20.661615000000001
#
# number of rings (size 3 to 8) (size 9 to 14) (size 15 to 20)
#    0.000    1.333    4.667    1.600    1.867    1.600 
#    1.200    4.000    0.000    0.000    0.000    0.000 
#    0.000    0.000    0.000    0.000    0.000    0.000 
#
# Total GULP energy -371918.716204 kJ/mol
# GULP energy per Si atom -12397.290540 kJ/mol
# Density = 2.061459 g / cm^3
# Si number density = 20.661615 Si / 1000 Ang^3
#
#
#
# Elastic Constant Matrix: (Units=GPa)
#
#
# Indices 1 2 3 4 5 6 
#
# 1 142.6104 52.8842 32.0584 0.0000 6.3659 0.0000
# 2 52.8842 127.6855 27.6339 0.0000 0.8416 0.0000
# 3 32.0584 27.6339 62.0276 0.0000 16.7092 0.0000
# 4 0.0000 0.0000 0.0000 26.2871 0.0000 8.7133
# 5 6.3659 0.8416 16.7092 0.0000 27.8229 0.0000
# 6 0.0000 0.0000 0.0000 8.7133 0.0000 24.1993
#
#
#
# Elastic Compliance Matrix: (Units=1/GPa)
#
#
# Indices 1 2 3 4 5 6 
#
# 1 0.008840 -0.002956 -0.003258 0.000000 0.000024 0.000000
# 2 -0.002956 0.009799 -0.003507 0.000000 0.002486 0.000000
# 3 -0.003258 -0.003507 0.022833 0.000000 -0.012861 0.000000
# 4 0.000000 0.000000 0.000000 0.043197 0.000000 -0.015554
# 5 0.000024 0.002486 -0.012861 0.000000 0.043585 0.000000
# 6 0.000000 0.000000 0.000000 -0.015554 0.000000 0.046924
#
#
# Mechanical properties :
#
#
# Convention : Reuss Voigt Hill
#
# Bulk Modulus (GPa) = 45.39660 61.94183 53.66922
# Shear Modulus (GPa) = 24.75707 30.31168 27.53437
#
# Velocity S-wave (km/s) = 3.46528 3.83437 3.65449
# Velocity P-wave (km/s) = 6.16685 7.04609 6.62108
#
# Compressibility (1/GPa) = 0.02202808
#
# Stress axis : x y z
#
# Youngs Moduli (GPa) = 113.12573 102.05307 43.79672
#
# Poissons Ratio (x) = 0.30169 0.14269
# Poissons Ratio (y) = 0.33443 0.15361
# Poissons Ratio (z) = 0.36857 0.35793
#
# Static dielectric constant tensor:
#      x y z
#    x 3.713420 0.000000 0.316730 
#    y 0.000000 3.715450 0.000000 
#    z 0.316730 0.000000 3.980210 
# 
# 
# High freq. dielectric constant tensor:
#      x y z
#    x 1.812090 0.000000 0.024150 
#    y 0.000000 1.804420 0.000000 
#    z 0.024150 0.000000 1.808040 
# 
# From -- ./inp_files/198390.got.cif
#   From: 2010.06.25/outbox.cif.g09.slc.cpg/sg15_100_cif.got.tgz:198390.got - 2010.06.28 07:06:18.
