data_PCOD8146455
_publ_section_title
;
Structure prediction by ZEFSAII (Michael W. Deem and Ramdas Pophale) SiO2 
 PCOD8146455
Probable space group: C 2/C
;
_chemical_formula_sum "Si O2"
_cell_formula_units_Z 36
_cell_length_a 14.564727
_cell_length_b 12.134816
_cell_length_c 10.977959
_cell_angle_alpha 90.000000
_cell_angle_beta 54.451296
_cell_angle_gamma 90.000000
_cell_volume 1578.627335
_symmetry_space_group_name_H-M "C 2/C"
_symmetry_group_IT_number 15
_symmetry_cell_setting 'monoclinic'
loop_
_space_group_symop_operation_xyz
x,y,z
-x,y,1/2-z
-x,-y,-z
x,-y,1/2+z
1/2+x,1/2+y,z
1/2-x,1/2+y,1/2-z
1/2-x,1/2-y,-z
1/2+x,1/2-y,1/2+z
loop_
_atom_site_type_symbol
_atom_site_label
_atom_site_fract_x
_atom_site_fract_y
_atom_site_fract_z
Si Si1 0.862967 0.333353 0.491084
Si Si2 0.930245 0.757577 0.546234
Si Si3 0.500000 0.630222 0.750000
Si Si4 0.339046 0.536208 0.238041
Si Si5 0.272258 0.863269 0.322035
O O1 0.769810 0.417981 0.610372
O O2 0.822429 0.207398 0.535483
O O3 0.878209 0.366263 0.335968
O O4 0.978251 0.333041 0.478938
O O5 0.927991 0.870244 0.628190
O O6 0.811660 0.694469 0.664096
O O7 0.947553 0.788209 0.392220
O O8 0.598243 0.554658 0.729036
O O9 0.287236 0.479303 0.157183
#
# Coordination Sequence:
#
# PCOD8146455 Si02
#       5
#     8   8   4   8   8
#     4  10  22  41  65  96 129 166 214 265 314 380
#     4  11  24  42  67  94 132 168 213 261 324 376
#     4  12  24  40  66  98 130 170 210 266 314 384
#     4  11  24  41  67  98 126 167 220 260 318 378
#     4  10  22  41  65  95 130 169 212 261 318 381
#
# _framework density 22.804621999999998
#
# number of rings (size 3 to 8) (size 9 to 14) (size 15 to 20)
#    0.000    1.333    2.222    2.667    9.333    1.778 
#    4.000    0.000    0.000    0.000    0.000    0.000 
#    0.000    0.000    0.000    0.000    0.000    0.000 
#
# Total GULP energy -223044.411971 kJ/mol
# GULP energy per Si atom -12391.356221 kJ/mol
# Density = 2.275272 g / cm^3
# Si number density = 22.804622 Si / 1000 Ang^3
#
#
#
# Elastic Constant Matrix: (Units=GPa)
#
#
# Indices 1 2 3 4 5 6 
#
# 1 90.9642 31.4578 28.9192 0.0000 8.4250 0.0000
# 2 31.4578 61.9353 26.7623 0.0000 2.0910 0.0000
# 3 28.9192 26.7623 123.3251 0.0000 12.7927 0.0000
# 4 0.0000 0.0000 0.0000 20.2991 0.0000 -5.0108
# 5 8.4250 2.0910 12.7927 0.0000 26.8425 0.0000
# 6 0.0000 0.0000 0.0000 -5.0108 0.0000 35.6463
#
#
#
# Elastic Compliance Matrix: (Units=1/GPa)
#
#
# Indices 1 2 3 4 5 6 
#
# 1 0.013967 -0.006305 -0.001581 0.000000 -0.003139 0.000000
# 2 -0.006305 0.020668 -0.003203 0.000000 0.001896 0.000000
# 3 -0.001581 -0.003203 0.009570 0.000000 -0.003815 0.000000
# 4 0.000000 0.000000 0.000000 0.051034 0.000000 0.007174
# 5 -0.003139 0.001896 -0.003815 0.000000 0.039910 0.000000
# 6 0.000000 0.000000 0.000000 0.007174 0.000000 0.029062
#
#
# Mechanical properties :
#
#
# Convention : Reuss Voigt Hill
#
# Bulk Modulus (GPa) = 45.39933 50.05591 47.72762
# Shear Modulus (GPa) = 25.80864 29.16327 27.48595
#
# Velocity S-wave (km/s) = 3.36777 3.57995 3.47548
# Velocity P-wave (km/s) = 5.92230 6.25185 6.08931
#
# Compressibility (1/GPa) = 0.02202676
#
# Stress axis : x y z
#
# Youngs Moduli (GPa) = 71.59623 48.38319 104.48899
#
# Poissons Ratio (x) = 0.30505 0.16524
# Poissons Ratio (y) = 0.45140 0.33471
# Poissons Ratio (z) = 0.11323 0.15499
#
# Static dielectric constant tensor:
#      x y z
#    x 4.181210 0.000000 0.079470 
#    y 0.000000 3.982830 0.000000 
#    z 0.079470 0.000000 4.186460 
# 
# 
# High freq. dielectric constant tensor:
#      x y z
#    x 1.889460 0.000000 -0.003410 
#    y 0.000000 1.885470 0.000000 
#    z -0.003410 0.000000 1.909900 
# 
# From -- ./inp_files/94347.got.cif
#   From: 2010.06.25/outbox.cif.g09.slc.cpg/sg15_48_cif.got.tgz:94347.got - 2010.06.28 07:06:18.
