data_PCOD8146016
_publ_section_title
;
Structure prediction by ZEFSAII (Michael W. Deem and Ramdas Pophale) SiO2 
 PCOD8146016
Probable space group: C 2/C
;
_chemical_formula_sum "Si O2"
_cell_formula_units_Z 40
_cell_length_a 15.379022
_cell_length_b 11.025431
_cell_length_c 15.793413
_cell_angle_alpha 90.000000
_cell_angle_beta 131.119827
_cell_angle_gamma 90.000000
_cell_volume 2017.385663
_symmetry_space_group_name_H-M "C 2/C"
_symmetry_group_IT_number 15
_symmetry_cell_setting 'monoclinic'
loop_
_space_group_symop_operation_xyz
x,y,z
-x,y,1/2-z
-x,-y,-z
x,-y,1/2+z
1/2+x,1/2+y,z
1/2-x,1/2+y,1/2-z
1/2-x,1/2-y,-z
1/2+x,1/2-y,1/2+z
loop_
_atom_site_type_symbol
_atom_site_label
_atom_site_fract_x
_atom_site_fract_y
_atom_site_fract_z
Si Si1 0.475398 0.468400 0.387924
Si Si2 0.474482 0.138542 0.479258
Si Si3 0.953264 0.235054 0.312066
Si Si4 0.333064 0.710295 0.480114
Si Si5 0.215388 0.760291 0.233740
O O1 0.500000 0.500000 0.500000
O O2 0.452646 0.588776 0.319158
O O3 0.596968 0.406348 0.439378
O O4 0.364981 0.379292 0.305298
O O5 0.465881 0.205976 0.564304
O O6 0.572079 0.189575 0.480042
O O7 0.351317 0.154556 0.357294
O O8 0.500000 0.000000 0.500000
O O9 0.826438 0.292139 0.246886
O O10 0.000000 0.273379 0.250000
O O11 0.250000 0.750000 0.500000
O O12 0.256343 0.694876 0.346512
#
# Coordination Sequence:
#
# PCOD8146016 Si02
#       5
#     8   8   8   8   8
#     4  11  21  44  64  90 130 168 216 264 317 389
#     4  10  23  43  59  91 131 161 207 262 322 383
#     4  11  25  42  66  99 124 169 220 264 323 382
#     4  10  23  39  63  96 119 164 219 257 314 378
#     4  10  22  40  65  84 128 171 206 261 324 368
#
# _framework density 19.827641
#
# number of rings (size 3 to 8) (size 9 to 14) (size 15 to 20)
#    0.000    1.600    6.000    0.000    8.400    3.200 
#    7.200    0.000    0.000    0.000    0.000    0.000 
#    0.000    0.000    0.000    0.000    0.000    0.000 
#
# Total GULP energy -247854.910852 kJ/mol
# GULP energy per Si atom -12392.745543 kJ/mol
# Density = 1.978251 g / cm^3
# Si number density = 19.827641 Si / 1000 Ang^3
#
#
#
# Elastic Constant Matrix: (Units=GPa)
#
#
# Indices 1 2 3 4 5 6 
#
# 1 141.4242 14.2892 58.5176 0.0000 -17.4974 0.0000
# 2 14.2892 98.0578 30.5453 0.0000 2.6895 0.0000
# 3 58.5176 30.5453 119.1405 0.0000 19.9656 0.0000
# 4 0.0000 0.0000 0.0000 24.6826 0.0000 -2.1217
# 5 -17.4974 2.6895 19.9656 0.0000 29.0574 0.0000
# 6 0.0000 0.0000 0.0000 -2.1217 0.0000 20.9535
#
#
#
# Elastic Compliance Matrix: (Units=1/GPa)
#
#
# Indices 1 2 3 4 5 6 
#
# 1 0.011966 0.000438 -0.008126 0.000000 0.012749 0.000000
# 2 0.000438 0.011127 -0.003322 0.000000 0.001516 0.000000
# 3 -0.008126 -0.003322 0.015827 0.000000 -0.015461 0.000000
# 4 0.000000 0.000000 0.000000 0.040870 0.000000 0.004138
# 5 0.012749 0.001516 -0.015461 0.000000 0.052574 0.000000
# 6 0.000000 0.000000 0.000000 0.004138 0.000000 0.048144
#
#
# Mechanical properties :
#
#
# Convention : Reuss Voigt Hill
#
# Bulk Modulus (GPa) = 59.16951 62.81408 60.99179
# Shear Modulus (GPa) = 24.01954 31.95673 27.98814
#
# Velocity S-wave (km/s) = 3.48432 4.01899 3.76117
# Velocity P-wave (km/s) = 6.78926 7.29967 7.04908
#
# Compressibility (1/GPa) = 0.01690060
#
# Stress axis : x y z
#
# Youngs Moduli (GPa) = 83.56733 89.86748 63.18155
#
# Poissons Ratio (x) = -0.03935 0.51342
# Poissons Ratio (y) = -0.03659 0.20989
# Poissons Ratio (z) = 0.67908 0.29855
#
# Static dielectric constant tensor:
#      x y z
#    x 4.108280 0.000000 -1.054020 
#    y 0.000000 0.800920 0.000000 
#    z -1.054020 0.000000 7.141480 
# 
# 
# High freq. dielectric constant tensor:
#      x y z
#    x 1.767230 0.000000 0.011940 
#    y 0.000000 1.769200 0.000000 
#    z 0.011940 0.000000 1.787460 
# 
# From -- ./inp_files/94879.got.cif
#   From: 2010.06.25/outbox.cif.g09.slc.cpg/sg15_48_cif.got.tgz:94879.got - 2010.06.28 07:06:18.
