data_PCOD8146589
_publ_section_title
;
Structure prediction by ZEFSAII (Michael W. Deem and Ramdas Pophale) SiO2 
 PCOD8146589
Probable space group: C 2/C
;
_chemical_formula_sum "Si O2"
_cell_formula_units_Z 48
_cell_length_a 8.323395
_cell_length_b 17.989612
_cell_length_c 16.344965
_cell_angle_alpha 90.000000
_cell_angle_beta 45.377818
_cell_angle_gamma 90.000000
_cell_volume 1741.952498
_symmetry_space_group_name_H-M "C 2/C"
_symmetry_group_IT_number 15
_symmetry_cell_setting 'monoclinic'
loop_
_space_group_symop_operation_xyz
x,y,z
-x,y,1/2-z
-x,-y,-z
x,-y,1/2+z
1/2+x,1/2+y,z
1/2-x,1/2+y,1/2-z
1/2-x,1/2-y,-z
1/2+x,1/2-y,1/2+z
loop_
_atom_site_type_symbol
_atom_site_label
_atom_site_fract_x
_atom_site_fract_y
_atom_site_fract_z
Si Si1 0.618471 0.944800 0.022860
Si Si2 0.123421 0.798817 0.611346
Si Si3 0.589853 0.743771 0.858564
Si Si4 0.748272 0.030153 0.130255
Si Si5 0.338191 0.582708 0.734359
Si Si6 0.720235 0.693989 0.391529
O O1 0.417468 0.905153 0.144398
O O2 0.765411 0.988890 0.037262
O O3 0.784995 0.884133 0.922963
O O4 0.500000 0.000000 0.000000
O O5 0.250000 0.750000 0.500000
O O6 0.171097 0.772073 0.687635
O O7 0.856869 0.786843 0.676029
O O8 0.588355 0.660277 0.828619
O O9 0.484470 0.795231 0.822708
O O10 0.420715 0.747333 0.997287
O O11 0.500000 0.048020 0.250000
O O12 0.864441 0.109174 0.070820
O O13 0.869616 0.981897 0.156505
O O14 0.500000 0.558362 0.750000
#
# Coordination Sequence:
#
# PCOD8146589 Si02
#       6
#     8   8   8   8   8   8
#     4  11  25  45  75 105 145 188 244 304 364 443
#     4  10  22  41  69 100 137 181 231 289 357 435
#     4  10  23  44  68 101 141 182 237 297 355 442
#     4  10  23  45  67 100 142 184 239 302 358 426
#     4  11  27  44  71 105 139 189 245 297 362 428
#     4  10  22  41  74 101 137 188 234 291 374 429
#
# _framework density 27.555285999999999
#
# number of rings (size 3 to 8) (size 9 to 14) (size 15 to 20)
#    0.000    1.667    0.000    3.000   11.667    2.000 
#    0.000    0.000   11.000    0.000    0.000    0.000 
#    0.000    0.000    0.000    0.000    0.000    0.000 
#
# Total GULP energy -297540.699272 kJ/mol
# GULP energy per Si atom -12397.529136 kJ/mol
# Density = 2.749257 g / cm^3
# Si number density = 27.555286 Si / 1000 Ang^3
#
#
#
# Elastic Constant Matrix: (Units=GPa)
#
#
# Indices 1 2 3 4 5 6 
#
# 1 292.7693 93.3796 75.7264 0.0054 47.9180 0.0063
# 2 93.3796 154.7776 15.6959 0.0002 34.8272 0.0003
# 3 75.7264 15.6959 93.1870 -0.0063 25.6561 -0.0090
# 4 0.0054 0.0002 -0.0063 -329.7738 -0.0021 -483.5040
# 5 47.9180 34.8272 25.6561 -0.0021 71.6869 -0.0023
# 6 0.0063 0.0003 -0.0090 -483.5040 -0.0023 -627.6377
#
#
#
# Elastic Compliance Matrix: (Units=1/GPa)
#
#
# Indices 1 2 3 4 5 6 
#
# 1 0.005363 -0.002642 -0.003638 0.000000 -0.000999 0.000000
# 2 -0.002642 0.008562 0.001513 0.000000 -0.002935 0.000000
# 3 -0.003638 0.001513 0.014383 0.000000 -0.003451 0.000000
# 4 0.000000 0.000000 0.000000 0.023421 0.000000 -0.018043
# 5 -0.000999 -0.002935 -0.003451 0.000000 0.017278 0.000000
# 6 0.000000 0.000000 0.000000 -0.018043 0.000000 0.012306
#
#
# Mechanical properties :
#
#
# Convention : Reuss Voigt Hill
#
# Bulk Modulus (GPa) = 53.26707 101.14864 77.20785
# Shear Modulus (GPa) = 51.49111 -153.41613 -50.96251
#
# Velocity S-wave (km/s) = 4.32748 -7.46971 -4.30521
# Velocity P-wave (km/s) = 6.65900 6.13256 1.83495
#
# Compressibility (1/GPa) = 0.01877332
#
# Stress axis : x y z
#
# Youngs Moduli (GPa) = 186.47255 116.79986 69.52874
#
# Poissons Ratio (x) = 0.30854 0.25293
# Poissons Ratio (y) = 0.49259 -0.10517
# Poissons Ratio (z) = 0.67835 -0.17668
#
# Static dielectric constant tensor:
#      x y z
#    x 3.649930 0.000000 -0.473630 
#    y 0.000000 4.781310 0.000000 
#    z -0.473630 0.000000 5.178490 
# 
# 
# High freq. dielectric constant tensor:
#      x y z
#    x 2.158700 0.000000 -0.002210 
#    y 0.000000 2.094930 0.000000 
#    z -0.002210 0.000000 2.160320 
# 
# From -- ./inp_files/190256.got.cif
#   From: 2010.06.25/outbox.cif.g09.slc.cpg/sg15_96_cif.got.tgz:190256.got - 2010.06.28 07:06:18.
