data_PCOD8146999
_publ_section_title
;
Structure prediction by ZEFSAII (Michael W. Deem and Ramdas Pophale) SiO2 
 PCOD8146999
Probable space group: C 2/C
;
_chemical_formula_sum "Si O2"
_cell_formula_units_Z 36
_cell_length_a 11.490191
_cell_length_b 15.703481
_cell_length_c 9.459528
_cell_angle_alpha 90.000000
_cell_angle_beta 75.078516
_cell_angle_gamma 90.000000
_cell_volume 1649.284043
_symmetry_space_group_name_H-M "C 2/C"
_symmetry_group_IT_number 15
_symmetry_cell_setting 'monoclinic'
loop_
_space_group_symop_operation_xyz
x,y,z
-x,y,1/2-z
-x,-y,-z
x,-y,1/2+z
1/2+x,1/2+y,z
1/2-x,1/2+y,1/2-z
1/2-x,1/2-y,-z
1/2+x,1/2-y,1/2+z
loop_
_atom_site_type_symbol
_atom_site_label
_atom_site_fract_x
_atom_site_fract_y
_atom_site_fract_z
Si Si1 0.500000 0.196881 0.750000
Si Si2 0.690487 0.316808 0.778164
Si Si3 0.237866 0.369736 0.047691
Si Si4 0.133299 0.812925 0.212856
Si Si5 0.367991 0.461661 0.514454
O O1 0.569944 0.260166 0.834783
O O2 0.403091 0.138778 0.864803
O O3 0.733532 0.313772 0.600848
O O4 0.786269 0.269711 0.850896
O O5 0.668515 0.413791 0.829509
O O6 0.327255 0.342815 0.144395
O O7 0.268211 0.468231 0.007302
O O8 0.000000 0.776441 0.250000
O O9 0.139280 0.893074 0.107411
O O10 0.500000 0.500000 0.500000
#
# Coordination Sequence:
#
# PCOD8146999 Si02
#       5
#     4   8   8   8   8
#     4  10  22  42  68  94 134 176 222 274 332 404
#     4  11  25  44  70  97 132 182 228 271 339 403
#     4  11  24  44  69 100 133 180 225 277 340 397
#     4  11  23  42  68  99 134 172 227 274 331 401
#     4  12  24  43  69 101 137 171 226 284 333 398
#
# _framework density 21.827653999999999
#
# number of rings (size 3 to 8) (size 9 to 14) (size 15 to 20)
#    0.000    0.889    2.222    6.000    3.111    0.000 
#    2.000    5.556    0.000    0.000    0.000    0.000 
#    0.000    0.000    0.000    0.000    0.000    0.000 
#
# Total GULP energy -223120.046455 kJ/mol
# GULP energy per Si atom -12395.558136 kJ/mol
# Density = 2.177797 g / cm^3
# Si number density = 21.827654 Si / 1000 Ang^3
#
#
#
# Elastic Constant Matrix: (Units=GPa)
#
#
# Indices 1 2 3 4 5 6 
#
# 1 176.0784 70.1129 52.1219 0.0000 -22.1080 0.0000
# 2 70.1129 120.3451 30.7932 0.0000 -12.4946 0.0000
# 3 52.1219 30.7932 109.5547 0.0000 3.3617 0.0000
# 4 0.0000 0.0000 0.0000 37.8536 0.0000 11.4224
# 5 -22.1080 -12.4946 3.3617 0.0000 29.6035 0.0000
# 6 0.0000 0.0000 0.0000 11.4224 0.0000 33.7895
#
#
#
# Elastic Compliance Matrix: (Units=1/GPa)
#
#
# Indices 1 2 3 4 5 6 
#
# 1 0.008824 -0.003733 -0.003314 0.000000 0.005390 0.000000
# 2 -0.003733 0.011052 -0.001393 0.000000 0.002035 0.000000
# 3 -0.003314 -0.001393 0.011229 0.000000 -0.004338 0.000000
# 4 0.000000 0.000000 0.000000 0.029418 0.000000 -0.009945
# 5 0.005390 0.002035 -0.004338 0.000000 0.039157 0.000000
# 6 0.000000 0.000000 0.000000 -0.009945 0.000000 0.032957
#
#
# Mechanical properties :
#
#
# Convention : Reuss Voigt Hill
#
# Bulk Modulus (GPa) = 70.29948 79.11492 74.70720
# Shear Modulus (GPa) = 32.41322 37.11266 34.76294
#
# Velocity S-wave (km/s) = 3.85770 4.12789 3.99508
# Velocity P-wave (km/s) = 7.21935 7.68396 7.45528
#
# Compressibility (1/GPa) = 0.01422486
#
# Stress axis : x y z
#
# Youngs Moduli (GPa) = 113.33356 90.48185 89.05372
#
# Poissons Ratio (x) = 0.33776 0.29513
# Poissons Ratio (y) = 0.42307 0.12404
# Poissons Ratio (z) = 0.37559 0.12603
#
# Static dielectric constant tensor:
#      x y z
#    x 4.200680 0.000000 -0.036910 
#    y 0.000000 4.354150 0.000000 
#    z -0.036910 0.000000 3.941340 
# 
# 
# High freq. dielectric constant tensor:
#      x y z
#    x 1.858330 0.000000 0.000650 
#    y 0.000000 1.870440 0.000000 
#    z 0.000650 0.000000 1.861340 
# 
# From -- ./inp_files/28970.got.cif
#   From: 2010.06.25/outbox.cif.g09.slc.cpg/sg15_15_cif.got.tgz:28970.got - 2010.06.28 07:06:18.
