data_PCOD8146311
_publ_section_title
;
Structure prediction by ZEFSAII (Michael W. Deem and Ramdas Pophale) SiO2 
 PCOD8146311
Probable space group: C 2/C
;
_chemical_formula_sum "Si O2"
_cell_formula_units_Z 56
_cell_length_a 24.301242
_cell_length_b 21.676515
_cell_length_c 5.392912
_cell_angle_alpha 90.000000
_cell_angle_beta 71.904455
_cell_angle_gamma 90.000000
_cell_volume 2700.297469
_symmetry_space_group_name_H-M "C 2/C"
_symmetry_group_IT_number 15
_symmetry_cell_setting 'monoclinic'
loop_
_space_group_symop_operation_xyz
x,y,z
-x,y,1/2-z
-x,-y,-z
x,-y,1/2+z
1/2+x,1/2+y,z
1/2-x,1/2+y,1/2-z
1/2-x,1/2-y,-z
1/2+x,1/2-y,1/2+z
loop_
_atom_site_type_symbol
_atom_site_label
_atom_site_fract_x
_atom_site_fract_y
_atom_site_fract_z
Si Si1 0.795840 0.771117 0.134404
Si Si2 0.000000 0.201121 0.250000
Si Si3 0.000000 0.039829 0.750000
Si Si4 0.807031 0.533850 0.542682
Si Si5 0.389823 0.267691 0.653374
Si Si6 0.188282 0.325802 0.491125
Si Si7 0.912366 0.866358 0.222195
Si Si8 0.670203 0.466447 0.270286
O O1 0.820439 0.711062 0.242167
O O2 0.758026 0.819931 0.345269
O O3 0.750000 0.750000 0.000000
O O4 0.853187 0.801349 0.927054
O O5 0.043315 0.243297 0.356380
O O6 0.960940 0.156340 0.465842
O O7 0.056792 0.082705 0.649175
O O8 0.000000 0.000000 0.500000
O O9 0.829425 0.505656 0.773667
O O10 0.830391 0.603095 0.467164
O O11 0.738665 0.537201 0.659028
O O12 0.355808 0.203987 0.649256
O O13 0.386876 0.309677 0.414457
O O14 0.857103 0.898216 0.171404
O O15 0.648347 0.501124 0.547776
#
# Coordination Sequence:
#
# PCOD8146311 Si02
#       8
#     8   4   4   8   8   8   8   8
#     4   9  21  36  64  94 126 166 211 276 328 402
#     4  12  25  42  60  90 128 173 224 280 350 376
#     4  12  25  42  62  84 120 179 238 286 320 374
#     4  10  24  41  66  96 135 172 212 269 332 408
#     4  11  24  40  62  93 123 171 220 283 340 387
#     4  10  22  41  62 100 128 167 221 268 342 407
#     4  12  25  40  61  86 123 171 226 284 328 382
#     4  10  24  41  59  89 124 177 226 272 326 385
#
# _framework density 20.738457
#
# number of rings (size 3 to 8) (size 9 to 14) (size 15 to 20)
#    0.000    1.429    1.429    2.143   14.000    1.143 
#    0.000    0.000    0.000    0.000    0.000    1.000 
#    0.000    0.000    0.000    0.000    0.000    0.000 
#
# Total GULP energy -346994.683843 kJ/mol
# GULP energy per Si atom -12392.667280 kJ/mol
# Density = 2.069126 g / cm^3
# Si number density = 20.738457 Si / 1000 Ang^3
#
#
#
# Elastic Constant Matrix: (Units=GPa)
#
#
# Indices 1 2 3 4 5 6 
#
# 1 77.0116 28.5064 21.0736 0.0000 2.9104 0.0000
# 2 28.5064 116.8817 42.0646 0.0000 6.6051 0.0000
# 3 21.0736 42.0646 134.8321 0.0000 6.5058 0.0000
# 4 0.0000 0.0000 0.0000 15.2876 0.0000 -4.2029
# 5 2.9104 6.6051 6.5058 0.0000 27.4337 0.0000
# 6 0.0000 0.0000 0.0000 -4.2029 0.0000 34.4050
#
#
#
# Elastic Compliance Matrix: (Units=1/GPa)
#
#
# Indices 1 2 3 4 5 6 
#
# 1 0.014482 -0.003039 -0.001291 0.000000 -0.000498 0.000000
# 2 -0.003039 0.010348 -0.002679 0.000000 -0.001534 0.000000
# 3 -0.001291 -0.002679 0.008514 0.000000 -0.001237 0.000000
# 4 0.000000 0.000000 0.000000 0.067685 0.000000 0.008268
# 5 -0.000498 -0.001534 -0.001237 0.000000 0.037167 0.000000
# 6 0.000000 0.000000 0.000000 0.008268 0.000000 0.030076
#
#
# Mechanical properties :
#
#
# Convention : Reuss Voigt Hill
#
# Bulk Modulus (GPa) = 51.74773 56.89052 54.31912
# Shear Modulus (GPa) = 26.49244 31.23065 28.86154
#
# Velocity S-wave (km/s) = 3.57803 3.88484 3.73459
# Velocity P-wave (km/s) = 6.48663 6.90033 6.69668
#
# Compressibility (1/GPa) = 0.01932452
#
# Stress axis : x y z
#
# Youngs Moduli (GPa) = 69.05017 96.63889 117.45339
#
# Poissons Ratio (x) = 0.29370 0.15167
# Poissons Ratio (y) = 0.20986 0.31469
# Poissons Ratio (z) = 0.08916 0.25892
#
# Static dielectric constant tensor:
#      x y z
#    x 4.013910 0.000000 0.033610 
#    y 0.000000 3.618470 0.000000 
#    z 0.033610 0.000000 4.118190 
# 
# 
# High freq. dielectric constant tensor:
#      x y z
#    x 1.801850 0.000000 0.015290 
#    y 0.000000 1.788910 0.000000 
#    z 0.015290 0.000000 1.824700 
# 
# From -- ./inp_files/15824.got.cif
#   From: 2010.06.25/outbox.cif.g09.slc.cpg/sg15_8_cif.got.tgz:15824.got - 2010.06.28 07:06:18.
