data_PCOD8146314
_publ_section_title
;
Structure prediction by ZEFSAII (Michael W. Deem and Ramdas Pophale) SiO2 
 PCOD8146314
Probable space group: C 2/C
;
_chemical_formula_sum "Si O2"
_cell_formula_units_Z 44
_cell_length_a 11.662454
_cell_length_b 24.634603
_cell_length_c 15.406597
_cell_angle_alpha 90.000000
_cell_angle_beta 150.353127
_cell_angle_gamma 90.000000
_cell_volume 2189.489684
_symmetry_space_group_name_H-M "C 2/C"
_symmetry_group_IT_number 15
_symmetry_cell_setting 'monoclinic'
loop_
_space_group_symop_operation_xyz
x,y,z
-x,y,1/2-z
-x,-y,-z
x,-y,1/2+z
1/2+x,1/2+y,z
1/2-x,1/2+y,1/2-z
1/2-x,1/2-y,-z
1/2+x,1/2-y,1/2+z
loop_
_atom_site_type_symbol
_atom_site_label
_atom_site_fract_x
_atom_site_fract_y
_atom_site_fract_z
Si Si1 0.500000 0.589935 0.750000
Si Si2 0.621483 0.580061 0.551251
Si Si3 0.258635 0.470247 0.939963
Si Si4 0.372909 0.134046 0.869192
Si Si5 0.011025 0.268305 0.166756
Si Si6 0.865239 0.850877 0.747387
O O1 0.337861 0.550840 0.586152
O O2 0.660716 0.628865 0.796909
O O3 0.723120 0.535751 0.551238
O O4 0.410384 0.554867 0.464406
O O5 0.823159 0.597364 0.751561
O O6 0.514572 0.630608 0.428507
O O7 0.000000 0.450805 0.750000
O O8 0.401385 0.195954 0.855554
O O9 0.613972 0.119122 0.076138
O O10 0.000000 0.302377 0.250000
O O11 0.171231 0.214262 0.271814
O O12 0.750000 0.250000 0.000000
O O13 0.000000 0.867966 0.750000
#
# Coordination Sequence:
#
# PCOD8146314 Si02
#       6
#     4   8   8   8   8   8
#     4  10  24  44  64  88 126 170 210 254 302 380
#     4  10  24  38  60  94 121 163 209 256 311 369
#     4  10  22  41  62  86 125 165 208 256 309 365
#     4  11  23  41  64  89 128 167 206 251 314 368
#     4  11  20  37  59  90 121 155 198 255 308 361
#     4  11  23  36  61  93 123 157 204 260 312 362
#
# _framework density 20.096008000000001
#
# number of rings (size 3 to 8) (size 9 to 14) (size 15 to 20)
#    0.000    1.455    3.636    2.182    3.818    0.000 
#    0.000    6.364    2.000    0.000    0.000    0.000 
#    0.000    0.000    0.000    0.000    0.000    0.000 
#
# Total GULP energy -272588.986013 kJ/mol
# GULP energy per Si atom -12390.408455 kJ/mol
# Density = 2.005027 g / cm^3
# Si number density = 20.096008 Si / 1000 Ang^3
#
#
#
# Elastic Constant Matrix: (Units=GPa)
#
#
# Indices 1 2 3 4 5 6 
#
# 1 93.8324 49.6532 48.8381 0.0001 -6.5369 -0.0016
# 2 49.6532 89.3600 38.0162 0.0005 -0.3476 0.0016
# 3 48.8381 38.0162 140.8133 0.0001 4.7177 -0.0045
# 4 0.0001 0.0005 0.0001 31.0775 -0.0001 -2.3424
# 5 -6.5369 -0.3476 4.7177 -0.0001 34.2843 -0.0053
# 6 -0.0016 0.0016 -0.0045 -2.3424 -0.0053 25.8693
#
#
#
# Elastic Compliance Matrix: (Units=1/GPa)
#
#
# Indices 1 2 3 4 5 6 
#
# 1 0.017105 -0.007810 -0.003949 0.000000 0.003726 0.000002
# 2 -0.007810 0.016221 -0.001634 0.000000 -0.001100 -0.000002
# 3 -0.003949 -0.001634 0.008979 0.000000 -0.002005 0.000001
# 4 0.000000 0.000000 0.000000 0.032399 0.000001 0.002934
# 5 0.003726 -0.001100 -0.002005 0.000001 0.030143 0.000006
# 6 0.000002 -0.000002 0.000001 0.002934 0.000006 0.038921
#
#
# Mechanical properties :
#
#
# Convention : Reuss Voigt Hill
#
# Bulk Modulus (GPa) = 64.43135 66.33564 65.38349
# Shear Modulus (GPa) = 28.45321 30.74611 29.59966
#
# Velocity S-wave (km/s) = 3.76688 3.91572 3.84202
# Velocity P-wave (km/s) = 7.14497 7.31606 7.23102
#
# Compressibility (1/GPa) = 0.01552040
#
# Stress axis : x y z
#
# Youngs Moduli (GPa) = 58.46266 61.64813 111.36598
#
# Poissons Ratio (x) = 0.48147 0.43976
# Poissons Ratio (y) = 0.45659 0.18194
# Poissons Ratio (z) = 0.23086 0.10072
#
# Static dielectric constant tensor:
#      x y z
#    x 3.648420 0.000020 -0.191420 
#    y 0.000020 2.636970 -0.000010 
#    z -0.191420 -0.000010 4.159380 
# 
# 
# High freq. dielectric constant tensor:
#      x y z
#    x 1.773610 0.000000 -0.004610 
#    y 0.000000 1.771020 0.000000 
#    z -0.004610 0.000000 1.810710 
# 
# From -- ./inp_files/92145.got.cif
#   From: 2010.06.25/outbox.cif.g09.slc.cpg/sg15_47_cif.got.tgz:92145.got - 2010.06.28 07:06:18.
