data_PCOD8146702
_publ_section_title
;
Structure prediction by ZEFSAII (Michael W. Deem and Ramdas Pophale) SiO2 
 PCOD8146702
Probable space group: C 2/C
;
_chemical_formula_sum "Si O2"
_cell_formula_units_Z 40
_cell_length_a 13.620060
_cell_length_b 18.700728
_cell_length_c 14.003082
_cell_angle_alpha 90.000000
_cell_angle_beta 148.028052
_cell_angle_gamma 90.000000
_cell_volume 1888.558355
_symmetry_space_group_name_H-M "C 2/C"
_symmetry_group_IT_number 15
_symmetry_cell_setting 'monoclinic'
loop_
_space_group_symop_operation_xyz
x,y,z
-x,y,1/2-z
-x,-y,-z
x,-y,1/2+z
1/2+x,1/2+y,z
1/2-x,1/2+y,1/2-z
1/2-x,1/2-y,-z
1/2+x,1/2-y,1/2+z
loop_
_atom_site_type_symbol
_atom_site_label
_atom_site_fract_x
_atom_site_fract_y
_atom_site_fract_z
Si Si1 0.301547 0.329913 0.313282
Si Si2 0.516477 0.959014 0.651398
Si Si3 0.030551 0.118341 0.164098
Si Si4 0.586772 0.823111 0.594215
Si Si5 0.803147 0.978976 0.251067
O O1 0.363354 0.338997 0.474786
O O2 0.393500 0.257339 0.348222
O O3 0.383907 0.398168 0.322646
O O4 0.079445 0.328023 0.120043
O O5 0.500000 0.968695 0.750000
O O6 0.546474 0.875593 0.649421
O O7 0.327604 0.988554 0.449205
O O8 0.685194 0.006408 0.750130
O O9 0.226134 0.155800 0.305013
O O10 0.000000 0.119972 0.250000
O O11 0.032152 0.036586 0.124598
#
# Coordination Sequence:
#
# PCOD8146702 Si02
#       5
#     8   8   8   8   8
#     4  11  21  42  64  83 131 160 198 261 301 359
#     4   9  19  39  66  90 124 162 202 252 309 364
#     4  11  24  40  62  93 121 160 211 250 308 367
#     4  10  22  42  62  89 122 165 201 248 312 358
#     4   9  21  39  61  93 123 160 203 253 309 356
#
# _framework density 21.180177
#
# number of rings (size 3 to 8) (size 9 to 14) (size 15 to 20)
#    0.000    2.000    2.000    1.800    2.800    1.600 
#    0.000    5.000    0.000    0.000    0.000    0.000 
#    0.000    0.000    0.000    0.000    0.000    0.000 
#
# Total GULP energy -247957.869179 kJ/mol
# GULP energy per Si atom -12397.893459 kJ/mol
# Density = 2.113197 g / cm^3
# Si number density = 21.180177 Si / 1000 Ang^3
#
#
#
# Elastic Constant Matrix: (Units=GPa)
#
#
# Indices 1 2 3 4 5 6 
#
# 1 94.5065 12.4284 40.4451 0.0000 -28.9655 0.0000
# 2 12.4284 140.0335 33.0963 0.0000 -1.9642 0.0000
# 3 40.4451 33.0963 109.9025 0.0000 5.3608 0.0000
# 4 0.0000 0.0000 0.0000 37.7416 0.0000 2.9547
# 5 -28.9655 -1.9642 5.3608 0.0000 19.2678 0.0000
# 6 0.0000 0.0000 0.0000 2.9547 0.0000 6.2148
#
#
#
# Elastic Compliance Matrix: (Units=1/GPa)
#
#
# Indices 1 2 3 4 5 6 
#
# 1 0.034458 0.001485 -0.015878 0.000000 0.056370 0.000000
# 2 0.001485 0.007792 -0.003083 0.000000 0.003884 0.000000
# 3 -0.015878 -0.003083 0.017285 0.000000 -0.028992 0.000000
# 4 0.000000 0.000000 0.000000 0.027520 0.000000 -0.013084
# 5 0.056370 0.003884 -0.028992 0.000000 0.145104 0.000000
# 6 0.000000 0.000000 0.000000 -0.013084 0.000000 0.167126
#
#
# Mechanical properties :
#
#
# Convention : Reuss Voigt Hill
#
# Bulk Modulus (GPa) = 40.67609 57.37577 49.02593
# Shear Modulus (GPa) = 11.30121 29.87636 20.58879
#
# Velocity S-wave (km/s) = 2.31243 3.75985 3.12120
# Velocity P-wave (km/s) = 5.13578 6.78209 6.01552
#
# Compressibility (1/GPa) = 0.02458447
#
# Stress axis : x y z
#
# Youngs Moduli (GPa) = 29.02090 128.33029 57.85502
#
# Poissons Ratio (x) = -0.19057 0.91860
# Poissons Ratio (y) = -0.04310 0.17834
# Poissons Ratio (z) = 0.46078 0.39559
#
# Static dielectric constant tensor:
#      x y z
#    x 3.214170 0.000000 0.060460 
#    y 0.000000 4.376030 0.000000 
#    z 0.060460 0.000000 4.043260 
# 
# 
# High freq. dielectric constant tensor:
#      x y z
#    x 1.770730 0.000000 -0.000870 
#    y 0.000000 1.853240 0.000000 
#    z -0.000870 0.000000 1.853940 
# 
# From -- ./inp_files/40546.got.cif
#   From: 2010.06.25/outbox.cif.g09.slc.cpg/sg15_21_cif.got.tgz:40546.got - 2010.06.28 07:06:18.
