data_PCOD8146592
_publ_section_title
;
Structure prediction by ZEFSAII (Michael W. Deem and Ramdas Pophale) SiO2 
 PCOD8146592
Probable space group: C 2/C
;
_chemical_formula_sum "Si O2"
_cell_formula_units_Z 52
_cell_length_a 17.231768
_cell_length_b 24.070473
_cell_length_c 8.733062
_cell_angle_alpha 90.000000
_cell_angle_beta 140.332158
_cell_angle_gamma 90.000000
_cell_volume 2312.225913
_symmetry_space_group_name_H-M "C 2/C"
_symmetry_group_IT_number 15
_symmetry_cell_setting 'monoclinic'
loop_
_space_group_symop_operation_xyz
x,y,z
-x,y,1/2-z
-x,-y,-z
x,-y,1/2+z
1/2+x,1/2+y,z
1/2-x,1/2+y,1/2-z
1/2-x,1/2-y,-z
1/2+x,1/2-y,1/2+z
loop_
_atom_site_type_symbol
_atom_site_label
_atom_site_fract_x
_atom_site_fract_y
_atom_site_fract_z
Si Si1 0.000000 0.413660 0.750000
Si Si2 0.821019 0.838785 0.599204
Si Si3 0.000000 0.236425 0.750000
Si Si4 0.752443 0.544497 0.978369
Si Si5 0.628183 0.634488 0.970195
Si Si6 0.556699 0.178265 0.577015
Si Si7 0.632665 0.453128 0.982893
Si Si8 0.500000 0.246369 0.750000
O O1 0.885774 0.453667 0.605648
O O2 0.983719 0.377575 0.570689
O O3 0.846898 0.853345 0.814152
O O4 0.678559 0.830883 0.357825
O O5 0.865419 0.889483 0.563510
O O6 0.889177 0.783610 0.643649
O O7 0.894270 0.193898 0.652944
O O8 0.925853 0.273617 0.520082
O O9 0.653236 0.544068 0.694680
O O10 0.736502 0.599393 0.059862
O O11 0.736131 0.488949 0.053189
O O12 0.500000 0.600624 0.750000
O O13 0.459055 0.204100 0.549783
O O14 0.500000 0.478787 0.750000
#
# Coordination Sequence:
#
# PCOD8146592 Si02
#       8
#     4   8   4   8   8   8   8   4
#     4  11  28  50  67 106 145 200 236 283 358 440
#     4  12  24  44  68 108 142 184 241 292 361 421
#     4   9  22  40  65 100 141 186 236 287 358 410
#     4  12  26  48  73 104 146 184 238 301 362 434
#     4  10  22  41  69 105 139 181 236 303 358 418
#     4  11  25  44  67  99 144 191 242 279 349 425
#     4  12  25  46  77 108 135 183 238 309 365 420
#     4  12  24  40  72 104 142 184 238 300 336 428
#
# _framework density 22.489151
#
# number of rings (size 3 to 8) (size 9 to 14) (size 15 to 20)
#    0.462    0.308    3.846    3.231    4.308    0.615 
#    0.000    3.077    0.000    0.000    0.000    0.000 
#    0.000    0.000    0.000    0.000    0.000    0.000 
#
# Total GULP energy -322160.450184 kJ/mol
# GULP energy per Si atom -12390.786546 kJ/mol
# Density = 2.243796 g / cm^3
# Si number density = 22.489151 Si / 1000 Ang^3
#
#
#
# Elastic Constant Matrix: (Units=GPa)
#
#
# Indices 1 2 3 4 5 6 
#
# 1 106.5630 35.9442 41.3006 0.0000 -8.3901 0.0000
# 2 35.9442 83.5825 14.3543 0.0000 -8.5648 0.0000
# 3 41.3006 14.3543 119.8829 0.0000 -16.8539 0.0000
# 4 0.0000 0.0000 0.0000 18.5258 0.0000 -5.5592
# 5 -8.3901 -8.5648 -16.8539 0.0000 34.4832 0.0000
# 6 0.0000 0.0000 0.0000 -5.5592 0.0000 59.3079
#
#
#
# Elastic Compliance Matrix: (Units=1/GPa)
#
#
# Indices 1 2 3 4 5 6 
#
# 1 0.012408 -0.004695 -0.003707 0.000000 0.000041 0.000000
# 2 -0.004695 0.014194 0.000272 0.000000 0.002516 0.000000
# 3 -0.003707 0.000272 0.010167 0.000000 0.004135 0.000000
# 4 0.000000 0.000000 0.000000 0.055541 0.000000 0.005206
# 5 0.000041 0.002516 0.004135 0.000000 0.031655 0.000000
# 6 0.000000 0.000000 0.000000 0.005206 0.000000 0.017349
#
#
# Mechanical properties :
#
#
# Convention : Reuss Voigt Hill
#
# Bulk Modulus (GPa) = 48.75849 54.80296 51.78072
# Shear Modulus (GPa) = 30.41153 37.02533 33.71843
#
# Velocity S-wave (km/s) = 3.68132 4.06194 3.87631
# Velocity P-wave (km/s) = 6.30852 6.81327 6.56575
#
# Compressibility (1/GPa) = 0.02050925
#
# Stress axis : x y z
#
# Youngs Moduli (GPa) = 80.59600 70.44995 98.35543
#
# Poissons Ratio (x) = 0.33076 0.36456
# Poissons Ratio (y) = 0.37840 -0.02671
# Poissons Ratio (z) = 0.29873 -0.01913
#
# Static dielectric constant tensor:
#      x y z
#    x 4.015440 0.000000 -0.180370 
#    y 0.000000 4.168690 0.000000 
#    z -0.180370 0.000000 4.171460 
# 
# 
# High freq. dielectric constant tensor:
#      x y z
#    x 1.870270 0.000000 -0.015790 
#    y 0.000000 1.893280 0.000000 
#    z -0.015790 0.000000 1.892890 
# 
# From -- ./inp_files/52240.got.cif
#   From: 2010.06.25/outbox.cif.g09.slc.cpg/sg15_27_cif.got.tgz:52240.got - 2010.06.28 07:06:18.
