data_PCOD8146193
_publ_section_title
;
Structure prediction by ZEFSAII (Michael W. Deem and Ramdas Pophale) SiO2 
 PCOD8146193
Probable space group: C 2/C
;
_chemical_formula_sum "Si O2"
_cell_formula_units_Z 40
_cell_length_a 20.208244
_cell_length_b 17.546086
_cell_length_c 15.661845
_cell_angle_alpha 90.000000
_cell_angle_beta 18.407559
_cell_angle_gamma 90.000000
_cell_volume 1753.591460
_symmetry_space_group_name_H-M "C 2/C"
_symmetry_group_IT_number 15
_symmetry_cell_setting 'monoclinic'
loop_
_space_group_symop_operation_xyz
x,y,z
-x,y,1/2-z
-x,-y,-z
x,-y,1/2+z
1/2+x,1/2+y,z
1/2-x,1/2+y,1/2-z
1/2-x,1/2-y,-z
1/2+x,1/2-y,1/2+z
loop_
_atom_site_type_symbol
_atom_site_label
_atom_site_fract_x
_atom_site_fract_y
_atom_site_fract_z
Si Si1 0.208054 0.156075 0.646581
Si Si2 0.939476 0.557495 0.650163
Si Si3 0.000000 0.777809 0.250000
Si Si4 0.793760 0.824678 0.761005
Si Si5 0.423007 0.329203 0.936184
Si Si6 0.500000 0.975298 0.750000
O O1 0.369630 0.223480 0.475451
O O2 0.317074 0.074132 0.518704
O O3 0.157234 0.168670 0.608937
O O4 0.002469 0.160263 0.952954
O O5 0.117855 0.620800 0.439056
O O6 0.000000 0.500000 0.500000
O O7 0.719196 0.595465 0.893596
O O8 0.907092 0.522618 0.784328
O O9 0.709408 0.738613 0.857809
O O10 0.863815 0.845717 0.771734
O O11 0.500000 0.301431 0.750000
#
# Coordination Sequence:
#
# PCOD8146193 Si02
#       6
#     8   8   4   8   8   4
#     4  10  22  40  68  97 139 179 233 290 360 419
#     4  12  29  47  73 109 149 191 244 301 361 437
#     4   9  20  38  66 100 127 180 232 282 349 428
#     4  12  25  45  75 105 139 185 248 297 355 429
#     4  12  26  46  77 106 142 192 242 301 365 426
#     4  11  26  48  66 100 155 188 236 300 367 440
#
# _framework density 22.810331000000001
#
# number of rings (size 3 to 8) (size 9 to 14) (size 15 to 20)
#    0.000    0.800    2.000    4.200    4.200    6.400 
#    0.000    0.000    0.000    0.000    0.000    0.000 
#    0.000    0.000    0.000    0.000    0.000    0.000 
#
# Total GULP energy -247986.739085 kJ/mol
# GULP energy per Si atom -12399.336954 kJ/mol
# Density = 2.275841 g / cm^3
# Si number density = 22.810331 Si / 1000 Ang^3
#
#
#
# Elastic Constant Matrix: (Units=GPa)
#
#
# Indices 1 2 3 4 5 6 
#
# 1 105.0420 27.8315 -8.7080 -0.0571 -6.8545 0.0369
# 2 27.8315 100.1484 10.6921 -0.0394 -0.5838 0.0524
# 3 -8.7080 10.6921 78.3681 -0.0158 8.9609 0.0410
# 4 -0.0571 -0.0394 -0.0158 22.7710 0.0002 -11.0117
# 5 -6.8545 -0.5838 8.9609 0.0002 45.4436 -0.0256
# 6 0.0369 0.0524 0.0410 -11.0117 -0.0256 41.1506
#
#
#
# Elastic Compliance Matrix: (Units=1/GPa)
#
#
# Indices 1 2 3 4 5 6 
#
# 1 0.010537 -0.003075 0.001446 0.000022 0.001265 0.000000
# 2 -0.003075 0.011038 -0.001853 0.000006 0.000043 -0.000008
# 3 0.001446 -0.001853 0.013455 0.000004 -0.002459 -0.000013
# 4 0.000022 0.000006 0.000004 0.050443 0.000010 0.013498
# 5 0.001265 0.000043 -0.002459 0.000010 0.022682 0.000018
# 6 0.000000 -0.000008 -0.000013 0.013498 0.000018 0.027913
#
#
# Mechanical properties :
#
#
# Convention : Reuss Voigt Hill
#
# Bulk Modulus (GPa) = 35.63056 38.13219 36.88137
# Shear Modulus (GPa) = 32.81115 38.78922 35.80018
#
# Velocity S-wave (km/s) = 3.79678 4.12820 3.96595
# Velocity P-wave (km/s) = 5.90551 6.28300 6.09717
#
# Compressibility (1/GPa) = 0.02806580
#
# Stress axis : x y z
#
# Youngs Moduli (GPa) = 94.90169 90.59721 74.32251
#
# Poissons Ratio (x) = 0.27861 -0.10746
# Poissons Ratio (y) = 0.29185 0.13769
# Poissons Ratio (z) = -0.13721 0.16784
#
# Static dielectric constant tensor:
#      x y z
#    x 4.613820 -0.000090 -0.233840 
#    y -0.000090 4.069070 0.000130 
#    z -0.233840 0.000130 4.138070 
# 
# 
# High freq. dielectric constant tensor:
#      x y z
#    x 1.916920 -0.000010 -0.008410 
#    y -0.000010 1.895250 0.000010 
#    z -0.008410 0.000010 1.908650 
# 
# From -- ./inp_files/169071.got.cif
#   From: 2010.06.25/outbox.cif.g09.slc.cpg/sg15_85_cif.got.tgz:169071.got - 2010.06.28 07:06:18.
