data_PCOD8146439
_publ_section_title
;
Structure prediction by ZEFSAII (Michael W. Deem and Ramdas Pophale) SiO2 
 PCOD8146439
Probable space group: C 2/C
;
_chemical_formula_sum "Si O2"
_cell_formula_units_Z 32
_cell_length_a 5.043025
_cell_length_b 14.803227
_cell_length_c 19.119860
_cell_angle_alpha 90.000000
_cell_angle_beta 82.421889
_cell_angle_gamma 90.000000
_cell_volume 1414.889214
_symmetry_space_group_name_H-M "C 2/C"
_symmetry_group_IT_number 15
_symmetry_cell_setting 'monoclinic'
loop_
_space_group_symop_operation_xyz
x,y,z
-x,y,1/2-z
-x,-y,-z
x,-y,1/2+z
1/2+x,1/2+y,z
1/2-x,1/2+y,1/2-z
1/2-x,1/2-y,-z
1/2+x,1/2-y,1/2+z
loop_
_atom_site_type_symbol
_atom_site_label
_atom_site_fract_x
_atom_site_fract_y
_atom_site_fract_z
Si Si1 0.774408 0.268237 0.709140
Si Si2 0.766452 0.518236 0.209140
Si Si3 0.853118 0.435444 0.060309
Si Si4 0.663425 0.314555 0.439690
O O1 0.500000 0.227326 0.750000
O O2 0.767353 0.375001 0.715291
O O3 0.866172 0.245716 0.627663
O O4 0.000000 0.225349 0.750000
O O5 0.500000 0.475347 0.250000
O O6 0.756165 0.495714 0.127663
O O7 0.000000 0.477325 0.250000
O O8 0.606802 0.374999 0.036401
O O9 0.082471 0.375001 0.085064
O O10 0.000000 0.500000 0.000000
O O11 0.750000 0.250000 0.500000
#
# Coordination Sequence:
#
# PCOD8146439 Si02
#       4
#     8   8   8   8
#     4  10  22  41  65  93 128 169 213 265 326 390
#     4  10  22  41  65  93 128 169 213 265 326 390
#     4  12  26  43  66  95 131 172 218 272 327 391
#     4  12  26  43  66  95 131 172 218 272 327 391
#
# _framework density 22.616610000000001
#
# number of rings (size 3 to 8) (size 9 to 14) (size 15 to 20)
#    0.000    1.000    0.000    6.000    0.000   12.000 
#    0.000    0.000    0.000    0.000    0.000    0.000 
#    0.000    0.000    0.000    0.000    0.000    0.000 
#
# Total GULP energy -198283.362844 kJ/mol
# GULP energy per Si atom -12392.710178 kJ/mol
# Density = 2.256513 g / cm^3
# Si number density = 22.616610 Si / 1000 Ang^3
#
#
#
# Elastic Constant Matrix: (Units=GPa)
#
#
# Indices 1 2 3 4 5 6 
#
# 1 209.3747 45.4733 72.8537 0.0000 -3.9995 0.0000
# 2 45.4733 39.1965 33.9873 0.0000 -0.9243 0.0000
# 3 72.8537 33.9873 194.8686 0.0000 2.8320 0.0000
# 4 0.0000 0.0000 0.0000 15.1504 0.0000 -0.1531
# 5 -3.9995 -0.9243 2.8320 0.0000 43.9659 0.0000
# 6 0.0000 0.0000 0.0000 -0.1531 0.0000 17.0417
#
#
#
# Elastic Compliance Matrix: (Units=1/GPa)
#
#
# Indices 1 2 3 4 5 6 
#
# 1 0.006686 -0.006562 -0.001363 0.000000 0.000558 0.000000
# 2 -0.006562 0.036539 -0.003926 0.000000 0.000424 0.000000
# 3 -0.001363 -0.003926 0.006335 0.000000 -0.000615 0.000000
# 4 0.000000 0.000000 0.000000 0.066011 0.000000 0.000593
# 5 0.000558 0.000424 -0.000615 0.000000 0.022844 0.000000
# 6 0.000000 0.000000 0.000000 0.000593 0.000000 0.058685
#
#
# Mechanical properties :
#
#
# Convention : Reuss Voigt Hill
#
# Bulk Modulus (GPa) = 38.67195 83.11874 60.89534
# Shear Modulus (GPa) = 21.79393 34.63996 28.21694
#
# Velocity S-wave (km/s) = 3.10760 3.91783 3.53600
# Velocity P-wave (km/s) = 5.47834 7.56947 6.60716
#
# Compressibility (1/GPa) = 0.02585854
#
# Stress axis : x y z
#
# Youngs Moduli (GPa) = 149.55945 27.36797 157.85212
#
# Poissons Ratio (x) = 0.17958 0.21522
# Poissons Ratio (y) = 0.98136 0.61970
# Poissons Ratio (z) = 0.20391 0.10744
#
# Static dielectric constant tensor:
#      x y z
#    x 4.603740 0.000000 -0.055400 
#    y 0.000000 4.392080 0.000000 
#    z -0.055400 0.000000 3.915830 
# 
# 
# High freq. dielectric constant tensor:
#      x y z
#    x 1.913100 0.000000 -0.000990 
#    y 0.000000 1.897380 0.000000 
#    z -0.000990 0.000000 1.900750 
# 
# From -- ./inp_files/128122.got.cif
#   From: 2010.06.25/outbox.cif.g09.slc.cpg/sg15_65_cif.got.tgz:128122.got - 2010.06.28 07:06:18.
