data_PCOD8146573
_publ_section_title
;
Structure prediction by ZEFSAII (Michael W. Deem and Ramdas Pophale) SiO2 
 PCOD8146573
Probable space group: C 2/C
;
_chemical_formula_sum "Si O2"
_cell_formula_units_Z 48
_cell_length_a 8.877786
_cell_length_b 27.485164
_cell_length_c 13.928338
_cell_angle_alpha 90.000000
_cell_angle_beta 39.807480
_cell_angle_gamma 90.000000
_cell_volume 2175.828953
_symmetry_space_group_name_H-M "C 2/C"
_symmetry_group_IT_number 15
_symmetry_cell_setting 'monoclinic'
loop_
_space_group_symop_operation_xyz
x,y,z
-x,y,1/2-z
-x,-y,-z
x,-y,1/2+z
1/2+x,1/2+y,z
1/2-x,1/2+y,1/2-z
1/2-x,1/2-y,-z
1/2+x,1/2-y,1/2+z
loop_
_atom_site_type_symbol
_atom_site_label
_atom_site_fract_x
_atom_site_fract_y
_atom_site_fract_z
Si Si1 0.495585 0.273750 0.361218
Si Si2 0.734281 0.031825 0.366051
Si Si3 0.080660 0.376688 0.056606
Si Si4 0.740321 0.904448 0.685845
Si Si5 0.235028 0.185498 0.191055
Si Si6 0.147880 0.869429 0.385322
O O1 0.500000 0.291365 0.250000
O O2 0.692471 0.233693 0.288296
O O3 0.524611 0.319710 0.415238
O O4 0.250000 0.250000 0.500000
O O5 0.719990 0.077188 0.445883
O O6 0.716354 0.048225 0.264088
O O7 0.000000 0.008380 0.250000
O O8 0.500000 0.000000 0.500000
O O9 0.208263 0.357705 0.088890
O O10 0.813323 0.389991 0.218452
O O11 0.071575 0.333745 0.981320
O O12 0.500000 0.894290 0.750000
O O13 0.815185 0.857117 0.709057
O O14 0.947857 0.910325 0.504829
O O15 0.000000 0.198313 0.250000
#
# Coordination Sequence:
#
# PCOD8146573 Si02
#       6
#     8   8   8   8   8   8
#     4  12  26  40  57  98 141 181 237 292 335 387
#     4  11  24  49  74 105 140 173 226 286 355 436
#     4  10  22  41  68  97 128 181 230 284 345 414
#     4  11  22  43  69  98 133 182 223 274 348 414
#     4  11  21  39  65  90 133 183 234 279 332 401
#     4  11  22  40  65  95 136 179 230 282 338 408
#
# _framework density 22.060559000000001
#
# number of rings (size 3 to 8) (size 9 to 14) (size 15 to 20)
#    0.000    1.000    3.333    4.500    2.333    3.333 
#    3.000    1.667    0.000    0.000    0.000    0.000 
#    0.000    0.000    0.000    0.000    0.000    0.000 
#
# Total GULP energy -297520.922081 kJ/mol
# GULP energy per Si atom -12396.705087 kJ/mol
# Density = 2.201035 g / cm^3
# Si number density = 22.060559 Si / 1000 Ang^3
#
#
#
# Elastic Constant Matrix: (Units=GPa)
#
#
# Indices 1 2 3 4 5 6 
#
# 1 101.9011 32.1394 41.9403 0.0000 -12.8819 0.0000
# 2 32.1394 68.6082 33.4054 0.0000 -2.2805 0.0000
# 3 41.9403 33.4054 174.2956 0.0000 -12.1054 0.0000
# 4 0.0000 0.0000 0.0000 29.9572 0.0000 -12.0125
# 5 -12.8819 -2.2805 -12.1054 0.0000 43.1161 0.0000
# 6 0.0000 0.0000 0.0000 -12.0125 0.0000 15.8633
#
#
#
# Elastic Compliance Matrix: (Units=1/GPa)
#
#
# Indices 1 2 3 4 5 6 
#
# 1 0.012482 -0.004838 -0.001872 0.000000 0.002948 0.000000
# 2 -0.004838 0.017951 -0.002357 0.000000 -0.001158 0.000000
# 3 -0.001872 -0.002357 0.006723 0.000000 0.001204 0.000000
# 4 0.000000 0.000000 0.000000 0.047937 0.000000 0.036300
# 5 0.002948 -0.001158 0.001204 0.000000 0.024351 0.000000
# 6 0.000000 0.000000 0.000000 0.036300 0.000000 0.090527
#
#
# Mechanical properties :
#
#
# Convention : Reuss Voigt Hill
#
# Bulk Modulus (GPa) = 52.56637 62.19725 57.38181
# Shear Modulus (GPa) = 22.27718 33.60864 27.94291
#
# Velocity S-wave (km/s) = 3.18121 3.90740 3.56286
# Velocity P-wave (km/s) = 6.11338 6.97224 6.55689
#
# Compressibility (1/GPa) = 0.01902357
#
# Stress axis : x y z
#
# Youngs Moduli (GPa) = 80.11333 55.70751 148.74264
#
# Poissons Ratio (x) = 0.26952 0.27838
# Poissons Ratio (y) = 0.38759 0.35054
# Poissons Ratio (z) = 0.14994 0.13129
#
# Static dielectric constant tensor:
#      x y z
#    x 4.059120 0.000000 0.100350 
#    y 0.000000 3.658190 0.000000 
#    z 0.100350 0.000000 4.479130 
# 
# 
# High freq. dielectric constant tensor:
#      x y z
#    x 1.879110 0.000000 -0.000620 
#    y 0.000000 1.827710 0.000000 
#    z -0.000620 0.000000 1.897400 
# 
# From -- ./inp_files/139369.got.cif
#   From: 2010.06.25/outbox.cif.g09.slc.cpg/sg15_70_cif.got.tgz:139369.got - 2010.06.28 07:06:18.
