data_PCOD8146878
_publ_section_title
;
Structure prediction by ZEFSAII (Michael W. Deem and Ramdas Pophale) SiO2 
 PCOD8146878
Probable space group: C 2/C
;
_chemical_formula_sum "Si O2"
_cell_formula_units_Z 56
_cell_length_a 23.870627
_cell_length_b 18.954571
_cell_length_c 8.930632
_cell_angle_alpha 90.000000
_cell_angle_beta 136.189720
_cell_angle_gamma 90.000000
_cell_volume 2797.287862
_symmetry_space_group_name_H-M "C 2/C"
_symmetry_group_IT_number 15
_symmetry_cell_setting 'monoclinic'
loop_
_space_group_symop_operation_xyz
x,y,z
-x,y,1/2-z
-x,-y,-z
x,-y,1/2+z
1/2+x,1/2+y,z
1/2-x,1/2+y,1/2-z
1/2-x,1/2-y,-z
1/2+x,1/2-y,1/2+z
loop_
_atom_site_type_symbol
_atom_site_label
_atom_site_fract_x
_atom_site_fract_y
_atom_site_fract_z
Si Si1 0.481371 0.428163 0.884200
Si Si2 0.671661 0.799036 0.882899
Si Si3 0.918670 0.572272 0.785437
Si Si4 0.929419 0.203544 0.000021
Si Si5 0.608778 0.065576 0.111077
Si Si6 0.836527 0.832317 0.599792
Si Si7 0.658554 0.805741 0.209606
O O1 0.500000 0.444850 0.750000
O O2 0.542163 0.364114 0.043685
O O3 0.388830 0.402839 0.737273
O O4 0.500000 0.500000 0.000000
O O5 0.592105 0.763671 0.657999
O O6 0.669919 0.877584 0.806985
O O7 0.750000 0.750000 0.000000
O O8 0.656820 0.803967 0.028815
O O9 0.879815 0.572378 0.544850
O O10 0.870108 0.512022 0.784823
O O11 0.909882 0.645258 0.855703
O O12 0.014878 0.569295 0.971330
O O13 0.852110 0.188221 0.956102
O O14 0.000000 0.228281 0.250000
O O15 0.740979 0.842060 0.429864
O O16 0.860313 0.771626 0.763087
#
# Coordination Sequence:
#
# PCOD8146878 Si02
#       7
#     8   8   8   8   8   8   8
#     4   9  20  39  63  86 118 160 207 253 301 368
#     4  12  24  38  62  95 128 160 209 259 309 380
#     4  10  22  42  66  90 122 165 208 255 320 369
#     4   9  20  40  63  84 121 165 204 252 312 365
#     4  10  23  41  64  90 124 162 208 260 308 381
#     4   9  20  39  58  88 121 163 203 253 313 361
#     4  11  22  37  62  90 129 159 206 257 312 375
#
# _framework density 20.019390999999999
#
# number of rings (size 3 to 8) (size 9 to 14) (size 15 to 20)
#    0.000    2.286    1.429    1.714    8.000    2.857 
#    2.571    1.429    0.000    0.000    0.000    0.000 
#    0.000    0.000    0.000    0.000    0.000    0.000 
#
# Total GULP energy -346899.392054 kJ/mol
# GULP energy per Si atom -12389.264002 kJ/mol
# Density = 1.997383 g / cm^3
# Si number density = 20.019391 Si / 1000 Ang^3
#
#
#
# Elastic Constant Matrix: (Units=GPa)
#
#
# Indices 1 2 3 4 5 6 
#
# 1 74.0392 32.0640 27.4413 0.0000 -14.5115 0.0000
# 2 32.0640 95.2994 72.0152 0.0000 -7.5018 0.0000
# 3 27.4413 72.0152 70.0961 0.0000 -12.3386 0.0000
# 4 0.0000 0.0000 0.0000 45.8845 0.0000 -3.1836
# 5 -14.5115 -7.5018 -12.3386 0.0000 28.2903 0.0000
# 6 0.0000 0.0000 0.0000 -3.1836 0.0000 34.2962
#
#
#
# Elastic Compliance Matrix: (Units=1/GPa)
#
#
# Indices 1 2 3 4 5 6 
#
# 1 0.017225 -0.004915 -0.000398 0.000000 0.007358 0.000000
# 2 -0.004915 0.050694 -0.052247 0.000000 -0.011866 0.000000
# 3 -0.000398 -0.052247 0.071081 0.000000 0.016943 0.000000
# 4 0.000000 0.000000 0.000000 0.021935 0.000000 0.002036
# 5 0.007358 -0.011866 0.016943 0.000000 0.043366 0.000000
# 6 0.000000 0.000000 0.000000 0.002036 0.000000 0.029347
#
#
# Mechanical properties :
#
#
# Convention : Reuss Voigt Hill
#
# Bulk Modulus (GPa) = 41.87507 55.83064 48.85286
# Shear Modulus (GPa) = 14.01629 28.88847 21.45238
#
# Velocity S-wave (km/s) = 2.64888 3.80284 3.27705
# Velocity P-wave (km/s) = 5.50618 6.87248 6.22692
#
# Compressibility (1/GPa) = 0.02388055
#
# Stress axis : x y z
#
# Youngs Moduli (GPa) = 58.05582 19.72605 14.06840
#
# Poissons Ratio (x) = 0.09696 0.00560
# Poissons Ratio (y) = 0.28537 0.73503
# Poissons Ratio (z) = 0.02310 1.03062
#
# Static dielectric constant tensor:
#      x y z
#    x 3.614200 0.000000 0.003380 
#    y 0.000000 3.103960 0.000000 
#    z 0.003380 0.000000 3.620600 
# 
# 
# High freq. dielectric constant tensor:
#      x y z
#    x 1.782200 0.000000 -0.005320 
#    y 0.000000 1.782290 0.000000 
#    z -0.005320 0.000000 1.771630 
# 
# From -- ./inp_files/57903.got.cif
#   From: 2010.06.25/outbox.cif.g09.slc.cpg/sg15_29_cif.got.tgz:57903.got - 2010.06.28 07:06:18.
