data_PCOD8146517
_publ_section_title
;
Structure prediction by ZEFSAII (Michael W. Deem and Ramdas Pophale) SiO2 
 PCOD8146517
Probable space group: C 2/C
;
_chemical_formula_sum "Si O2"
_cell_formula_units_Z 56
_cell_length_a 9.539424
_cell_length_b 22.700271
_cell_length_c 18.817754
_cell_angle_alpha 90.000000
_cell_angle_beta 42.290001
_cell_angle_gamma 90.000000
_cell_volume 2741.958090
_symmetry_space_group_name_H-M "C 2/C"
_symmetry_group_IT_number 15
_symmetry_cell_setting 'monoclinic'
loop_
_space_group_symop_operation_xyz
x,y,z
-x,y,1/2-z
-x,-y,-z
x,-y,1/2+z
1/2+x,1/2+y,z
1/2-x,1/2+y,1/2-z
1/2-x,1/2-y,-z
1/2+x,1/2-y,1/2+z
loop_
_atom_site_type_symbol
_atom_site_label
_atom_site_fract_x
_atom_site_fract_y
_atom_site_fract_z
Si Si1 0.307910 0.008399 0.521502
Si Si2 0.011377 0.097749 0.382334
Si Si3 0.584622 0.277850 0.642064
Si Si4 0.352310 0.369904 0.372651
Si Si5 0.826625 0.155572 0.038201
Si Si6 0.554092 0.772273 0.443173
Si Si7 0.969550 0.571802 0.182346
O O1 0.175591 0.060640 0.606779
O O2 0.416237 0.022684 0.406512
O O3 0.500000 0.000000 0.500000
O O4 0.158269 0.953260 0.563844
O O5 0.051888 0.113384 0.450501
O O6 0.223047 0.079646 0.261192
O O7 0.919602 0.154198 0.378025
O O8 0.500000 0.265056 0.750000
O O9 0.447188 0.236719 0.641404
O O10 0.822797 0.258457 0.556002
O O11 0.500000 0.356515 0.250000
O O12 0.433841 0.346905 0.419463
O O13 0.136284 0.336543 0.434440
O O14 0.804685 0.222320 0.072891
O O15 0.586639 0.133758 0.123195
O O16 0.000000 0.548883 0.250000
#
# Coordination Sequence:
#
# PCOD8146517 Si02
#       7
#     8   8   8   8   8   8   8
#     4  11  25  41  62  91 129 163 206 267 312 369
#     4  10  22  41  67  91 125 164 219 264 312 385
#     4  10  23  37  66  91 118 173 212 259 319 377
#     4  11  25  38  60  93 124 163 202 251 329 383
#     4   9  21  42  64  91 125 162 210 267 317 379
#     4  10  22  42  60  92 130 157 212 264 318 385
#     4   9  21  39  63  93 118 162 215 253 318 380
#
# _framework density 20.423362999999998
#
# number of rings (size 3 to 8) (size 9 to 14) (size 15 to 20)
#    0.000    2.000    0.000    1.286   10.000    8.000 
#    0.000    0.000    0.000    0.000    0.000    0.000 
#    0.000    0.000    0.000    0.000    0.000    0.000 
#
# Total GULP energy -347021.705526 kJ/mol
# GULP energy per Si atom -12393.632340 kJ/mol
# Density = 2.037688 g / cm^3
# Si number density = 20.423363 Si / 1000 Ang^3
#
#
#
# Elastic Constant Matrix: (Units=GPa)
#
#
# Indices 1 2 3 4 5 6 
#
# 1 91.4866 31.5831 47.4126 -0.0002 4.6467 0.0000
# 2 31.5831 68.4841 14.4436 -0.0001 -4.0474 -0.0002
# 3 47.4126 14.4436 126.2404 -0.0010 22.9296 0.0004
# 4 -0.0002 -0.0001 -0.0010 20.3959 0.0001 -6.1277
# 5 4.6467 -4.0474 22.9296 0.0001 34.1887 -0.0002
# 6 0.0000 -0.0002 0.0004 -6.1277 -0.0002 32.0449
#
#
#
# Elastic Compliance Matrix: (Units=1/GPa)
#
#
# Indices 1 2 3 4 5 6 
#
# 1 0.015778 -0.006103 -0.005360 0.000000 0.000728 0.000000
# 2 -0.006103 0.017663 -0.000295 0.000000 0.003118 0.000000
# 3 -0.005360 -0.000295 0.011207 0.000001 -0.006823 0.000000
# 4 0.000000 0.000000 0.000001 0.052018 0.000000 0.009947
# 5 0.000728 0.003118 -0.006823 0.000000 0.034096 0.000000
# 6 0.000000 0.000000 0.000000 0.009947 0.000000 0.033108
#
#
# Mechanical properties :
#
#
# Convention : Reuss Voigt Hill
#
# Bulk Modulus (GPa) = 47.32005 52.56551 49.94278
# Shear Modulus (GPa) = 25.71607 30.17735 27.94671
#
# Velocity S-wave (km/s) = 3.55230 3.84811 3.70316
# Velocity P-wave (km/s) = 6.32811 6.74817 6.54151
#
# Compressibility (1/GPa) = 0.02113269
#
# Stress axis : x y z
#
# Youngs Moduli (GPa) = 63.37866 56.61531 89.22624
#
# Poissons Ratio (x) = 0.34553 0.47823
# Poissons Ratio (y) = 0.38680 0.02634
# Poissons Ratio (z) = 0.33970 0.01671
#
# Static dielectric constant tensor:
#      x y z
#    x 3.865170 0.000000 0.198230 
#    y 0.000000 3.979070 0.000000 
#    z 0.198230 0.000000 3.848830 
# 
# 
# High freq. dielectric constant tensor:
#      x y z
#    x 1.807460 0.000000 0.012950 
#    y 0.000000 1.791860 0.000000 
#    z 0.012950 0.000000 1.800270 
# 
# From -- ./inp_files/193207.got.cif
#   From: 2010.06.25/outbox.cif.g09.slc.cpg/sg15_97_cif.got.tgz:193207.got - 2010.06.28 07:06:18.
