data_PCOD8146223
_publ_section_title
;
Structure prediction by ZEFSAII (Michael W. Deem and Ramdas Pophale) SiO2 
 PCOD8146223
Probable space group: C 2/C
;
_chemical_formula_sum "Si O2"
_cell_formula_units_Z 48
_cell_length_a 18.165033
_cell_length_b 10.766082
_cell_length_c 11.061998
_cell_angle_alpha 90.000000
_cell_angle_beta 105.614317
_cell_angle_gamma 90.000000
_cell_volume 2083.515479
_symmetry_space_group_name_H-M "C 2/C"
_symmetry_group_IT_number 15
_symmetry_cell_setting 'monoclinic'
loop_
_space_group_symop_operation_xyz
x,y,z
-x,y,1/2-z
-x,-y,-z
x,-y,1/2+z
1/2+x,1/2+y,z
1/2-x,1/2+y,1/2-z
1/2-x,1/2-y,-z
1/2+x,1/2-y,1/2+z
loop_
_atom_site_type_symbol
_atom_site_label
_atom_site_fract_x
_atom_site_fract_y
_atom_site_fract_z
Si Si1 0.695336 0.928712 0.844278
Si Si2 0.429027 0.840791 0.523622
Si Si3 0.326224 0.801283 0.093787
Si Si4 0.908211 0.404622 0.908084
Si Si5 0.867302 0.080639 0.451186
Si Si6 0.410287 0.568708 0.213303
O O1 0.668385 0.879298 0.702396
O O2 0.778791 0.879937 0.914392
O O3 0.696900 0.078067 0.840151
O O4 0.634904 0.869744 0.907449
O O5 0.515482 0.843716 0.615941
O O6 0.417802 0.704263 0.465527
O O7 0.423488 0.946818 0.418622
O O8 0.364408 0.698160 0.195349
O O9 0.250000 0.750000 0.000000
O O10 0.391849 0.842049 0.029010
O O11 0.887337 0.005728 0.334069
O O12 0.885422 0.007603 0.583089
O O13 0.500000 0.590569 0.250000
#
# Coordination Sequence:
#
# PCOD8146223 Si02
#       6
#     8   8   8   8   8   8
#     4  11  23  40  71  99 138 177 235 292 357 416
#     4  10  23  43  65 101 137 178 235 292 359 414
#     4  11  22  43  66  97 138 183 235 285 351 424
#     4  10  22  40  69  99 134 180 233 296 350 423
#     4  12  26  46  70 104 146 184 236 293 357 428
#     4  12  27  47  71 102 140 191 236 290 357 428
#
# _framework density 23.037984999999999
#
# number of rings (size 3 to 8) (size 9 to 14) (size 15 to 20)
#    0.000    1.000    1.667    4.500    2.333    5.333 
#    3.000    0.000    0.000    0.000    0.000    0.000 
#    0.000    0.000    0.000    0.000    0.000    0.000 
#
# Total GULP energy -297509.015237 kJ/mol
# GULP energy per Si atom -12396.208968 kJ/mol
# Density = 2.298555 g / cm^3
# Si number density = 23.037985 Si / 1000 Ang^3
#
#
#
# Elastic Constant Matrix: (Units=GPa)
#
#
# Indices 1 2 3 4 5 6 
#
# 1 102.7308 32.5985 26.9490 0.0000 9.4542 0.0000
# 2 32.5985 74.5242 44.4412 0.0000 2.5682 0.0000
# 3 26.9490 44.4412 125.4008 0.0000 2.8361 0.0000
# 4 0.0000 0.0000 0.0000 25.8667 0.0000 5.4954
# 5 9.4542 2.5682 2.8361 0.0000 49.0538 0.0000
# 6 0.0000 0.0000 0.0000 5.4954 0.0000 33.8445
#
#
#
# Elastic Compliance Matrix: (Units=1/GPa)
#
#
# Indices 1 2 3 4 5 6 
#
# 1 0.011558 -0.004481 -0.000852 0.000000 -0.001944 0.000000
# 2 -0.004481 0.018766 -0.005692 0.000000 0.000210 0.000000
# 3 -0.000852 -0.005692 0.010178 0.000000 -0.000126 0.000000
# 4 0.000000 0.000000 0.000000 0.040041 0.000000 -0.006502
# 5 -0.001944 0.000210 -0.000126 0.000000 0.020757 0.000000
# 6 0.000000 0.000000 0.000000 -0.006502 0.000000 0.030603
#
#
# Mechanical properties :
#
#
# Convention : Reuss Voigt Hill
#
# Bulk Modulus (GPa) = 54.19573 56.73700 55.46637
# Shear Modulus (GPa) = 31.22994 34.99748 33.11371
#
# Velocity S-wave (km/s) = 3.68582 3.90182 3.79536
# Velocity P-wave (km/s) = 6.45672 6.70671 6.58290
#
# Compressibility (1/GPa) = 0.01845164
#
# Stress axis : x y z
#
# Youngs Moduli (GPa) = 86.51696 53.28876 98.25431
#
# Poissons Ratio (x) = 0.23878 0.08371
# Poissons Ratio (y) = 0.38767 0.55929
# Poissons Ratio (z) = 0.07371 0.30333
#
# Static dielectric constant tensor:
#      x y z
#    x 4.209770 0.000000 0.104920 
#    y 0.000000 4.148470 0.000000 
#    z 0.104920 0.000000 4.220890 
# 
# 
# High freq. dielectric constant tensor:
#      x y z
#    x 1.929140 0.000000 0.009420 
#    y 0.000000 1.896600 0.000000 
#    z 0.009420 0.000000 1.912300 
# 
# From -- ./inp_files/104283.got.cif
#   From: 2010.06.25/outbox.cif.g09.slc.cpg/sg15_53_cif.got.tgz:104283.got - 2010.06.28 07:06:18.
