data_PCOD8146789
_publ_section_title
;
Structure prediction by ZEFSAII (Michael W. Deem and Ramdas Pophale) SiO2 
 PCOD8146789
Probable space group: C 2/C
;
_chemical_formula_sum "Si O2"
_cell_formula_units_Z 60
_cell_length_a 31.167705
_cell_length_b 15.078762
_cell_length_c 18.957537
_cell_angle_alpha 90.000000
_cell_angle_beta 161.285108
_cell_angle_gamma 90.000000
_cell_volume 2858.688823
_symmetry_space_group_name_H-M "C 2/C"
_symmetry_group_IT_number 15
_symmetry_cell_setting 'monoclinic'
loop_
_space_group_symop_operation_xyz
x,y,z
-x,y,1/2-z
-x,-y,-z
x,-y,1/2+z
1/2+x,1/2+y,z
1/2-x,1/2+y,1/2-z
1/2-x,1/2-y,-z
1/2+x,1/2-y,1/2+z
loop_
_atom_site_type_symbol
_atom_site_label
_atom_site_fract_x
_atom_site_fract_y
_atom_site_fract_z
Si Si1 0.000000 0.753393 0.250000
Si Si2 0.567281 0.759803 0.564450
Si Si3 0.131163 0.041555 0.341683
Si Si4 0.161397 0.016405 0.109572
Si Si5 0.369304 0.374506 0.800754
Si Si6 0.715525 0.834054 0.184924
Si Si7 0.719585 0.383318 0.558814
Si Si8 0.708426 0.806603 0.338137
O O1 0.086506 0.693170 0.437896
O O2 0.092734 0.819580 0.349134
O O3 0.517145 0.671009 0.527099
O O4 0.658017 0.729274 0.639040
O O5 0.651060 0.821771 0.747645
O O6 0.431742 0.816422 0.335476
O O7 0.137134 0.047242 0.266594
O O8 0.176610 0.133957 0.448508
O O9 0.225734 0.959572 0.509356
O O10 0.981639 0.023721 0.136154
O O11 0.150127 0.089475 0.152126
O O12 0.223149 0.067365 0.139688
O O13 0.253855 0.937156 0.282299
O O14 0.256516 0.299233 0.606254
O O15 0.683959 0.829016 0.218229
#
# Coordination Sequence:
#
# PCOD8146789 Si02
#       8
#     4   8   8   8   8   8   8   8
#     4  10  22  42  64  94 128 170 218 274 324 404
#     4   9  23  41  65  94 130 179 210 275 336 391
#     4  12  22  39  67 100 130 174 228 272 320 399
#     4  12  22  42  67 100 127 180 217 284 323 399
#     4  10  23  42  64  93 135 167 226 271 330 386
#     4  11  22  43  68  96 137 169 224 278 339 388
#     4  11  22  41  68  94 131 172 231 265 332 398
#     4  10  23  43  67  97 132 181 216 273 331 402
#
# _framework density 20.988644000000001
#
# number of rings (size 3 to 8) (size 9 to 14) (size 15 to 20)
#    0.800    0.533    4.000    2.400    0.000    0.533 
#    2.400    2.000    0.000    0.000    0.000    0.000 
#    0.000    0.000    0.000    0.000    0.000    0.000 
#
# Total GULP energy -371715.596180 kJ/mol
# GULP energy per Si atom -12390.519873 kJ/mol
# Density = 2.094087 g / cm^3
# Si number density = 20.988644 Si / 1000 Ang^3
#
#
#
# Elastic Constant Matrix: (Units=GPa)
#
#
# Indices 1 2 3 4 5 6 
#
# 1 57.9985 26.4672 36.5628 0.0000 -10.7633 0.0000
# 2 26.4672 115.6790 57.6461 0.0000 -7.4662 0.0000
# 3 36.5628 57.6461 77.1612 0.0000 -3.2622 0.0000
# 4 0.0000 0.0000 0.0000 42.3478 0.0000 -5.9562
# 5 -10.7633 -7.4662 -3.2622 0.0000 21.2366 0.0000
# 6 0.0000 0.0000 0.0000 -5.9562 0.0000 26.6098
#
#
#
# Elastic Compliance Matrix: (Units=1/GPa)
#
#
# Indices 1 2 3 4 5 6 
#
# 1 0.027385 0.001168 -0.013331 0.000000 0.012242 0.000000
# 2 0.001168 0.014053 -0.010889 0.000000 0.003860 0.000000
# 3 -0.013331 -0.010889 0.027141 0.000000 -0.006416 0.000000
# 4 0.000000 0.000000 0.000000 0.024382 0.000000 0.005457
# 5 0.012242 0.003860 -0.006416 0.000000 0.053665 0.000000
# 6 0.000000 0.000000 0.000000 0.005457 0.000000 0.038802
#
#
# Mechanical properties :
#
#
# Convention : Reuss Voigt Hill
#
# Bulk Modulus (GPa) = 44.49635 54.68789 49.59212
# Shear Modulus (GPa) = 20.91859 26.71634 23.81747
#
# Velocity S-wave (km/s) = 3.16042 3.57164 3.37230
# Velocity P-wave (km/s) = 5.87911 6.56668 6.23238
#
# Compressibility (1/GPa) = 0.02247375
#
# Stress axis : x y z
#
# Youngs Moduli (GPa) = 36.51645 71.16055 36.84527
#
# Poissons Ratio (x) = -0.08311 0.49119
# Poissons Ratio (y) = -0.04265 0.40120
# Poissons Ratio (z) = 0.48681 0.77485
#
# Static dielectric constant tensor:
#      x y z
#    x 3.615950 0.000000 0.080310 
#    y 0.000000 4.098860 0.000000 
#    z 0.080310 0.000000 3.750750 
# 
# 
# High freq. dielectric constant tensor:
#      x y z
#    x 1.809390 0.000000 -0.002270 
#    y 0.000000 1.837730 0.000000 
#    z -0.002270 0.000000 1.802290 
# 
# From -- ./inp_files/225794.got.cif
#   From: 2010.06.25/outbox.cif.g09.slc.cpg/sg15_113_cif.got.tgz:225794.got - 2010.06.28 07:06:18.
