data_PCOD8146429
_publ_section_title
;
Structure prediction by ZEFSAII (Michael W. Deem and Ramdas Pophale) SiO2 
 PCOD8146429
Probable space group: C 2/C
;
_chemical_formula_sum "Si O2"
_cell_formula_units_Z 64
_cell_length_a 27.991386
_cell_length_b 15.461997
_cell_length_c 8.893021
_cell_angle_alpha 90.000000
_cell_angle_beta 52.894169
_cell_angle_gamma 90.000000
_cell_volume 3069.603418
_symmetry_space_group_name_H-M "C 2/C"
_symmetry_group_IT_number 15
_symmetry_cell_setting 'monoclinic'
loop_
_space_group_symop_operation_xyz
x,y,z
-x,y,1/2-z
-x,-y,-z
x,-y,1/2+z
1/2+x,1/2+y,z
1/2-x,1/2+y,1/2-z
1/2-x,1/2-y,-z
1/2+x,1/2-y,1/2+z
loop_
_atom_site_type_symbol
_atom_site_label
_atom_site_fract_x
_atom_site_fract_y
_atom_site_fract_z
Si Si1 0.302103 0.310068 0.469179
Si Si2 0.661792 0.189501 0.601646
Si Si3 0.601264 0.758381 0.928246
Si Si4 0.940366 0.588970 0.166604
Si Si5 0.567339 0.422680 0.585228
Si Si6 0.144466 0.011296 0.690918
Si Si7 0.579153 0.925233 0.460627
Si Si8 0.793579 0.848453 0.821206
O O1 0.250000 0.250000 0.500000
O O2 0.362593 0.275716 0.283239
O O3 0.304679 0.414392 0.434027
O O4 0.300047 0.298053 0.651472
O O5 0.641797 0.186791 0.466368
O O6 0.611610 0.148580 0.803562
O O7 0.724263 0.138318 0.498587
O O8 0.672194 0.289742 0.622609
O O9 0.555113 0.822458 0.935940
O O10 0.568838 0.682046 0.083168
O O11 0.902977 0.519938 0.136398
O O12 0.905325 0.591192 0.393644
O O13 0.008657 0.570434 0.069857
O O14 0.500000 0.454015 0.750000
O O15 0.618649 0.464396 0.592391
O O16 0.584966 0.452672 0.384802
O O17 0.176489 0.942003 0.737891
#
# Coordination Sequence:
#
# PCOD8146429 Si02
#       8
#     8   8   8   8   8   8   8   8
#     4  11  23  43  66  92 130 173 218 272 327 400
#     4  11  23  38  65  94 130 166 221 271 327 394
#     4  11  23  38  64  96 127 173 218 273 335 394
#     4  10  22  41  65  90 132 172 218 272 334 398
#     4  11  24  42  65  98 128 173 221 274 333 403
#     4  11  23  43  68  92 135 172 215 277 335 391
#     4  10  22  42  63  95 130 174 219 275 331 394
#     4  11  23  43  64  94 130 175 214 271 324 395
#
# _framework density 20.849599000000001
#
# number of rings (size 3 to 8) (size 9 to 14) (size 15 to 20)
#    0.000    1.250    3.750    1.875    1.750    2.000 
#    2.250    0.000    0.000    0.000    0.000    0.000 
#    0.000    0.000    0.000    0.000    0.000    0.000 
#
# Total GULP energy -396566.533360 kJ/mol
# GULP energy per Si atom -12392.704168 kJ/mol
# Density = 2.080214 g / cm^3
# Si number density = 20.849599 Si / 1000 Ang^3
#
#
#
# Elastic Constant Matrix: (Units=GPa)
#
#
# Indices 1 2 3 4 5 6 
#
# 1 73.1915 46.4132 23.1213 0.0000 19.1299 0.0000
# 2 46.4132 111.4393 25.4358 0.0000 7.6154 0.0000
# 3 23.1213 25.4358 94.1627 0.0000 11.7776 0.0000
# 4 0.0000 0.0000 0.0000 32.2993 0.0000 4.8832
# 5 19.1299 7.6154 11.7776 0.0000 33.0716 0.0000
# 6 0.0000 0.0000 0.0000 4.8832 0.0000 31.5479
#
#
#
# Elastic Compliance Matrix: (Units=1/GPa)
#
#
# Indices 1 2 3 4 5 6 
#
# 1 0.022046 -0.008036 -0.001967 0.000000 -0.010202 0.000000
# 2 -0.008036 0.012550 -0.001713 0.000000 0.002369 0.000000
# 3 -0.001967 -0.001713 0.011904 0.000000 -0.002707 0.000000
# 4 0.000000 0.000000 0.000000 0.031702 0.000000 -0.004907
# 5 -0.010202 0.002369 -0.002707 0.000000 0.036557 0.000000
# 6 0.000000 0.000000 0.000000 -0.004907 0.000000 0.032457
#
#
# Mechanical properties :
#
#
# Convention : Reuss Voigt Hill
#
# Bulk Modulus (GPa) = 43.34883 52.08158 47.71521
# Shear Modulus (GPa) = 28.03669 31.63865 29.83767
#
# Velocity S-wave (km/s) = 3.67101 3.89970 3.78708
# Velocity P-wave (km/s) = 6.22935 6.73133 6.48519
#
# Compressibility (1/GPa) = 0.02306867
#
# Stress axis : x y z
#
# Youngs Moduli (GPa) = 45.35898 79.68430 84.00416
#
# Poissons Ratio (x) = 0.64034 0.16521
# Poissons Ratio (y) = 0.36451 0.14390
# Poissons Ratio (z) = 0.08921 0.13650
#
# Static dielectric constant tensor:
#      x y z
#    x 3.542400 0.000000 0.187630 
#    y 0.000000 3.908920 0.000000 
#    z 0.187630 0.000000 3.894090 
# 
# 
# High freq. dielectric constant tensor:
#      x y z
#    x 1.801280 0.000000 0.013140 
#    y 0.000000 1.821080 0.000000 
#    z 0.013140 0.000000 1.826820 
# 
# From -- ./inp_files/70137.got.cif
#   From: 2010.06.25/outbox.cif.g09.slc.cpg/sg15_36_cif.got.tgz:70137.got - 2010.06.28 07:06:18.
