data_PCOD8146941
_publ_section_title
;
Structure prediction by ZEFSAII (Michael W. Deem and Ramdas Pophale) SiO2 
 PCOD8146941
Probable space group: C 2/C
;
_chemical_formula_sum "Si O2"
_cell_formula_units_Z 52
_cell_length_a 19.935611
_cell_length_b 9.924473
_cell_length_c 13.104021
_cell_angle_alpha 90.000000
_cell_angle_beta 80.596395
_cell_angle_gamma 90.000000
_cell_volume 2557.796082
_symmetry_space_group_name_H-M "C 2/C"
_symmetry_group_IT_number 15
_symmetry_cell_setting 'monoclinic'
loop_
_space_group_symop_operation_xyz
x,y,z
-x,y,1/2-z
-x,-y,-z
x,-y,1/2+z
1/2+x,1/2+y,z
1/2-x,1/2+y,1/2-z
1/2-x,1/2-y,-z
1/2+x,1/2-y,1/2+z
loop_
_atom_site_type_symbol
_atom_site_label
_atom_site_fract_x
_atom_site_fract_y
_atom_site_fract_z
Si Si1 0.000000 0.692583 0.250000
Si Si2 0.334120 0.815734 0.383614
Si Si3 0.804385 0.800719 0.409991
Si Si4 0.448867 0.647773 0.947717
Si Si5 0.970156 0.152400 0.373540
Si Si6 0.643777 0.924388 0.744273
Si Si7 0.236606 0.419846 0.900929
O O1 0.002777 0.784061 0.148468
O O2 0.064176 0.597240 0.248949
O O3 0.407724 0.757175 0.398755
O O4 0.287936 0.696225 0.351237
O O5 0.291189 0.894198 0.479801
O O6 0.342335 0.925077 0.294786
O O7 0.750000 0.750000 0.500000
O O8 0.873107 0.799310 0.457783
O O9 0.812173 0.694159 0.317468
O O10 0.781586 0.945999 0.374759
O O11 0.444872 0.490862 0.920949
O O12 0.472306 0.689270 0.056506
O O13 0.000000 0.148914 0.250000
O O14 0.667107 0.922620 0.854798
#
# Coordination Sequence:
#
# PCOD8146941 Si02
#       7
#     4   8   8   8   8   8   8
#     4  10  22  44  62  92 128 168 216 250 322 384
#     4  11  24  43  62  97 128 162 216 263 319 378
#     4  11  22  44  63  94 127 167 218 253 321 388
#     4  10  22  42  67  90 126 172 207 267 311 375
#     4  11  23  41  65  95 127 163 218 260 315 379
#     4  11  24  41  67  93 127 169 209 264 323 374
#     4  11  23  43  66  91 130 167 212 266 313 383
#
# _framework density 20.330002
#
# number of rings (size 3 to 8) (size 9 to 14) (size 15 to 20)
#    0.000    1.231    3.846    1.846    1.077    2.462 
#    0.000    2.308    0.000    0.000    0.000    0.000 
#    0.000    0.000    0.000    0.000    0.000    0.000 
#
# Total GULP energy -322283.109170 kJ/mol
# GULP energy per Si atom -12395.504199 kJ/mol
# Density = 2.028373 g / cm^3
# Si number density = 20.330002 Si / 1000 Ang^3
#
#
#
# Elastic Constant Matrix: (Units=GPa)
#
#
# Indices 1 2 3 4 5 6 
#
# 1 72.9643 22.1895 35.0131 0.0000 1.7793 0.0000
# 2 22.1895 111.1695 27.1038 0.0000 0.0574 0.0000
# 3 35.0131 27.1038 94.1646 0.0000 11.2816 0.0000
# 4 0.0000 0.0000 0.0000 11.1190 0.0000 -7.1926
# 5 1.7793 0.0574 11.2816 0.0000 39.8180 0.0000
# 6 0.0000 0.0000 0.0000 -7.1926 0.0000 33.3941
#
#
#
# Elastic Compliance Matrix: (Units=1/GPa)
#
#
# Indices 1 2 3 4 5 6 
#
# 1 0.017118 -0.001978 -0.005905 0.000000 0.000911 0.000000
# 2 -0.001978 0.009927 -0.002206 0.000000 0.000699 0.000000
# 3 -0.005905 -0.002206 0.013890 0.000000 -0.003668 0.000000
# 4 0.000000 0.000000 0.000000 0.104496 0.000000 0.022507
# 5 0.000911 0.000699 -0.003668 0.000000 0.026112 0.000000
# 6 0.000000 0.000000 0.000000 0.022507 0.000000 0.034793
#
#
# Mechanical properties :
#
#
# Convention : Reuss Voigt Hill
#
# Bulk Modulus (GPa) = 48.17305 49.65679 48.91492
# Shear Modulus (GPa) = 21.41950 29.79901 25.60925
#
# Velocity S-wave (km/s) = 3.24943 3.83268 3.55304
# Velocity P-wave (km/s) = 6.15023 6.63810 6.39882
#
# Compressibility (1/GPa) = 0.02075850
#
# Stress axis : x y z
#
# Youngs Moduli (GPa) = 58.41765 100.73073 71.99555
#
# Poissons Ratio (x) = 0.19921 0.42513
# Poissons Ratio (y) = 0.11553 0.15881
# Poissons Ratio (z) = 0.34495 0.22220
#
# Static dielectric constant tensor:
#      x y z
#    x 2.765890 0.000000 -0.167590 
#    y 0.000000 2.907350 0.000000 
#    z -0.167590 0.000000 3.557680 
# 
# 
# High freq. dielectric constant tensor:
#      x y z
#    x 1.807650 0.000000 0.001490 
#    y 0.000000 1.808090 0.000000 
#    z 0.001490 0.000000 1.788610 
# 
# From -- ./inp_files/166251.got.cif
#   From: 2010.06.25/outbox.cif.g09.slc.cpg/sg15_84_cif.got.tgz:166251.got - 2010.06.28 07:06:18.
