data_PCOD8146221
_publ_section_title
;
Structure prediction by ZEFSAII (Michael W. Deem and Ramdas Pophale) SiO2 
 PCOD8146221
Probable space group: C 2/C
;
_chemical_formula_sum "Si O2"
_cell_formula_units_Z 56
_cell_length_a 17.808269
_cell_length_b 13.548135
_cell_length_c 11.737624
_cell_angle_alpha 90.000000
_cell_angle_beta 121.315521
_cell_angle_gamma 90.000000
_cell_volume 2419.362840
_symmetry_space_group_name_H-M "C 2/C"
_symmetry_group_IT_number 15
_symmetry_cell_setting 'monoclinic'
loop_
_space_group_symop_operation_xyz
x,y,z
-x,y,1/2-z
-x,-y,-z
x,-y,1/2+z
1/2+x,1/2+y,z
1/2-x,1/2+y,1/2-z
1/2-x,1/2-y,-z
1/2+x,1/2-y,1/2+z
loop_
_atom_site_type_symbol
_atom_site_label
_atom_site_fract_x
_atom_site_fract_y
_atom_site_fract_z
Si Si1 0.245956 0.630158 0.358818
Si Si2 0.809179 0.576581 0.758649
Si Si3 0.571811 0.238973 0.216734
Si Si4 0.683746 0.352183 0.813841
Si Si5 0.502813 0.111058 0.958355
Si Si6 0.649787 0.174227 0.922734
Si Si7 0.829965 0.921245 0.164031
O O1 0.193639 0.541768 0.251323
O O2 0.169003 0.704858 0.333442
O O3 0.318332 0.670252 0.324421
O O4 0.299926 0.599202 0.511888
O O5 0.786461 0.614030 0.614289
O O6 0.745626 0.613281 0.807836
O O7 0.902206 0.631646 0.850717
O O8 0.500000 0.201687 0.250000
O O9 0.582697 0.358707 0.230578
O O10 0.541615 0.195170 0.072242
O O11 0.624334 0.279936 0.845464
O O12 0.650206 0.462913 0.809842
O O13 0.785942 0.323343 0.918533
O O14 0.560968 0.117278 0.889039
O O15 0.500000 0.000000 0.000000
#
# Coordination Sequence:
#
# PCOD8146221 Si02
#       7
#     8   8   8   8   8   8   8
#     4  11  21  41  67  99 137 179 233 297 353 428
#     4  11  23  39  70 101 137 178 230 292 364 425
#     4  12  26  40  64  97 141 180 227 287 360 426
#     4  10  22  40  69  98 130 183 241 286 346 425
#     4  12  24  41  66 103 144 174 228 298 375 423
#     4  11  22  40  67 101 136 178 233 294 355 423
#     4  11  24  44  67 100 135 189 237 288 354 429
#
# _framework density 23.14659
#
# number of rings (size 3 to 8) (size 9 to 14) (size 15 to 20)
#    0.000    0.857    4.286    3.429    4.000    1.143 
#    0.000    1.429    0.000    5.143    0.000    0.000 
#    0.000    0.000    0.000    0.000    0.000    0.000 
#
# Total GULP energy -346951.217873 kJ/mol
# GULP energy per Si atom -12391.114924 kJ/mol
# Density = 2.309391 g / cm^3
# Si number density = 23.146590 Si / 1000 Ang^3
#
#
#
# Elastic Constant Matrix: (Units=GPa)
#
#
# Indices 1 2 3 4 5 6 
#
# 1 103.2986 37.2379 40.9686 0.0000 -25.7835 0.0000
# 2 37.2379 133.8342 31.9171 0.0000 -7.9429 0.0000
# 3 40.9686 31.9171 71.3834 0.0000 -26.4032 0.0000
# 4 0.0000 0.0000 0.0000 39.1778 0.0000 -2.7145
# 5 -25.7835 -7.9429 -26.4032 0.0000 38.8458 0.0000
# 6 0.0000 0.0000 0.0000 -2.7145 0.0000 39.5310
#
#
#
# Elastic Compliance Matrix: (Units=1/GPa)
#
#
# Indices 1 2 3 4 5 6 
#
# 1 0.013807 -0.002358 -0.004887 0.000000 0.005360 0.000000
# 2 -0.002358 0.008803 -0.003334 0.000000 -0.002031 0.000000
# 3 -0.004887 -0.003334 0.022512 0.000000 0.011376 0.000000
# 4 0.000000 0.000000 0.000000 0.025647 0.000000 0.001761
# 5 0.005360 -0.002031 0.011376 0.000000 0.036617 0.000000
# 6 0.000000 0.000000 0.000000 0.001761 0.000000 0.025418
#
#
# Mechanical properties :
#
#
# Convention : Reuss Voigt Hill
#
# Bulk Modulus (GPa) = 41.73003 58.75147 50.24075
# Shear Modulus (GPa) = 30.87402 36.73709 33.80555
#
# Velocity S-wave (km/s) = 3.65615 3.98823 3.82579
# Velocity P-wave (km/s) = 5.99091 6.82974 6.42403
#
# Compressibility (1/GPa) = 0.02396356
#
# Stress axis : x y z
#
# Youngs Moduli (GPa) = 72.42754 113.60386 44.42097
#
# Poissons Ratio (x) = 0.26788 0.21709
# Poissons Ratio (y) = 0.17078 0.14809
# Poissons Ratio (z) = 0.35396 0.37873
#
# Static dielectric constant tensor:
#      x y z
#    x 4.064670 0.000000 -0.269460 
#    y 0.000000 4.323470 0.000000 
#    z -0.269460 0.000000 4.614120 
# 
# 
# High freq. dielectric constant tensor:
#      x y z
#    x 1.903060 0.000000 -0.029500 
#    y 0.000000 1.923440 0.000000 
#    z -0.029500 0.000000 1.911730 
# 
# From -- ./inp_files/105793.got.cif
#   From: 2010.06.25/outbox.cif.g09.slc.cpg/sg15_53_cif.got.tgz:105793.got - 2010.06.28 07:06:18.
