data_PCOD8146524
_publ_section_title
;
Structure prediction by ZEFSAII (Michael W. Deem and Ramdas Pophale) SiO2 
 PCOD8146524
Probable space group: C 2/C
;
_chemical_formula_sum "Si O2"
_cell_formula_units_Z 64
_cell_length_a 20.165797
_cell_length_b 11.744962
_cell_length_c 25.757894
_cell_angle_alpha 90.000000
_cell_angle_beta 149.585926
_cell_angle_gamma 90.000000
_cell_volume 3088.436190
_symmetry_space_group_name_H-M "C 2/C"
_symmetry_group_IT_number 15
_symmetry_cell_setting 'monoclinic'
loop_
_space_group_symop_operation_xyz
x,y,z
-x,y,1/2-z
-x,-y,-z
x,-y,1/2+z
1/2+x,1/2+y,z
1/2-x,1/2+y,1/2-z
1/2-x,1/2-y,-z
1/2+x,1/2-y,1/2+z
loop_
_atom_site_type_symbol
_atom_site_label
_atom_site_fract_x
_atom_site_fract_y
_atom_site_fract_z
Si Si1 0.416534 0.037807 0.573353
Si Si2 0.350605 0.050527 0.639262
Si Si3 0.329196 0.788331 0.858627
Si Si4 0.876834 0.945919 0.816442
Si Si5 0.578224 0.090935 0.519669
Si Si6 0.623987 0.286309 0.994858
Si Si7 0.181123 0.429781 0.777066
Si Si8 0.692888 0.317772 0.257642
O O1 0.349286 0.992882 0.581115
O O2 0.400360 0.172877 0.554469
O O3 0.350680 0.969440 0.481159
O O4 0.571493 0.011765 0.678717
O O5 0.500000 0.089511 0.750000
O O6 0.264413 0.163303 0.574832
O O7 0.294955 0.966265 0.646478
O O8 0.227817 0.893540 0.795511
O O9 0.466582 0.822734 0.923899
O O10 0.261423 0.703550 0.771385
O O11 0.367148 0.733751 0.938111
O O12 0.812897 0.944616 0.831393
O O13 0.012116 0.878502 0.907518
O O14 0.904156 0.073171 0.812101
O O15 0.678563 0.156767 0.622986
O O16 0.500000 0.000000 0.500000
O O17 0.133160 0.297227 0.743027
#
# Coordination Sequence:
#
# PCOD8146524 Si02
#       8
#     8   8   8   8   8   8   8   8
#     4  11  22  44  68  93 131 179 227 264 338 409
#     4  10  25  45  67  94 130 183 227 270 332 406
#     4  11  22  35  63  96 135 172 207 279 343 396
#     4  11  23  36  64 103 140 163 217 292 338 394
#     4  12  20  39  65  96 131 174 216 265 346 395
#     4  12  25  39  71 103 134 170 222 285 345 401
#     4  10  22  41  67  93 137 179 219 270 338 400
#     4  11  22  37  62  97 134 172 220 274 330 402
#
# _framework density 20.722460999999999
#
# number of rings (size 3 to 8) (size 9 to 14) (size 15 to 20)
#    0.000    1.000    5.000    2.625    7.000    3.000 
#    0.000    0.625    5.500    0.000    0.000    0.000 
#    0.000    0.000    0.000    0.000    0.000    0.000 
#
# Total GULP energy -396525.283914 kJ/mol
# GULP energy per Si atom -12391.415122 kJ/mol
# Density = 2.067530 g / cm^3
# Si number density = 20.722461 Si / 1000 Ang^3
#
#
#
# Elastic Constant Matrix: (Units=GPa)
#
#
# Indices 1 2 3 4 5 6 
#
# 1 77.5102 38.9201 44.6813 0.0014 -14.2207 -0.0037
# 2 38.9201 121.7442 61.2540 -0.0009 -5.8760 0.0052
# 3 44.6813 61.2540 98.8624 -0.0009 -13.2987 0.0074
# 4 0.0014 -0.0009 -0.0009 20.4354 0.0002 31.8892
# 5 -14.2207 -5.8760 -13.2987 0.0002 35.0094 0.0009
# 6 -0.0037 0.0052 0.0074 31.8892 0.0009 -39.3745
#
#
#
# Elastic Compliance Matrix: (Units=1/GPa)
#
#
# Indices 1 2 3 4 5 6 
#
# 1 0.018651 -0.002636 -0.006151 0.000001 0.004797 -0.000002
# 2 -0.002636 0.012331 -0.006654 0.000000 -0.001529 0.000000
# 3 -0.006151 -0.006654 0.017422 -0.000002 0.003003 0.000002
# 4 0.000001 0.000000 -0.000002 0.021616 -0.000001 0.017507
# 5 0.004797 -0.001529 0.003003 -0.000001 0.031396 0.000000
# 6 -0.000002 0.000000 0.000002 0.017507 0.000000 -0.011219
#
#
# Mechanical properties :
#
#
# Convention : Reuss Voigt Hill
#
# Bulk Modulus (GPa) = 57.07403 65.31419 61.19411
# Shear Modulus (GPa) = 39.39483 13.43148 26.41315
#
# Velocity S-wave (km/s) = 4.36485 2.54866 3.57405
# Velocity P-wave (km/s) = 7.28042 6.34412 6.82834
#
# Compressibility (1/GPa) = 0.01752110
#
# Stress axis : x y z
#
# Youngs Moduli (GPa) = 53.61631 81.09656 57.39965
#
# Poissons Ratio (x) = 0.21380 0.35305
# Poissons Ratio (y) = 0.14135 0.38195
# Poissons Ratio (z) = 0.32978 0.53964
#
# Static dielectric constant tensor:
#      x y z
#    x 3.923600 0.000000 -0.134050 
#    y 0.000000 4.393800 -0.000010 
#    z -0.134050 -0.000010 3.938860 
# 
# 
# High freq. dielectric constant tensor:
#      x y z
#    x 1.784420 0.000000 -0.027230 
#    y 0.000000 1.815780 0.000000 
#    z -0.027230 0.000000 1.816040 
# 
# From -- ./inp_files/300850.got.cif
#   From: 2010.06.25/outbox.cif.g09.slc.cpg/sg15_151_cif.got.tgz:300850.got - 2010.06.28 07:06:18.
