data_PCOD8146020
_publ_section_title
;
Structure prediction by ZEFSAII (Michael W. Deem and Ramdas Pophale) SiO2 
 PCOD8146020
Probable space group: C 2/C
;
_chemical_formula_sum "Si O2"
_cell_formula_units_Z 48
_cell_length_a 18.602752
_cell_length_b 11.609531
_cell_length_c 14.763496
_cell_angle_alpha 90.000000
_cell_angle_beta 41.048829
_cell_angle_gamma 90.000000
_cell_volume 2093.868506
_symmetry_space_group_name_H-M "C 2/C"
_symmetry_group_IT_number 15
_symmetry_cell_setting 'monoclinic'
loop_
_space_group_symop_operation_xyz
x,y,z
-x,y,1/2-z
-x,-y,-z
x,-y,1/2+z
1/2+x,1/2+y,z
1/2-x,1/2+y,1/2-z
1/2-x,1/2-y,-z
1/2+x,1/2-y,1/2+z
loop_
_atom_site_type_symbol
_atom_site_label
_atom_site_fract_x
_atom_site_fract_y
_atom_site_fract_z
Si Si1 0.749745 0.953077 0.305664
Si Si2 0.500000 0.254645 0.750000
Si Si3 0.659308 0.939503 0.058762
Si Si4 0.455190 0.398526 0.625741
Si Si5 0.810315 0.003845 0.560564
Si Si6 0.500000 0.132234 0.250000
Si Si7 0.117827 0.763816 0.981746
O O1 0.674838 0.035157 0.438422
O O2 0.722882 0.978214 0.225636
O O3 0.717581 0.822596 0.362191
O O4 0.875618 0.990020 0.205073
O O5 0.438257 0.329165 0.733868
O O6 0.406838 0.177358 0.883091
O O7 0.602275 0.045723 0.167678
O O8 0.772563 0.925761 0.007604
O O9 0.577392 0.446243 0.505706
O O10 0.435063 0.312641 0.560457
O O11 0.825272 0.869871 0.519633
O O12 0.474712 0.208816 0.363853
#
# Coordination Sequence:
#
# PCOD8146020 Si02
#       7
#     8   4   8   8   8   4   8
#     4  10  22  41  61  91 123 158 207 246 298 366
#     4  11  24  43  64  88 124 163 200 255 310 350
#     4  10  23  41  62  91 122 161 208 250 300 366
#     4  11  24  40  63  94 123 158 205 250 302 366
#     4  11  24  39  62  94 125 159 204 250 301 366
#     4   9  22  41  62  90 122 161 210 249 300 364
#     4  10  22  40  65  89 123 164 196 254 308 349
#
# _framework density 22.924075999999999
#
# number of rings (size 3 to 8) (size 9 to 14) (size 15 to 20)
#    0.000    1.667    0.000    4.000    0.000   15.333 
#    0.000    5.000    0.000    0.000    0.000    0.000 
#    0.000    0.000    0.000    0.000    0.000    0.000 
#
# Total GULP energy -297424.615088 kJ/mol
# GULP energy per Si atom -12392.692295 kJ/mol
# Density = 2.287190 g / cm^3
# Si number density = 22.924076 Si / 1000 Ang^3
#
#
#
# Elastic Constant Matrix: (Units=GPa)
#
#
# Indices 1 2 3 4 5 6 
#
# 1 78.6441 38.6839 24.6780 0.0000 1.9176 0.0000
# 2 38.6839 102.0674 44.6270 0.0000 0.4050 0.0000
# 3 24.6780 44.6270 119.1853 0.0000 12.2148 0.0000
# 4 0.0000 0.0000 0.0000 38.0786 0.0000 7.0478
# 5 1.9176 0.4050 12.2148 0.0000 29.4239 0.0000
# 6 0.0000 0.0000 0.0000 7.0478 0.0000 34.2381
#
#
#
# Elastic Compliance Matrix: (Units=1/GPa)
#
#
# Indices 1 2 3 4 5 6 
#
# 1 0.015784 -0.005468 -0.001173 0.000000 -0.000466 0.000000
# 2 -0.005468 0.013695 -0.004191 0.000000 0.001908 0.000000
# 3 -0.001173 -0.004191 0.010642 0.000000 -0.004283 0.000000
# 4 0.000000 0.000000 0.000000 0.027302 0.000000 -0.005620
# 5 -0.000466 0.001908 -0.004283 0.000000 0.035768 0.000000
# 6 0.000000 0.000000 0.000000 -0.005620 0.000000 0.030364
#
#
# Mechanical properties :
#
#
# Convention : Reuss Voigt Hill
#
# Bulk Modulus (GPa) = 54.18079 57.31941 55.75010
# Shear Modulus (GPa) = 30.98457 33.14199 32.06328
#
# Velocity S-wave (km/s) = 3.68042 3.80640 3.74394
# Velocity P-wave (km/s) = 6.46118 6.66157 6.56214
#
# Compressibility (1/GPa) = 0.01845673
#
# Stress axis : x y z
#
# Youngs Moduli (GPa) = 63.35355 73.02154 93.97157
#
# Poissons Ratio (x) = 0.39925 0.11025
# Poissons Ratio (y) = 0.34639 0.39385
# Poissons Ratio (z) = 0.07433 0.30604
#
# Static dielectric constant tensor:
#      x y z
#    x 3.948720 0.000000 0.142840 
#    y 0.000000 4.268520 0.000000 
#    z 0.142840 0.000000 4.444580 
# 
# 
# High freq. dielectric constant tensor:
#      x y z
#    x 1.891640 0.000000 0.011290 
#    y 0.000000 1.911090 0.000000 
#    z 0.011290 0.000000 1.922760 
# 
# From -- ./inp_files/167865.got.cif
#   From: 2010.06.25/outbox.cif.g09.slc.cpg/sg15_84_cif.got.tgz:167865.got - 2010.06.28 07:06:18.
