data_PCOD8146340
_publ_section_title
;
Structure prediction by ZEFSAII (Michael W. Deem and Ramdas Pophale) SiO2 
 PCOD8146340
Probable space group: C 2/C
;
_chemical_formula_sum "Si O2"
_cell_formula_units_Z 40
_cell_length_a 8.775265
_cell_length_b 11.898992
_cell_length_c 18.004037
_cell_angle_alpha 90.000000
_cell_angle_beta 86.041164
_cell_angle_gamma 90.000000
_cell_volume 1875.438406
_symmetry_space_group_name_H-M "C 2/C"
_symmetry_group_IT_number 15
_symmetry_cell_setting 'monoclinic'
loop_
_space_group_symop_operation_xyz
x,y,z
-x,y,1/2-z
-x,-y,-z
x,-y,1/2+z
1/2+x,1/2+y,z
1/2-x,1/2+y,1/2-z
1/2-x,1/2-y,-z
1/2+x,1/2-y,1/2+z
loop_
_atom_site_type_symbol
_atom_site_label
_atom_site_fract_x
_atom_site_fract_y
_atom_site_fract_z
Si Si1 0.695669 0.602688 0.933758
Si Si2 0.827837 0.043602 0.283463
Si Si3 0.561870 0.323080 0.169876
Si Si4 0.598611 0.309590 0.590896
Si Si5 0.760982 0.874390 0.632705
O O1 0.574067 0.620794 0.872254
O O2 0.842976 0.682793 0.921469
O O3 0.753974 0.474045 0.926912
O O4 0.613565 0.619727 0.014899
O O5 0.794981 0.133160 0.349784
O O6 0.724869 0.073204 0.215647
O O7 0.000000 0.050814 0.250000
O O8 0.807369 0.917419 0.316947
O O9 0.500000 0.276038 0.250000
O O10 0.634122 0.220462 0.120744
O O11 0.423617 0.311678 0.622301
#
# Coordination Sequence:
#
# PCOD8146340 Si02
#       5
#     8   8   8   8   8
#     4  11  22  42  60  90 122 158 199 246 298 351
#     4   9  18  37  61  82 116 157 192 240 297 347
#     4  11  21  40  63  88 121 155 203 250 293 353
#     4  10  22  41  63  84 127 159 193 249 298 353
#     4  11  22  40  64  87 118 160 201 241 303 354
#
# _framework density 21.328346
#
# number of rings (size 3 to 8) (size 9 to 14) (size 15 to 20)
#    0.000    1.600    6.000    1.800    0.000    0.800 
#    7.200    2.000    0.000    0.000    0.000    0.000 
#    0.000    0.000    0.000    0.000    0.000    0.000 
#
# Total GULP energy -247957.989227 kJ/mol
# GULP energy per Si atom -12397.899461 kJ/mol
# Density = 2.127980 g / cm^3
# Si number density = 21.328346 Si / 1000 Ang^3
#
#
#
# Elastic Constant Matrix: (Units=GPa)
#
#
# Indices 1 2 3 4 5 6 
#
# 1 30.8121 25.9092 3.0728 0.0000 -9.7646 0.0000
# 2 25.9092 94.3466 -4.1375 0.0000 -18.1348 0.0000
# 3 3.0728 -4.1375 75.0791 0.0000 -4.6219 0.0000
# 4 0.0000 0.0000 0.0000 36.0647 0.0000 -7.6672
# 5 -9.7646 -18.1348 -4.6219 0.0000 15.3949 0.0000
# 6 0.0000 0.0000 0.0000 -7.6672 0.0000 24.1895
#
#
#
# Elastic Compliance Matrix: (Units=1/GPa)
#
#
# Indices 1 2 3 4 5 6 
#
# 1 0.046045 -0.009259 -0.001292 0.000000 0.017911 0.000000
# 2 -0.009259 0.015801 0.002072 0.000000 0.013363 0.000000
# 3 -0.001292 0.002072 0.013842 0.000000 0.005777 0.000000
# 4 0.000000 0.000000 0.000000 0.029731 0.000000 0.009424
# 5 0.017911 0.013363 0.005777 0.000000 0.093793 0.000000
# 6 0.000000 0.000000 0.000000 0.009424 0.000000 0.044327
#
#
# Mechanical properties :
#
#
# Convention : Reuss Voigt Hill
#
# Bulk Modulus (GPa) = 17.02667 27.76964 22.39815
# Shear Modulus (GPa) = 17.85239 26.82270 22.33754
#
# Velocity S-wave (km/s) = 2.89628 3.55012 3.23974
# Velocity P-wave (km/s) = 4.38007 5.46377 4.95166
#
# Compressibility (1/GPa) = 0.05873139
#
# Stress axis : x y z
#
# Youngs Moduli (GPa) = 21.71776 63.28585 72.24370
#
# Poissons Ratio (x) = 0.58595 0.09335
# Poissons Ratio (y) = 0.20108 -0.14972
# Poissons Ratio (z) = 0.02806 -0.13115
#
# Static dielectric constant tensor:
#      x y z
#    x 3.340360 0.000000 0.007120 
#    y 0.000000 4.083090 0.000000 
#    z 0.007120 0.000000 4.089380 
# 
# 
# High freq. dielectric constant tensor:
#      x y z
#    x 1.790510 0.000000 -0.005320 
#    y 0.000000 1.845380 0.000000 
#    z -0.005320 0.000000 1.845670 
# 
# From -- ./inp_files/187877.got.cif
#   From: 2010.06.25/outbox.cif.g09.slc.cpg/sg15_94_cif.got.tgz:187877.got - 2010.06.28 07:06:18.
