data_PCOD8146005
_publ_section_title
;
Structure prediction by ZEFSAII (Michael W. Deem and Ramdas Pophale) SiO2 
 PCOD8146005
Probable space group: C 2/C
;
_chemical_formula_sum "Si O2"
_cell_formula_units_Z 48
_cell_length_a 8.495654
_cell_length_b 21.280785
_cell_length_c 15.923488
_cell_angle_alpha 90.000000
_cell_angle_beta 128.428938
_cell_angle_gamma 90.000000
_cell_volume 2255.251316
_symmetry_space_group_name_H-M "C 2/C"
_symmetry_group_IT_number 15
_symmetry_cell_setting 'monoclinic'
loop_
_space_group_symop_operation_xyz
x,y,z
-x,y,1/2-z
-x,-y,-z
x,-y,1/2+z
1/2+x,1/2+y,z
1/2-x,1/2+y,1/2-z
1/2-x,1/2-y,-z
1/2+x,1/2-y,1/2+z
loop_
_atom_site_type_symbol
_atom_site_label
_atom_site_fract_x
_atom_site_fract_y
_atom_site_fract_z
Si Si1 0.837023 0.360579 0.769060
Si Si2 0.542065 0.324202 0.948500
Si Si3 0.776103 0.908188 0.137161
Si Si4 0.167063 0.505194 0.735214
Si Si5 0.945347 0.314546 0.986753
Si Si6 0.010075 0.060785 0.946610
O O1 0.636249 0.322417 0.679026
O O2 0.770594 0.433287 0.758678
O O3 0.929245 0.332183 0.883828
O O4 0.000000 0.354024 0.750000
O O5 0.750195 0.339098 0.971290
O O6 0.544127 0.260158 0.001442
O O7 0.503480 0.378054 0.002330
O O8 0.634882 0.961623 0.134509
O O9 0.790665 0.932635 0.044851
O O10 0.000000 0.895623 0.250000
O O11 0.646768 0.844032 0.094007
O O12 0.334016 0.553327 0.822466
O O13 0.000000 0.509256 0.750000
O O14 0.000000 0.000000 0.000000
#
# Coordination Sequence:
#
# PCOD8146005 Si02
#       6
#     8   8   8   8   8   8
#     4  11  24  41  67  99 131 172 221 274 330 394
#     4  11  25  45  66  97 135 176 221 272 328 401
#     4  10  24  42  66  99 130 175 220 271 334 389
#     4  10  22  40  64  98 132 170 219 272 331 392
#     4  11  26  44  68  96 132 181 218 268 337 395
#     4  11  22  39  66  94 129 169 213 272 326 383
#
# _framework density 21.283659
#
# number of rings (size 3 to 8) (size 9 to 14) (size 15 to 20)
#    0.000    1.333    1.667    2.500    4.667    8.000 
#    0.000    3.333    0.000    0.000    0.000    0.000 
#    0.000    0.000    0.000    0.000    0.000    0.000 
#
# Total GULP energy -297439.102597 kJ/mol
# GULP energy per Si atom -12393.295942 kJ/mol
# Density = 2.123522 g / cm^3
# Si number density = 21.283659 Si / 1000 Ang^3
#
#
#
# Elastic Constant Matrix: (Units=GPa)
#
#
# Indices 1 2 3 4 5 6 
#
# 1 140.9260 70.7059 53.1762 0.0000 -19.1489 0.0000
# 2 70.7059 83.4657 53.6285 0.0000 -13.5583 0.0000
# 3 53.1762 53.6285 97.5185 0.0000 -3.8802 0.0000
# 4 0.0000 0.0000 0.0000 42.9610 0.0000 -3.0337
# 5 -19.1489 -13.5583 -3.8802 0.0000 41.3114 0.0000
# 6 0.0000 0.0000 0.0000 -3.0337 0.0000 33.2082
#
#
#
# Elastic Compliance Matrix: (Units=1/GPa)
#
#
# Indices 1 2 3 4 5 6 
#
# 1 0.012768 -0.009233 -0.001777 0.000000 0.002721 0.000000
# 2 -0.009233 0.026360 -0.009323 0.000000 0.003496 0.000000
# 3 -0.001777 -0.009323 0.016256 0.000000 -0.002356 0.000000
# 4 0.000000 0.000000 0.000000 0.023428 0.000000 0.002140
# 5 0.002721 0.003496 -0.002356 0.000000 0.026394 0.000000
# 6 0.000000 0.000000 0.000000 0.002140 0.000000 0.030309
#
#
# Mechanical properties :
#
#
# Convention : Reuss Voigt Hill
#
# Bulk Modulus (GPa) = 67.93224 75.21459 71.57341
# Shear Modulus (GPa) = 27.61104 33.12277 30.36690
#
# Velocity S-wave (km/s) = 3.60570 3.94922 3.78136
# Velocity P-wave (km/s) = 7.02293 7.49740 7.26404
#
# Compressibility (1/GPa) = 0.01472055
#
# Stress axis : x y z
#
# Youngs Moduli (GPa) = 78.31791 37.93610 61.51405
#
# Poissons Ratio (x) = 0.35025 0.10931
# Poissons Ratio (y) = 0.72309 0.57347
# Poissons Ratio (z) = 0.13916 0.35366
#
# Static dielectric constant tensor:
#      x y z
#    x 5.308100 0.000000 -1.010310 
#    y 0.000000 3.611710 0.000000 
#    z -1.010310 0.000000 4.783700 
# 
# 
# High freq. dielectric constant tensor:
#      x y z
#    x 1.856680 0.000000 -0.010570 
#    y 0.000000 1.833870 0.000000 
#    z -0.010570 0.000000 1.837900 
# 
# From -- ./inp_files/192300.got.cif
#   From: 2010.06.25/outbox.cif.g09.slc.cpg/sg15_97_cif.got.tgz:192300.got - 2010.06.28 07:06:18.
