data_PCOD8146076
_publ_section_title
;
Structure prediction by ZEFSAII (Michael W. Deem and Ramdas Pophale) SiO2 
 PCOD8146076
Probable space group: C 2/C
;
_chemical_formula_sum "Si O2"
_cell_formula_units_Z 60
_cell_length_a 18.554687
_cell_length_b 8.659675
_cell_length_c 23.262557
_cell_angle_alpha 90.000000
_cell_angle_beta 55.468154
_cell_angle_gamma 90.000000
_cell_volume 3079.217673
_symmetry_space_group_name_H-M "C 2/C"
_symmetry_group_IT_number 15
_symmetry_cell_setting 'monoclinic'
loop_
_space_group_symop_operation_xyz
x,y,z
-x,y,1/2-z
-x,-y,-z
x,-y,1/2+z
1/2+x,1/2+y,z
1/2-x,1/2+y,1/2-z
1/2-x,1/2-y,-z
1/2+x,1/2-y,1/2+z
loop_
_atom_site_type_symbol
_atom_site_label
_atom_site_fract_x
_atom_site_fract_y
_atom_site_fract_z
Si Si1 0.710300 0.007766 0.649697
Si Si2 0.730001 0.217793 0.443458
Si Si3 0.195056 0.695847 0.862741
Si Si4 0.346403 0.475393 0.809862
Si Si5 0.000000 0.204677 0.750000
Si Si6 0.915638 0.525762 0.499994
Si Si7 0.604231 0.194332 0.785416
Si Si8 0.042583 0.455455 0.647915
O O1 0.778175 0.121066 0.586997
O O2 0.676413 0.089243 0.722397
O O3 0.758840 0.857000 0.648346
O O4 0.633172 0.967926 0.640489
O O5 0.750000 0.250000 0.500000
O O6 0.810778 0.119191 0.380826
O O7 0.637109 0.134343 0.479919
O O8 0.265446 0.562434 0.815982
O O9 0.144463 0.656472 0.944282
O O10 0.125996 0.706543 0.842609
O O11 0.415025 0.602149 0.800309
O O12 0.395533 0.364517 0.742392
O O13 0.985835 0.315425 0.700818
O O14 0.941817 0.585584 0.425351
O O15 0.000000 0.500000 0.500000
O O16 0.508690 0.117545 0.821785
#
# Coordination Sequence:
#
# PCOD8146076 Si02
#       8
#     8   8   8   8   4   8   8   8
#     4  11  22  40  66  95 122 165 216 258 322 372
#     4  10  22  40  66  91 125 169 218 258 312 387
#     4  11  22  43  62  92 129 165 210 264 320 382
#     4  10  24  37  62  95 127 161 213 261 315 375
#     4  12  24  40  60 100 130 160 214 270 320 368
#     4  11  24  43  64  90 127 170 211 263 325 374
#     4  11  22  39  66  89 128 169 209 259 321 383
#     4  12  22  40  67  90 127 170 210 265 315 384
#
# _framework density 19.485468999999998
#
# number of rings (size 3 to 8) (size 9 to 14) (size 15 to 20)
#    0.000    1.067    5.333    0.800    3.733    1.600 
#    4.800    0.667    0.000    0.000    0.000    0.000 
#    0.000    0.000    0.000    0.000    0.000    0.000 
#
# Total GULP energy -372110.527857 kJ/mol
# GULP energy per Si atom -12403.684262 kJ/mol
# Density = 1.944112 g / cm^3
# Si number density = 19.485469 Si / 1000 Ang^3
#
#
#
# Elastic Constant Matrix: (Units=GPa)
#
#
# Indices 1 2 3 4 5 6 
#
# 1 85.9178 31.5776 19.9084 -0.0001 8.3917 -0.0006
# 2 31.5776 111.6986 38.2355 -0.0002 5.5199 -0.0010
# 3 19.9084 38.2355 106.1379 0.0000 18.0388 -0.0002
# 4 -0.0001 -0.0002 0.0000 22.2809 0.0000 -5.2234
# 5 8.3917 5.5199 18.0388 0.0000 32.2190 -0.0002
# 6 -0.0006 -0.0010 -0.0002 -5.2234 -0.0002 31.9526
#
#
#
# Elastic Compliance Matrix: (Units=1/GPa)
#
#
# Indices 1 2 3 4 5 6 
#
# 1 0.013306 -0.003340 -0.000885 0.000000 -0.002398 0.000000
# 2 -0.003340 0.011054 -0.003516 0.000000 0.000945 0.000000
# 3 -0.000885 -0.003516 0.011839 0.000000 -0.005796 0.000000
# 4 0.000000 0.000000 0.000000 0.046670 0.000000 0.007629
# 5 -0.002398 0.000945 -0.005796 0.000000 0.034745 0.000000
# 6 0.000000 0.000000 0.000000 0.007629 0.000000 0.032544
#
#
# Mechanical properties :
#
#
# Convention : Reuss Voigt Hill
#
# Bulk Modulus (GPa) = 48.27058 53.68860 50.97959
# Shear Modulus (GPa) = 28.97774 31.55935 30.26855
#
# Velocity S-wave (km/s) = 3.86054 4.02883 3.94558
# Velocity P-wave (km/s) = 6.68566 7.01819 6.85394
#
# Compressibility (1/GPa) = 0.02071655
#
# Stress axis : x y z
#
# Youngs Moduli (GPa) = 75.15444 90.46606 84.46378
#
# Poissons Ratio (x) = 0.30218 0.07475
# Poissons Ratio (y) = 0.25103 0.29699
# Poissons Ratio (z) = 0.06651 0.31809
#
# Static dielectric constant tensor:
#      x y z
#    x 3.449650 0.000000 0.045840 
#    y 0.000000 3.655760 0.000000 
#    z 0.045840 0.000000 3.751910 
# 
# 
# High freq. dielectric constant tensor:
#      x y z
#    x 1.752260 0.000000 -0.000220 
#    y 0.000000 1.765170 0.000000 
#    z -0.000220 0.000000 1.768650 
# 
# From -- ./inp_files/247398.got.cif
#   From: 2010.06.25/outbox.cif.g09.slc.cpg/sg15_124_cif.got.tgz:247398.got - 2010.06.28 07:06:18.
