data_PCOD8146295
_publ_section_title
;
Structure prediction by ZEFSAII (Michael W. Deem and Ramdas Pophale) SiO2 
 PCOD8146295
Probable space group: C 2/C
;
_chemical_formula_sum "Si O2"
_cell_formula_units_Z 44
_cell_length_a 20.397269
_cell_length_b 8.696225
_cell_length_c 12.304358
_cell_angle_alpha 90.000000
_cell_angle_beta 120.064500
_cell_angle_gamma 90.000000
_cell_volume 1888.903395
_symmetry_space_group_name_H-M "C 2/C"
_symmetry_group_IT_number 15
_symmetry_cell_setting 'monoclinic'
loop_
_space_group_symop_operation_xyz
x,y,z
-x,y,1/2-z
-x,-y,-z
x,-y,1/2+z
1/2+x,1/2+y,z
1/2-x,1/2+y,1/2-z
1/2-x,1/2-y,-z
1/2+x,1/2-y,1/2+z
loop_
_atom_site_type_symbol
_atom_site_label
_atom_site_fract_x
_atom_site_fract_y
_atom_site_fract_z
Si Si1 0.126993 0.754166 0.873350
Si Si2 0.185544 0.699500 0.265803
Si Si3 0.573542 0.243917 0.362744
Si Si4 0.000000 0.030950 0.250000
Si Si5 0.080912 0.476413 0.514864
Si Si6 0.241236 0.092199 0.628276
O O1 0.066619 0.860378 0.757775
O O2 0.174209 0.654587 0.827183
O O3 0.079668 0.646050 0.915743
O O4 0.183810 0.864148 0.986051
O O5 0.137342 0.767604 0.324260
O O6 0.139623 0.579831 0.152855
O O7 0.215292 0.844381 0.223301
O O8 0.255220 0.593988 0.366527
O O9 0.500000 0.154479 0.250000
O O10 0.540570 0.414104 0.371652
O O11 0.606590 0.143454 0.489103
O O12 0.000000 0.500000 0.500000
#
# Coordination Sequence:
#
# PCOD8146295 Si02
#       6
#     8   8   8   4   8   8
#     4  10  23  43  64  95 129 171 215 266 320 386
#     4  11  23  41  65  93 129 174 214 264 326 383
#     4  10  22  41  60  97 134 157 220 273 310 386
#     4  10  24  38  68  90 130 168 206 272 330 356
#     4  11  21  39  68  95 122 167 218 262 324 382
#     4  10  24  42  64  93 131 171 217 258 323 394
#
# _framework density 23.293938000000001
#
# number of rings (size 3 to 8) (size 9 to 14) (size 15 to 20)
#    0.545    1.091    3.636    0.000    6.364    1.455 
#    0.000   10.000    0.000    0.000    0.000    0.000 
#    0.000    0.000    0.000    0.000    0.000    0.000 
#
# Total GULP energy -272601.833536 kJ/mol
# GULP energy per Si atom -12390.992433 kJ/mol
# Density = 2.324092 g / cm^3
# Si number density = 23.293938 Si / 1000 Ang^3
#
#
#
# Elastic Constant Matrix: (Units=GPa)
#
#
# Indices 1 2 3 4 5 6 
#
# 1 140.6717 39.5610 26.6350 0.0000 -21.9694 0.0000
# 2 39.5610 87.4309 15.3273 0.0000 6.2589 0.0000
# 3 26.6350 15.3273 29.3054 0.0000 -16.7658 0.0000
# 4 0.0000 0.0000 0.0000 34.3588 0.0000 8.7896
# 5 -21.9694 6.2589 -16.7658 0.0000 30.0296 0.0000
# 6 0.0000 0.0000 0.0000 8.7896 0.0000 38.7741
#
#
#
# Elastic Compliance Matrix: (Units=1/GPa)
#
#
# Indices 1 2 3 4 5 6 
#
# 1 0.009944 -0.004448 -0.002966 0.000000 0.006545 0.000000
# 2 -0.004448 0.016617 -0.012477 0.000000 -0.013683 0.000000
# 3 -0.002966 -0.012477 0.064049 0.000000 0.036189 0.000000
# 4 0.000000 0.000000 0.000000 0.030896 0.000000 -0.007004
# 5 0.006545 -0.013683 0.036189 0.000000 0.061146 0.000000
# 6 0.000000 0.000000 0.000000 -0.007004 0.000000 0.027378
#
#
# Mechanical properties :
#
#
# Convention : Reuss Voigt Hill
#
# Bulk Modulus (GPa) = 19.67429 46.71718 33.19574
# Shear Modulus (GPa) = 18.74383 32.35815 25.55099
#
# Velocity S-wave (km/s) = 2.83974 3.73114 3.31553
# Velocity P-wave (km/s) = 4.38367 6.21779 5.37947
#
# Compressibility (1/GPa) = 0.05082775
#
# Stress axis : x y z
#
# Youngs Moduli (GPa) = 100.56819 60.17950 15.61299
#
# Poissons Ratio (x) = 0.26767 0.04632
# Poissons Ratio (y) = 0.44731 0.19480
# Poissons Ratio (z) = 0.29833 0.75084
#
# Static dielectric constant tensor:
#      x y z
#    x 4.313280 0.000000 0.150610 
#    y 0.000000 4.262460 0.000000 
#    z 0.150610 0.000000 3.936430 
# 
# 
# High freq. dielectric constant tensor:
#      x y z
#    x 1.929350 0.000000 0.010910 
#    y 0.000000 1.927400 0.000000 
#    z 0.010910 0.000000 1.887150 
# 
# From -- ./inp_files/110192.got.cif
#   From: 2010.06.25/outbox.cif.g09.slc.cpg/sg15_56_cif.got.tgz:110192.got - 2010.06.28 07:06:18.
