data_PCOD8146840
_publ_section_title
;
Structure prediction by ZEFSAII (Michael W. Deem and Ramdas Pophale) SiO2 
 PCOD8146840
Probable space group: C 2/C
;
_chemical_formula_sum "Si O2"
_cell_formula_units_Z 56
_cell_length_a 18.803544
_cell_length_b 19.119501
_cell_length_c 9.744781
_cell_angle_alpha 90.000000
_cell_angle_beta 130.003700
_cell_angle_gamma 90.000000
_cell_volume 2683.606157
_symmetry_space_group_name_H-M "C 2/C"
_symmetry_group_IT_number 15
_symmetry_cell_setting 'monoclinic'
loop_
_space_group_symop_operation_xyz
x,y,z
-x,y,1/2-z
-x,-y,-z
x,-y,1/2+z
1/2+x,1/2+y,z
1/2-x,1/2+y,1/2-z
1/2-x,1/2-y,-z
1/2+x,1/2-y,1/2+z
loop_
_atom_site_type_symbol
_atom_site_label
_atom_site_fract_x
_atom_site_fract_y
_atom_site_fract_z
Si Si1 0.270127 0.347299 0.526431
Si Si2 0.669539 0.880996 0.965212
Si Si3 0.060097 0.502221 0.209778
Si Si4 0.080589 0.755398 0.455877
Si Si5 0.252019 0.463109 0.317712
Si Si6 0.795999 0.882250 0.867953
Si Si7 0.589470 0.227312 0.769446
O O1 0.311166 0.410982 0.487029
O O2 0.260591 0.358548 0.676139
O O3 0.344732 0.287304 0.584309
O O4 0.163312 0.335692 0.343129
O O5 0.576006 0.921891 0.803433
O O6 0.654718 0.806367 0.020169
O O7 0.720512 0.864185 0.887199
O O8 0.730175 0.931135 0.141082
O O9 0.159888 0.473195 0.295028
O O10 0.000000 0.458747 0.250000
O O11 0.000000 0.500000 0.000000
O O12 0.115919 0.835119 0.481131
O O13 0.046021 0.747711 0.568900
O O14 0.000000 0.742574 0.250000
O O15 0.312653 0.534043 0.379963
O O16 0.500000 0.209131 0.750000
#
# Coordination Sequence:
#
# PCOD8146840 Si02
#       7
#     8   8   8   8   8   8   8
#     4  10  22  42  65  94 125 162 219 263 313 388
#     4  11  22  38  60  90 122 167 207 260 321 376
#     4  11  22  36  53  85 128 163 206 258 318 387
#     4  11  24  41  61  94 128 163 214 265 313 382
#     4  11  22  40  62  88 125 167 209 261 318 382
#     4  10  23  40  63  90 124 171 210 256 321 376
#     4  10  23  43  66  93 125 167 212 265 322 377
#
# _framework density 20.867443999999999
#
# number of rings (size 3 to 8) (size 9 to 14) (size 15 to 20)
#    0.000    1.429    2.857    2.571    4.000    1.714 
#    0.000    0.714    0.000    4.286    0.000    0.000 
#    0.000    0.000    0.000    0.000    0.000    0.000 
#
# Total GULP energy -346866.186460 kJ/mol
# GULP energy per Si atom -12388.078088 kJ/mol
# Density = 2.081995 g / cm^3
# Si number density = 20.867444 Si / 1000 Ang^3
#
#
#
# Elastic Constant Matrix: (Units=GPa)
#
#
# Indices 1 2 3 4 5 6 
#
# 1 49.5319 15.1722 18.7197 0.0000 -8.0924 0.0000
# 2 15.1722 130.1132 25.9265 0.0000 -0.8926 0.0000
# 3 18.7197 25.9265 85.3649 0.0000 -11.9388 0.0000
# 4 0.0000 0.0000 0.0000 30.1989 0.0000 -6.2374
# 5 -8.0924 -0.8926 -11.9388 0.0000 24.2536 0.0000
# 6 0.0000 0.0000 0.0000 -6.2374 0.0000 21.1816
#
#
#
# Elastic Compliance Matrix: (Units=1/GPa)
#
#
# Indices 1 2 3 4 5 6 
#
# 1 0.023119 -0.001925 -0.003669 0.000000 0.005837 0.000000
# 2 -0.001925 0.008363 -0.002325 0.000000 -0.001479 0.000000
# 3 -0.003669 -0.002325 0.014006 0.000000 0.005585 0.000000
# 4 0.000000 0.000000 0.000000 0.035258 0.000000 0.010383
# 5 0.005837 -0.001479 0.005585 0.000000 0.045873 0.000000
# 6 0.000000 0.000000 0.000000 0.010383 0.000000 0.050268
#
#
# Mechanical properties :
#
#
# Convention : Reuss Voigt Hill
#
# Bulk Modulus (GPa) = 33.72525 42.73855 38.23190
# Shear Modulus (GPa) = 24.67820 28.80626 26.74223
#
# Velocity S-wave (km/s) = 3.44265 3.71946 3.58373
# Velocity P-wave (km/s) = 5.65678 6.24270 5.95695
#
# Compressibility (1/GPa) = 0.02965137
#
# Stress axis : x y z
#
# Youngs Moduli (GPa) = 43.25496 119.57234 71.39761
#
# Poissons Ratio (x) = 0.23014 0.26194
# Poissons Ratio (y) = 0.08325 0.16598
# Poissons Ratio (z) = 0.15869 0.27797
#
# Static dielectric constant tensor:
#      x y z
#    x 3.407910 0.000000 -0.296510 
#    y 0.000000 4.239730 0.000000 
#    z -0.296510 0.000000 3.594340 
# 
# 
# High freq. dielectric constant tensor:
#      x y z
#    x 1.794540 0.000000 -0.031020 
#    y 0.000000 1.826250 0.000000 
#    z -0.031020 0.000000 1.821640 
# 
# From -- ./inp_files/50315.got.cif
#   From: 2010.06.25/outbox.cif.g09.slc.cpg/sg15_26_cif.got.tgz:50315.got - 2010.06.28 07:06:18.
