data_PCOD8146908
_publ_section_title
;
Structure prediction by ZEFSAII (Michael W. Deem and Ramdas Pophale) SiO2 
 PCOD8146908
Probable space group: C 2/C
;
_chemical_formula_sum "Si O2"
_cell_formula_units_Z 44
_cell_length_a 14.500341
_cell_length_b 16.879690
_cell_length_c 9.721522
_cell_angle_alpha 90.000000
_cell_angle_beta 114.736701
_cell_angle_gamma 90.000000
_cell_volume 2161.114243
_symmetry_space_group_name_H-M "C 2/C"
_symmetry_group_IT_number 15
_symmetry_cell_setting 'monoclinic'
loop_
_space_group_symop_operation_xyz
x,y,z
-x,y,1/2-z
-x,-y,-z
x,-y,1/2+z
1/2+x,1/2+y,z
1/2-x,1/2+y,1/2-z
1/2-x,1/2-y,-z
1/2+x,1/2-y,1/2+z
loop_
_atom_site_type_symbol
_atom_site_label
_atom_site_fract_x
_atom_site_fract_y
_atom_site_fract_z
Si Si1 0.349187 0.336758 0.368412
Si Si2 0.586945 0.829197 0.491838
Si Si3 0.127863 0.629253 0.708330
Si Si4 0.832171 0.993876 0.530127
Si Si5 0.000000 0.900404 0.250000
Si Si6 0.698327 0.962825 0.706968
O O1 0.370306 0.258826 0.470191
O O2 0.235790 0.332700 0.232603
O O3 0.359204 0.411265 0.475145
O O4 0.428641 0.342890 0.294197
O O5 0.464242 0.825516 0.424109
O O6 0.620380 0.866953 0.368772
O O7 0.633395 0.883730 0.641025
O O8 0.121967 0.537442 0.660549
O O9 0.786530 0.976764 0.650952
O O10 0.752799 0.044076 0.388890
O O11 0.934419 0.044169 0.608715
#
# Coordination Sequence:
#
# PCOD8146908 Si02
#       6
#     8   8   8   8   4   8
#     4  11  24  43  66  98 134 167 223 275 326 383
#     4  11  23  42  69  97 131 178 214 273 335 384
#     4  10  22  42  66  95 132 172 225 263 318 405
#     4  11  23  42  72  94 134 174 223 266 325 395
#     4  12  24  46  64 100 130 178 222 272 324 392
#     4  11  21  43  68  99 129 176 219 272 319 398
#
# _framework density 20.359867000000001
#
# number of rings (size 3 to 8) (size 9 to 14) (size 15 to 20)
#    0.000    1.091    7.273    1.636    0.000    2.909 
#    3.273    1.818    0.000    0.000    0.000    0.000 
#    0.000    0.000    0.000    0.000    0.000    0.000 
#
# Total GULP energy -272874.110428 kJ/mol
# GULP energy per Si atom -12403.368656 kJ/mol
# Density = 2.031353 g / cm^3
# Si number density = 20.359867 Si / 1000 Ang^3
#
#
#
# Elastic Constant Matrix: (Units=GPa)
#
#
# Indices 1 2 3 4 5 6 
#
# 1 114.3110 27.5303 16.8911 0.0000 8.1826 0.0000
# 2 27.5303 108.9410 34.3112 0.0000 10.2290 0.0000
# 3 16.8911 34.3112 71.4884 0.0000 19.9365 0.0000
# 4 0.0000 0.0000 0.0000 23.3670 0.0000 4.6173
# 5 8.1826 10.2290 19.9365 0.0000 42.7930 0.0000
# 6 0.0000 0.0000 0.0000 4.6173 0.0000 21.8689
#
#
#
# Elastic Compliance Matrix: (Units=1/GPa)
#
#
# Indices 1 2 3 4 5 6 
#
# 1 0.009439 -0.001977 -0.001046 0.000000 -0.000845 0.000000
# 2 -0.001977 0.011229 -0.004918 0.000000 -0.000015 0.000000
# 3 -0.001046 -0.004918 0.018633 0.000000 -0.007305 0.000000
# 4 0.000000 0.000000 0.000000 0.044659 0.000000 -0.009429
# 5 -0.000845 -0.000015 -0.007305 0.000000 0.026937 0.000000
# 6 0.000000 0.000000 0.000000 -0.009429 0.000000 0.047718
#
#
# Mechanical properties :
#
#
# Convention : Reuss Voigt Hill
#
# Bulk Modulus (GPa) = 42.69858 50.24506 46.47182
# Shear Modulus (GPa) = 27.42683 32.00631 29.71657
#
# Velocity S-wave (km/s) = 3.67427 3.96918 3.82457
# Velocity P-wave (km/s) = 6.24643 6.76298 6.50983
#
# Compressibility (1/GPa) = 0.02341998
#
# Stress axis : x y z
#
# Youngs Moduli (GPa) = 105.94180 89.05344 53.66745
#
# Poissons Ratio (x) = 0.17602 0.05613
# Poissons Ratio (y) = 0.20940 0.26396
# Poissons Ratio (z) = 0.11080 0.43800
#
# Static dielectric constant tensor:
#      x y z
#    x 3.879060 0.000000 0.152760 
#    y 0.000000 3.516530 0.000000 
#    z 0.152760 0.000000 3.760230 
# 
# 
# High freq. dielectric constant tensor:
#      x y z
#    x 1.807250 0.000000 0.010050 
#    y 0.000000 1.784240 0.000000 
#    z 0.010050 0.000000 1.792410 
# 
# From -- ./inp_files/39757.got.cif
#   From: 2010.06.25/outbox.cif.g09.slc.cpg/sg15_20_cif.got.tgz:39757.got - 2010.06.28 07:06:18.
