data_PCOD8146133
_publ_section_title
;
Structure prediction by ZEFSAII (Michael W. Deem and Ramdas Pophale) SiO2 
 PCOD8146133
Probable space group: C 2/C
;
_chemical_formula_sum "Si O2"
_cell_formula_units_Z 56
_cell_length_a 11.707540
_cell_length_b 14.250033
_cell_length_c 18.000783
_cell_angle_alpha 90.000000
_cell_angle_beta 110.829434
_cell_angle_gamma 90.000000
_cell_volume 2806.846959
_symmetry_space_group_name_H-M "C 2/C"
_symmetry_group_IT_number 15
_symmetry_cell_setting 'monoclinic'
loop_
_space_group_symop_operation_xyz
x,y,z
-x,y,1/2-z
-x,-y,-z
x,-y,1/2+z
1/2+x,1/2+y,z
1/2-x,1/2+y,1/2-z
1/2-x,1/2-y,-z
1/2+x,1/2-y,1/2+z
loop_
_atom_site_type_symbol
_atom_site_label
_atom_site_fract_x
_atom_site_fract_y
_atom_site_fract_z
Si Si1 0.291535 0.043018 0.511873
Si Si2 0.555700 0.346700 0.917520
Si Si3 0.423146 0.194157 0.455846
Si Si4 0.288632 0.608768 0.324069
Si Si5 0.677992 0.836181 0.949575
Si Si6 0.307415 0.266491 0.685574
Si Si7 0.367186 0.061952 0.696057
O O1 0.154593 0.083734 0.476138
O O2 0.375086 0.091156 0.468364
O O3 0.354201 0.066096 0.604520
O O4 0.284340 0.931174 0.497732
O O5 0.427502 0.401309 0.884638
O O6 0.589798 0.314868 0.842048
O O7 0.539354 0.253733 0.963343
O O8 0.534273 0.181394 0.425231
O O9 0.315279 0.249809 0.389998
O O10 0.205358 0.655161 0.368739
O O11 0.278037 0.669938 0.248657
O O12 0.236519 0.505670 0.293463
O O13 0.750000 0.750000 0.000000
O O14 0.351779 0.165997 0.725893
O O15 0.500000 0.023057 0.750000
#
# Coordination Sequence:
#
# PCOD8146133 Si02
#       7
#     8   8   8   8   8   8   8
#     4  10  22  40  67  95 118 164 214 268 301 366
#     4  11  20  44  70  93 119 159 225 261 310 362
#     4  11  21  41  69  95 122 161 217 259 312 375
#     4  11  26  40  64  92 132 168 201 261 322 374
#     4  11  24  40  60  96 131 169 200 256 326 377
#     4  11  23  43  67  92 123 167 211 266 306 368
#     4  11  23  40  65  93 126 166 210 251 318 370
#
# _framework density 19.951212999999999
#
# number of rings (size 3 to 8) (size 9 to 14) (size 15 to 20)
#    0.000    1.143    4.286    2.571    4.000    3.429 
#    5.143    0.000    3.143    0.000    0.000    0.000 
#    0.000    0.000    0.000    0.000    0.000    0.000 
#
# Total GULP energy -347326.962451 kJ/mol
# GULP energy per Si atom -12404.534373 kJ/mol
# Density = 1.990580 g / cm^3
# Si number density = 19.951213 Si / 1000 Ang^3
#
#
#
# Elastic Constant Matrix: (Units=GPa)
#
#
# Indices 1 2 3 4 5 6 
#
# 1 154.3799 48.4295 46.2914 0.0000 1.4395 0.0000
# 2 48.4295 122.1394 31.4853 0.0000 6.1742 0.0000
# 3 46.2914 31.4853 84.0789 0.0000 0.6514 0.0000
# 4 0.0000 0.0000 0.0000 31.2084 0.0000 0.1722
# 5 1.4395 6.1742 0.6514 0.0000 37.8597 0.0000
# 6 0.0000 0.0000 0.0000 0.1722 0.0000 28.2814
#
#
#
# Elastic Compliance Matrix: (Units=1/GPa)
#
#
# Indices 1 2 3 4 5 6 
#
# 1 0.008325 -0.002353 -0.003703 0.000000 0.000131 0.000000
# 2 -0.002353 0.009804 -0.002365 0.000000 -0.001469 0.000000
# 3 -0.003703 -0.002365 0.014816 0.000000 0.000272 0.000000
# 4 0.000000 0.000000 0.000000 0.032044 0.000000 -0.000195
# 5 0.000131 -0.001469 0.000272 0.000000 0.026643 0.000000
# 6 0.000000 0.000000 0.000000 -0.000195 0.000000 0.035360
#
#
# Mechanical properties :
#
#
# Convention : Reuss Voigt Hill
#
# Bulk Modulus (GPa) = 62.09910 68.11228 65.10569
# Shear Modulus (GPa) = 33.51177 35.09603 34.30390
#
# Velocity S-wave (km/s) = 4.10284 4.19870 4.15105
# Velocity P-wave (km/s) = 7.32376 7.59730 7.46179
#
# Compressibility (1/GPa) = 0.01610329
#
# Stress axis : x y z
#
# Youngs Moduli (GPa) = 120.12201 101.99825 67.49495
#
# Poissons Ratio (x) = 0.23999 0.24996
# Poissons Ratio (y) = 0.28263 0.15960
# Poissons Ratio (z) = 0.44486 0.24118
#
# Static dielectric constant tensor:
#      x y z
#    x 3.772730 0.000000 0.069770 
#    y 0.000000 3.787600 0.000000 
#    z 0.069770 0.000000 3.540690 
# 
# 
# High freq. dielectric constant tensor:
#      x y z
#    x 1.787200 0.000000 0.007060 
#    y 0.000000 1.780680 0.000000 
#    z 0.007060 0.000000 1.773880 
# 
# From -- ./inp_files/197928.got.cif
#   From: 2010.06.25/outbox.cif.g09.slc.cpg/sg15_99_cif.got.tgz:197928.got - 2010.06.28 07:06:18.
