data_PCOD8146922
_publ_section_title
;
Structure prediction by ZEFSAII (Michael W. Deem and Ramdas Pophale) SiO2 
 PCOD8146922
Probable space group: C 2/C
;
_chemical_formula_sum "Si O2"
_cell_formula_units_Z 48
_cell_length_a 15.186635
_cell_length_b 29.440463
_cell_length_c 9.406127
_cell_angle_alpha 90.000000
_cell_angle_beta 147.546312
_cell_angle_gamma 90.000000
_cell_volume 2256.742670
_symmetry_space_group_name_H-M "C 2/C"
_symmetry_group_IT_number 15
_symmetry_cell_setting 'monoclinic'
loop_
_space_group_symop_operation_xyz
x,y,z
-x,y,1/2-z
-x,-y,-z
x,-y,1/2+z
1/2+x,1/2+y,z
1/2-x,1/2+y,1/2-z
1/2-x,1/2-y,-z
1/2+x,1/2-y,1/2+z
loop_
_atom_site_type_symbol
_atom_site_label
_atom_site_fract_x
_atom_site_fract_y
_atom_site_fract_z
Si Si1 0.186472 0.964251 0.967959
Si Si2 0.179252 0.464900 0.046027
Si Si3 0.387962 0.713614 0.728145
Si Si4 0.663363 0.860895 0.050546
Si Si5 0.332988 0.870109 0.108750
Si Si6 0.618986 0.287306 0.784198
O O1 0.000000 0.952540 0.750000
O O2 0.189077 0.007282 0.866840
O O3 0.293899 0.976604 0.252595
O O4 0.260946 0.920368 0.991173
O O5 0.205494 0.411569 0.056106
O O6 0.000000 0.480729 0.750000
O O7 0.500000 0.698034 0.750000
O O8 0.250000 0.750000 0.500000
O O9 0.312253 0.669733 0.700681
O O10 0.515620 0.734549 0.014579
O O11 0.500000 0.843099 0.750000
O O12 0.639833 0.858078 0.188067
O O13 0.500000 0.866747 0.250000
O O14 0.209135 0.834364 0.867345
O O15 0.500000 0.298646 0.750000
O O16 0.750000 0.250000 0.000000
#
# Coordination Sequence:
#
# PCOD8146922 Si02
#       6
#     8   8   8   8   8   8
#     4  11  23  41  68 100 137 174 224 281 331 392
#     4  10  22  42  66  97 134 180 222 270 332 399
#     4  12  27  45  70  99 136 175 217 275 338 398
#     4  10  24  44  68  99 138 175 225 276 331 398
#     4  11  25  44  70  98 134 181 228 277 333 396
#     4  12  25  45  70  99 133 172 225 274 328 400
#
# _framework density 21.269593
#
# number of rings (size 3 to 8) (size 9 to 14) (size 15 to 20)
#    0.000    1.000    1.667    4.000    7.000    3.333 
#    0.000    0.000    0.000    0.000    0.000    0.000 
#    0.000    0.000    0.000    0.000    0.000    0.000 
#
# Total GULP energy -297705.519805 kJ/mol
# GULP energy per Si atom -12404.396659 kJ/mol
# Density = 2.122118 g / cm^3
# Si number density = 21.269593 Si / 1000 Ang^3
#
#
#
# Elastic Constant Matrix: (Units=GPa)
#
#
# Indices 1 2 3 4 5 6 
#
# 1 161.3955 65.6916 44.3142 0.0000 17.6423 0.0000
# 2 65.6916 108.8456 51.0328 0.0000 5.5544 0.0000
# 3 44.3142 51.0328 141.0590 0.0000 -0.3808 0.0000
# 4 0.0000 0.0000 0.0000 -15.1237 0.0000 -87.2081
# 5 17.6423 5.5544 -0.3808 0.0000 35.2672 0.0000
# 6 0.0000 0.0000 0.0000 -87.2081 0.0000 -136.1949
#
#
#
# Elastic Compliance Matrix: (Units=1/GPa)
#
#
# Indices 1 2 3 4 5 6 
#
# 1 0.008768 -0.004586 -0.001105 0.000000 -0.003676 0.000000
# 2 -0.004586 0.013576 -0.003471 0.000000 0.000118 0.000000
# 3 -0.001105 -0.003471 0.008695 0.000000 0.001193 0.000000
# 4 0.000000 0.000000 0.000000 0.024560 0.000000 -0.015726
# 5 -0.003676 0.000118 0.001193 0.000000 0.030188 0.000000
# 6 0.000000 0.000000 0.000000 -0.015726 0.000000 0.002727
#
#
# Mechanical properties :
#
#
# Convention : Reuss Voigt Hill
#
# Bulk Modulus (GPa) = 78.64267 81.48636 80.06451
# Shear Modulus (GPa) = 45.01414 -6.52618 19.24398
#
# Velocity S-wave (km/s) = 4.60538 -1.75356 3.01119
# Velocity P-wave (km/s) = 8.08294 5.85614 7.05791
#
# Compressibility (1/GPa) = 0.01271574
#
# Stress axis : x y z
#
# Youngs Moduli (GPa) = 114.05422 73.65824 115.00442
#
# Poissons Ratio (x) = 0.33778 0.12711
# Poissons Ratio (y) = 0.52303 0.39914
# Poissons Ratio (z) = 0.12606 0.25564
#
# Static dielectric constant tensor:
#      x y z
#    x 4.125650 0.000000 -0.417890 
#    y 0.000000 3.921750 0.000000 
#    z -0.417890 0.000000 4.522280 
# 
# 
# High freq. dielectric constant tensor:
#      x y z
#    x 1.836670 0.000000 0.003090 
#    y 0.000000 1.840070 0.000000 
#    z 0.003090 0.000000 1.850800 
# 
# From -- ./inp_files/44644.got.cif
#   From: 2010.06.25/outbox.cif.g09.slc.cpg/sg15_23_cif.got.tgz:44644.got - 2010.06.28 07:06:18.
