data_PCOD8146811
_publ_section_title
;
Structure prediction by ZEFSAII (Michael W. Deem and Ramdas Pophale) SiO2 
 PCOD8146811
Probable space group: C 2/C
;
_chemical_formula_sum "Si O2"
_cell_formula_units_Z 44
_cell_length_a 11.650428
_cell_length_b 12.639267
_cell_length_c 13.539278
_cell_angle_alpha 90.000000
_cell_angle_beta 90.712477
_cell_angle_gamma 90.000000
_cell_volume 1993.543404
_symmetry_space_group_name_H-M "C 2/C"
_symmetry_group_IT_number 15
_symmetry_cell_setting 'monoclinic'
loop_
_space_group_symop_operation_xyz
x,y,z
-x,y,1/2-z
-x,-y,-z
x,-y,1/2+z
1/2+x,1/2+y,z
1/2-x,1/2+y,1/2-z
1/2-x,1/2-y,-z
1/2+x,1/2-y,1/2+z
loop_
_atom_site_type_symbol
_atom_site_label
_atom_site_fract_x
_atom_site_fract_y
_atom_site_fract_z
Si Si1 0.558001 0.898268 0.549499
Si Si2 0.000000 0.704579 0.250000
Si Si3 0.479503 0.681415 0.473214
Si Si4 0.815095 0.091367 0.117386
Si Si5 0.119896 0.248909 0.216442
Si Si6 0.835045 0.137164 0.664920
O O1 0.504825 0.872416 0.656392
O O2 0.531802 0.799644 0.478585
O O3 0.693931 0.917469 0.560709
O O4 0.500000 0.000000 0.500000
O O5 0.107148 0.786404 0.253126
O O6 0.589164 0.602781 0.468434
O O7 0.409273 0.665761 0.370869
O O8 0.392673 0.659267 0.560235
O O9 0.817711 0.189549 0.192601
O O10 0.844026 0.987777 0.183745
O O11 0.199887 0.337756 0.168110
O O12 0.000000 0.302221 0.250000
#
# Coordination Sequence:
#
# PCOD8146811 Si02
#       6
#     8   4   8   8   8   8
#     4  11  23  46  68 101 144 183 233 284 354 419
#     4  10  24  44  68 102 136 184 232 284 348 422
#     4  10  23  42  68  98 140 174 235 286 345 418
#     4  11  23  43  67 106 134 181 235 285 356 408
#     4  10  22  42  64  99 141 175 234 286 342 422
#     4  11  22  43  68  95 141 181 228 288 351 409
#
# _framework density 22.071252000000001
#
# number of rings (size 3 to 8) (size 9 to 14) (size 15 to 20)
#    0.000    1.455    1.818    2.727    3.818    1.455 
#   13.091    0.000    0.000    0.000    0.000    0.000 
#    0.000    0.000    0.000    0.000    0.000    0.000 
#
# Total GULP energy -272686.024831 kJ/mol
# GULP energy per Si atom -12394.819311 kJ/mol
# Density = 2.202102 g / cm^3
# Si number density = 22.071252 Si / 1000 Ang^3
#
#
#
# Elastic Constant Matrix: (Units=GPa)
#
#
# Indices 1 2 3 4 5 6 
#
# 1 168.3750 65.6059 50.1753 0.0000 -13.1399 0.0000
# 2 65.6059 111.9763 26.9665 0.0000 -11.9731 0.0000
# 3 50.1753 26.9665 93.4625 0.0000 -2.4365 0.0000
# 4 0.0000 0.0000 0.0000 26.5449 0.0000 0.6294
# 5 -13.1399 -11.9731 -2.4365 0.0000 33.9928 0.0000
# 6 0.0000 0.0000 0.0000 0.6294 0.0000 33.8226
#
#
#
# Elastic Compliance Matrix: (Units=1/GPa)
#
#
# Indices 1 2 3 4 5 6 
#
# 1 0.008685 -0.004081 -0.003442 0.000000 0.001673 0.000000
# 2 -0.004081 0.011872 -0.001169 0.000000 0.002520 0.000000
# 3 -0.003442 -0.001169 0.012863 0.000000 -0.000820 0.000000
# 4 0.000000 0.000000 0.000000 0.037689 0.000000 -0.000701
# 5 0.001673 0.002520 -0.000820 0.000000 0.030894 0.000000
# 6 0.000000 0.000000 0.000000 -0.000701 0.000000 0.029579
#
#
# Mechanical properties :
#
#
# Convention : Reuss Voigt Hill
#
# Bulk Modulus (GPa) = 62.35294 73.25656 67.80475
# Shear Modulus (GPa) = 32.40198 34.27647 33.33923
#
# Velocity S-wave (km/s) = 3.83569 3.94508 3.89077
# Velocity P-wave (km/s) = 6.92306 7.34946 7.13944
#
# Compressibility (1/GPa) = 0.01603774
#
# Stress axis : x y z
#
# Youngs Moduli (GPa) = 115.13548 84.22847 77.74217
#
# Poissons Ratio (x) = 0.34373 0.26756
# Poissons Ratio (y) = 0.46986 0.09088
# Poissons Ratio (z) = 0.39626 0.09846
#
# Static dielectric constant tensor:
#      x y z
#    x 4.213040 0.000000 0.011380 
#    y 0.000000 3.903550 0.000000 
#    z 0.011380 0.000000 3.903550 
# 
# 
# High freq. dielectric constant tensor:
#      x y z
#    x 1.885090 0.000000 -0.002710 
#    y 0.000000 1.857740 0.000000 
#    z -0.002710 0.000000 1.865670 
# 
# From -- ./inp_files/142330.got.cif
#   From: 2010.06.25/outbox.cif.g09.slc.cpg/sg15_72_cif.got.tgz:142330.got - 2010.06.28 07:06:18.
