data_PCOD8146006
_publ_section_title
;
Structure prediction by ZEFSAII (Michael W. Deem and Ramdas Pophale) SiO2 
 PCOD8146006
Probable space group: C 2/C
;
_chemical_formula_sum "Si O2"
_cell_formula_units_Z 56
_cell_length_a 18.620540
_cell_length_b 8.394402
_cell_length_c 23.120556
_cell_angle_alpha 90.000000
_cell_angle_beta 44.996956
_cell_angle_gamma 90.000000
_cell_volume 2555.302009
_symmetry_space_group_name_H-M "C 2/C"
_symmetry_group_IT_number 15
_symmetry_cell_setting 'monoclinic'
loop_
_space_group_symop_operation_xyz
x,y,z
-x,y,1/2-z
-x,-y,-z
x,-y,1/2+z
1/2+x,1/2+y,z
1/2-x,1/2+y,1/2-z
1/2-x,1/2-y,-z
1/2+x,1/2-y,1/2+z
loop_
_atom_site_type_symbol
_atom_site_label
_atom_site_fract_x
_atom_site_fract_y
_atom_site_fract_z
Si Si1 0.184649 0.394393 0.919273
Si Si2 0.589199 0.107108 0.059340
Si Si3 0.342348 0.595758 0.193594
Si Si4 0.396164 0.264693 0.782542
Si Si5 0.626732 0.229494 0.339285
Si Si6 0.191189 0.258928 0.397563
Si Si7 0.389769 0.097716 0.321703
O O1 0.297207 0.333559 0.872179
O O2 0.126487 0.271091 0.910120
O O3 0.199729 0.556850 0.873091
O O4 0.116273 0.434541 0.014589
O O5 0.469430 0.136784 0.131979
O O6 0.638492 0.100513 0.094353
O O7 0.637402 0.247975 0.991772
O O8 0.395993 0.692539 0.214701
O O9 0.369798 0.410847 0.183946
O O10 0.222541 0.629880 0.262896
O O11 0.376355 0.662675 0.111026
O O12 0.500000 0.336466 0.750000
O O13 0.393758 0.076403 0.791748
O O14 0.305786 0.195282 0.335288
O O15 0.500000 0.179583 0.250000
#
# Coordination Sequence:
#
# PCOD8146006 Si02
#       7
#     8   8   8   8   8   8   8
#     4   9  22  39  62  93 133 164 209 262 317 378
#     4  10  24  41  66  97 134 172 209 262 326 385
#     4  11  22  40  70  92 129 168 216 275 309 385
#     4  10  23  42  63  97 126 167 224 266 319 376
#     4  11  22  42  66  98 128 168 216 262 320 379
#     4  10  22  40  64  98 133 164 215 260 321 379
#     4  11  23  42  68  93 127 177 218 260 320 382
#
# _framework density 21.915217999999999
#
# number of rings (size 3 to 8) (size 9 to 14) (size 15 to 20)
#    0.857    0.857    0.000    5.143    0.000    7.429 
#    0.000    0.000    0.000    0.000    0.000    0.000 
#    0.000    0.000    0.000    0.000    0.000    0.000 
#
# Total GULP energy -347005.194029 kJ/mol
# GULP energy per Si atom -12393.042644 kJ/mol
# Density = 2.186534 g / cm^3
# Si number density = 21.915218 Si / 1000 Ang^3
#
#
#
# Elastic Constant Matrix: (Units=GPa)
#
#
# Indices 1 2 3 4 5 6 
#
# 1 143.1064 41.0953 39.0421 -0.0001 5.7887 0.0002
# 2 41.0953 75.8267 30.5530 -0.0003 -0.3674 0.0006
# 3 39.0421 30.5530 54.7882 0.0000 5.3091 0.0000
# 4 -0.0001 -0.0003 0.0000 36.9682 0.0000 5.5622
# 5 5.7887 -0.3674 5.3091 0.0000 45.4060 -0.0001
# 6 0.0002 0.0006 0.0000 5.5622 -0.0001 32.4157
#
#
#
# Elastic Compliance Matrix: (Units=1/GPa)
#
#
# Indices 1 2 3 4 5 6 
#
# 1 0.009198 -0.003059 -0.004787 0.000000 -0.000638 0.000000
# 2 -0.003059 0.018099 -0.008056 0.000000 0.001478 0.000000
# 3 -0.004787 -0.008056 0.026402 0.000000 -0.002542 0.000000
# 4 0.000000 0.000000 0.000000 0.027767 0.000000 -0.004765
# 5 -0.000638 0.001478 -0.002542 0.000000 0.022414 0.000000
# 6 0.000000 0.000000 0.000000 -0.004765 0.000000 0.031667
#
#
# Mechanical properties :
#
#
# Convention : Reuss Voigt Hill
#
# Bulk Modulus (GPa) = 45.67321 55.01135 50.34228
# Shear Modulus (GPa) = 28.62858 33.82669 31.22764
#
# Velocity S-wave (km/s) = 3.61824 3.93303 3.77892
# Velocity P-wave (km/s) = 6.19207 6.76620 6.48549
#
# Compressibility (1/GPa) = 0.02189467
#
# Stress axis : x y z
#
# Youngs Moduli (GPa) = 108.71879 55.25043 37.87579
#
# Poissons Ratio (x) = 0.16903 0.18130
# Poissons Ratio (y) = 0.33262 0.30514
# Poissons Ratio (z) = 0.52040 0.44512
#
# Static dielectric constant tensor:
#      x y z
#    x 4.124510 0.000000 0.082550 
#    y 0.000000 3.753200 0.000000 
#    z 0.082550 0.000000 3.959950 
# 
# 
# High freq. dielectric constant tensor:
#      x y z
#    x 1.871320 0.000000 0.006560 
#    y 0.000000 1.843810 0.000000 
#    z 0.006560 0.000000 1.856720 
# 
# From -- ./inp_files/315505.got.cif
#   From: 2010.06.25/outbox.cif.g09.slc.cpg/sg15_158_cif.got.tgz:315505.got - 2010.06.28 07:06:18.
