data_PCOD8146129
_publ_section_title
;
Structure prediction by ZEFSAII (Michael W. Deem and Ramdas Pophale) SiO2 
 PCOD8146129
Probable space group: C 2/C
;
_chemical_formula_sum "Si O2"
_cell_formula_units_Z 60
_cell_length_a 8.005040
_cell_length_b 11.369225
_cell_length_c 29.923340
_cell_angle_alpha 90.000000
_cell_angle_beta 86.888148
_cell_angle_gamma 90.000000
_cell_volume 2719.340425
_symmetry_space_group_name_H-M "C 2/C"
_symmetry_group_IT_number 15
_symmetry_cell_setting 'monoclinic'
loop_
_space_group_symop_operation_xyz
x,y,z
-x,y,1/2-z
-x,-y,-z
x,-y,1/2+z
1/2+x,1/2+y,z
1/2-x,1/2+y,1/2-z
1/2-x,1/2-y,-z
1/2+x,1/2-y,1/2+z
loop_
_atom_site_type_symbol
_atom_site_label
_atom_site_fract_x
_atom_site_fract_y
_atom_site_fract_z
Si Si1 0.879136 0.253091 0.621593
Si Si2 0.410961 0.423084 0.050008
Si Si3 0.500000 0.243787 0.750000
Si Si4 0.085189 0.911470 0.820607
Si Si5 0.263537 0.757676 0.114251
Si Si6 0.626444 0.332650 0.975371
Si Si7 0.158376 0.853845 0.279810
Si Si8 0.817534 0.992015 0.890527
O O1 0.810718 0.147776 0.590244
O O2 0.856514 0.222048 0.674162
O O3 0.788292 0.373095 0.609064
O O4 0.071369 0.262642 0.603014
O O5 0.301540 0.534514 0.034729
O O6 0.592229 0.478746 0.063649
O O7 0.454866 0.340268 0.006618
O O8 0.471539 0.325258 0.793280
O O9 0.671904 0.170975 0.750250
O O10 0.213573 0.826744 0.843984
O O11 0.180257 0.007354 0.789131
O O12 0.969196 0.988155 0.853777
O O13 0.396573 0.722862 0.073690
O O14 0.295519 0.896340 0.123609
O O15 0.750000 0.250000 0.000000
O O16 0.000000 0.826933 0.250000
#
# Coordination Sequence:
#
# PCOD8146129 Si02
#       8
#     8   8   4   8   8   8   8   8
#     4  11  22  43  68  97 131 176 227 271 338 411
#     4  10  22  40  67  93 131 178 218 280 335 394
#     4  12  28  44  72 106 132 182 226 278 360 404
#     4  12  24  47  68  95 137 171 224 280 334 410
#     4  11  23  42  69  97 131 178 223 276 336 406
#     4  11  19  39  68  93 132 178 222 273 342 394
#     4  12  25  48  70  99 140 176 226 288 341 413
#     4  11  22  42  67  93 132 175 214 275 338 395
#
# _framework density 22.064174000000001
#
# number of rings (size 3 to 8) (size 9 to 14) (size 15 to 20)
#    0.000    0.800    8.667    0.800    0.000    1.067 
#    6.000    5.333    0.000    0.000    0.000    0.000 
#    0.000    0.000    0.000    0.000    0.000    0.000 
#
# Total GULP energy -371701.006075 kJ/mol
# GULP energy per Si atom -12390.033536 kJ/mol
# Density = 2.201396 g / cm^3
# Si number density = 22.064174 Si / 1000 Ang^3
#
#
#
# Elastic Constant Matrix: (Units=GPa)
#
#
# Indices 1 2 3 4 5 6 
#
# 1 74.2754 53.2347 32.6025 0.0000 -3.7835 0.0000
# 2 53.2347 166.6754 37.9136 0.0000 -3.6311 0.0000
# 3 32.6025 37.9136 79.2100 0.0000 -12.6920 0.0000
# 4 0.0000 0.0000 0.0000 26.9939 0.0000 5.6158
# 5 -3.7835 -3.6311 -12.6920 0.0000 21.1436 0.0000
# 6 0.0000 0.0000 0.0000 5.6158 0.0000 37.9037
#
#
#
# Elastic Compliance Matrix: (Units=1/GPa)
#
#
# Indices 1 2 3 4 5 6 
#
# 1 0.019498 -0.004926 -0.005802 0.000000 -0.000840 0.000000
# 2 -0.004926 0.007991 -0.001902 0.000000 -0.000651 0.000000
# 3 -0.005802 -0.001902 0.017376 0.000000 0.009065 0.000000
# 4 0.000000 0.000000 0.000000 0.038224 0.000000 -0.005663
# 5 -0.000840 -0.000651 0.009065 0.000000 0.052475 0.000000
# 6 0.000000 0.000000 0.000000 -0.005663 0.000000 0.027222
#
#
# Mechanical properties :
#
#
# Convention : Reuss Voigt Hill
#
# Bulk Modulus (GPa) = 51.00653 63.07361 57.04007
# Shear Modulus (GPa) = 25.69633 30.30225 27.99929
#
# Velocity S-wave (km/s) = 3.41635 3.70992 3.56616
# Velocity P-wave (km/s) = 6.22330 6.85564 6.54711
#
# Compressibility (1/GPa) = 0.01960533
#
# Stress axis : x y z
#
# Youngs Moduli (GPa) = 51.28751 125.13401 57.55194
#
# Poissons Ratio (x) = 0.61641 0.33392
# Poissons Ratio (y) = 0.25264 0.10945
# Poissons Ratio (z) = 0.29757 0.23798
#
# Static dielectric constant tensor:
#      x y z
#    x 3.555960 0.000000 0.123200 
#    y 0.000000 4.305600 0.000000 
#    z 0.123200 0.000000 4.563980 
# 
# 
# High freq. dielectric constant tensor:
#      x y z
#    x 1.819480 0.000000 0.000350 
#    y 0.000000 1.887700 0.000000 
#    z 0.000350 0.000000 1.887370 
# 
# From -- ./inp_files/307134.got.cif
#   From: 2010.06.25/outbox.cif.g09.slc.cpg/sg15_154_cif.got.tgz:307134.got - 2010.06.28 07:06:18.
