data_PCOD8146502
_publ_section_title
;
Structure prediction by ZEFSAII (Michael W. Deem and Ramdas Pophale) SiO2 
 PCOD8146502
Probable space group: C 2/C
;
_chemical_formula_sum "Si O2"
_cell_formula_units_Z 36
_cell_length_a 21.262595
_cell_length_b 7.249193
_cell_length_c 21.223059
_cell_angle_alpha 90.000000
_cell_angle_beta 147.582637
_cell_angle_gamma 90.000000
_cell_volume 1753.661033
_symmetry_space_group_name_H-M "C 2/C"
_symmetry_group_IT_number 15
_symmetry_cell_setting 'monoclinic'
loop_
_space_group_symop_operation_xyz
x,y,z
-x,y,1/2-z
-x,-y,-z
x,-y,1/2+z
1/2+x,1/2+y,z
1/2-x,1/2+y,1/2-z
1/2-x,1/2-y,-z
1/2+x,1/2-y,1/2+z
loop_
_atom_site_type_symbol
_atom_site_label
_atom_site_fract_x
_atom_site_fract_y
_atom_site_fract_z
Si Si1 0.000000 0.891365 0.250000
Si Si2 0.175948 0.259914 0.124046
Si Si3 0.717498 0.452044 0.867189
Si Si4 0.054484 0.619217 0.405162
Si Si5 0.826463 0.408271 0.243257
O O1 0.058205 0.765899 0.352604
O O2 0.099983 0.024379 0.307742
O O3 0.280370 0.394986 0.187313
O O4 0.131977 0.322925 0.155300
O O5 0.221832 0.051945 0.165706
O O6 0.066016 0.274907 0.982563
O O7 0.724107 0.247918 0.844960
O O8 0.833275 0.482848 0.008573
O O9 0.936145 0.502508 0.302053
#
# Coordination Sequence:
#
# PCOD8146502 Si02
#       5
#     4   8   8   8   8
#     4  12  22  48  64  90 140 168 218 272 302 384
#     4  10  22  41  66  97 131 160 216 265 324 378
#     4  10  25  40  66  97 125 175 215 255 327 377
#     4  10  23  42  68  96 128 175 212 268 318 380
#     4  12  21  45  68  98 132 165 210 274 325 385
#
# _framework density 20.528483000000001
#
# number of rings (size 3 to 8) (size 9 to 14) (size 15 to 20)
#    1.333    0.000    4.444    1.333    0.000    2.667 
#    0.000    6.667    0.000    0.000    0.000    0.000 
#    0.000    0.000    0.000    0.000    0.000    0.000 
#
# Total GULP energy -223179.048015 kJ/mol
# GULP energy per Si atom -12398.836001 kJ/mol
# Density = 2.048176 g / cm^3
# Si number density = 20.528483 Si / 1000 Ang^3
#
#
#
# Elastic Constant Matrix: (Units=GPa)
#
#
# Indices 1 2 3 4 5 6 
#
# 1 58.4933 14.9669 -14.1537 0.0000 4.0961 0.0000
# 2 14.9669 113.8096 20.1754 -0.0001 -7.3193 0.0000
# 3 -14.1537 20.1754 60.8037 0.0000 -6.8195 0.0000
# 4 0.0000 -0.0001 0.0000 12.2208 -0.0001 2.9290
# 5 4.0961 -7.3193 -6.8195 -0.0001 26.9485 0.0000
# 6 0.0000 0.0000 0.0000 2.9290 0.0000 22.1262
#
#
#
# Elastic Compliance Matrix: (Units=1/GPa)
#
#
# Indices 1 2 3 4 5 6 
#
# 1 0.019557 -0.003712 0.005494 0.000000 -0.002591 0.000000
# 2 -0.003712 0.010126 -0.003965 0.000000 0.002311 0.000000
# 3 0.005494 -0.003965 0.019376 0.000000 0.002991 0.000000
# 4 0.000000 0.000000 0.000000 0.084509 0.000000 -0.011187
# 5 -0.002591 0.002311 0.002991 0.000000 0.038886 0.000000
# 6 0.000000 0.000000 0.000000 -0.011187 0.000000 0.046676
#
#
# Mechanical properties :
#
#
# Convention : Reuss Voigt Hill
#
# Bulk Modulus (GPa) = 22.37553 30.56486 26.47019
# Shear Modulus (GPa) = 20.97360 26.40032 23.68696
#
# Velocity S-wave (km/s) = 3.19985 3.59002 3.40053
# Velocity P-wave (km/s) = 4.95736 5.66619 5.32358
#
# Compressibility (1/GPa) = 0.04469169
#
# Stress axis : x y z
#
# Youngs Moduli (GPa) = 51.13376 98.75256 51.60956
#
# Poissons Ratio (x) = 0.36660 -0.28352
# Poissons Ratio (y) = 0.18982 0.20463
# Poissons Ratio (z) = -0.28091 0.39155
#
# Static dielectric constant tensor:
#      x y z
#    x 3.540140 0.000000 -0.107400 
#    y 0.000000 3.582280 0.000000 
#    z -0.107400 0.000000 3.511960 
# 
# 
# High freq. dielectric constant tensor:
#      x y z
#    x 1.799130 0.000000 -0.003890 
#    y 0.000000 1.801520 0.000000 
#    z -0.003890 0.000000 1.794270 
# 
# From -- ./inp_files/175273.got.cif
#   From: 2010.06.25/outbox.cif.g09.slc.cpg/sg15_88_cif.got.tgz:175273.got - 2010.06.28 07:06:18.
