data_PCOD8146132
_publ_section_title
;
Structure prediction by ZEFSAII (Michael W. Deem and Ramdas Pophale) SiO2 
 PCOD8146132
Probable space group: C 2/C
;
_chemical_formula_sum "Si O2"
_cell_formula_units_Z 36
_cell_length_a 15.330626
_cell_length_b 19.621348
_cell_length_c 8.171978
_cell_angle_alpha 90.000000
_cell_angle_beta 43.445576
_cell_angle_gamma 90.000000
_cell_volume 1690.413667
_symmetry_space_group_name_H-M "C 2/C"
_symmetry_group_IT_number 15
_symmetry_cell_setting 'monoclinic'
loop_
_space_group_symop_operation_xyz
x,y,z
-x,y,1/2-z
-x,-y,-z
x,-y,1/2+z
1/2+x,1/2+y,z
1/2-x,1/2+y,1/2-z
1/2-x,1/2-y,-z
1/2+x,1/2-y,1/2+z
loop_
_atom_site_type_symbol
_atom_site_label
_atom_site_fract_x
_atom_site_fract_y
_atom_site_fract_z
Si Si1 0.638107 0.917132 0.987182
Si Si2 0.080578 0.131296 0.971541
Si Si3 0.228165 0.015517 0.904508
Si Si4 0.500000 0.583828 0.750000
Si Si5 0.352539 0.234308 0.001193
O O1 0.500000 0.920987 0.250000
O O2 0.674337 0.839885 0.882534
O O3 0.739431 0.938770 0.984524
O O4 0.651057 0.971080 0.821615
O O5 0.158389 0.202791 0.856892
O O6 0.000000 0.125693 0.250000
O O7 0.994375 0.128664 0.924646
O O8 0.179209 0.068230 0.832790
O O9 0.121926 0.962415 0.096875
O O10 0.500000 0.233902 0.750000
O O11 0.250000 0.250000 0.000000
#
# Coordination Sequence:
#
# PCOD8146132 Si02
#       5
#     8   8   8   4   8
#     4  11  24  41  64  94 131 182 222 262 337 407
#     4  11  22  40  68  99 133 170 220 280 340 384
#     4  12  21  39  66  96 137 165 221 281 332 395
#     4  12  24  38  66 114 128 164 222 292 336 384
#     4  10  22  40  67  94 129 180 227 268 330 403
#
# _framework density 21.296562000000002
#
# number of rings (size 3 to 8) (size 9 to 14) (size 15 to 20)
#    0.000    0.889    5.556    2.667    3.111    0.000 
#    0.000    1.111   17.111    0.000    0.000    0.000 
#    0.000    0.000    0.000    0.000    0.000    0.000 
#
# Total GULP energy -223030.738013 kJ/mol
# GULP energy per Si atom -12390.596556 kJ/mol
# Density = 2.124809 g / cm^3
# Si number density = 21.296562 Si / 1000 Ang^3
#
#
#
# Elastic Constant Matrix: (Units=GPa)
#
#
# Indices 1 2 3 4 5 6 
#
# 1 123.6839 47.4959 23.5607 0.0000 8.5460 0.0000
# 2 47.4959 180.3289 43.9792 0.0000 8.1473 0.0000
# 3 23.5607 43.9792 65.7176 0.0000 0.1242 0.0000
# 4 0.0000 0.0000 0.0000 20.8961 0.0000 -6.5846
# 5 8.5460 8.1473 0.1242 0.0000 37.0872 0.0000
# 6 0.0000 0.0000 0.0000 -6.5846 0.0000 31.9997
#
#
#
# Elastic Compliance Matrix: (Units=1/GPa)
#
#
# Indices 1 2 3 4 5 6 
#
# 1 0.009319 -0.001867 -0.002088 0.000000 -0.001730 0.000000
# 2 -0.001867 0.007079 -0.004066 0.000000 -0.001111 0.000000
# 3 -0.002088 -0.004066 0.018684 0.000000 0.001312 0.000000
# 4 0.000000 0.000000 0.000000 0.051174 0.000000 0.010530
# 5 -0.001730 -0.001111 0.001312 0.000000 0.027602 0.000000
# 6 0.000000 0.000000 0.000000 0.010530 0.000000 0.033417
#
#
# Mechanical properties :
#
#
# Convention : Reuss Voigt Hill
#
# Bulk Modulus (GPa) = 52.52234 66.64464 59.58349
# Shear Modulus (GPa) = 29.46988 34.97623 32.22306
#
# Velocity S-wave (km/s) = 3.72396 4.05698 3.89403
# Velocity P-wave (km/s) = 6.57316 7.30116 6.94670
#
# Compressibility (1/GPa) = 0.01903952
#
# Stress axis : x y z
#
# Youngs Moduli (GPa) = 107.30191 141.26285 53.52227
#
# Poissons Ratio (x) = 0.26375 0.11178
# Poissons Ratio (y) = 0.20034 0.21762
# Poissons Ratio (z) = 0.22409 0.57436
#
# Static dielectric constant tensor:
#      x y z
#    x 3.772970 0.000000 -0.145660 
#    y 0.000000 4.792200 0.000000 
#    z -0.145660 0.000000 3.478350 
# 
# 
# High freq. dielectric constant tensor:
#      x y z
#    x 1.837560 0.000000 -0.015690 
#    y 0.000000 1.860120 0.000000 
#    z -0.015690 0.000000 1.798940 
# 
# From -- ./inp_files/28980.got.cif
#   From: 2010.06.25/outbox.cif.g09.slc.cpg/sg15_15_cif.got.tgz:28980.got - 2010.06.28 07:06:18.
