data_PCOD8146391
_publ_section_title
;
Structure prediction by ZEFSAII (Michael W. Deem and Ramdas Pophale) SiO2 
 PCOD8146391
Probable space group: C 2/C
;
_chemical_formula_sum "Si O2"
_cell_formula_units_Z 64
_cell_length_a 9.336188
_cell_length_b 17.195085
_cell_length_c 30.305109
_cell_angle_alpha 90.000000
_cell_angle_beta 40.500956
_cell_angle_gamma 90.000000
_cell_volume 3159.676834
_symmetry_space_group_name_H-M "C 2/C"
_symmetry_group_IT_number 15
_symmetry_cell_setting 'monoclinic'
loop_
_space_group_symop_operation_xyz
x,y,z
-x,y,1/2-z
-x,-y,-z
x,-y,1/2+z
1/2+x,1/2+y,z
1/2-x,1/2+y,1/2-z
1/2-x,1/2-y,-z
1/2+x,1/2-y,1/2+z
loop_
_atom_site_type_symbol
_atom_site_label
_atom_site_fract_x
_atom_site_fract_y
_atom_site_fract_z
Si Si1 0.424001 0.328133 0.923864
Si Si2 0.516356 0.400490 0.681840
Si Si3 0.934814 0.079346 0.814447
Si Si4 0.791490 0.907217 0.573442
Si Si5 0.326470 0.576855 0.580942
Si Si6 0.262026 0.657652 0.687156
Si Si7 0.967559 0.345431 0.421946
Si Si8 0.670307 0.165582 0.323740
O O1 0.471748 0.386658 0.872886
O O2 0.593805 0.343345 0.923243
O O3 0.471218 0.239649 0.898479
O O4 0.174956 0.341430 0.999558
O O5 0.592870 0.486968 0.675831
O O6 0.682755 0.342069 0.667003
O O7 0.273776 0.379313 0.757211
O O8 0.706464 0.122352 0.879883
O O9 0.000000 0.104615 0.750000
O O10 0.130740 0.101211 0.801836
O O11 0.560790 0.873567 0.612070
O O12 0.929488 0.920048 0.496581
O O13 0.770805 0.987468 0.606009
O O14 0.334476 0.631608 0.621539
O O15 0.140412 0.599317 0.589112
O O16 0.351914 0.742586 0.678941
O O17 0.000000 0.652264 0.750000
#
# Coordination Sequence:
#
# PCOD8146391 Si02
#       8
#     8   8   8   8   8   8   8   8
#     4  10  22  41  64  94 124 161 206 252 308 366
#     4  11  23  41  60  89 126 164 205 253 308 363
#     4  12  25  40  62  91 123 163 209 253 308 366
#     4  10  22  41  64  94 124 161 206 252 308 366
#     4  10  22  41  66  92 125 162 203 255 308 363
#     4  12  25  40  62  91 123 163 209 253 308 366
#     4  10  22  41  66  92 125 162 203 255 308 363
#     4  11  23  41  60  89 126 164 205 253 308 363
#
# _framework density 20.255236
#
# number of rings (size 3 to 8) (size 9 to 14) (size 15 to 20)
#    0.000    1.250    2.500    3.750    3.500    2.500 
#    0.000    0.000    0.000    0.000    0.000    0.000 
#    0.000    0.000    0.000    0.000    0.000    0.000 
#
# Total GULP energy -396932.449525 kJ/mol
# GULP energy per Si atom -12404.139048 kJ/mol
# Density = 2.020913 g / cm^3
# Si number density = 20.255236 Si / 1000 Ang^3
#
#
#
# Elastic Constant Matrix: (Units=GPa)
#
#
# Indices 1 2 3 4 5 6 
#
# 1 69.4198 17.1148 46.4529 0.0019 -2.4329 -0.0022
# 2 17.1148 94.3351 46.2678 -0.0003 -4.2688 -0.0001
# 3 46.4529 46.2678 102.2592 0.0044 -5.4125 -0.0087
# 4 0.0019 -0.0003 0.0044 29.8806 -0.0050 0.5348
# 5 -2.4329 -4.2688 -5.4125 -0.0050 34.6231 0.0035
# 6 -0.0022 -0.0001 -0.0087 0.5348 0.0035 28.5165
#
#
#
# Elastic Compliance Matrix: (Units=1/GPa)
#
#
# Indices 1 2 3 4 5 6 
#
# 1 0.020786 0.001106 -0.009941 0.000000 0.000043 -0.000001
# 2 0.001106 0.013701 -0.006663 0.000001 0.000725 -0.000002
# 3 -0.009941 -0.006663 0.017373 -0.000002 0.001196 0.000004
# 4 0.000000 0.000001 -0.000002 0.033478 0.000005 -0.000628
# 5 0.000043 0.000725 0.001196 0.000005 0.029162 -0.000003
# 6 -0.000001 -0.000002 0.000004 -0.000628 -0.000003 0.035079
#
#
# Mechanical properties :
#
#
# Convention : Reuss Voigt Hill
#
# Bulk Modulus (GPa) = 47.92836 53.96500 50.94668
# Shear Modulus (GPa) = 26.66279 29.01595 27.83937
#
# Velocity S-wave (km/s) = 3.63208 3.78897 3.71135
# Velocity P-wave (km/s) = 6.42673 6.77067 6.60094
#
# Compressibility (1/GPa) = 0.02086447
#
# Stress axis : x y z
#
# Youngs Moduli (GPa) = 48.11011 72.98948 57.56132
#
# Poissons Ratio (x) = -0.08075 0.57219
# Poissons Ratio (y) = -0.05323 0.38354
# Poissons Ratio (z) = 0.47824 0.48634
#
# Static dielectric constant tensor:
#      x y z
#    x 3.445360 0.000000 -0.059340 
#    y 0.000000 3.843520 0.000000 
#    z -0.059340 0.000000 3.777440 
# 
# 
# High freq. dielectric constant tensor:
#      x y z
#    x 1.784920 0.000000 -0.004470 
#    y 0.000000 1.807830 0.000000 
#    z -0.004470 0.000000 1.792990 
# 
# From -- ./inp_files/308757.got.cif
#   From: 2010.06.25/outbox.cif.g09.slc.cpg/sg15_155_cif.got.tgz:308757.got - 2010.06.28 07:06:18.
