data_PCOD8146602
_publ_section_title
;
Structure prediction by ZEFSAII (Michael W. Deem and Ramdas Pophale) SiO2 
 PCOD8146602
Probable space group: C 2/C
;
_chemical_formula_sum "Si O2"
_cell_formula_units_Z 48
_cell_length_a 7.768890
_cell_length_b 21.772334
_cell_length_c 13.813991
_cell_angle_alpha 90.000000
_cell_angle_beta 110.500795
_cell_angle_gamma 90.000000
_cell_volume 2188.610617
_symmetry_space_group_name_H-M "C 2/C"
_symmetry_group_IT_number 15
_symmetry_cell_setting 'monoclinic'
loop_
_space_group_symop_operation_xyz
x,y,z
-x,y,1/2-z
-x,-y,-z
x,-y,1/2+z
1/2+x,1/2+y,z
1/2-x,1/2+y,1/2-z
1/2-x,1/2-y,-z
1/2+x,1/2-y,1/2+z
loop_
_atom_site_type_symbol
_atom_site_label
_atom_site_fract_x
_atom_site_fract_y
_atom_site_fract_z
Si Si1 0.269393 0.623872 0.925272
Si Si2 0.205722 0.276208 0.260796
Si Si3 0.374604 0.589802 0.139288
Si Si4 0.452560 0.550741 0.632822
Si Si5 0.374744 0.858444 0.432103
Si Si6 0.435974 0.844511 0.839378
O O1 0.298171 0.680512 0.859733
O O2 0.365149 0.564781 0.894578
O O3 0.053400 0.613815 0.909454
O O4 0.385436 0.634786 0.047595
O O5 0.216156 0.307210 0.156278
O O6 0.318057 0.214125 0.285042
O O7 0.000000 0.260607 0.250000
O O8 0.500000 0.615024 0.250000
O O9 0.414986 0.521143 0.113997
O O10 0.169728 0.596389 0.139221
O O11 0.500000 0.569371 0.750000
O O12 0.269857 0.588354 0.569161
O O13 0.421866 0.827411 0.545913
O O14 0.500000 0.871293 0.750000
#
# Coordination Sequence:
#
# PCOD8146602 Si02
#       6
#     8   8   8   8   8   8
#     4  10  22  41  69  95 126 171 220 266 328 384
#     4  10  22  43  69  93 130 174 222 275 325 394
#     4  10  24  43  62  97 134 176 214 270 337 388
#     4  11  22  42  70  97 130 171 225 268 322 402
#     4  10  24  44  66  99 129 173 220 272 327 391
#     4  11  26  42  62 100 134 173 220 271 338 391
#
# _framework density 21.931721
#
# number of rings (size 3 to 8) (size 9 to 14) (size 15 to 20)
#    0.000    1.667    1.667    1.000    4.667   10.667 
#    6.000    0.000    0.000    0.000    0.000    0.000 
#    0.000    0.000    0.000    0.000    0.000    0.000 
#
# Total GULP energy -297330.938173 kJ/mol
# GULP energy per Si atom -12388.789091 kJ/mol
# Density = 2.188180 g / cm^3
# Si number density = 21.931721 Si / 1000 Ang^3
#
#
#
# Elastic Constant Matrix: (Units=GPa)
#
#
# Indices 1 2 3 4 5 6 
#
# 1 70.8911 30.3877 32.5194 0.0000 -10.0919 0.0000
# 2 30.3877 61.8110 27.7300 0.0000 8.4503 0.0000
# 3 32.5194 27.7300 175.9254 0.0000 -3.9730 0.0000
# 4 0.0000 0.0000 0.0000 20.8961 0.0000 9.8078
# 5 -10.0919 8.4503 -3.9730 0.0000 37.0548 0.0000
# 6 0.0000 0.0000 0.0000 9.8078 0.0000 34.7127
#
#
#
# Elastic Compliance Matrix: (Units=1/GPa)
#
#
# Indices 1 2 3 4 5 6 
#
# 1 0.020511 -0.010238 -0.002004 0.000000 0.007706 0.000000
# 2 -0.010238 0.023223 -0.001955 0.000000 -0.008294 0.000000
# 3 -0.002004 -0.001955 0.006376 0.000000 0.000584 0.000000
# 4 0.000000 0.000000 0.000000 0.055173 0.000000 -0.015589
# 5 0.007706 -0.008294 0.000584 0.000000 0.031040 0.000000
# 6 0.000000 0.000000 0.000000 -0.015589 0.000000 0.033212
#
#
# Mechanical properties :
#
#
# Convention : Reuss Voigt Hill
#
# Bulk Modulus (GPa) = 46.05017 54.43352 50.24185
# Shear Modulus (GPa) = 24.37035 33.06541 28.71788
#
# Velocity S-wave (km/s) = 3.33707 3.88706 3.62252
# Velocity P-wave (km/s) = 5.99088 6.70963 6.36042
#
# Compressibility (1/GPa) = 0.02171545
#
# Stress axis : x y z
#
# Youngs Moduli (GPa) = 48.75447 43.06118 156.83913
#
# Poissons Ratio (x) = 0.44087 0.31424
# Poissons Ratio (y) = 0.49916 0.30666
# Poissons Ratio (z) = 0.09768 0.08419
#
# Static dielectric constant tensor:
#      x y z
#    x 4.107800 0.000000 -0.028450 
#    y 0.000000 3.598220 0.000000 
#    z -0.028450 0.000000 4.761050 
# 
# 
# High freq. dielectric constant tensor:
#      x y z
#    x 1.859820 0.000000 -0.005560 
#    y 0.000000 1.837720 0.000000 
#    z -0.005560 0.000000 1.892750 
# 
# From -- ./inp_files/136948.got.cif
#   From: 2010.06.25/outbox.cif.g09.slc.cpg/sg15_69_cif.got.tgz:136948.got - 2010.06.28 07:06:18.
