data_PCOD8146742
_publ_section_title
;
Structure prediction by ZEFSAII (Michael W. Deem and Ramdas Pophale) SiO2 
 PCOD8146742
Probable space group: C 2/C
;
_chemical_formula_sum "Si O2"
_cell_formula_units_Z 48
_cell_length_a 29.817199
_cell_length_b 9.229382
_cell_length_c 15.530613
_cell_angle_alpha 90.000000
_cell_angle_beta 146.769287
_cell_angle_gamma 90.000000
_cell_volume 2342.167138
_symmetry_space_group_name_H-M "C 2/C"
_symmetry_group_IT_number 15
_symmetry_cell_setting 'monoclinic'
loop_
_space_group_symop_operation_xyz
x,y,z
-x,y,1/2-z
-x,-y,-z
x,-y,1/2+z
1/2+x,1/2+y,z
1/2-x,1/2+y,1/2-z
1/2-x,1/2-y,-z
1/2+x,1/2-y,1/2+z
loop_
_atom_site_type_symbol
_atom_site_label
_atom_site_fract_x
_atom_site_fract_y
_atom_site_fract_z
Si Si1 0.450039 0.293513 0.452551
Si Si2 0.392888 0.612106 0.373658
Si Si3 0.279133 0.873642 0.982567
Si Si4 0.665925 0.175631 0.380678
Si Si5 0.918173 0.373186 0.071723
Si Si6 0.085391 0.709422 0.424447
O O1 0.434479 0.458116 0.453709
O O2 0.548391 0.286278 0.592478
O O3 0.405559 0.234645 0.295360
O O4 0.416146 0.198057 0.475294
O O5 0.304643 0.573639 0.194520
O O6 0.381864 0.690931 0.446799
O O7 0.250000 0.750000 0.000000
O O8 0.341066 0.822314 0.006351
O O9 0.323888 0.001094 0.108657
O O10 0.750000 0.250000 0.500000
O O11 0.650248 0.221363 0.453036
O O12 0.921494 0.543327 0.056950
O O13 0.000000 0.320160 0.250000
O O14 0.000000 0.767825 0.250000
#
# Coordination Sequence:
#
# PCOD8146742 Si02
#       6
#     8   8   8   8   8   8
#     4  11  24  43  66  95 130 176 215 273 334 392
#     4  11  24  41  65  97 129 167 228 264 331 393
#     4  11  25  42  65  99 128 167 222 273 324 398
#     4  11  23  43  64  92 136 170 213 267 337 388
#     4  10  24  43  64  94 131 167 220 267 335 394
#     4  10  22  42  63  92 127 174 215 268 326 398
#
# _framework density 20.493841
#
# number of rings (size 3 to 8) (size 9 to 14) (size 15 to 20)
#    0.000    1.333    3.333    1.000    4.667    2.667 
#    0.000    0.000    0.000    0.000    0.000    0.000 
#    0.000    0.000    0.000    0.000    0.000    0.000 
#
# Total GULP energy -297535.956894 kJ/mol
# GULP energy per Si atom -12397.331537 kJ/mol
# Density = 2.044720 g / cm^3
# Si number density = 20.493841 Si / 1000 Ang^3
#
#
#
# Elastic Constant Matrix: (Units=GPa)
#
#
# Indices 1 2 3 4 5 6 
#
# 1 139.4302 59.0720 31.6057 0.0000 5.3739 0.0000
# 2 59.0720 83.4610 20.6888 0.0000 -13.4896 0.0000
# 3 31.6057 20.6888 70.9967 0.0000 12.6471 0.0000
# 4 0.0000 0.0000 0.0000 32.0118 0.0000 -2.6672
# 5 5.3739 -13.4896 12.6471 0.0000 42.0936 0.0000
# 6 0.0000 0.0000 0.0000 -2.6672 0.0000 39.7199
#
#
#
# Elastic Compliance Matrix: (Units=1/GPa)
#
#
# Indices 1 2 3 4 5 6 
#
# 1 0.011110 -0.007893 -0.002052 0.000000 -0.003331 0.000000
# 2 -0.007893 0.019887 -0.003800 0.000000 0.008523 0.000000
# 3 -0.002052 -0.003800 0.017197 0.000000 -0.006123 0.000000
# 4 0.000000 0.000000 0.000000 0.031414 0.000000 0.002109
# 5 -0.003331 0.008523 -0.006123 0.000000 0.028753 0.000000
# 6 0.000000 0.000000 0.000000 0.002109 0.000000 0.025318
#
#
# Mechanical properties :
#
#
# Convention : Reuss Voigt Hill
#
# Bulk Modulus (GPa) = 48.30008 57.40232 52.85120
# Shear Modulus (GPa) = 29.74960 34.93315 32.34137
#
# Velocity S-wave (km/s) = 3.81417 4.13312 3.97684
# Velocity P-wave (km/s) = 6.55869 7.13073 6.85068
#
# Compressibility (1/GPa) = 0.02070390
#
# Stress axis : x y z
#
# Youngs Moduli (GPa) = 90.01266 50.28305 58.15060
#
# Poissons Ratio (x) = 0.39687 0.11934
# Poissons Ratio (y) = 0.71045 0.22096
# Poissons Ratio (z) = 0.18473 0.19107
#
# Static dielectric constant tensor:
#      x y z
#    x 3.849760 0.000000 0.276760 
#    y 0.000000 3.674960 0.000000 
#    z 0.276760 0.000000 3.779480 
# 
# 
# High freq. dielectric constant tensor:
#      x y z
#    x 1.822130 0.000000 0.012010 
#    y 0.000000 1.797420 0.000000 
#    z 0.012010 0.000000 1.800870 
# 
# From -- ./inp_files/176973.got.cif
#   From: 2010.06.25/outbox.cif.g09.slc.cpg/sg15_89_cif.got.tgz:176973.got - 2010.06.28 07:06:18.
