data_PCOD8146605
_publ_section_title
;
Structure prediction by ZEFSAII (Michael W. Deem and Ramdas Pophale) SiO2 
 PCOD8146605
Probable space group: C 2/C
;
_chemical_formula_sum "Si O2"
_cell_formula_units_Z 60
_cell_length_a 18.150120
_cell_length_b 11.009944
_cell_length_c 15.761239
_cell_angle_alpha 90.000000
_cell_angle_beta 68.624872
_cell_angle_gamma 90.000000
_cell_volume 2932.949047
_symmetry_space_group_name_H-M "C 2/C"
_symmetry_group_IT_number 15
_symmetry_cell_setting 'monoclinic'
loop_
_space_group_symop_operation_xyz
x,y,z
-x,y,1/2-z
-x,-y,-z
x,-y,1/2+z
1/2+x,1/2+y,z
1/2-x,1/2+y,1/2-z
1/2-x,1/2-y,-z
1/2+x,1/2-y,1/2+z
loop_
_atom_site_type_symbol
_atom_site_label
_atom_site_fract_x
_atom_site_fract_y
_atom_site_fract_z
Si Si1 0.000000 0.574328 0.250000
Si Si2 0.554839 0.615885 0.980129
Si Si3 0.816995 0.289074 0.112610
Si Si4 0.131484 0.393286 0.235724
Si Si5 0.678798 0.440947 0.098940
Si Si6 0.921747 0.160744 0.334872
Si Si7 0.437344 0.247206 0.419348
Si Si8 0.786666 0.986891 0.600853
O O1 0.936599 0.492755 0.228131
O O2 0.955284 0.653923 0.337937
O O3 0.517910 0.719600 0.935459
O O4 0.640320 0.576462 0.909218
O O5 0.500000 0.500000 0.000000
O O6 0.559556 0.665722 0.073380
O O7 0.863313 0.332541 0.175102
O O8 0.735085 0.363016 0.136408
O O9 0.800445 0.146998 0.132457
O O10 0.872803 0.313306 0.008398
O O11 0.110000 0.293189 0.175007
O O12 0.212257 0.456677 0.177362
O O13 0.646583 0.561955 0.158766
O O14 0.600127 0.367918 0.105514
O O15 0.727367 0.477456 0.994267
O O16 0.000000 0.126487 0.250000
#
# Coordination Sequence:
#
# PCOD8146605 Si02
#       8
#     4   8   8   8   8   8   8   8
#     4  12  28  46  62 100 134 176 228 274 334 404
#     4  11  21  42  71 101 128 175 223 275 332 401
#     4  11  23  43  70  96 134 180 212 280 341 389
#     4  12  27  43  65  96 138 179 218 283 330 400
#     4  10  22  41  69  96 128 177 219 278 336 390
#     4  11  24  42  67  97 136 171 225 279 336 394
#     4  11  23  44  71  98 135 175 222 274 334 399
#     4  10  23  43  65  98 136 165 229 277 326 400
#
# _framework density 20.457227
#
# number of rings (size 3 to 8) (size 9 to 14) (size 15 to 20)
#    0.000    1.067    4.667    4.000    2.800    4.800 
#    2.400    0.000    0.000    0.000    0.000    0.000 
#    0.000    0.000    0.000    0.000    0.000    0.000 
#
# Total GULP energy -372125.996749 kJ/mol
# GULP energy per Si atom -12404.199892 kJ/mol
# Density = 2.041067 g / cm^3
# Si number density = 20.457227 Si / 1000 Ang^3
#
#
#
# Elastic Constant Matrix: (Units=GPa)
#
#
# Indices 1 2 3 4 5 6 
#
# 1 87.5255 21.3646 27.8833 0.0000 -1.1035 0.0000
# 2 21.3646 86.0746 52.2756 0.0000 -1.4751 0.0000
# 3 27.8833 52.2756 85.1916 0.0000 -7.3171 0.0000
# 4 0.0000 0.0000 0.0000 15.1694 0.0000 8.1363
# 5 -1.1035 -1.4751 -7.3171 0.0000 40.1220 0.0000
# 6 0.0000 0.0000 0.0000 8.1363 0.0000 33.7020
#
#
#
# Elastic Compliance Matrix: (Units=1/GPa)
#
#
# Indices 1 2 3 4 5 6 
#
# 1 0.012815 -0.000991 -0.003616 0.000000 -0.000343 0.000000
# 2 -0.000991 0.018675 -0.011255 0.000000 -0.001393 0.000000
# 3 -0.003616 -0.011255 0.020099 0.000000 0.003152 0.000000
# 4 0.000000 0.000000 0.000000 0.075728 0.000000 -0.018282
# 5 -0.000343 -0.001393 0.003152 0.000000 0.025438 0.000000
# 6 0.000000 0.000000 0.000000 -0.018282 0.000000 0.034085
#
#
# Mechanical properties :
#
#
# Convention : Reuss Voigt Hill
#
# Bulk Modulus (GPa) = 50.33792 51.31540 50.82666
# Shear Modulus (GPa) = 22.20393 28.28324 25.24359
#
# Velocity S-wave (km/s) = 3.29809 3.72231 3.51660
# Velocity P-wave (km/s) = 6.25804 6.60400 6.43334
#
# Compressibility (1/GPa) = 0.01986574
#
# Stress axis : x y z
#
# Youngs Moduli (GPa) = 78.03578 53.54645 49.75401
#
# Poissons Ratio (x) = 0.05304 0.17991
# Poissons Ratio (y) = 0.07730 0.55999
# Poissons Ratio (z) = 0.28217 0.60267
#
# Static dielectric constant tensor:
#      x y z
#    x 4.139880 0.000000 0.080060 
#    y 0.000000 4.264930 0.000000 
#    z 0.080060 0.000000 3.650410 
# 
# 
# High freq. dielectric constant tensor:
#      x y z
#    x 1.810400 0.000000 -0.001290 
#    y 0.000000 1.802300 0.000000 
#    z -0.001290 0.000000 1.797280 
# 
# From -- ./inp_files/161311.got.cif
#   From: 2010.06.25/outbox.cif.g09.slc.cpg/sg15_81_cif.got.tgz:161311.got - 2010.06.28 07:06:18.
