data_PCOD8146764
_publ_section_title
;
Structure prediction by ZEFSAII (Michael W. Deem and Ramdas Pophale) SiO2 
 PCOD8146764
Probable space group: C 2/C
;
_chemical_formula_sum "Si O2"
_cell_formula_units_Z 64
_cell_length_a 14.861916
_cell_length_b 27.509374
_cell_length_c 8.932154
_cell_angle_alpha 90.000000
_cell_angle_beta 116.321264
_cell_angle_gamma 90.000000
_cell_volume 3273.224069
_symmetry_space_group_name_H-M "C 2/C"
_symmetry_group_IT_number 15
_symmetry_cell_setting 'monoclinic'
loop_
_space_group_symop_operation_xyz
x,y,z
-x,y,1/2-z
-x,-y,-z
x,-y,1/2+z
1/2+x,1/2+y,z
1/2-x,1/2+y,1/2-z
1/2-x,1/2-y,-z
1/2+x,1/2-y,1/2+z
loop_
_atom_site_type_symbol
_atom_site_label
_atom_site_fract_x
_atom_site_fract_y
_atom_site_fract_z
Si Si1 0.419590 0.374359 0.072558
Si Si2 0.105745 0.621834 0.905425
Si Si3 0.395067 0.116840 0.248217
Si Si4 0.240866 0.943936 0.148322
Si Si5 0.759418 0.047495 0.496286
Si Si6 0.225826 0.801196 0.916420
Si Si7 0.932408 0.872404 0.572328
Si Si8 0.761383 0.800415 0.920063
O O1 0.500000 0.391434 0.250000
O O2 0.349765 0.420998 0.991138
O O3 0.483319 0.355195 0.980755
O O4 0.348474 0.329852 0.072655
O O5 0.158557 0.580235 0.844513
O O6 0.000000 0.635257 0.750000
O O7 0.090701 0.605635 0.065641
O O8 0.177070 0.668135 0.966385
O O9 0.500000 0.123999 0.250000
O O10 0.343360 0.069011 0.143608
O O11 0.337986 0.166534 0.160240
O O12 0.248627 0.951895 0.330719
O O13 0.223613 0.993532 0.048088
O O14 0.143524 0.911260 0.050407
O O15 0.126258 0.824856 0.913286
O O16 0.205589 0.793319 0.726276
O O17 0.250000 0.750000 0.000000
O O18 0.000000 0.897603 0.750000
O O19 0.750000 0.750000 0.000000
#
# Coordination Sequence:
#
# PCOD8146764 Si02
#       8
#     8   8   8   8   8   8   8   8
#     4  11  23  42  62  92 125 164 205 249 307 362
#     4  10  22  42  64  89 122 163 205 257 311 364
#     4  10  22  42  64  88 123 161 207 257 309 364
#     4  11  24  40  63  93 124 162 205 255 306 366
#     4  11  24  40  63  93 125 161 206 254 306 366
#     4  10  23  40  61  90 122 160 205 251 306 361
#     4  11  23  42  64  88 127 166 204 251 304 366
#     4  10  23  40  61  90 124 159 202 256 303 362
#
# _framework density 19.552588
#
# number of rings (size 3 to 8) (size 9 to 14) (size 15 to 20)
#    0.000    1.500    2.500    1.500    5.250    4.500 
#    2.250    2.500    0.000    0.000    0.000    0.000 
#    0.000    0.000    0.000    0.000    0.000    0.000 
#
# Total GULP energy -396653.128795 kJ/mol
# GULP energy per Si atom -12395.410275 kJ/mol
# Density = 1.950809 g / cm^3
# Si number density = 19.552588 Si / 1000 Ang^3
#
#
#
# Elastic Constant Matrix: (Units=GPa)
#
#
# Indices 1 2 3 4 5 6 
#
# 1 136.1268 43.6204 52.4356 0.0000 -12.8473 0.0000
# 2 43.6204 119.5747 38.9508 0.0000 -11.2600 0.0000
# 3 52.4356 38.9508 120.8729 0.0000 -3.7636 0.0000
# 4 0.0000 0.0000 0.0000 28.5490 0.0000 -8.4857
# 5 -12.8473 -11.2600 -3.7636 0.0000 36.6420 0.0000
# 6 0.0000 0.0000 0.0000 -8.4857 0.0000 18.8468
#
#
#
# Elastic Compliance Matrix: (Units=1/GPa)
#
#
# Indices 1 2 3 4 5 6 
#
# 1 0.009562 -0.002168 -0.003377 0.000000 0.002340 0.000000
# 2 -0.002168 0.010083 -0.002243 0.000000 0.002108 0.000000
# 3 -0.003377 -0.002243 0.010436 0.000000 -0.000801 0.000000
# 4 0.000000 0.000000 0.000000 0.040439 0.000000 0.018208
# 5 0.002340 0.002108 -0.000801 0.000000 0.028677 0.000000
# 6 0.000000 0.000000 0.000000 0.018208 0.000000 0.061257
#
#
# Mechanical properties :
#
#
# Convention : Reuss Voigt Hill
#
# Bulk Modulus (GPa) = 68.93904 71.84313 70.39108
# Shear Modulus (GPa) = 27.64481 32.91205 30.27843
#
# Velocity S-wave (km/s) = 3.76423 4.10720 3.93945
# Velocity P-wave (km/s) = 7.36392 7.70165 7.53468
#
# Compressibility (1/GPa) = 0.01450557
#
# Stress axis : x y z
#
# Youngs Moduli (GPa) = 104.57703 99.17648 95.82335
#
# Poissons Ratio (x) = 0.21502 0.32357
# Poissons Ratio (y) = 0.22673 0.21494
# Poissons Ratio (z) = 0.35313 0.22246
#
# Static dielectric constant tensor:
#      x y z
#    x 3.628050 0.000000 0.045580 
#    y 0.000000 3.446740 0.000000 
#    z 0.045580 0.000000 3.586540 
# 
# 
# High freq. dielectric constant tensor:
#      x y z
#    x 1.776280 0.000000 0.000160 
#    y 0.000000 1.753830 0.000000 
#    z 0.000160 0.000000 1.778420 
# 
# From -- ./inp_files/43569.got.cif
#   From: 2010.06.25/outbox.cif.g09.slc.cpg/sg15_22_cif.got.tgz:43569.got - 2010.06.28 07:06:18.
