data_PCOD8146319
_publ_section_title
;
Structure prediction by ZEFSAII (Michael W. Deem and Ramdas Pophale) SiO2 
 PCOD8146319
Probable space group: C 2/C
;
_chemical_formula_sum "Si O2"
_cell_formula_units_Z 56
_cell_length_a 27.273335
_cell_length_b 16.402551
_cell_length_c 9.432534
_cell_angle_alpha 90.000000
_cell_angle_beta 140.406560
_cell_angle_gamma 90.000000
_cell_volume 2689.343734
_symmetry_space_group_name_H-M "C 2/C"
_symmetry_group_IT_number 15
_symmetry_cell_setting 'monoclinic'
loop_
_space_group_symop_operation_xyz
x,y,z
-x,y,1/2-z
-x,-y,-z
x,-y,1/2+z
1/2+x,1/2+y,z
1/2-x,1/2+y,1/2-z
1/2-x,1/2-y,-z
1/2+x,1/2-y,1/2+z
loop_
_atom_site_type_symbol
_atom_site_label
_atom_site_fract_x
_atom_site_fract_y
_atom_site_fract_z
Si Si1 0.312674 0.903795 0.588552
Si Si2 0.141609 0.870695 0.170606
Si Si3 0.425069 0.238878 0.279700
Si Si4 0.553399 0.466645 0.499422
Si Si5 0.839831 0.846010 0.607295
Si Si6 0.096633 0.288012 0.089094
Si Si7 0.315792 0.940404 0.276806
O O1 0.228459 0.864805 0.422165
O O2 0.376148 0.833239 0.744107
O O3 0.316358 0.949664 0.446828
O O4 0.327423 0.969673 0.743017
O O5 0.088278 0.821818 0.161971
O O6 0.115231 0.964346 0.095924
O O7 0.135200 0.833213 0.999565
O O8 0.515054 0.218431 0.485731
O O9 0.399898 0.250664 0.060804
O O10 0.500000 0.500000 0.500000
O O11 0.594794 0.387389 0.651047
O O12 0.500000 0.439476 0.250000
O O13 0.836533 0.755887 0.669205
O O14 0.762655 0.897864 0.449567
O O15 0.114132 0.384043 0.118357
#
# Coordination Sequence:
#
# PCOD8146319 Si02
#       7
#     8   8   8   8   8   8   8
#     4  10  22  41  63  89 120 160 203 250 299 354
#     4  11  23  40  60  89 123 157 203 245 298 364
#     4  10  23  40  62  89 122 160 201 250 302 349
#     4  12  24  36  56  90 123 156 193 241 295 360
#     4  11  23  39  61  89 121 158 201 244 300 362
#     4  10  23  40  61  89 122 160 201 249 301 354
#     4  10  22  41  62  89 121 158 204 249 298 357
#
# _framework density 20.822924
#
# number of rings (size 3 to 8) (size 9 to 14) (size 15 to 20)
#    0.000    1.429    2.857    1.714    4.000    2.857 
#    0.000    0.000    0.000    0.000    0.000    0.000 
#    0.000    0.000    0.000    0.000    0.000    0.000 
#
# Total GULP energy -347274.914295 kJ/mol
# GULP energy per Si atom -12402.675511 kJ/mol
# Density = 2.077553 g / cm^3
# Si number density = 20.822924 Si / 1000 Ang^3
#
#
#
# Elastic Constant Matrix: (Units=GPa)
#
#
# Indices 1 2 3 4 5 6 
#
# 1 89.9806 26.1706 19.4341 0.0000 9.1124 0.0000
# 2 26.1706 60.2216 21.5927 0.0000 -3.8886 0.0000
# 3 19.4341 21.5927 68.7701 0.0000 -3.1700 0.0000
# 4 0.0000 0.0000 0.0000 24.0677 0.0000 -9.4344
# 5 9.1124 -3.8886 -3.1700 0.0000 29.4994 0.0000
# 6 0.0000 0.0000 0.0000 -9.4344 0.0000 37.0903
#
#
#
# Elastic Compliance Matrix: (Units=1/GPa)
#
#
# Indices 1 2 3 4 5 6 
#
# 1 0.013748 -0.005446 -0.002416 0.000000 -0.005224 0.000000
# 2 -0.005446 0.020969 -0.004864 0.000000 0.003924 0.000000
# 3 -0.002416 -0.004864 0.016840 0.000000 0.001915 0.000000
# 4 0.000000 0.000000 0.000000 0.046151 0.000000 0.011739
# 5 -0.005224 0.003924 0.001915 0.000000 0.036236 0.000000
# 6 0.000000 0.000000 0.000000 0.011739 0.000000 0.029947
#
#
# Mechanical properties :
#
#
# Convention : Reuss Voigt Hill
#
# Bulk Modulus (GPa) = 38.30683 39.26304 38.78493
# Shear Modulus (GPa) = 25.24680 28.24981 26.74831
#
# Velocity S-wave (km/s) = 3.48581 3.68729 3.58796
# Velocity P-wave (km/s) = 5.88537 6.08480 5.98591
#
# Compressibility (1/GPa) = 0.02610501
#
# Stress axis : x y z
#
# Youngs Moduli (GPa) = 72.73642 47.68880 59.38399
#
# Poissons Ratio (x) = 0.25969 0.14348
# Poissons Ratio (y) = 0.39609 0.28886
# Poissons Ratio (z) = 0.17574 0.23197
#
# Static dielectric constant tensor:
#      x y z
#    x 3.816930 0.000000 0.062460 
#    y 0.000000 3.483180 0.000000 
#    z 0.062460 0.000000 3.766250 
# 
# 
# High freq. dielectric constant tensor:
#      x y z
#    x 1.823690 0.000000 0.001310 
#    y 0.000000 1.811570 0.000000 
#    z 0.001310 0.000000 1.813640 
# 
# From -- ./inp_files/67216.got.cif
#   From: 2010.06.25/outbox.cif.g09.slc.cpg/sg15_34_cif.got.tgz:67216.got - 2010.06.28 07:06:18.
