data_PCOD8146600
_publ_section_title
;
Structure prediction by ZEFSAII (Michael W. Deem and Ramdas Pophale) SiO2 
 PCOD8146600
Probable space group: C 2/C
;
_chemical_formula_sum "Si O2"
_cell_formula_units_Z 48
_cell_length_a 18.299009
_cell_length_b 30.523209
_cell_length_c 9.253712
_cell_angle_alpha 90.000000
_cell_angle_beta 153.057849
_cell_angle_gamma 90.000000
_cell_volume 2341.848784
_symmetry_space_group_name_H-M "C 2/C"
_symmetry_group_IT_number 15
_symmetry_cell_setting 'monoclinic'
loop_
_space_group_symop_operation_xyz
x,y,z
-x,y,1/2-z
-x,-y,-z
x,-y,1/2+z
1/2+x,1/2+y,z
1/2-x,1/2+y,1/2-z
1/2-x,1/2-y,-z
1/2+x,1/2-y,1/2+z
loop_
_atom_site_type_symbol
_atom_site_label
_atom_site_fract_x
_atom_site_fract_y
_atom_site_fract_z
Si Si1 0.311238 0.794511 0.051014
Si Si2 0.373271 0.372314 0.142092
Si Si3 0.183357 0.542853 0.223409
Si Si4 0.185581 0.458288 0.390638
Si Si5 0.604554 0.623692 0.295433
Si Si6 0.323235 0.209981 0.228537
O O1 0.485433 0.797691 0.434965
O O2 0.250000 0.750000 0.000000
O O3 0.204118 0.834652 0.916253
O O4 0.290171 0.789038 0.841812
O O5 0.500000 0.353628 0.250000
O O6 0.469026 0.391220 0.445255
O O7 0.274158 0.412210 0.904865
O O8 0.256905 0.332801 0.983124
O O9 0.256234 0.501162 0.435362
O O10 0.206375 0.533479 0.096016
O O11 0.003734 0.549608 0.967983
O O12 0.274691 0.416987 0.475855
O O13 0.500000 0.636269 0.250000
O O14 0.250000 0.250000 0.000000
#
# Coordination Sequence:
#
# PCOD8146600 Si02
#       6
#     8   8   8   8   8   8
#     4  11  25  45  68  95 132 168 215 271 325 385
#     4  12  23  43  66  94 129 173 219 266 326 387
#     4  10  22  41  69  94 129 173 218 270 325 386
#     4  10  22  43  65  96 130 172 219 267 325 388
#     4  12  27  43  64  96 136 172 217 270 326 390
#     4  11  25  44  71  96 125 172 218 267 326 392
#
# _framework density 20.496627
#
# number of rings (size 3 to 8) (size 9 to 14) (size 15 to 20)
#    0.000    1.000    3.333    2.000    7.000    4.000 
#    0.000    1.667    0.000    0.000    0.000    0.000 
#    0.000    0.000    0.000    0.000    0.000    0.000 
#
# Total GULP energy -297358.365161 kJ/mol
# GULP energy per Si atom -12389.931882 kJ/mol
# Density = 2.044998 g / cm^3
# Si number density = 20.496627 Si / 1000 Ang^3
#
#
#
# Elastic Constant Matrix: (Units=GPa)
#
#
# Indices 1 2 3 4 5 6 
#
# 1 100.6266 44.3716 38.4790 0.0000 12.0085 0.0000
# 2 44.3716 164.1537 55.3244 0.0000 12.4014 0.0000
# 3 38.4790 55.3244 103.1146 0.0000 -2.6072 0.0000
# 4 0.0000 0.0000 0.0000 57.1480 0.0000 5.5649
# 5 12.0085 12.4014 -2.6072 0.0000 24.6402 0.0000
# 6 0.0000 0.0000 0.0000 5.5649 0.0000 37.3438
#
#
#
# Elastic Compliance Matrix: (Units=1/GPa)
#
#
# Indices 1 2 3 4 5 6 
#
# 1 0.012940 -0.001678 -0.004077 0.000000 -0.005893 0.000000
# 2 -0.001678 0.008109 -0.003817 0.000000 -0.003667 0.000000
# 3 -0.004077 -0.003817 0.013402 0.000000 0.005326 0.000000
# 4 0.000000 0.000000 0.000000 0.017756 0.000000 -0.002646
# 5 -0.005893 -0.003667 0.005326 0.000000 0.045865 0.000000
# 6 0.000000 0.000000 0.000000 -0.002646 0.000000 0.027173
#
#
# Mechanical properties :
#
#
# Convention : Reuss Voigt Hill
#
# Bulk Modulus (GPa) = 65.33547 71.58276 68.45912
# Shear Modulus (GPa) = 33.44630 39.14107 36.29368
#
# Velocity S-wave (km/s) = 4.04393 4.37468 4.21255
# Velocity P-wave (km/s) = 7.33143 7.77927 7.55867
#
# Compressibility (1/GPa) = 0.01530562
#
# Stress axis : x y z
#
# Youngs Moduli (GPa) = 77.27825 123.31846 74.61456
#
# Poissons Ratio (x) = 0.20698 0.30423
# Poissons Ratio (y) = 0.12971 0.28482
# Poissons Ratio (z) = 0.31509 0.47073
#
# Static dielectric constant tensor:
#      x y z
#    x 3.718960 0.000000 0.054650 
#    y 0.000000 3.807720 0.000000 
#    z 0.054650 0.000000 3.910230 
# 
# 
# High freq. dielectric constant tensor:
#      x y z
#    x 1.803350 0.000000 0.002190 
#    y 0.000000 1.814680 0.000000 
#    z 0.002190 0.000000 1.816930 
# 
# From -- ./inp_files/52729.got.cif
#   From: 2010.06.25/outbox.cif.g09.slc.cpg/sg15_27_cif.got.tgz:52729.got - 2010.06.28 07:06:18.
