data_PCOD8146897
_publ_section_title
;
Structure prediction by ZEFSAII (Michael W. Deem and Ramdas Pophale) SiO2 
 PCOD8146897
Probable space group: C 2/C
;
_chemical_formula_sum "Si O2"
_cell_formula_units_Z 40
_cell_length_a 11.752941
_cell_length_b 14.583619
_cell_length_c 16.363448
_cell_angle_alpha 90.000000
_cell_angle_beta 38.899072
_cell_angle_gamma 90.000000
_cell_volume 1761.213737
_symmetry_space_group_name_H-M "C 2/C"
_symmetry_group_IT_number 15
_symmetry_cell_setting 'monoclinic'
loop_
_space_group_symop_operation_xyz
x,y,z
-x,y,1/2-z
-x,-y,-z
x,-y,1/2+z
1/2+x,1/2+y,z
1/2-x,1/2+y,1/2-z
1/2-x,1/2-y,-z
1/2+x,1/2-y,1/2+z
loop_
_atom_site_type_symbol
_atom_site_label
_atom_site_fract_x
_atom_site_fract_y
_atom_site_fract_z
Si Si1 0.931910 0.430353 0.469534
Si Si2 0.972232 0.235388 0.510923
Si Si3 0.614212 0.447293 0.531180
Si Si4 0.617036 0.218089 0.262812
Si Si5 0.774001 0.479969 0.784425
O O1 0.738032 0.458790 0.541324
O O2 0.000000 0.500000 0.500000
O O3 0.887871 0.330614 0.528536
O O4 0.095152 0.434083 0.310885
O O5 0.180681 0.241966 0.373464
O O6 0.875653 0.153630 0.515517
O O7 0.944172 0.222698 0.624061
O O8 0.407129 0.473918 0.671290
O O9 0.697282 0.518024 0.419146
O O10 0.500000 0.246191 0.250000
O O11 0.601198 0.110399 0.293942
#
# Coordination Sequence:
#
# PCOD8146897 Si02
#       5
#     8   8   8   8   8
#     4  12  23  41  65  98 131 172 228 274 331 399
#     4  11  24  42  64  99 132 175 227 274 343 397
#     4  10  23  43  68  92 134 177 218 277 335 404
#     4  11  22  41  65  95 134 173 224 280 335 403
#     4  10  22  42  66  94 128 175 224 270 343 398
#
# _framework density 22.711608999999999
#
# number of rings (size 3 to 8) (size 9 to 14) (size 15 to 20)
#    0.000    1.200    2.000    4.200    0.000    0.800 
#    7.200    2.000    0.000    0.000    0.000    0.000 
#    0.000    0.000    0.000    0.000    0.000    0.000 
#
# Total GULP energy -247969.187903 kJ/mol
# GULP energy per Si atom -12398.459395 kJ/mol
# Density = 2.265992 g / cm^3
# Si number density = 22.711609 Si / 1000 Ang^3
#
#
#
# Elastic Constant Matrix: (Units=GPa)
#
#
# Indices 1 2 3 4 5 6 
#
# 1 162.7483 19.6216 21.1677 0.0005 -12.5593 -0.0001
# 2 19.6216 51.3983 -8.8775 0.0004 -4.6147 -0.0001
# 3 21.1677 -8.8775 76.6163 0.0022 6.4614 -0.0008
# 4 0.0005 0.0004 0.0022 33.4626 -0.0004 4.0755
# 5 -12.5593 -4.6147 6.4614 -0.0004 25.7149 0.0000
# 6 -0.0001 -0.0001 -0.0008 4.0755 0.0000 26.7931
#
#
#
# Elastic Compliance Matrix: (Units=1/GPa)
#
#
# Indices 1 2 3 4 5 6 
#
# 1 0.007103 -0.002835 -0.002596 0.000000 0.003612 0.000000
# 2 -0.002835 0.021222 0.003104 0.000000 0.001644 0.000000
# 3 -0.002596 0.003104 0.014496 -0.000001 -0.004353 0.000001
# 4 0.000000 0.000000 -0.000001 0.030448 0.000001 -0.004631
# 5 0.003612 0.001644 -0.004353 0.000001 0.042041 0.000000
# 6 0.000000 0.000000 0.000001 -0.004631 0.000000 0.038028
#
#
# Mechanical properties :
#
#
# Convention : Reuss Voigt Hill
#
# Bulk Modulus (GPa) = 26.20125 39.39850 32.79987
# Shear Modulus (GPa) = 29.28878 34.45085 31.86982
#
# Velocity S-wave (km/s) = 3.59499 3.89894 3.75005
# Velocity P-wave (km/s) = 5.36596 6.13628 5.76400
#
# Compressibility (1/GPa) = 0.03816612
#
# Stress axis : x y z
#
# Youngs Moduli (GPa) = 140.79235 47.12089 68.98504
#
# Poissons Ratio (x) = 0.13361 0.17905
# Poissons Ratio (y) = 0.39921 -0.21411
# Poissons Ratio (z) = 0.36543 -0.14625
#
# Static dielectric constant tensor:
#      x y z
#    x 4.368920 0.000000 -0.085090 
#    y 0.000000 4.305860 0.000000 
#    z -0.085090 0.000000 4.276680 
# 
# 
# High freq. dielectric constant tensor:
#      x y z
#    x 1.894060 0.000000 -0.005560 
#    y 0.000000 1.889840 0.000000 
#    z -0.005560 0.000000 1.902530 
# 
# From -- ./inp_files/85730.got.cif
#   From: 2010.06.25/outbox.cif.g09.slc.cpg/sg15_43_cif.got.tgz:85730.got - 2010.06.28 07:06:18.
