data_PCOD8146623
_publ_section_title
;
Structure prediction by ZEFSAII (Michael W. Deem and Ramdas Pophale) SiO2 
 PCOD8146623
Probable space group: C 2/C
;
_chemical_formula_sum "Si O2"
_cell_formula_units_Z 44
_cell_length_a 10.220593
_cell_length_b 10.527893
_cell_length_c 27.572382
_cell_angle_alpha 90.000000
_cell_angle_beta 138.599398
_cell_angle_gamma 90.000000
_cell_volume 1962.019567
_symmetry_space_group_name_H-M "C 2/C"
_symmetry_group_IT_number 15
_symmetry_cell_setting 'monoclinic'
loop_
_space_group_symop_operation_xyz
x,y,z
-x,y,1/2-z
-x,-y,-z
x,-y,1/2+z
1/2+x,1/2+y,z
1/2-x,1/2+y,1/2-z
1/2-x,1/2-y,-z
1/2+x,1/2-y,1/2+z
loop_
_atom_site_type_symbol
_atom_site_label
_atom_site_fract_x
_atom_site_fract_y
_atom_site_fract_z
Si Si1 0.828513 0.070012 0.347017
Si Si2 0.500000 0.876007 0.250000
Si Si3 0.884012 0.197800 0.669823
Si Si4 0.259782 0.180342 0.278464
Si Si5 0.138382 0.460314 0.596471
Si Si6 0.768938 0.386566 0.979610
O O1 0.778331 0.197911 0.361448
O O2 0.790496 0.083991 0.278708
O O3 0.056991 0.041451 0.421219
O O4 0.678017 0.959652 0.322778
O O5 0.588378 0.787202 0.232085
O O6 0.775364 0.077202 0.617775
O O7 0.000000 0.156684 0.750000
O O8 0.030522 0.251003 0.669857
O O9 0.267799 0.106599 0.331172
O O10 0.146841 0.366867 0.552105
O O11 0.920446 0.516428 0.548457
O O12 0.750000 0.250000 0.000000
#
# Coordination Sequence:
#
# PCOD8146623 Si02
#       6
#     8   4   8   8   8   8
#     4  11  23  44  69 101 136 182 222 291 337 406
#     4  12  24  40  66 102 134 170 228 282 342 396
#     4  10  22  41  70 100 138 173 226 287 341 389
#     4  11  25  41  69 103 132 173 236 285 336 402
#     4  11  25  44  70 101 135 186 226 281 342 407
#     4  11  24  45  71  98 144 185 226 275 352 415
#
# _framework density 22.425871000000001
#
# number of rings (size 3 to 8) (size 9 to 14) (size 15 to 20)
#    0.000    1.091    4.545    2.182    8.909    1.455 
#    0.000   10.909    0.000    0.000    0.000    0.000 
#    0.000    0.000    0.000    0.000    0.000    0.000 
#
# Total GULP energy -272797.389396 kJ/mol
# GULP energy per Si atom -12399.881336 kJ/mol
# Density = 2.237483 g / cm^3
# Si number density = 22.425871 Si / 1000 Ang^3
#
#
#
# Elastic Constant Matrix: (Units=GPa)
#
#
# Indices 1 2 3 4 5 6 
#
# 1 90.4524 48.8680 33.2919 0.0000 12.1101 0.0000
# 2 48.8680 102.6192 51.0962 0.0000 0.1429 0.0000
# 3 33.2919 51.0962 79.8137 0.0000 31.5169 0.0000
# 4 0.0000 0.0000 0.0000 26.0426 0.0000 4.5381
# 5 12.1101 0.1429 31.5169 0.0000 50.1631 0.0000
# 6 0.0000 0.0000 0.0000 4.5381 0.0000 37.8698
#
#
#
# Elastic Compliance Matrix: (Units=1/GPa)
#
#
# Indices 1 2 3 4 5 6 
#
# 1 0.015568 -0.007094 -0.000634 0.000000 -0.003340 0.000000
# 2 -0.007094 0.020105 -0.014052 0.000000 0.010484 0.000000
# 3 -0.000634 -0.014052 0.028878 0.000000 -0.017951 0.000000
# 4 0.000000 0.000000 0.000000 0.039218 0.000000 -0.004700
# 5 -0.003340 0.010484 -0.017951 0.000000 0.031990 0.000000
# 6 0.000000 0.000000 0.000000 -0.004700 0.000000 0.026969
#
#
# Mechanical properties :
#
#
# Convention : Reuss Voigt Hill
#
# Bulk Modulus (GPa) = 47.63601 59.93306 53.78453
# Shear Modulus (GPa) = 23.44284 32.12371 27.78327
#
# Velocity S-wave (km/s) = 3.23669 3.78886 3.52361
# Velocity P-wave (km/s) = 5.93767 6.77670 6.37101
#
# Compressibility (1/GPa) = 0.02099252
#
# Stress axis : x y z
#
# Youngs Moduli (GPa) = 64.23285 49.73857 34.62836
#
# Poissons Ratio (x) = 0.35283 0.02194
# Poissons Ratio (y) = 0.45564 0.48661
# Poissons Ratio (z) = 0.04070 0.69894
#
# Static dielectric constant tensor:
#      x y z
#    x 4.213330 0.000000 0.336640 
#    y 0.000000 4.018640 0.000000 
#    z 0.336640 0.000000 3.969970 
# 
# 
# High freq. dielectric constant tensor:
#      x y z
#    x 1.895480 0.000000 0.025230 
#    y 0.000000 1.880000 0.000000 
#    z 0.025230 0.000000 1.869770 
# 
# From -- ./inp_files/288146.got.cif
#   From: 2010.06.25/outbox.cif.g09.slc.cpg/sg15_145_cif.got.tgz:288146.got - 2010.06.28 07:06:18.
