data_PCOD8146588
_publ_section_title
;
Structure prediction by ZEFSAII (Michael W. Deem and Ramdas Pophale) SiO2 
 PCOD8146588
Probable space group: C 2/C
;
_chemical_formula_sum "Si O2"
_cell_formula_units_Z 52
_cell_length_a 26.145263
_cell_length_b 14.363763
_cell_length_c 8.316620
_cell_angle_alpha 90.000000
_cell_angle_beta 135.805335
_cell_angle_gamma 90.000000
_cell_volume 2177.219203
_symmetry_space_group_name_H-M "C 2/C"
_symmetry_group_IT_number 15
_symmetry_cell_setting 'monoclinic'
loop_
_space_group_symop_operation_xyz
x,y,z
-x,y,1/2-z
-x,-y,-z
x,-y,1/2+z
1/2+x,1/2+y,z
1/2-x,1/2+y,1/2-z
1/2-x,1/2-y,-z
1/2+x,1/2-y,1/2+z
loop_
_atom_site_type_symbol
_atom_site_label
_atom_site_fract_x
_atom_site_fract_y
_atom_site_fract_z
Si Si1 0.780567 0.617828 0.901963
Si Si2 0.000000 0.267748 0.250000
Si Si3 0.575365 0.122060 0.682453
Si Si4 0.358467 0.975610 0.868459
Si Si5 0.110397 0.886472 0.080971
Si Si6 0.919757 0.915074 0.115747
Si Si7 0.676205 0.261111 0.731456
O O1 0.796166 0.548054 0.787375
O O2 0.695901 0.623874 0.748072
O O3 0.809173 0.719273 0.912984
O O4 0.824930 0.589515 0.158172
O O5 0.999299 0.335591 0.408308
O O6 0.072457 0.204711 0.419693
O O7 0.612390 0.207348 0.677461
O O8 0.571489 0.034339 0.549429
O O9 0.621622 0.090294 0.941049
O O10 0.090483 0.896487 0.220688
O O11 0.082009 0.975296 0.919139
O O12 0.000000 0.875234 0.250000
O O13 0.854452 0.865716 0.864942
O O14 0.750000 0.250000 0.000000
#
# Coordination Sequence:
#
# PCOD8146588 Si02
#       7
#     8   4   8   8   8   8   8
#     4  10  22  41  69 100 132 172 235 287 356 410
#     4  12  26  44  68 104 140 192 236 290 340 444
#     4  10  23  43  71  99 144 175 237 287 360 417
#     4   9  21  43  70 102 130 178 223 298 355 416
#     4  12  27  44  72 100 144 191 238 292 357 429
#     4  12  28  47  70 102 147 195 243 290 363 430
#     4  11  26  43  69 103 143 187 237 307 350 421
#
# _framework density 23.883675
#
# number of rings (size 3 to 8) (size 9 to 14) (size 15 to 20)
#    0.000    1.231    0.769    3.231   15.077    1.231 
#    0.000    0.000    3.385    0.000    0.000    0.000 
#    0.000    0.000    0.000    0.000    0.000    0.000 
#
# Total GULP energy -322317.052258 kJ/mol
# GULP energy per Si atom -12396.809702 kJ/mol
# Density = 2.382932 g / cm^3
# Si number density = 23.883675 Si / 1000 Ang^3
#
#
#
# Elastic Constant Matrix: (Units=GPa)
#
#
# Indices 1 2 3 4 5 6 
#
# 1 137.6946 37.6879 12.5569 0.0000 -9.7628 0.0000
# 2 37.6879 97.0317 21.9130 0.0000 5.3863 0.0000
# 3 12.5569 21.9130 50.7886 0.0000 -4.0613 0.0000
# 4 0.0000 0.0000 0.0000 103.7205 0.0000 -73.5950
# 5 -9.7628 5.3863 -4.0613 0.0000 36.1278 0.0000
# 6 0.0000 0.0000 0.0000 -73.5950 0.0000 97.2926
#
#
#
# Elastic Compliance Matrix: (Units=1/GPa)
#
#
# Indices 1 2 3 4 5 6 
#
# 1 0.008402 -0.003317 -0.000429 0.000000 0.002717 0.000000
# 2 -0.003317 0.012917 -0.005024 0.000000 -0.003387 0.000000
# 3 -0.000429 -0.005024 0.022213 0.000000 0.003130 0.000000
# 4 0.000000 0.000000 0.000000 0.020811 0.000000 0.015742
# 5 0.002717 -0.003387 0.003130 0.000000 0.029271 0.000000
# 6 0.000000 0.000000 0.000000 0.015742 0.000000 0.022186
#
#
# Mechanical properties :
#
#
# Convention : Reuss Voigt Hill
#
# Bulk Modulus (GPa) = 38.47258 47.75896 43.11577
# Shear Modulus (GPa) = 35.21015 61.65198 48.43106
#
# Velocity S-wave (km/s) = 3.84374 5.08620 4.50798
# Velocity P-wave (km/s) = 5.98685 7.38461 6.72216
#
# Compressibility (1/GPa) = 0.02599253
#
# Stress axis : x y z
#
# Youngs Moduli (GPa) = 119.01645 77.41748 45.01813
#
# Poissons Ratio (x) = 0.25683 0.01930
# Poissons Ratio (y) = 0.39483 0.22616
# Poissons Ratio (z) = 0.05103 0.38893
#
# Static dielectric constant tensor:
#      x y z
#    x 5.142250 0.000000 -0.370250 
#    y 0.000000 5.051940 0.000000 
#    z -0.370250 0.000000 4.110240 
# 
# 
# High freq. dielectric constant tensor:
#      x y z
#    x 1.976740 0.000000 -0.012810 
#    y 0.000000 1.960850 0.000000 
#    z -0.012810 0.000000 1.923750 
# 
# From -- ./inp_files/70199.got.cif
#   From: 2010.06.25/outbox.cif.g09.slc.cpg/sg15_36_cif.got.tgz:70199.got - 2010.06.28 07:06:18.
