data_PCOD8146338
_publ_section_title
;
Structure prediction by ZEFSAII (Michael W. Deem and Ramdas Pophale) SiO2 
 PCOD8146338
Probable space group: C 2/C
;
_chemical_formula_sum "Si O2"
_cell_formula_units_Z 40
_cell_length_a 19.391906
_cell_length_b 12.093565
_cell_length_c 22.983328
_cell_angle_alpha 90.000000
_cell_angle_beta 159.977669
_cell_angle_gamma 90.000000
_cell_volume 1845.458201
_symmetry_space_group_name_H-M "C 2/C"
_symmetry_group_IT_number 15
_symmetry_cell_setting 'monoclinic'
loop_
_space_group_symop_operation_xyz
x,y,z
-x,y,1/2-z
-x,-y,-z
x,-y,1/2+z
1/2+x,1/2+y,z
1/2-x,1/2+y,1/2-z
1/2-x,1/2-y,-z
1/2+x,1/2-y,1/2+z
loop_
_atom_site_type_symbol
_atom_site_label
_atom_site_fract_x
_atom_site_fract_y
_atom_site_fract_z
Si Si1 0.409958 0.237134 0.321249
Si Si2 0.750405 0.327212 0.909861
Si Si3 0.792521 0.371602 0.616692
Si Si4 0.969567 0.372192 0.468996
Si Si5 0.673848 0.605312 0.472127
O O1 0.624971 0.279870 0.467627
O O2 0.329948 0.139587 0.215667
O O3 0.406027 0.189392 0.382617
O O4 0.264162 0.343262 0.208160
O O5 0.563087 0.367422 0.722091
O O6 0.769942 0.403109 0.983438
O O7 0.952413 0.335049 0.032442
O O8 0.716426 0.201113 0.903846
O O9 0.712309 0.492480 0.536907
O O10 0.000000 0.341009 0.750000
O O11 0.000000 0.500000 0.500000
#
# Coordination Sequence:
#
# PCOD8146338 Si02
#       5
#     8   8   8   8   8
#     4  10  25  44  63  99 122 166 220 256 317 386
#     4  10  22  41  63 100 134 160 214 257 312 379
#     4  11  24  44  68  91 126 167 215 271 318 364
#     4  11  23  41  68  90 134 169 203 259 319 381
#     4  10  23  39  68  96 129 167 211 262 315 371
#
# _framework density 21.674831999999999
#
# number of rings (size 3 to 8) (size 9 to 14) (size 15 to 20)
#    0.000    1.600    0.000    3.000    8.400    1.600 
#    7.200    5.000    0.000    0.000    0.000    0.000 
#    0.000    0.000    0.000    0.000    0.000    0.000 
#
# Total GULP energy -247996.882571 kJ/mol
# GULP energy per Si atom -12399.844129 kJ/mol
# Density = 2.162550 g / cm^3
# Si number density = 21.674832 Si / 1000 Ang^3
#
#
#
# Elastic Constant Matrix: (Units=GPa)
#
#
# Indices 1 2 3 4 5 6 
#
# 1 126.3798 49.9690 51.8811 0.0111 13.4361 0.0043
# 2 49.9690 139.4081 54.9851 -0.0035 -9.1751 0.0008
# 3 51.8811 54.9851 118.0732 0.0262 7.9461 0.0088
# 4 0.0111 -0.0035 0.0262 29.5365 0.0017 -4.6504
# 5 13.4361 -9.1751 7.9461 0.0017 30.4035 -0.0060
# 6 0.0043 0.0008 0.0088 -4.6504 -0.0060 32.2661
#
#
#
# Elastic Compliance Matrix: (Units=1/GPa)
#
#
# Indices 1 2 3 4 5 6 
#
# 1 0.010881 -0.003025 -0.003041 -0.000002 -0.004927 -0.000002
# 2 -0.003025 0.010079 -0.003725 0.000006 0.005352 0.000003
# 3 -0.003041 -0.003725 0.011731 -0.000010 -0.002846 -0.000005
# 4 -0.000002 0.000006 -0.000010 0.034643 0.000004 0.004993
# 5 -0.004927 0.005352 -0.002846 0.000004 0.037427 0.000009
# 6 -0.000002 0.000003 -0.000005 0.004993 0.000009 0.031712
#
#
# Mechanical properties :
#
#
# Convention : Reuss Voigt Hill
#
# Bulk Modulus (GPa) = 76.27525 77.50351 76.88938
# Shear Modulus (GPa) = 31.16758 33.57625 32.37191
#
# Velocity S-wave (km/s) = 3.79616 3.94012 3.86881
# Velocity P-wave (km/s) = 7.38116 7.51893 7.45037
#
# Compressibility (1/GPa) = 0.01311041
#
# Stress axis : x y z
#
# Youngs Moduli (GPa) = 91.90542 99.21923 85.24119
#
# Poissons Ratio (x) = 0.30014 0.25920
# Poissons Ratio (y) = 0.27801 0.31748
# Poissons Ratio (z) = 0.27946 0.36954
#
# Static dielectric constant tensor:
#      x y z
#    x 4.480230 -0.000250 0.242330 
#    y -0.000250 3.744190 -0.000090 
#    z 0.242330 -0.000090 4.076630 
# 
# 
# High freq. dielectric constant tensor:
#      x y z
#    x 1.858070 0.000000 -0.001200 
#    y 0.000000 1.840300 -0.000010 
#    z -0.001200 -0.000010 1.863690 
# 
# From -- ./inp_files/280049.got.cif
#   From: 2010.06.25/outbox.cif.g09.slc.cpg/sg15_141_cif.got.tgz:280049.got - 2010.06.28 07:06:18.
