data_PCOD8146368
_publ_section_title
;
Structure prediction by ZEFSAII (Michael W. Deem and Ramdas Pophale) SiO2 
 PCOD8146368
Probable space group: C 2/C
;
_chemical_formula_sum "Si O2"
_cell_formula_units_Z 40
_cell_length_a 12.664403
_cell_length_b 30.544720
_cell_length_c 5.159265
_cell_angle_alpha 90.000000
_cell_angle_beta 84.072179
_cell_angle_gamma 90.000000
_cell_volume 1985.090037
_symmetry_space_group_name_H-M "C 2/C"
_symmetry_group_IT_number 15
_symmetry_cell_setting 'monoclinic'
loop_
_space_group_symop_operation_xyz
x,y,z
-x,y,1/2-z
-x,-y,-z
x,-y,1/2+z
1/2+x,1/2+y,z
1/2-x,1/2+y,1/2-z
1/2-x,1/2-y,-z
1/2+x,1/2-y,1/2+z
loop_
_atom_site_type_symbol
_atom_site_label
_atom_site_fract_x
_atom_site_fract_y
_atom_site_fract_z
Si Si1 0.500000 0.220247 0.750000
Si Si2 0.000000 0.826152 0.250000
Si Si3 0.500000 0.162294 0.250000
Si Si4 0.000000 0.970153 0.250000
Si Si5 0.160173 0.104233 0.810856
Si Si6 0.272764 0.867710 0.762955
Si Si7 0.169556 0.220948 0.358763
O O1 0.475063 0.191558 0.505512
O O2 0.392836 0.248949 0.835309
O O3 0.927027 0.858727 0.096276
O O4 0.927134 0.795945 0.442187
O O5 0.600148 0.130960 0.277113
O O6 0.105839 0.941030 0.242673
O O7 0.000000 0.000000 0.500000
O O8 0.233818 0.118967 0.555756
O O9 0.230340 0.098992 0.053299
O O10 0.232609 0.818453 0.705594
O O11 0.250000 0.250000 0.500000
#
# Coordination Sequence:
#
# PCOD8146368 Si02
#       7
#     4   4   4   4   8   8   8
#     4  12  24  38  51  78 109 151 210 288 320 345
#     4   9  21  38  52  82 111 164 200 245 308 376
#     4  12  25  38  57  80 112 153 222 263 294 343
#     4  11  22  40  72 112 132 146 182 238 294 380
#     4  10  22  41  64  86 129 158 190 229 313 382
#     4  11  23  40  57  84 115 170 208 254 302 364
#     4  11  22  36  55  78 112 162 214 276 322 344
#
# _framework density 20.150221999999999
#
# number of rings (size 3 to 8) (size 9 to 14) (size 15 to 20)
#    0.000    1.200    2.000    4.200    2.800    8.000 
#    0.000    0.000    0.000    0.000    0.000   14.000 
#    0.000    0.000    0.000    0.000    0.000    0.000 
#
# Total GULP energy -248011.733924 kJ/mol
# GULP energy per Si atom -12400.586696 kJ/mol
# Density = 2.010436 g / cm^3
# Si number density = 20.150222 Si / 1000 Ang^3
#
#
#
# Elastic Constant Matrix: (Units=GPa)
#
#
# Indices 1 2 3 4 5 6 
#
# 1 152.4757 46.2889 37.9224 0.0000 12.2066 0.0000
# 2 46.2889 77.9929 27.4446 0.0000 2.7728 0.0000
# 3 37.9224 27.4446 100.6962 0.0000 10.8621 0.0000
# 4 0.0000 0.0000 0.0000 23.5937 0.0000 10.7718
# 5 12.2066 2.7728 10.8621 0.0000 35.1291 0.0000
# 6 0.0000 0.0000 0.0000 10.7718 0.0000 21.0917
#
#
#
# Elastic Compliance Matrix: (Units=1/GPa)
#
#
# Indices 1 2 3 4 5 6 
#
# 1 0.008483 -0.004331 -0.001793 0.000000 -0.002052 0.000000
# 2 -0.004331 0.016393 -0.002958 0.000000 0.001126 0.000000
# 3 -0.001793 -0.002958 0.011711 0.000000 -0.002764 0.000000
# 4 0.000000 0.000000 0.000000 0.055272 0.000000 -0.028228
# 5 -0.002052 0.001126 -0.002764 0.000000 0.029945 0.000000
# 6 0.000000 0.000000 0.000000 -0.028228 0.000000 0.061829
#
#
# Mechanical properties :
#
#
# Convention : Reuss Voigt Hill
#
# Bulk Modulus (GPa) = 54.28217 61.60851 57.94534
# Shear Modulus (GPa) = 24.04552 30.59682 27.32117
#
# Velocity S-wave (km/s) = 3.45818 3.90094 3.68621
# Velocity P-wave (km/s) = 6.55306 7.13658 6.85103
#
# Compressibility (1/GPa) = 0.01842226
#
# Stress axis : x y z
#
# Youngs Moduli (GPa) = 117.87644 61.00126 85.39237
#
# Poissons Ratio (x) = 0.26420 0.15312
# Poissons Ratio (y) = 0.51052 0.25261
# Poissons Ratio (z) = 0.21137 0.18046
#
# Static dielectric constant tensor:
#      x y z
#    x 3.995640 0.000000 0.242710 
#    y 0.000000 3.621520 0.000000 
#    z 0.242710 0.000000 3.678000 
# 
# 
# High freq. dielectric constant tensor:
#      x y z
#    x 1.802160 0.000000 0.012120 
#    y 0.000000 1.748190 0.000000 
#    z 0.012120 0.000000 1.789510 
# 
# From -- ./inp_files/5057.got.cif
#   From: 2010.06.25/outbox.cif.g09.slc.cpg/sg15_3_cif.got.tgz:5057.got - 2010.06.28 07:06:18.
