data_PCOD8146337
_publ_section_title
;
Structure prediction by ZEFSAII (Michael W. Deem and Ramdas Pophale) SiO2 
 PCOD8146337
Probable space group: C 2/C
;
_chemical_formula_sum "Si O2"
_cell_formula_units_Z 56
_cell_length_a 8.529137
_cell_length_b 22.840035
_cell_length_c 14.192832
_cell_angle_alpha 90.000000
_cell_angle_beta 115.278464
_cell_angle_gamma 90.000000
_cell_volume 2500.092803
_symmetry_space_group_name_H-M "C 2/C"
_symmetry_group_IT_number 15
_symmetry_cell_setting 'monoclinic'
loop_
_space_group_symop_operation_xyz
x,y,z
-x,y,1/2-z
-x,-y,-z
x,-y,1/2+z
1/2+x,1/2+y,z
1/2-x,1/2+y,1/2-z
1/2-x,1/2-y,-z
1/2+x,1/2-y,1/2+z
loop_
_atom_site_type_symbol
_atom_site_label
_atom_site_fract_x
_atom_site_fract_y
_atom_site_fract_z
Si Si1 0.645516 0.600148 0.030290
Si Si2 0.274205 0.318021 0.292888
Si Si3 0.686634 0.051991 0.256217
Si Si4 0.008373 0.431460 0.529053
Si Si5 0.543793 0.177935 0.913034
Si Si6 0.443982 0.269845 0.032271
Si Si7 0.399294 0.556108 0.814971
O O1 0.663491 0.585064 0.145868
O O2 0.831285 0.592992 0.028315
O O3 0.568277 0.665133 0.012798
O O4 0.513783 0.557407 0.940098
O O5 0.131185 0.298387 0.182095
O O6 0.443169 0.275429 0.341537
O O7 0.333145 0.380434 0.270236
O O8 0.201523 0.320071 0.381081
O O9 0.500000 0.064070 0.250000
O O10 0.671281 0.073530 0.143865
O O11 0.729558 0.983696 0.281907
O O12 0.000000 0.500000 0.500000
O O13 0.043403 0.389329 0.449225
O O14 0.558496 0.224621 0.000626
O O15 0.250000 0.250000 0.000000
O O16 0.500000 0.530590 0.750000
#
# Coordination Sequence:
#
# PCOD8146337 Si02
#       7
#     8   8   8   8   8   8   8
#     4  10  22  41  62  96 130 169 221 270 325 391
#     4  10  25  40  66  98 123 174 218 276 326 390
#     4  10  23  39  62  95 130 170 213 266 334 389
#     4  11  22  39  65  96 131 170 216 267 328 396
#     4  11  23  43  67  94 132 171 223 268 330 393
#     4  11  23  43  65  93 129 171 223 273 326 389
#     4  11  22  40  65  93 133 169 220 267 324 398
#
# _framework density 22.399168
#
# number of rings (size 3 to 8) (size 9 to 14) (size 15 to 20)
#    0.000    1.429    1.429    3.429    8.000    1.143 
#    7.714    0.000    0.000    0.000    0.000    0.000 
#    0.000    0.000    0.000    0.000    0.000    0.000 
#
# Total GULP energy -346944.527120 kJ/mol
# GULP energy per Si atom -12390.875969 kJ/mol
# Density = 2.234819 g / cm^3
# Si number density = 22.399168 Si / 1000 Ang^3
#
#
#
# Elastic Constant Matrix: (Units=GPa)
#
#
# Indices 1 2 3 4 5 6 
#
# 1 33.5717 7.7502 13.3112 0.0000 9.5749 0.0000
# 2 7.7502 100.2697 35.0411 0.0000 -0.2026 0.0000
# 3 13.3112 35.0411 140.2661 0.0000 17.7284 0.0000
# 4 0.0000 0.0000 0.0000 32.4994 0.0000 6.4295
# 5 9.5749 -0.2026 17.7284 0.0000 35.4629 0.0000
# 6 0.0000 0.0000 0.0000 6.4295 0.0000 34.2026
#
#
#
# Elastic Compliance Matrix: (Units=1/GPa)
#
#
# Indices 1 2 3 4 5 6 
#
# 1 0.033225 -0.002020 -0.001615 0.000000 -0.008175 0.000000
# 2 -0.002020 0.011128 -0.002845 0.000000 0.002031 0.000000
# 3 -0.001615 -0.002845 0.008476 0.000000 -0.003817 0.000000
# 4 0.000000 0.000000 0.000000 0.031958 0.000000 -0.006008
# 5 -0.008175 0.002031 -0.003817 0.000000 0.032326 0.000000
# 6 0.000000 0.000000 0.000000 -0.006008 0.000000 0.030367
#
#
# Mechanical properties :
#
#
# Convention : Reuss Voigt Hill
#
# Bulk Modulus (GPa) = 25.08263 42.92360 34.00311
# Shear Modulus (GPa) = 28.78040 34.96665 31.87352
#
# Velocity S-wave (km/s) = 3.58842 3.95532 3.77633
# Velocity P-wave (km/s) = 5.32835 6.32962 5.85045
#
# Compressibility (1/GPa) = 0.03986824
#
# Stress axis : x y z
#
# Youngs Moduli (GPa) = 30.09749 89.86704 117.98346
#
# Poissons Ratio (x) = 0.18155 0.19056
# Poissons Ratio (y) = 0.06080 0.33565
# Poissons Ratio (z) = 0.04861 0.25566
#
# Static dielectric constant tensor:
#      x y z
#    x 3.942860 0.000000 0.179670 
#    y 0.000000 3.985430 0.000000 
#    z 0.179670 0.000000 4.664530 
# 
# 
# High freq. dielectric constant tensor:
#      x y z
#    x 1.871320 0.000000 0.015540 
#    y 0.000000 1.871050 0.000000 
#    z 0.015540 0.000000 1.902310 
# 
# From -- ./inp_files/137973.got.cif
#   From: 2010.06.25/outbox.cif.g09.slc.cpg/sg15_69_cif.got.tgz:137973.got - 2010.06.28 07:06:18.
