data_PCOD8146173
_publ_section_title
;
Structure prediction by ZEFSAII (Michael W. Deem and Ramdas Pophale) SiO2 
 PCOD8146173
Probable space group: C 2/C
;
_chemical_formula_sum "Si O2"
_cell_formula_units_Z 52
_cell_length_a 30.002920
_cell_length_b 13.713253
_cell_length_c 18.229729
_cell_angle_alpha 90.000000
_cell_angle_beta 19.906367
_cell_angle_gamma 90.000000
_cell_volume 2553.765300
_symmetry_space_group_name_H-M "C 2/C"
_symmetry_group_IT_number 15
_symmetry_cell_setting 'monoclinic'
loop_
_space_group_symop_operation_xyz
x,y,z
-x,y,1/2-z
-x,-y,-z
x,-y,1/2+z
1/2+x,1/2+y,z
1/2-x,1/2+y,1/2-z
1/2-x,1/2-y,-z
1/2+x,1/2-y,1/2+z
loop_
_atom_site_type_symbol
_atom_site_label
_atom_site_fract_x
_atom_site_fract_y
_atom_site_fract_z
Si Si1 0.008534 0.558386 0.583752
Si Si2 0.762351 0.768715 0.801142
Si Si3 0.500000 0.125704 0.750000
Si Si4 0.204916 0.444402 0.199856
Si Si5 0.827562 0.734008 0.219470
Si Si6 0.119194 0.893133 0.114820
Si Si7 0.517487 0.394632 0.436265
O O1 0.130108 0.483592 0.387939
O O2 0.050844 0.664924 0.489584
O O3 0.967325 0.557028 0.732048
O O4 0.882653 0.523176 0.734076
O O5 0.778765 0.670276 0.821406
O O6 0.759705 0.746500 0.718223
O O7 0.877010 0.843357 0.644409
O O8 0.624441 0.809114 0.040254
O O9 0.342053 0.499991 0.977042
O O10 0.738521 0.682858 0.419491
O O11 0.886688 0.833812 0.159114
O O12 0.083966 0.903102 0.254217
O O13 0.000000 0.854755 0.250000
O O14 0.500000 0.500000 0.500000
#
# Coordination Sequence:
#
# PCOD8146173 Si02
#       7
#     8   8   4   8   8   8   8
#     4   9  20  42  63  90 124 172 212 268 327 399
#     4  11  24  44  66  97 133 175 220 276 338 394
#     4  10  24  38  62  94 132 166 214 272 332 396
#     4  10  22  40  68  91 128 171 220 266 333 394
#     4  10  22  45  68  92 135 177 220 276 335 395
#     4  11  24  43  68  98 136 174 223 277 336 398
#     4  12  27  44  70 101 134 176 229 283 330 395
#
# _framework density 20.362089999999998
#
# number of rings (size 3 to 8) (size 9 to 14) (size 15 to 20)
#    0.000    1.538    3.077    0.462    5.385    1.846 
#    0.000    0.000    1.692    0.000    0.000    0.000 
#    0.000    0.000    0.000    0.000    0.000    0.000 
#
# Total GULP energy -322419.228978 kJ/mol
# GULP energy per Si atom -12400.739576 kJ/mol
# Density = 2.031574 g / cm^3
# Si number density = 20.362090 Si / 1000 Ang^3
#
#
#
# Elastic Constant Matrix: (Units=GPa)
#
#
# Indices 1 2 3 4 5 6 
#
# 1 119.7365 48.5884 53.9679 0.0000 13.9733 0.0000
# 2 48.5884 115.2925 47.6685 -0.0001 -2.0512 0.0001
# 3 53.9679 47.6685 111.6709 0.0000 11.9087 0.0000
# 4 0.0000 -0.0001 0.0000 20.3409 0.0000 -2.2049
# 5 13.9733 -2.0512 11.9087 0.0000 39.2570 0.0000
# 6 0.0000 0.0001 0.0000 -2.2049 0.0000 22.5235
#
#
#
# Elastic Compliance Matrix: (Units=1/GPa)
#
#
# Indices 1 2 3 4 5 6 
#
# 1 0.011900 -0.003445 -0.003937 0.000000 -0.003221 0.000000
# 2 -0.003445 0.011680 -0.003635 0.000000 0.002939 0.000000
# 3 -0.003937 -0.003635 0.012690 0.000000 -0.002638 0.000000
# 4 0.000000 0.000000 0.000000 0.049689 0.000000 0.004864
# 5 -0.003221 0.002939 -0.002638 0.000000 0.027574 0.000000
# 6 0.000000 0.000000 0.000000 0.004864 0.000000 0.044874
#
#
# Mechanical properties :
#
#
# Convention : Reuss Voigt Hill
#
# Bulk Modulus (GPa) = 70.23410 71.90550 71.06980
# Shear Modulus (GPa) = 26.99979 29.52261 28.26120
#
# Velocity S-wave (km/s) = 3.64536 3.81186 3.72954
# Velocity P-wave (km/s) = 7.23088 7.40026 7.31606
#
# Compressibility (1/GPa) = 0.01423810
#
# Stress axis : x y z
#
# Youngs Moduli (GPa) = 84.03428 85.61410 78.79955
#
# Poissons Ratio (x) = 0.29490 0.31024
# Poissons Ratio (y) = 0.28946 0.28641
# Poissons Ratio (z) = 0.33085 0.31118
#
# Static dielectric constant tensor:
#      x y z
#    x 3.846520 0.000000 0.041270 
#    y 0.000000 3.586630 0.000000 
#    z 0.041270 0.000000 3.751170 
# 
# 
# High freq. dielectric constant tensor:
#      x y z
#    x 1.801790 0.000000 -0.001880 
#    y 0.000000 1.787970 0.000000 
#    z -0.001880 0.000000 1.804120 
# 
# From -- ./inp_files/225453.got.cif
#   From: 2010.06.25/outbox.cif.g09.slc.cpg/sg15_113_cif.got.tgz:225453.got - 2010.06.28 07:06:18.
