data_PCOD8146572
_publ_section_title
;
Structure prediction by ZEFSAII (Michael W. Deem and Ramdas Pophale) SiO2 
 PCOD8146572
Probable space group: C 2/C
;
_chemical_formula_sum "Si O2"
_cell_formula_units_Z 48
_cell_length_a 24.625582
_cell_length_b 14.920056
_cell_length_c 8.517852
_cell_angle_alpha 90.000000
_cell_angle_beta 41.319305
_cell_angle_gamma 90.000000
_cell_volume 2066.324791
_symmetry_space_group_name_H-M "C 2/C"
_symmetry_group_IT_number 15
_symmetry_cell_setting 'monoclinic'
loop_
_space_group_symop_operation_xyz
x,y,z
-x,y,1/2-z
-x,-y,-z
x,-y,1/2+z
1/2+x,1/2+y,z
1/2-x,1/2+y,1/2-z
1/2-x,1/2-y,-z
1/2+x,1/2-y,1/2+z
loop_
_atom_site_type_symbol
_atom_site_label
_atom_site_fract_x
_atom_site_fract_y
_atom_site_fract_z
Si Si1 0.899637 0.778190 0.827849
Si Si2 0.582159 0.047875 0.384076
Si Si3 0.839446 0.406774 0.469578
Si Si4 0.913803 0.252028 0.648357
Si Si5 0.910380 0.039206 0.149464
Si Si6 0.160800 0.100875 0.503272
O O1 0.871561 0.874055 0.823853
O O2 0.994619 0.782129 0.575480
O O3 0.860685 0.687912 0.836528
O O4 0.872844 0.766678 0.067913
O O5 0.589603 0.066229 0.555518
O O6 0.589180 0.145237 0.289006
O O7 0.500000 0.000000 0.500000
O O8 0.658485 0.984881 0.165521
O O9 0.751620 0.398368 0.739698
O O10 0.866549 0.200589 0.889384
O O11 0.845164 0.961066 0.329750
O O12 0.905677 0.060695 0.975509
O O13 0.000000 0.000000 0.000000
#
# Coordination Sequence:
#
# PCOD8146572 Si02
#       6
#     8   8   8   8   8   8
#     4  10  22  42  67  94 131 174 222 270 328 395
#     4  11  22  43  70  98 134 178 223 267 325 401
#     4  11  25  43  68 101 138 172 218 279 336 385
#     4  10  22  41  68  96 129 175 222 269 328 398
#     4  12  25  42  68  95 133 177 225 270 326 402
#     4  12  26  43  66 102 135 172 222 279 338 384
#
# _framework density 23.229649999999999
#
# number of rings (size 3 to 8) (size 9 to 14) (size 15 to 20)
#    0.000    1.000    3.333    3.000    2.333    6.000 
#    3.000    0.000    0.000    0.000    0.000    0.000 
#    0.000    0.000    0.000    0.000    0.000    0.000 
#
# Total GULP energy -297410.312447 kJ/mol
# GULP energy per Si atom -12392.096352 kJ/mol
# Density = 2.317678 g / cm^3
# Si number density = 23.229650 Si / 1000 Ang^3
#
#
#
# Elastic Constant Matrix: (Units=GPa)
#
#
# Indices 1 2 3 4 5 6 
#
# 1 52.7183 17.7106 5.5781 0.0000 0.9696 0.0000
# 2 17.7106 191.8540 46.5447 0.0000 12.1591 0.0000
# 3 5.5781 46.5447 86.6680 0.0000 -1.1755 0.0000
# 4 0.0000 0.0000 0.0000 56.7903 0.0000 10.0117
# 5 0.9696 12.1591 -1.1755 0.0000 25.1591 0.0000
# 6 0.0000 0.0000 0.0000 10.0117 0.0000 26.3945
#
#
#
# Elastic Compliance Matrix: (Units=1/GPa)
#
#
# Indices 1 2 3 4 5 6 
#
# 1 0.019584 -0.001732 -0.000329 0.000000 0.000067 0.000000
# 2 -0.001732 0.006390 -0.003363 0.000000 -0.003178 0.000000
# 3 -0.000329 -0.003363 0.013396 0.000000 0.002264 0.000000
# 4 0.000000 0.000000 0.000000 0.018871 0.000000 -0.007158
# 5 0.000067 -0.003178 0.002264 0.000000 0.041386 0.000000
# 6 0.000000 0.000000 0.000000 -0.007158 0.000000 0.040602
#
#
# Mechanical properties :
#
#
# Convention : Reuss Voigt Hill
#
# Bulk Modulus (GPa) = 35.06197 52.32301 43.69249
# Shear Modulus (GPa) = 31.13617 39.09591 35.11604
#
# Velocity S-wave (km/s) = 3.66507 4.10691 3.89226
# Velocity P-wave (km/s) = 5.74776 6.71283 6.24895
#
# Compressibility (1/GPa) = 0.02852093
#
# Stress axis : x y z
#
# Youngs Moduli (GPa) = 51.06133 156.50569 74.64736
#
# Poissons Ratio (x) = 0.27111 0.02458
# Poissons Ratio (y) = 0.08845 0.25105
# Poissons Ratio (z) = 0.01681 0.52634
#
# Static dielectric constant tensor:
#      x y z
#    x 4.039450 0.000000 0.155400 
#    y 0.000000 4.647190 0.000000 
#    z 0.155400 0.000000 4.219270 
# 
# 
# High freq. dielectric constant tensor:
#      x y z
#    x 1.887630 0.000000 0.000570 
#    y 0.000000 1.944330 0.000000 
#    z 0.000570 0.000000 1.917290 
# 
# From -- ./inp_files/66391.got.cif
#   From: 2010.06.25/outbox.cif.g09.slc.cpg/sg15_34_cif.got.tgz:66391.got - 2010.06.28 07:06:18.
