data_PCOD8146206
_publ_section_title
;
Structure prediction by ZEFSAII (Michael W. Deem and Ramdas Pophale) SiO2 
 PCOD8146206
Probable space group: C 2/C
;
_chemical_formula_sum "Si O2"
_cell_formula_units_Z 60
_cell_length_a 16.876771
_cell_length_b 9.546592
_cell_length_c 17.980439
_cell_angle_alpha 90.000000
_cell_angle_beta 91.019029
_cell_angle_gamma 90.000000
_cell_volume 2896.471895
_symmetry_space_group_name_H-M "C 2/C"
_symmetry_group_IT_number 15
_symmetry_cell_setting 'monoclinic'
loop_
_space_group_symop_operation_xyz
x,y,z
-x,y,1/2-z
-x,-y,-z
x,-y,1/2+z
1/2+x,1/2+y,z
1/2-x,1/2+y,1/2-z
1/2-x,1/2-y,-z
1/2+x,1/2-y,1/2+z
loop_
_atom_site_type_symbol
_atom_site_label
_atom_site_fract_x
_atom_site_fract_y
_atom_site_fract_z
Si Si1 0.455849 0.922705 0.065185
Si Si2 0.359446 0.584183 0.705412
Si Si3 0.167598 0.276541 0.535465
Si Si4 0.845966 0.403345 0.668754
Si Si5 0.675883 0.514703 0.627624
Si Si6 0.694035 0.013562 0.168516
Si Si7 0.500000 0.422445 0.750000
Si Si8 0.907106 0.251792 0.357860
O O1 0.518936 0.822785 0.103574
O O2 0.420728 0.030422 0.125902
O O3 0.389905 0.821030 0.031374
O O4 0.500000 0.000000 0.000000
O O5 0.352346 0.734795 0.664930
O O6 0.347262 0.585596 0.794191
O O7 0.289691 0.484634 0.672135
O O8 0.447849 0.519952 0.692303
O O9 0.250000 0.250000 0.500000
O O10 0.166071 0.393378 0.599517
O O11 0.146167 0.126807 0.568064
O O12 0.768406 0.470796 0.629136
O O13 0.847259 0.436092 0.756305
O O14 0.628545 0.378786 0.597665
O O15 0.665463 0.855288 0.157306
O O16 0.565466 0.319793 0.717694
#
# Coordination Sequence:
#
# PCOD8146206 Si02
#       8
#     8   8   8   8   8   8   4   8
#     4  12  27  44  64 101 141 177 232 285 343 406
#     4  10  22  40  69 105 135 168 236 287 338 410
#     4  12  25  45  69 101 140 183 226 281 346 417
#     4  11  22  42  73  98 135 182 227 286 338 410
#     4  10  22  43  69 101 134 178 231 280 345 412
#     4  11  23  42  73 101 133 180 234 278 337 420
#     4  10  24  38  68 104 138 168 224 294 350 392
#     4  11  23  44  65  98 138 178 225 285 341 407
#
# _framework density 20.714856999999999
#
# number of rings (size 3 to 8) (size 9 to 14) (size 15 to 20)
#    0.000    1.067    5.333    0.800    1.867    3.733 
#    2.400    2.000    0.000    0.000    0.000    0.000 
#    0.000    0.000    0.000    0.000    0.000    0.000 
#
# Total GULP energy -371767.484984 kJ/mol
# GULP energy per Si atom -12392.249499 kJ/mol
# Density = 2.066771 g / cm^3
# Si number density = 20.714857 Si / 1000 Ang^3
#
#
#
# Elastic Constant Matrix: (Units=GPa)
#
#
# Indices 1 2 3 4 5 6 
#
# 1 107.0849 33.8975 20.7512 0.0000 5.2692 0.0000
# 2 33.8975 116.2318 21.4936 0.0000 -5.0834 0.0000
# 3 20.7512 21.4936 55.8348 0.0000 -2.9570 0.0000
# 4 0.0000 0.0000 0.0000 21.9033 0.0000 11.7891
# 5 5.2692 -5.0834 -2.9570 0.0000 30.3476 0.0000
# 6 0.0000 0.0000 0.0000 11.7891 0.0000 39.2835
#
#
#
# Elastic Compliance Matrix: (Units=1/GPa)
#
#
# Indices 1 2 3 4 5 6 
#
# 1 0.010944 -0.002724 -0.003160 0.000000 -0.002664 0.000000
# 2 -0.002724 0.009985 -0.002732 0.000000 0.001879 0.000000
# 3 -0.003160 -0.002732 0.020245 0.000000 0.002064 0.000000
# 4 0.000000 0.000000 0.000000 0.054450 0.000000 -0.016341
# 5 -0.002664 0.001879 0.002064 0.000000 0.033930 0.000000
# 6 0.000000 0.000000 0.000000 -0.016341 0.000000 0.030360
#
#
# Mechanical properties :
#
#
# Convention : Reuss Voigt Hill
#
# Bulk Modulus (GPa) = 41.76568 47.93733 44.85151
# Shear Modulus (GPa) = 27.00839 31.84082 29.42461
#
# Velocity S-wave (km/s) = 3.61476 3.92484 3.77299
# Velocity P-wave (km/s) = 6.13416 6.61294 6.37804
#
# Compressibility (1/GPa) = 0.02394310
#
# Stress axis : x y z
#
# Youngs Moduli (GPa) = 91.37370 100.14756 49.39415
#
# Poissons Ratio (x) = 0.27279 0.15608
# Poissons Ratio (y) = 0.24889 0.13494
# Poissons Ratio (z) = 0.28874 0.27360
#
# Static dielectric constant tensor:
#      x y z
#    x 4.024250 0.000000 -0.242510 
#    y 0.000000 3.248200 0.000000 
#    z -0.242510 0.000000 3.197870 
# 
# 
# High freq. dielectric constant tensor:
#      x y z
#    x 1.823930 0.000000 0.000230 
#    y 0.000000 1.828400 0.000000 
#    z 0.000230 0.000000 1.789250 
# 
# From -- ./inp_files/209594.got.cif
#   From: 2010.06.25/outbox.cif.g09.slc.cpg/sg15_105_cif.got.tgz:209594.got - 2010.06.28 07:06:18.
