data_PCOD8146352
_publ_section_title
;
Structure prediction by ZEFSAII (Michael W. Deem and Ramdas Pophale) SiO2 
 PCOD8146352
Probable space group: C 2/C
;
_chemical_formula_sum "Si O2"
_cell_formula_units_Z 56
_cell_length_a 9.228167
_cell_length_b 13.959611
_cell_length_c 20.184979
_cell_angle_alpha 90.000000
_cell_angle_beta 95.089011
_cell_angle_gamma 90.000000
_cell_volume 2590.011745
_symmetry_space_group_name_H-M "C 2/C"
_symmetry_group_IT_number 15
_symmetry_cell_setting 'monoclinic'
loop_
_space_group_symop_operation_xyz
x,y,z
-x,y,1/2-z
-x,-y,-z
x,-y,1/2+z
1/2+x,1/2+y,z
1/2-x,1/2+y,1/2-z
1/2-x,1/2-y,-z
1/2+x,1/2-y,1/2+z
loop_
_atom_site_type_symbol
_atom_site_label
_atom_site_fract_x
_atom_site_fract_y
_atom_site_fract_z
Si Si1 0.521765 0.809890 0.104108
Si Si2 0.961864 0.920746 0.117176
Si Si3 0.714969 0.079378 0.709868
Si Si4 0.342520 0.392778 0.878544
Si Si5 0.729584 0.689650 0.658421
Si Si6 0.225951 0.638276 0.506076
Si Si7 0.338719 0.130432 0.261399
O O1 0.596908 0.850176 0.173459
O O2 0.563488 0.699272 0.097679
O O3 0.348594 0.817088 0.104847
O O4 0.576258 0.872550 0.042568
O O5 0.869834 0.911066 0.180548
O O6 0.857731 0.913322 0.049887
O O7 0.073909 0.831725 0.119064
O O8 0.046968 0.020076 0.121581
O O9 0.737258 0.106714 0.787031
O O10 0.654605 0.971612 0.702112
O O11 0.259919 0.375479 0.807295
O O12 0.222907 0.409607 0.932767
O O13 0.733544 0.794059 0.691635
O O14 0.250000 0.750000 0.500000
O O15 0.500000 0.165985 0.250000
#
# Coordination Sequence:
#
# PCOD8146352 Si02
#       7
#     8   8   8   8   8   8   8
#     4  10  22  41  63  91 125 170 206 262 316 375
#     4  11  23  40  67  94 123 168 213 262 309 382
#     4  11  22  39  61  91 132 163 204 252 326 380
#     4  11  22  41  67  89 125 170 216 257 313 383
#     4  12  23  37  63  98 128 158 209 262 319 376
#     4   9  22  43  66  87 124 173 217 257 313 372
#     4  12  25  37  63  97 132 161 205 266 325 380
#
# _framework density 21.621524999999998
#
# number of rings (size 3 to 8) (size 9 to 14) (size 15 to 20)
#    0.000    1.143    2.857    3.857    4.000    1.143 
#    0.000    3.571    3.143    0.000    0.000    0.000 
#    0.000    0.000    0.000    0.000    0.000    0.000 
#
# Total GULP energy -347242.918031 kJ/mol
# GULP energy per Si atom -12401.532787 kJ/mol
# Density = 2.157231 g / cm^3
# Si number density = 21.621525 Si / 1000 Ang^3
#
#
#
# Elastic Constant Matrix: (Units=GPa)
#
#
# Indices 1 2 3 4 5 6 
#
# 1 124.5930 30.0731 35.3849 0.0000 -34.8262 0.0000
# 2 30.0731 94.9076 14.5368 0.0000 1.4117 0.0000
# 3 35.3849 14.5368 67.1360 0.0000 -20.0093 0.0000
# 4 0.0000 0.0000 0.0000 17.9310 0.0000 -4.6808
# 5 -34.8262 1.4117 -20.0093 0.0000 26.3901 0.0000
# 6 0.0000 0.0000 0.0000 -4.6808 0.0000 30.8658
#
#
#
# Elastic Compliance Matrix: (Units=1/GPa)
#
#
# Indices 1 2 3 4 5 6 
#
# 1 0.014793 -0.004798 -0.001115 0.000000 0.018934 0.000000
# 2 -0.004798 0.012650 -0.002970 0.000000 -0.009261 0.000000
# 3 -0.001115 -0.002970 0.020329 0.000000 0.014101 0.000000
# 4 0.000000 0.000000 0.000000 0.058068 0.000000 0.008806
# 5 0.018934 -0.009261 0.014101 0.000000 0.074066 0.000000
# 6 0.000000 0.000000 0.000000 0.008806 0.000000 0.033734
#
#
# Mechanical properties :
#
#
# Convention : Reuss Voigt Hill
#
# Bulk Modulus (GPa) = 33.32829 49.62513 41.47671
# Shear Modulus (GPa) = 20.71184 28.81350 24.76267
#
# Velocity S-wave (km/s) = 3.09840 3.65448 3.38787
# Velocity P-wave (km/s) = 5.31488 6.38816 5.87607
#
# Compressibility (1/GPa) = 0.03000454
#
# Stress axis : x y z
#
# Youngs Moduli (GPa) = 67.59822 79.05329 49.19184
#
# Poissons Ratio (x) = 0.37933 0.05485
# Poissons Ratio (y) = 0.32436 0.14611
# Poissons Ratio (z) = 0.07537 0.23480
#
# Static dielectric constant tensor:
#      x y z
#    x 4.007400 0.000000 -0.335330 
#    y 0.000000 3.974020 0.000000 
#    z -0.335330 0.000000 4.384390 
# 
# 
# High freq. dielectric constant tensor:
#      x y z
#    x 1.848540 0.000000 -0.019130 
#    y 0.000000 1.853360 0.000000 
#    z -0.019130 0.000000 1.843690 
# 
# From -- ./inp_files/231563.got.cif
#   From: 2010.06.25/outbox.cif.g09.slc.cpg/sg15_116_cif.got.tgz:231563.got - 2010.06.28 07:06:18.
