data_PCOD8146236
_publ_section_title
;
Structure prediction by ZEFSAII (Michael W. Deem and Ramdas Pophale) SiO2 
 PCOD8146236
Probable space group: C 2/C
;
_chemical_formula_sum "Si O2"
_cell_formula_units_Z 60
_cell_length_a 9.022642
_cell_length_b 15.823892
_cell_length_c 20.618304
_cell_angle_alpha 90.000000
_cell_angle_beta 108.370617
_cell_angle_gamma 90.000000
_cell_volume 2793.723799
_symmetry_space_group_name_H-M "C 2/C"
_symmetry_group_IT_number 15
_symmetry_cell_setting 'monoclinic'
loop_
_space_group_symop_operation_xyz
x,y,z
-x,y,1/2-z
-x,-y,-z
x,-y,1/2+z
1/2+x,1/2+y,z
1/2-x,1/2+y,1/2-z
1/2-x,1/2-y,-z
1/2+x,1/2-y,1/2+z
loop_
_atom_site_type_symbol
_atom_site_label
_atom_site_fract_x
_atom_site_fract_y
_atom_site_fract_z
Si Si1 0.500000 0.567499 0.750000
Si Si2 0.467526 0.673184 0.865216
Si Si3 0.132021 0.532909 0.379803
Si Si4 0.188895 0.921715 0.722204
Si Si5 0.933657 0.177678 0.113643
Si Si6 0.929147 0.907844 0.989379
Si Si7 0.896587 0.352181 0.171361
Si Si8 0.134089 0.650845 0.141455
O O1 0.549771 0.628216 0.815946
O O2 0.649743 0.510556 0.751721
O O3 0.280994 0.665425 0.833243
O O4 0.494136 0.774040 0.870332
O O5 0.551181 0.632099 0.937947
O O6 0.183335 0.561043 0.315096
O O7 0.249164 0.575104 0.447534
O O8 0.113484 0.431987 0.378521
O O9 0.960749 0.564457 0.375169
O O10 0.256100 0.851453 0.779831
O O11 0.026031 0.887018 0.672391
O O12 0.968251 0.274366 0.139560
O O13 0.747726 0.159978 0.094828
O O14 0.985604 0.157752 0.047549
O O15 0.000000 0.000000 0.000000
O O16 0.000000 0.368886 0.250000
#
# Coordination Sequence:
#
# PCOD8146236 Si02
#       8
#     4   8   8   8   8   8   8   8
#     4  12  22  40  66  98 116 178 224 262 320 406
#     4  11  25  42  67  93 131 173 221 270 327 404
#     4  11  24  41  67  95 137 175 211 280 333 377
#     4  11  20  40  63  94 131 174 216 261 338 399
#     4  10  22  40  70  91 128 176 218 265 321 409
#     4  11  23  48  69  87 129 189 228 251 329 415
#     4  11  21  39  63 105 130 162 219 279 329 378
#     4  11  23  39  64 102 133 162 217 285 334 372
#
# _framework density 21.476711000000002
#
# number of rings (size 3 to 8) (size 9 to 14) (size 15 to 20)
#    0.000    1.067    4.000    3.600    1.867    2.667 
#    0.000    0.667    2.933    0.000    0.000    0.000 
#    0.000    0.000    0.000    0.000    0.000    0.000 
#
# Total GULP energy -371963.847766 kJ/mol
# GULP energy per Si atom -12398.794926 kJ/mol
# Density = 2.142783 g / cm^3
# Si number density = 21.476711 Si / 1000 Ang^3
#
#
#
# Elastic Constant Matrix: (Units=GPa)
#
#
# Indices 1 2 3 4 5 6 
#
# 1 72.2259 32.8940 34.1729 0.0000 1.5118 0.0000
# 2 32.8940 121.7715 30.4160 0.0000 -17.6877 0.0000
# 3 34.1729 30.4160 121.9275 0.0000 -14.5028 0.0000
# 4 0.0000 0.0000 0.0000 33.6116 0.0000 1.3539
# 5 1.5118 -17.6877 -14.5028 0.0000 20.6916 0.0000
# 6 0.0000 0.0000 0.0000 1.3539 0.0000 20.0630
#
#
#
# Elastic Compliance Matrix: (Units=1/GPa)
#
#
# Indices 1 2 3 4 5 6 
#
# 1 0.018805 -0.005167 -0.005095 0.000000 -0.009362 0.000000
# 2 -0.005167 0.011059 -0.000154 0.000000 0.009723 0.000000
# 3 -0.005095 -0.000154 0.010579 0.000000 0.007655 0.000000
# 4 0.000000 0.000000 0.000000 0.029833 0.000000 -0.002013
# 5 -0.009362 0.009723 0.007655 0.000000 0.062690 0.000000
# 6 0.000000 0.000000 0.000000 -0.002013 0.000000 0.049979
#
#
# Mechanical properties :
#
#
# Convention : Reuss Voigt Hill
#
# Bulk Modulus (GPa) = 50.99450 56.76564 53.88007
# Shear Modulus (GPa) = 23.77404 29.43603 26.60504
#
# Velocity S-wave (km/s) = 3.33072 3.70618 3.52346
# Velocity P-wave (km/s) = 6.21186 6.69350 6.45718
#
# Compressibility (1/GPa) = 0.01960996
#
# Stress axis : x y z
#
# Youngs Moduli (GPa) = 53.17606 90.42719 94.53019
#
# Poissons Ratio (x) = 0.46725 0.48166
# Poissons Ratio (y) = 0.27477 0.01456
# Poissons Ratio (z) = 0.27095 0.01393
#
# Static dielectric constant tensor:
#      x y z
#    x 3.763050 0.000000 0.063120 
#    y 0.000000 4.104390 0.000000 
#    z 0.063120 0.000000 3.633090 
# 
# 
# High freq. dielectric constant tensor:
#      x y z
#    x 1.831480 0.000000 0.005660 
#    y 0.000000 1.859690 0.000000 
#    z 0.005660 0.000000 1.831140 
# 
# From -- ./inp_files/264779.got.cif
#   From: 2010.06.25/outbox.cif.g09.slc.cpg/sg15_133_cif.got.tgz:264779.got - 2010.06.28 07:06:18.
