data_PCOD8146835
_publ_section_title
;
Structure prediction by ZEFSAII (Michael W. Deem and Ramdas Pophale) SiO2 
 PCOD8146835
Probable space group: C 2/C
;
_chemical_formula_sum "Si O2"
_cell_formula_units_Z 44
_cell_length_a 19.185313
_cell_length_b 8.215327
_cell_length_c 12.996081
_cell_angle_alpha 90.000000
_cell_angle_beta 114.161533
_cell_angle_gamma 90.000000
_cell_volume 1868.913100
_symmetry_space_group_name_H-M "C 2/C"
_symmetry_group_IT_number 15
_symmetry_cell_setting 'monoclinic'
loop_
_space_group_symop_operation_xyz
x,y,z
-x,y,1/2-z
-x,-y,-z
x,-y,1/2+z
1/2+x,1/2+y,z
1/2-x,1/2+y,1/2-z
1/2-x,1/2-y,-z
1/2+x,1/2-y,1/2+z
loop_
_atom_site_type_symbol
_atom_site_label
_atom_site_fract_x
_atom_site_fract_y
_atom_site_fract_z
Si Si1 0.000000 0.444646 0.250000
Si Si2 0.717781 0.717560 0.202613
Si Si3 0.041790 0.244893 0.469035
Si Si4 0.593017 0.606806 0.991424
Si Si5 0.687950 0.053014 0.092535
Si Si6 0.152217 0.633841 0.376068
O O1 0.998892 0.332608 0.350090
O O2 0.074943 0.554875 0.288152
O O3 0.648715 0.601494 0.124616
O O4 0.741919 0.675110 0.335328
O O5 0.794306 0.680563 0.184988
O O6 0.691375 0.904028 0.176495
O O7 0.106560 0.359629 0.556171
O O8 0.983507 0.206540 0.526282
O O9 0.076031 0.076250 0.446282
O O10 0.634659 0.698294 0.924152
O O11 0.696782 0.987629 0.981539
#
# Coordination Sequence:
#
# PCOD8146835 Si02
#       6
#     4   8   8   8   8   8
#     4  10  24  42  64  98 128 176 214 268 322 388
#     4  11  23  42  66  97 127 175 214 268 329 376
#     4  10  23  44  65  96 131 170 219 260 325 383
#     4  10  22  43  67  93 131 171 215 271 312 387
#     4  10  22  42  65  93 132 165 215 263 320 383
#     4  10  24  41  67  94 131 171 221 267 321 384
#
# _framework density 23.543096999999999
#
# number of rings (size 3 to 8) (size 9 to 14) (size 15 to 20)
#    0.000    1.818    0.000    3.273    7.636    4.364 
#    9.818    5.455    0.000    0.000    0.000    0.000 
#    0.000    0.000    0.000    0.000    0.000    0.000 
#
# Total GULP energy -272846.190294 kJ/mol
# GULP energy per Si atom -12402.099559 kJ/mol
# Density = 2.348951 g / cm^3
# Si number density = 23.543097 Si / 1000 Ang^3
#
#
#
# Elastic Constant Matrix: (Units=GPa)
#
#
# Indices 1 2 3 4 5 6 
#
# 1 74.6149 47.6173 18.4422 0.0000 11.2221 0.0000
# 2 47.6173 121.7069 57.5573 0.0000 17.5321 0.0000
# 3 18.4422 57.5573 114.1229 0.0000 37.3314 0.0000
# 4 0.0000 0.0000 0.0000 37.9322 0.0000 16.7221
# 5 11.2221 17.5321 37.3314 0.0000 35.7342 0.0000
# 6 0.0000 0.0000 0.0000 16.7221 0.0000 34.5884
#
#
#
# Elastic Compliance Matrix: (Units=1/GPa)
#
#
# Indices 1 2 3 4 5 6 
#
# 1 0.018383 -0.007663 0.002359 0.000000 -0.004478 0.000000
# 2 -0.007663 0.013992 -0.006624 0.000000 0.002461 0.000000
# 3 0.002359 -0.006624 0.016561 0.000000 -0.014792 0.000000
# 4 0.000000 0.000000 0.000000 0.033503 0.000000 -0.016198
# 5 -0.004478 0.002461 -0.014792 0.000000 0.043636 0.000000
# 6 0.000000 0.000000 0.000000 -0.016198 0.000000 0.036742
#
#
# Mechanical properties :
#
#
# Convention : Reuss Voigt Hill
#
# Bulk Modulus (GPa) = 39.87220 61.96423 50.91821
# Shear Modulus (GPa) = 25.63671 34.10616 29.87144
#
# Velocity S-wave (km/s) = 3.30347 3.81027 3.56588
# Velocity P-wave (km/s) = 5.61455 6.76270 6.21519
#
# Compressibility (1/GPa) = 0.02508013
#
# Stress axis : x y z
#
# Youngs Moduli (GPa) = 54.39909 71.46745 60.38412
#
# Poissons Ratio (x) = 0.54762 -0.14242
# Poissons Ratio (y) = 0.41684 0.39997
# Poissons Ratio (z) = -0.12831 0.47339
#
# Static dielectric constant tensor:
#      x y z
#    x 4.025920 0.000000 0.393980 
#    y 0.000000 4.430290 0.000000 
#    z 0.393980 0.000000 4.411760 
# 
# 
# High freq. dielectric constant tensor:
#      x y z
#    x 1.922140 0.000000 0.025360 
#    y 0.000000 1.942110 0.000000 
#    z 0.025360 0.000000 1.936160 
# 
# From -- ./inp_files/159434.got.cif
#   From: 2010.06.25/outbox.cif.g09.slc.cpg/sg15_80_cif.got.tgz:159434.got - 2010.06.28 07:06:18.
