data_PCOD8146979
_publ_section_title
;
Structure prediction by ZEFSAII (Michael W. Deem and Ramdas Pophale) SiO2 
 PCOD8146979
Probable space group: C 2/C
;
_chemical_formula_sum "Si O2"
_cell_formula_units_Z 56
_cell_length_a 9.244563
_cell_length_b 18.102796
_cell_length_c 30.018666
_cell_angle_alpha 90.000000
_cell_angle_beta 149.383919
_cell_angle_gamma 90.000000
_cell_volume 2558.483335
_symmetry_space_group_name_H-M "C 2/C"
_symmetry_group_IT_number 15
_symmetry_cell_setting 'monoclinic'
loop_
_space_group_symop_operation_xyz
x,y,z
-x,y,1/2-z
-x,-y,-z
x,-y,1/2+z
1/2+x,1/2+y,z
1/2-x,1/2+y,1/2-z
1/2-x,1/2-y,-z
1/2+x,1/2-y,1/2+z
loop_
_atom_site_type_symbol
_atom_site_label
_atom_site_fract_x
_atom_site_fract_y
_atom_site_fract_z
Si Si1 0.248268 0.609391 0.214399
Si Si2 0.377219 0.450289 0.265720
Si Si3 0.848029 0.068339 0.486363
Si Si4 0.316384 0.926963 0.456522
Si Si5 0.379493 0.141619 0.606722
Si Si6 0.716361 0.288305 0.696898
Si Si7 0.729120 0.831891 0.516386
O O1 0.500000 0.640164 0.250000
O O2 0.370180 0.537724 0.271648
O O3 0.177742 0.673163 0.230377
O O4 0.965153 0.586003 0.113810
O O5 0.500000 0.428499 0.250000
O O6 0.562991 0.416830 0.354202
O O7 0.059861 0.417334 0.182759
O O8 0.823298 0.061350 0.532603
O O9 0.051741 0.139363 0.534789
O O10 0.000000 0.000000 0.500000
O O11 0.511898 0.853101 0.499427
O O12 0.500000 0.000000 0.500000
O O13 0.497445 0.222686 0.648622
O O14 0.371861 0.117808 0.552018
O O15 0.547321 0.346434 0.620111
O O16 0.000000 0.255584 0.750000
O O17 0.750000 0.750000 0.500000
#
# Coordination Sequence:
#
# PCOD8146979 Si02
#       7
#     8   8   8   8   8   8   8
#     4  11  24  46  69  99 141 184 233 294 360 426
#     4  11  21  41  73 101 138 181 234 298 355 424
#     4  12  25  46  70 107 147 185 236 309 366 432
#     4  12  24  42  73 103 140 185 241 295 369 437
#     4  11  23  44  68 102 141 180 236 294 356 427
#     4  11  24  43  69  99 138 189 235 285 353 437
#     4  10  22  42  68 101 138 185 237 289 360 437
#
# _framework density 21.887968000000001
#
# number of rings (size 3 to 8) (size 9 to 14) (size 15 to 20)
#    0.000    0.857    2.857    5.571    2.000    1.714 
#    2.571    3.571    0.000    0.000    0.000    0.000 
#    0.000    0.000    0.000    0.000    0.000    0.000 
#
# Total GULP energy -346893.001420 kJ/mol
# GULP energy per Si atom -12389.035765 kJ/mol
# Density = 2.183815 g / cm^3
# Si number density = 21.887968 Si / 1000 Ang^3
#
#
#
# Elastic Constant Matrix: (Units=GPa)
#
#
# Indices 1 2 3 4 5 6 
#
# 1 145.7696 52.2268 59.5999 0.0008 1.9667 -0.0003
# 2 52.2268 71.5958 26.0532 0.0003 0.7351 -0.0002
# 3 59.5999 26.0532 144.5160 0.0054 3.6620 -0.0001
# 4 0.0008 0.0003 0.0054 35.0046 0.0015 7.5301
# 5 1.9667 0.7351 3.6620 0.0015 41.7669 0.0003
# 6 -0.0003 -0.0002 -0.0001 7.5301 0.0003 35.9332
#
#
#
# Elastic Compliance Matrix: (Units=1/GPa)
#
#
# Indices 1 2 3 4 5 6 
#
# 1 0.010475 -0.006495 -0.003146 0.000000 -0.000103 0.000000
# 2 -0.006495 0.018975 -0.000743 0.000000 0.000037 0.000000
# 3 -0.003146 -0.000743 0.008366 -0.000001 -0.000572 0.000000
# 4 0.000000 0.000000 -0.000001 0.029916 -0.000001 -0.006269
# 5 -0.000103 0.000037 -0.000572 -0.000001 0.023997 0.000000
# 6 0.000000 0.000000 0.000000 -0.006269 0.000000 0.029143
#
#
# Mechanical properties :
#
#
# Convention : Reuss Voigt Hill
#
# Bulk Modulus (GPa) = 58.66261 70.84904 64.75583
# Shear Modulus (GPa) = 33.93874 37.47440 35.70657
#
# Velocity S-wave (km/s) = 3.94199 4.14224 4.04336
# Velocity P-wave (km/s) = 6.89772 7.43752 7.17270
#
# Compressibility (1/GPa) = 0.01704663
#
# Stress axis : x y z
#
# Youngs Moduli (GPa) = 95.46403 52.69988 119.53487
#
# Poissons Ratio (x) = 0.34230 0.37612
# Poissons Ratio (y) = 0.62006 0.08883
# Poissons Ratio (z) = 0.30038 0.03916
#
# Static dielectric constant tensor:
#      x y z
#    x 4.291590 0.000040 -0.174290 
#    y 0.000040 3.883040 -0.000040 
#    z -0.174290 -0.000040 4.598710 
# 
# 
# High freq. dielectric constant tensor:
#      x y z
#    x 1.848340 0.000000 0.001230 
#    y 0.000000 1.844590 0.000000 
#    z 0.001230 0.000000 1.890440 
# 
# From -- ./inp_files/191019.got.cif
#   From: 2010.06.25/outbox.cif.g09.slc.cpg/sg15_96_cif.got.tgz:191019.got - 2010.06.28 07:06:18.
