data_PCOD8146754
_publ_section_title
;
Structure prediction by ZEFSAII (Michael W. Deem and Ramdas Pophale) SiO2 
 PCOD8146754
Probable space group: C 2/C
;
_chemical_formula_sum "Si O2"
_cell_formula_units_Z 56
_cell_length_a 8.274236
_cell_length_b 11.948044
_cell_length_c 31.364944
_cell_angle_alpha 90.000000
_cell_angle_beta 57.883706
_cell_angle_gamma 90.000000
_cell_volume 2626.259606
_symmetry_space_group_name_H-M "C 2/C"
_symmetry_group_IT_number 15
_symmetry_cell_setting 'monoclinic'
loop_
_space_group_symop_operation_xyz
x,y,z
-x,y,1/2-z
-x,-y,-z
x,-y,1/2+z
1/2+x,1/2+y,z
1/2-x,1/2+y,1/2-z
1/2-x,1/2-y,-z
1/2+x,1/2-y,1/2+z
loop_
_atom_site_type_symbol
_atom_site_label
_atom_site_fract_x
_atom_site_fract_y
_atom_site_fract_z
Si Si1 0.989918 0.568138 0.581559
Si Si2 0.500000 0.528718 0.750000
Si Si3 0.509329 0.221597 0.501954
Si Si4 0.701007 0.576328 0.498551
Si Si5 0.000000 0.457474 0.750000
Si Si6 0.592354 0.881499 0.309929
Si Si7 0.085835 0.131787 0.311164
Si Si8 0.322214 0.423881 0.921569
O O1 0.978941 0.681708 0.554843
O O2 0.965557 0.597605 0.633733
O O3 0.826371 0.483294 0.589248
O O4 0.197258 0.510788 0.547531
O O5 0.681484 0.608048 0.728006
O O6 0.522101 0.451561 0.705362
O O7 0.466817 0.355093 0.502805
O O8 0.363331 0.159255 0.491743
O O9 0.722763 0.186813 0.456633
O O10 0.611430 0.509581 0.550975
O O11 0.983723 0.532996 0.794484
O O12 0.186382 0.380553 0.723717
O O13 0.532050 0.757111 0.304816
O O14 0.011053 0.110630 0.369502
#
# Coordination Sequence:
#
# PCOD8146754 Si02
#       8
#     8   4   8   8   4   8   8   8
#     4   9  17  32  56  85 114 152 195 237 282 348
#     4  10  22  42  64  82 112 154 198 250 304 350
#     4   8  15  29  52  83 118 155 193 228 283 347
#     4   8  15  29  50  84 126 150 185 240 283 336
#     4  10  26  42  56  86 120 146 194 258 300 354
#     4  11  22  40  62  86 115 153 197 247 301 352
#     4  11  22  40  62  86 115 153 197 247 301 352
#     4   9  17  32  56  85 114 152 195 237 282 348
#
# _framework density 21.3231
#
# number of rings (size 3 to 8) (size 9 to 14) (size 15 to 20)
#    0.000    2.571    1.429    2.571    0.000    2.286 
#    0.000    2.857    0.000    5.143    0.000    0.000 
#    0.000    0.000    0.000    0.000    0.000    0.000 
#
# Total GULP energy -347159.476922 kJ/mol
# GULP energy per Si atom -12398.552747 kJ/mol
# Density = 2.127457 g / cm^3
# Si number density = 21.323100 Si / 1000 Ang^3
#
#
#
# Elastic Constant Matrix: (Units=GPa)
#
#
# Indices 1 2 3 4 5 6 
#
# 1 38.7285 18.7473 9.9536 0.0000 4.1906 0.0000
# 2 18.7473 92.1714 36.8935 0.0000 0.3889 0.0000
# 3 9.9536 36.8935 129.3821 0.0000 5.7574 0.0000
# 4 0.0000 0.0000 0.0000 19.6161 0.0000 -11.0387
# 5 4.1906 0.3889 5.7574 0.0000 27.6226 0.0000
# 6 0.0000 0.0000 0.0000 -11.0387 0.0000 4.7521
#
#
#
# Elastic Compliance Matrix: (Units=1/GPa)
#
#
# Indices 1 2 3 4 5 6 
#
# 1 0.029171 -0.005749 -0.000415 0.000000 -0.004258 0.000000
# 2 -0.005749 0.013389 -0.003438 0.000000 0.001400 0.000000
# 3 -0.000415 -0.003438 0.008818 0.000000 -0.001727 0.000000
# 4 0.000000 0.000000 0.000000 -0.165951 0.000000 -0.385490
# 5 -0.004258 0.001400 -0.001727 0.000000 0.037188 0.000000
# 6 0.000000 0.000000 0.000000 -0.385490 0.000000 -0.685030
#
#
# Mechanical properties :
#
#
# Convention : Reuss Voigt Hill
#
# Bulk Modulus (GPa) = 31.08140 43.49675 37.28908
# Shear Modulus (GPa) = -6.82608 23.37735 8.27563
#
# Velocity S-wave (km/s) = -1.79115 3.31469 1.97218
# Velocity P-wave (km/s) = 3.21410 5.92391 4.76567
#
# Compressibility (1/GPa) = 0.03217358
#
# Stress axis : x y z
#
# Youngs Moduli (GPa) = 34.28040 74.68896 113.40253
#
# Poissons Ratio (x) = 0.42939 0.04710
# Poissons Ratio (y) = 0.19708 0.38986
# Poissons Ratio (z) = 0.01424 0.25677
#
# Static dielectric constant tensor:
#      x y z
#    x 3.811930 0.000000 -0.023200 
#    y 0.000000 4.093460 0.000000 
#    z -0.023200 0.000000 3.783790 
# 
# 
# High freq. dielectric constant tensor:
#      x y z
#    x 1.830030 0.000000 0.001690 
#    y 0.000000 1.842410 0.000000 
#    z 0.001690 0.000000 1.834500 
# 
# From -- ./inp_files/288099.got.cif
#   From: 2010.06.25/outbox.cif.g09.slc.cpg/sg15_145_cif.got.tgz:288099.got - 2010.06.28 07:06:18.
