data_PCOD8146861
_publ_section_title
;
Structure prediction by ZEFSAII (Michael W. Deem and Ramdas Pophale) SiO2 
 PCOD8146861
Probable space group: C 2/C
;
_chemical_formula_sum "Si O2"
_cell_formula_units_Z 60
_cell_length_a 15.329848
_cell_length_b 10.122336
_cell_length_c 20.168108
_cell_angle_alpha 90.000000
_cell_angle_beta 119.819131
_cell_angle_gamma 90.000000
_cell_volume 2715.207547
_symmetry_space_group_name_H-M "C 2/C"
_symmetry_group_IT_number 15
_symmetry_cell_setting 'monoclinic'
loop_
_space_group_symop_operation_xyz
x,y,z
-x,y,1/2-z
-x,-y,-z
x,-y,1/2+z
1/2+x,1/2+y,z
1/2-x,1/2+y,1/2-z
1/2-x,1/2-y,-z
1/2+x,1/2-y,1/2+z
loop_
_atom_site_type_symbol
_atom_site_label
_atom_site_fract_x
_atom_site_fract_y
_atom_site_fract_z
Si Si1 0.068065 0.419835 0.899086
Si Si2 0.487546 0.299436 0.027933
Si Si3 0.777774 0.875048 0.915579
Si Si4 0.500000 0.773824 0.750000
Si Si5 0.807046 0.120209 0.838586
Si Si6 0.775100 0.152862 0.105180
Si Si7 0.204356 0.126910 0.818960
Si Si8 0.907343 0.293781 0.057925
O O1 0.032877 0.347378 0.952597
O O2 0.186469 0.386561 0.933141
O O3 0.998738 0.367324 0.813423
O O4 0.040936 0.574067 0.894456
O O5 0.572439 0.371545 0.104321
O O6 0.385404 0.387015 0.993713
O O7 0.520400 0.287791 0.963600
O O8 0.780298 0.736359 0.876936
O O9 0.762033 0.994182 0.858771
O O10 0.593474 0.678387 0.788206
O O11 0.752961 0.250632 0.845369
O O12 0.776201 0.103323 0.750965
O O13 0.878222 0.199167 0.108474
O O14 0.784189 0.007118 0.136557
O O15 0.689879 0.154076 0.017485
#
# Coordination Sequence:
#
# PCOD8146861 Si02
#       8
#     8   8   8   4   8   8   8   8
#     4  11  21  44  66  95 136 173 224 273 341 396
#     4  11  23  40  68 102 133 173 222 284 323 406
#     4  11  24  41  66 101 130 175 225 275 336 398
#     4  10  24  42  62  96 132 176 218 286 328 398
#     4  11  22  44  66  96 137 174 223 278 336 393
#     4  10  22  42  68  96 137 176 219 281 330 401
#     4  11  23  43  67  94 135 180 225 268 340 407
#     4  10  22  42  66 101 135 173 223 274 340 389
#
# _framework density 22.097757999999999
#
# number of rings (size 3 to 8) (size 9 to 14) (size 15 to 20)
#    0.000    1.333    2.667    2.800    0.000    3.200 
#    4.800    0.667    0.000    0.000    0.000    0.000 
#    0.000    0.000    0.000    0.000    0.000    0.000 
#
# Total GULP energy -372111.884177 kJ/mol
# GULP energy per Si atom -12403.729473 kJ/mol
# Density = 2.204746 g / cm^3
# Si number density = 22.097758 Si / 1000 Ang^3
#
#
#
# Elastic Constant Matrix: (Units=GPa)
#
#
# Indices 1 2 3 4 5 6 
#
# 1 68.5655 8.4385 22.7767 0.0000 0.2818 0.0000
# 2 8.4385 123.0805 18.1735 0.0000 -8.1572 0.0000
# 3 22.7767 18.1735 58.9065 0.0000 -8.1950 0.0000
# 4 0.0000 0.0000 0.0000 35.0398 0.0000 -5.3960
# 5 0.2818 -8.1572 -8.1950 0.0000 28.4749 0.0000
# 6 0.0000 0.0000 0.0000 -5.3960 0.0000 24.8931
#
#
#
# Elastic Compliance Matrix: (Units=1/GPa)
#
#
# Indices 1 2 3 4 5 6 
#
# 1 0.016868 -0.000308 -0.006732 0.000000 -0.002193 0.000000
# 2 -0.000308 0.008603 -0.002283 0.000000 0.001810 0.000000
# 3 -0.006732 -0.002283 0.021044 0.000000 0.005469 0.000000
# 4 0.000000 0.000000 0.000000 0.029525 0.000000 0.006400
# 5 -0.002193 0.001810 0.005469 0.000000 0.037233 0.000000
# 6 0.000000 0.000000 0.000000 0.006400 0.000000 0.041559
#
#
# Mechanical properties :
#
#
# Convention : Reuss Voigt Hill
#
# Bulk Modulus (GPa) = 35.88244 38.81442 37.34843
# Shear Modulus (GPa) = 27.35715 31.09250 29.22482
#
# Velocity S-wave (km/s) = 3.52235 3.75513 3.64060
# Velocity P-wave (km/s) = 5.72851 6.03360 5.88303
#
# Compressibility (1/GPa) = 0.02786878
#
# Stress axis : x y z
#
# Youngs Moduli (GPa) = 59.28452 116.23872 47.51872
#
# Poissons Ratio (x) = 0.03577 0.31990
# Poissons Ratio (y) = 0.01824 0.10850
# Poissons Ratio (z) = 0.39911 0.26541
#
# Static dielectric constant tensor:
#      x y z
#    x 4.080550 0.000000 -0.111220 
#    y 0.000000 3.989260 0.000000 
#    z -0.111220 0.000000 4.064500 
# 
# 
# High freq. dielectric constant tensor:
#      x y z
#    x 1.873290 0.000000 -0.010390 
#    y 0.000000 1.877250 0.000000 
#    z -0.010390 0.000000 1.860780 
# 
# From -- ./inp_files/247851.got.cif
#   From: 2010.06.25/outbox.cif.g09.slc.cpg/sg15_124_cif.got.tgz:247851.got - 2010.06.28 07:06:18.
