data_PCOD8146707
_publ_section_title
;
Structure prediction by ZEFSAII (Michael W. Deem and Ramdas Pophale) SiO2 
 PCOD8146707
Probable space group: C 2/C
;
_chemical_formula_sum "Si O2"
_cell_formula_units_Z 48
_cell_length_a 16.206816
_cell_length_b 11.441396
_cell_length_c 13.193509
_cell_angle_alpha 90.000000
_cell_angle_beta 107.641626
_cell_angle_gamma 90.000000
_cell_volume 2331.398986
_symmetry_space_group_name_H-M "C 2/C"
_symmetry_group_IT_number 15
_symmetry_cell_setting 'monoclinic'
loop_
_space_group_symop_operation_xyz
x,y,z
-x,y,1/2-z
-x,-y,-z
x,-y,1/2+z
1/2+x,1/2+y,z
1/2-x,1/2+y,1/2-z
1/2-x,1/2-y,-z
1/2+x,1/2-y,1/2+z
loop_
_atom_site_type_symbol
_atom_site_label
_atom_site_fract_x
_atom_site_fract_y
_atom_site_fract_z
Si Si1 0.800451 0.527127 0.158224
Si Si2 0.384145 0.599803 0.461700
Si Si3 0.591998 0.927399 0.608912
Si Si4 0.041937 0.919177 0.869738
Si Si5 0.340945 0.199924 0.565052
Si Si6 0.905928 0.360950 0.524697
O O1 0.697693 0.547921 0.129827
O O2 0.841446 0.582899 0.274059
O O3 0.826974 0.391270 0.152445
O O4 0.831902 0.592774 0.070301
O O5 0.394948 0.520860 0.566427
O O6 0.467827 0.598540 0.423632
O O7 0.372324 0.732449 0.489746
O O8 0.620059 0.856138 0.521089
O O9 0.500424 0.873383 0.612839
O O10 0.586435 0.064181 0.576493
O O11 0.095063 0.800142 0.870958
O O12 0.000000 0.962036 0.750000
O O13 0.250000 0.250000 0.500000
#
# Coordination Sequence:
#
# PCOD8146707 Si02
#       6
#     8   8   8   8   8   8
#     4  11  24  38  70  97 130 172 224 266 339 385
#     4  11  24  46  60 101 133 167 221 278 321 403
#     4  10  23  40  65  98 128 178 217 273 326 392
#     4  11  26  43  71  92 131 180 216 268 341 392
#     4  11  23  44  65  96 133 169 226 277 314 402
#     4  10  22  42  62  91 138 165 219 272 325 391
#
# _framework density 20.588497
#
# number of rings (size 3 to 8) (size 9 to 14) (size 15 to 20)
#    0.000    1.333    3.333    1.000    4.667    1.333 
#    0.000    0.000    0.000    0.000    0.000    0.000 
#    0.000    0.000    0.000    0.000    0.000    0.000 
#
# Total GULP energy -297620.038145 kJ/mol
# GULP energy per Si atom -12400.834923 kJ/mol
# Density = 2.054164 g / cm^3
# Si number density = 20.588497 Si / 1000 Ang^3
#
#
#
# Elastic Constant Matrix: (Units=GPa)
#
#
# Indices 1 2 3 4 5 6 
#
# 1 74.1163 16.3581 -2.1844 0.0000 23.9285 0.0000
# 2 16.3581 103.2634 7.3388 0.0000 1.9056 0.0000
# 3 -2.1844 7.3388 77.8758 0.0000 24.4632 0.0000
# 4 0.0000 0.0000 0.0000 8.9899 0.0000 3.7573
# 5 23.9285 1.9056 24.4632 0.0000 26.9125 0.0000
# 6 0.0000 0.0000 0.0000 3.7573 0.0000 35.5260
#
#
#
# Elastic Compliance Matrix: (Units=1/GPa)
#
#
# Indices 1 2 3 4 5 6 
#
# 1 0.025188 -0.004194 0.011258 0.000000 -0.032332 0.000000
# 2 -0.004194 0.010448 -0.002857 0.000000 0.005586 0.000000
# 3 0.011258 -0.002857 0.023104 0.000000 -0.030809 0.000000
# 4 0.000000 0.000000 0.000000 0.116380 0.000000 -0.012309
# 5 -0.032332 0.005586 -0.030809 0.000000 0.093514 0.000000
# 6 0.000000 0.000000 0.000000 -0.012309 0.000000 0.029450
#
#
# Mechanical properties :
#
#
# Convention : Reuss Voigt Hill
#
# Bulk Modulus (GPa) = 14.89078 33.14228 24.01653
# Shear Modulus (GPa) = 16.02285 29.86855 22.94570
#
# Velocity S-wave (km/s) = 2.79273 3.81299 3.34202
# Velocity P-wave (km/s) = 4.20088 5.95967 5.15582
#
# Compressibility (1/GPa) = 0.06715564
#
# Stress axis : x y z
#
# Youngs Moduli (GPa) = 39.70139 95.70994 43.28268
#
# Poissons Ratio (x) = 0.40136 -0.48728
# Poissons Ratio (y) = 0.16649 0.12365
# Poissons Ratio (z) = -0.44696 0.27343
#
# Static dielectric constant tensor:
#      x y z
#    x 3.593220 0.000000 -0.000930 
#    y 0.000000 4.046090 0.000000 
#    z -0.000930 0.000000 3.526550 
# 
# 
# High freq. dielectric constant tensor:
#      x y z
#    x 1.820330 0.000000 0.007170 
#    y 0.000000 1.811660 0.000000 
#    z 0.007170 0.000000 1.793180 
# 
# From -- ./inp_files/104182.got.cif
#   From: 2010.06.25/outbox.cif.g09.slc.cpg/sg15_53_cif.got.tgz:104182.got - 2010.06.28 07:06:18.
