data_PCOD8146714
_publ_section_title
;
Structure prediction by ZEFSAII (Michael W. Deem and Ramdas Pophale) SiO2 
 PCOD8146714
Probable space group: C 2/C
;
_chemical_formula_sum "Si O2"
_cell_formula_units_Z 48
_cell_length_a 26.526188
_cell_length_b 6.485152
_cell_length_c 31.099264
_cell_angle_alpha 90.000000
_cell_angle_beta 155.994074
_cell_angle_gamma 90.000000
_cell_volume 2176.503090
_symmetry_space_group_name_H-M "C 2/C"
_symmetry_group_IT_number 15
_symmetry_cell_setting 'monoclinic'
loop_
_space_group_symop_operation_xyz
x,y,z
-x,y,1/2-z
-x,-y,-z
x,-y,1/2+z
1/2+x,1/2+y,z
1/2-x,1/2+y,1/2-z
1/2-x,1/2-y,-z
1/2+x,1/2-y,1/2+z
loop_
_atom_site_type_symbol
_atom_site_label
_atom_site_fract_x
_atom_site_fract_y
_atom_site_fract_z
Si Si1 0.245689 0.058451 0.966419
Si Si2 0.099704 0.638884 0.706365
Si Si3 0.700302 0.678919 0.152525
Si Si4 0.906539 0.338510 0.514351
Si Si5 0.054775 0.270338 0.335342
Si Si6 0.388639 0.525301 0.838106
O O1 0.110400 0.950648 0.862459
O O2 0.250000 0.250000 0.000000
O O3 0.284921 0.141214 0.949727
O O4 0.342256 0.899114 0.060563
O O5 0.208924 0.477628 0.802461
O O6 0.994308 0.530577 0.594617
O O7 0.055634 0.742692 0.716533
O O8 0.151312 0.829976 0.720589
O O9 0.603022 0.545547 0.105283
O O10 0.779274 0.809280 0.248349
O O11 0.635699 0.835425 0.068458
O O12 0.981487 0.121907 0.577961
O O13 0.000000 0.380830 0.250000
#
# Coordination Sequence:
#
# PCOD8146714 Si02
#       6
#     8   8   8   8   8   8
#     4  10  22  42  62  93 128 161 211 259 303 379
#     4  10  23  42  61  93 129 161 213 263 303 378
#     4  11  23  40  64  94 124 169 211 257 318 368
#     4  10  24  40  64  93 124 166 211 256 317 370
#     4  10  23  40  64  94 124 165 208 254 318 365
#     4  11  22  42  62  91 129 161 211 265 308 378
#
# _framework density 22.053725
#
# number of rings (size 3 to 8) (size 9 to 14) (size 15 to 20)
#    0.000    1.667    1.667    1.500    4.667    2.667 
#    0.000    0.000    0.000    0.000    0.000    0.000 
#    0.000    0.000    0.000    0.000    0.000    0.000 
#
# Total GULP energy -297407.250581 kJ/mol
# GULP energy per Si atom -12391.968774 kJ/mol
# Density = 2.200353 g / cm^3
# Si number density = 22.053725 Si / 1000 Ang^3
#
#
#
# Elastic Constant Matrix: (Units=GPa)
#
#
# Indices 1 2 3 4 5 6 
#
# 1 151.0528 57.0749 31.3289 0.0069 -10.3752 -0.0328
# 2 57.0749 84.4824 8.7870 -0.0574 2.2494 0.1580
# 3 31.3289 8.7870 56.1427 0.0213 -17.8662 0.0074
# 4 0.0069 -0.0574 0.0213 9.8480 -0.0561 -7.4095
# 5 -10.3752 2.2494 -17.8662 -0.0561 31.2320 0.0280
# 6 -0.0328 0.1580 0.0074 -7.4095 0.0280 41.7829
#
#
#
# Elastic Compliance Matrix: (Units=1/GPa)
#
#
# Indices 1 2 3 4 5 6 
#
# 1 0.009969 -0.006344 -0.004121 -0.000004 0.001411 0.000031
# 2 -0.006344 0.016216 -0.000049 0.000037 -0.003303 -0.000058
# 3 -0.004121 -0.000049 0.024065 0.000011 0.012401 -0.000014
# 4 -0.000004 0.000037 0.000011 0.117178 0.000194 0.020779
# 5 0.001411 -0.003303 0.012401 0.000194 0.039820 0.000019
# 6 0.000031 -0.000058 -0.000014 0.020779 0.000019 0.027618
#
#
# Mechanical properties :
#
#
# Convention : Reuss Voigt Hill
#
# Bulk Modulus (GPa) = 34.22057 54.00662 44.11359
# Shear Modulus (GPa) = 18.82285 29.53840 24.18063
#
# Velocity S-wave (km/s) = 2.92464 3.66373 3.31485
# Velocity P-wave (km/s) = 5.19185 6.51453 5.89043
#
# Compressibility (1/GPa) = 0.02922219
#
# Stress axis : x y z
#
# Youngs Moduli (GPa) = 100.31304 61.66850 41.55348
#
# Poissons Ratio (x) = 0.39121 0.17124
# Poissons Ratio (y) = 0.63636 0.00205
# Poissons Ratio (z) = 0.41338 0.00304
#
# Static dielectric constant tensor:
#      x y z
#    x 4.310730 -0.000210 0.202080 
#    y -0.000210 4.009600 0.000290 
#    z 0.202080 0.000290 3.863230 
# 
# 
# High freq. dielectric constant tensor:
#      x y z
#    x 1.878680 -0.000020 0.002580 
#    y -0.000020 1.865360 0.000010 
#    z 0.002580 0.000010 1.853730 
# 
# From -- ./inp_files/319359.got.cif
#   From: 2010.06.25/outbox.cif.g09.slc.cpg/sg15_160_cif.got.tgz:319359.got - 2010.06.28 07:06:18.
