data_PCOD8146582
_publ_section_title
;
Structure prediction by ZEFSAII (Michael W. Deem and Ramdas Pophale) SiO2 
 PCOD8146582
Probable space group: C 2/C
;
_chemical_formula_sum "Si O2"
_cell_formula_units_Z 52
_cell_length_a 16.798861
_cell_length_b 27.534741
_cell_length_c 5.715357
_cell_angle_alpha 90.000000
_cell_angle_beta 123.946156
_cell_angle_gamma 90.000000
_cell_volume 2193.074663
_symmetry_space_group_name_H-M "C 2/C"
_symmetry_group_IT_number 15
_symmetry_cell_setting 'monoclinic'
loop_
_space_group_symop_operation_xyz
x,y,z
-x,y,1/2-z
-x,-y,-z
x,-y,1/2+z
1/2+x,1/2+y,z
1/2-x,1/2+y,1/2-z
1/2-x,1/2-y,-z
1/2+x,1/2-y,1/2+z
loop_
_atom_site_type_symbol
_atom_site_label
_atom_site_fract_x
_atom_site_fract_y
_atom_site_fract_z
Si Si1 0.142132 0.366280 0.723504
Si Si2 0.311201 0.975980 0.294867
Si Si3 0.782673 0.106581 0.077989
Si Si4 0.000000 0.562864 0.250000
Si Si5 0.391833 0.518441 0.317455
Si Si6 0.743009 0.801428 0.266122
Si Si7 0.394699 0.229191 0.581020
O O1 0.212856 0.399060 0.686189
O O2 0.061209 0.402541 0.681546
O O3 0.089636 0.325066 0.486074
O O4 0.205125 0.336262 0.007716
O O5 0.427163 0.971915 0.487306
O O6 0.277189 0.002814 0.480677
O O7 0.270037 0.920645 0.227799
O O8 0.881833 0.077343 0.301658
O O9 0.798485 0.163188 0.044605
O O10 0.500000 0.500000 0.500000
O O11 0.344781 0.498237 0.485265
O O12 0.653673 0.773360 0.240653
O O13 0.822162 0.762480 0.304975
O O14 0.500000 0.253907 0.750000
#
# Coordination Sequence:
#
# PCOD8146582 Si02
#       7
#     8   8   8   4   8   8   8
#     4  11  23  40  67  97 136 181 223 286 352 427
#     4  12  26  43  63  95 140 182 229 287 343 408
#     4  11  24  41  66  95 135 180 231 285 354 415
#     4  12  24  42  66 104 138 184 240 284 350 428
#     4  10  23  44  69  98 132 182 237 291 344 409
#     4  10  22  43  64  98 135 174 226 284 349 429
#     4  10  22  41  68  98 133 175 223 284 357 422
#
# _framework density 23.711001
#
# number of rings (size 3 to 8) (size 9 to 14) (size 15 to 20)
#    0.000    1.231    1.538    3.692    4.308    1.231 
#    2.769    0.000    0.000    0.000    0.000    0.000 
#    0.000    0.000    0.000    0.000    0.000    0.000 
#
# Total GULP energy -322196.754826 kJ/mol
# GULP energy per Si atom -12392.182878 kJ/mol
# Density = 2.365703 g / cm^3
# Si number density = 23.711001 Si / 1000 Ang^3
#
#
#
# Elastic Constant Matrix: (Units=GPa)
#
#
# Indices 1 2 3 4 5 6 
#
# 1 145.0995 43.6666 55.6449 0.0000 7.2657 0.0000
# 2 43.6666 65.9900 21.8377 0.0000 -0.8580 0.0000
# 3 55.6449 21.8377 126.2012 0.0000 4.0371 0.0000
# 4 0.0000 0.0000 0.0000 38.0297 0.0000 8.1362
# 5 7.2657 -0.8580 4.0371 0.0000 29.2189 0.0000
# 6 0.0000 0.0000 0.0000 8.1362 0.0000 41.4339
#
#
#
# Elastic Compliance Matrix: (Units=1/GPa)
#
#
# Indices 1 2 3 4 5 6 
#
# 1 0.009944 -0.005495 -0.003364 0.000000 -0.002169 0.000000
# 2 -0.005495 0.019132 -0.000954 0.000000 0.002060 0.000000
# 3 -0.003364 -0.000954 0.009589 0.000000 -0.000516 0.000000
# 4 0.000000 0.000000 0.000000 0.027448 0.000000 -0.005390
# 5 -0.002169 0.002060 -0.000516 0.000000 0.034896 0.000000
# 6 0.000000 0.000000 0.000000 -0.005390 0.000000 0.025193
#
#
# Mechanical properties :
#
#
# Convention : Reuss Voigt Hill
#
# Bulk Modulus (GPa) = 52.52318 64.39878 58.46098
# Shear Modulus (GPa) = 32.85671 36.14592 34.50131
#
# Velocity S-wave (km/s) = 3.72656 3.90864 3.81868
# Velocity P-wave (km/s) = 6.38089 6.89846 6.64472
#
# Compressibility (1/GPa) = 0.01903921
#
# Stress axis : x y z
#
# Youngs Moduli (GPa) = 100.55871 52.26726 104.28795
#
# Poissons Ratio (x) = 0.28722 0.35087
# Poissons Ratio (y) = 0.55259 0.09945
# Poissons Ratio (z) = 0.33832 0.04984
#
# Static dielectric constant tensor:
#      x y z
#    x 4.429760 0.000000 -0.127630 
#    y 0.000000 4.534190 0.000000 
#    z -0.127630 0.000000 4.635420 
# 
# 
# High freq. dielectric constant tensor:
#      x y z
#    x 1.952060 0.000000 -0.001790 
#    y 0.000000 1.942820 0.000000 
#    z -0.001790 0.000000 1.947290 
# 
# From -- ./inp_files/11446.got.cif
#   From: 2010.06.25/outbox.cif.g09.slc.cpg/sg15_6_cif.got.tgz:11446.got - 2010.06.28 07:06:18.
