data_PCOD8146505
_publ_section_title
;
Structure prediction by ZEFSAII (Michael W. Deem and Ramdas Pophale) SiO2 
 PCOD8146505
Probable space group: C 2/C
;
_chemical_formula_sum "Si O2"
_cell_formula_units_Z 56
_cell_length_a 13.943534
_cell_length_b 11.785817
_cell_length_c 18.251144
_cell_angle_alpha 90.000000
_cell_angle_beta 121.522558
_cell_angle_gamma 90.000000
_cell_volume 2556.722566
_symmetry_space_group_name_H-M "C 2/C"
_symmetry_group_IT_number 15
_symmetry_cell_setting 'monoclinic'
loop_
_space_group_symop_operation_xyz
x,y,z
-x,y,1/2-z
-x,-y,-z
x,-y,1/2+z
1/2+x,1/2+y,z
1/2-x,1/2+y,1/2-z
1/2-x,1/2-y,-z
1/2+x,1/2-y,1/2+z
loop_
_atom_site_type_symbol
_atom_site_label
_atom_site_fract_x
_atom_site_fract_y
_atom_site_fract_z
Si Si1 0.466446 0.352877 0.917219
Si Si2 0.866810 0.775645 0.326115
Si Si3 0.922943 0.076221 0.558155
Si Si4 0.159788 0.653572 0.665580
Si Si5 0.177793 0.446461 0.017409
Si Si6 0.171449 0.709137 0.033767
Si Si7 0.474215 0.949464 0.824676
O O1 0.534254 0.450279 0.900896
O O2 0.371844 0.287214 0.832155
O O3 0.412574 0.414056 0.966341
O O4 0.544766 0.245108 0.966583
O O5 0.789830 0.853360 0.242642
O O6 0.801295 0.771214 0.378213
O O7 0.883902 0.647968 0.305372
O O8 0.989909 0.832194 0.376353
O O9 0.799597 0.096260 0.540414
O O10 0.145070 0.630123 0.573352
O O11 0.081771 0.570054 0.680715
O O12 0.087683 0.430383 0.916881
O O13 0.179625 0.575064 0.046048
O O14 0.250000 0.750000 0.000000
O O15 0.500000 0.946552 0.750000
#
# Coordination Sequence:
#
# PCOD8146505 Si02
#       7
#     8   8   8   8   8   8   8
#     4  10  22  41  67 101 134 177 232 282 351 418
#     4  11  28  46  67 105 147 179 241 291 354 425
#     4  10  24  41  70 103 136 183 227 290 349 424
#     4  12  27  45  72 100 142 188 231 298 350 424
#     4  12  24  46  75 100 140 187 241 285 360 418
#     4  11  21  43  73 101 136 183 234 294 350 420
#     4  12  29  47  71 106 142 187 243 295 356 428
#
# _framework density 21.903041999999999
#
# number of rings (size 3 to 8) (size 9 to 14) (size 15 to 20)
#    0.000    0.857    4.286    2.143    8.000    1.143 
#    0.000    0.000    0.000    0.000    0.000    0.000 
#    0.000    0.000    0.000    0.000    0.000    0.000 
#
# Total GULP energy -347175.447369 kJ/mol
# GULP energy per Si atom -12399.123120 kJ/mol
# Density = 2.185319 g / cm^3
# Si number density = 21.903042 Si / 1000 Ang^3
#
#
#
# Elastic Constant Matrix: (Units=GPa)
#
#
# Indices 1 2 3 4 5 6 
#
# 1 130.1790 40.0354 49.5043 0.0000 -4.6794 0.0000
# 2 40.0354 111.3291 30.1614 0.0000 0.8018 0.0000
# 3 49.5043 30.1614 120.9395 0.0000 1.0008 0.0000
# 4 0.0000 0.0000 0.0000 27.4005 0.0000 3.5466
# 5 -4.6794 0.8018 1.0008 0.0000 30.8897 0.0000
# 6 0.0000 0.0000 0.0000 3.5466 0.0000 35.0175
#
#
#
# Elastic Compliance Matrix: (Units=1/GPa)
#
#
# Indices 1 2 3 4 5 6 
#
# 1 0.009838 -0.002633 -0.003384 0.000000 0.001668 0.000000
# 2 -0.002633 0.010339 -0.001495 0.000000 -0.000619 0.000000
# 3 -0.003384 -0.001495 0.010033 0.000000 -0.000799 0.000000
# 4 0.000000 0.000000 0.000000 0.036980 0.000000 -0.003745
# 5 0.001668 -0.000619 -0.000799 0.000000 0.032668 0.000000
# 6 0.000000 0.000000 0.000000 -0.003745 0.000000 0.028936
#
#
# Mechanical properties :
#
#
# Convention : Reuss Voigt Hill
#
# Bulk Modulus (GPa) = 65.85478 66.87221 66.36349
# Shear Modulus (GPa) = 33.58333 34.84465 34.21399
#
# Velocity S-wave (km/s) = 3.91995 3.99288 3.95659
# Velocity P-wave (km/s) = 7.11476 7.20103 7.15802
#
# Compressibility (1/GPa) = 0.01518493
#
# Stress axis : x y z
#
# Youngs Moduli (GPa) = 101.64155 96.72194 99.66628
#
# Poissons Ratio (x) = 0.25469 0.33730
# Poissons Ratio (y) = 0.26764 0.14905
# Poissons Ratio (z) = 0.34399 0.14465
#
# Static dielectric constant tensor:
#      x y z
#    x 4.027610 0.000000 -0.003750 
#    y 0.000000 4.367750 0.000000 
#    z -0.003750 0.000000 3.932240 
# 
# 
# High freq. dielectric constant tensor:
#      x y z
#    x 1.866410 0.000000 0.006170 
#    y 0.000000 1.878040 0.000000 
#    z 0.006170 0.000000 1.846980 
# 
# From -- ./inp_files/204530.got.cif
#   From: 2010.06.25/outbox.cif.g09.slc.cpg/sg15_103_cif.got.tgz:204530.got - 2010.06.28 07:06:18.
