data_PCOD8146657
_publ_section_title
;
Structure prediction by ZEFSAII (Michael W. Deem and Ramdas Pophale) SiO2 
 PCOD8146657
Probable space group: C 2/C
;
_chemical_formula_sum "Si O2"
_cell_formula_units_Z 56
_cell_length_a 11.630532
_cell_length_b 26.019626
_cell_length_c 9.855411
_cell_angle_alpha 90.000000
_cell_angle_beta 118.481949
_cell_angle_gamma 90.000000
_cell_volume 2621.489590
_symmetry_space_group_name_H-M "C 2/C"
_symmetry_group_IT_number 15
_symmetry_cell_setting 'monoclinic'
loop_
_space_group_symop_operation_xyz
x,y,z
-x,y,1/2-z
-x,-y,-z
x,-y,1/2+z
1/2+x,1/2+y,z
1/2-x,1/2+y,1/2-z
1/2-x,1/2-y,-z
1/2+x,1/2-y,1/2+z
loop_
_atom_site_type_symbol
_atom_site_label
_atom_site_fract_x
_atom_site_fract_y
_atom_site_fract_z
Si Si1 0.911974 0.491162 0.821311
Si Si2 0.762091 0.406197 0.159143
Si Si3 0.594432 0.844865 0.047299
Si Si4 0.497798 0.548594 0.595908
Si Si5 0.808709 0.138138 0.441782
Si Si6 0.315601 0.893963 0.882751
Si Si7 0.404948 0.741686 0.567905
O O1 0.846837 0.543128 0.731780
O O2 0.802444 0.450008 0.804065
O O3 0.000000 0.468176 0.750000
O O4 0.000000 0.500000 0.000000
O O5 0.825270 0.357274 0.270717
O O6 0.618296 0.413719 0.136246
O O7 0.751622 0.393623 0.994536
O O8 0.681022 0.857138 0.963991
O O9 0.467605 0.880230 0.976135
O O10 0.553254 0.784446 0.020549
O O11 0.500000 0.527280 0.750000
O O12 0.500000 0.500000 0.500000
O O13 0.368371 0.582239 0.502932
O O14 0.763736 0.144432 0.259759
O O15 0.917816 0.182677 0.526695
O O16 0.500000 0.750033 0.750000
O O17 0.250000 0.750000 0.500000
#
# Coordination Sequence:
#
# PCOD8146657 Si02
#       7
#     8   8   8   8   8   8   8
#     4  12  22  39  63  97 136 176 222 281 339 399
#     4  12  26  42  65  96 140 177 225 280 341 413
#     4  11  21  43  71 104 132 170 226 288 345 403
#     4  12  28  46  68  93 133 186 230 276 334 414
#     4  11  24  44  70  99 134 178 230 279 336 411
#     4  12  25  41  66 100 138 173 222 282 350 401
#     4  10  22  41  74 107 134 174 234 291 345 412
#
# _framework density 21.361902000000001
#
# number of rings (size 3 to 8) (size 9 to 14) (size 15 to 20)
#    0.000    0.571    4.286    4.714    6.000    0.000 
#    0.000    0.714    3.143    0.000    0.000    0.000 
#    0.000    0.000    0.000    0.000    0.000    0.000 
#
# Total GULP energy -347188.192494 kJ/mol
# GULP energy per Si atom -12399.578303 kJ/mol
# Density = 2.131328 g / cm^3
# Si number density = 21.361902 Si / 1000 Ang^3
#
#
#
# Elastic Constant Matrix: (Units=GPa)
#
#
# Indices 1 2 3 4 5 6 
#
# 1 74.7514 16.3314 44.2729 0.0000 -13.2381 0.0000
# 2 16.3314 96.9527 33.6255 0.0000 -10.6746 0.0000
# 3 44.2729 33.6255 153.7874 0.0000 -22.6360 0.0000
# 4 0.0000 0.0000 0.0000 39.1155 0.0000 -0.6594
# 5 -13.2381 -10.6746 -22.6360 0.0000 44.1908 0.0000
# 6 0.0000 0.0000 0.0000 -0.6594 0.0000 17.8655
#
#
#
# Elastic Compliance Matrix: (Units=1/GPa)
#
#
# Indices 1 2 3 4 5 6 
#
# 1 0.016520 -0.001062 -0.004145 0.000000 0.002569 0.000000
# 2 -0.001062 0.011330 -0.001964 0.000000 0.001413 0.000000
# 3 -0.004145 -0.001964 0.008515 0.000000 0.002645 0.000000
# 4 0.000000 0.000000 0.000000 0.025581 0.000000 0.000944
# 5 0.002569 0.001413 0.002645 0.000000 0.025095 0.000000
# 6 0.000000 0.000000 0.000000 0.000944 0.000000 0.056009
#
#
# Mechanical properties :
#
#
# Convention : Reuss Voigt Hill
#
# Bulk Modulus (GPa) = 45.40922 57.10568 51.25745
# Shear Modulus (GPa) = 30.35234 35.65180 33.00207
#
# Velocity S-wave (km/s) = 3.77352 4.08970 3.93479
# Velocity P-wave (km/s) = 6.34738 7.00653 6.68508
#
# Compressibility (1/GPa) = 0.02202196
#
# Stress axis : x y z
#
# Youngs Moduli (GPa) = 60.53317 88.26300 117.44555
#
# Poissons Ratio (x) = 0.09375 0.48687
# Poissons Ratio (y) = 0.06430 0.23061
# Poissons Ratio (z) = 0.25094 0.17331
#
# Static dielectric constant tensor:
#      x y z
#    x 3.792290 0.000000 0.052530 
#    y 0.000000 4.551870 0.000000 
#    z 0.052530 0.000000 4.145630 
# 
# 
# High freq. dielectric constant tensor:
#      x y z
#    x 1.821650 0.000000 0.010380 
#    y 0.000000 1.839740 0.000000 
#    z 0.010380 0.000000 1.853150 
# 
# From -- ./inp_files/35784.got.cif
#   From: 2010.06.25/outbox.cif.g09.slc.cpg/sg15_18_cif.got.tgz:35784.got - 2010.06.28 07:06:18.
