data_PCOD8146614
_publ_section_title
;
Structure prediction by ZEFSAII (Michael W. Deem and Ramdas Pophale) SiO2 
 PCOD8146614
Probable space group: C 2/C
;
_chemical_formula_sum "Si O2"
_cell_formula_units_Z 64
_cell_length_a 8.472417
_cell_length_b 17.354615
_cell_length_c 28.913042
_cell_angle_alpha 90.000000
_cell_angle_beta 140.191565
_cell_angle_gamma 90.000000
_cell_volume 2721.743715
_symmetry_space_group_name_H-M "C 2/C"
_symmetry_group_IT_number 15
_symmetry_cell_setting 'monoclinic'
loop_
_space_group_symop_operation_xyz
x,y,z
-x,y,1/2-z
-x,-y,-z
x,-y,1/2+z
1/2+x,1/2+y,z
1/2-x,1/2+y,1/2-z
1/2-x,1/2-y,-z
1/2+x,1/2-y,1/2+z
loop_
_atom_site_type_symbol
_atom_site_label
_atom_site_fract_x
_atom_site_fract_y
_atom_site_fract_z
Si Si1 0.233364 0.366140 0.197796
Si Si2 0.742910 0.270367 0.208494
Si Si3 0.265210 0.091851 0.296030
Si Si4 0.801271 0.673596 0.541658
Si Si5 0.533200 0.260336 0.065664
Si Si6 0.646332 0.522796 0.447425
Si Si7 0.567692 0.914383 0.568953
Si Si8 0.927055 0.482000 0.184234
O O1 0.500000 0.407243 0.250000
O O2 0.321420 0.305523 0.256518
O O3 0.095197 0.327895 0.121920
O O4 0.020744 0.424172 0.165998
O O5 0.756123 0.180497 0.220275
O O6 0.570012 0.291536 0.126231
O O7 0.000000 0.304656 0.250000
O O8 0.436241 0.068766 0.377692
O O9 0.000000 0.057513 0.250000
O O10 0.398467 0.057040 0.281146
O O11 0.750000 0.750000 0.500000
O O12 0.641390 0.679630 0.552928
O O13 0.723907 0.595402 0.497333
O O14 0.639106 0.175507 0.078476
O O15 0.250000 0.250000 0.000000
O O16 0.714323 0.542435 0.409686
O O17 0.359233 0.502672 0.387030
O O18 0.798773 0.444483 0.492711
O O19 0.000000 0.445908 0.250000
#
# Coordination Sequence:
#
# PCOD8146614 Si02
#       8
#     8   8   8   8   8   8   8   8
#     4  12  29  48  74 105 149 197 246 311 372 439
#     4  10  22  45  70 101 139 188 240 292 367 431
#     4  10  22  41  69  98 138 182 232 292 360 436
#     4  12  27  47  74 115 151 192 254 310 377 445
#     4  11  25  42  75 107 148 192 242 307 364 454
#     4  11  26  45  73 104 148 192 244 308 365 450
#     4  10  23  46  68 102 143 194 234 292 376 434
#     4  12  28  46  73 105 142 191 250 302 366 450
#
# _framework density 23.514336
#
# number of rings (size 3 to 8) (size 9 to 14) (size 15 to 20)
#    0.000    1.000    2.500    2.250    7.000    4.500 
#    0.000    0.000    0.000    0.000    0.000    0.000 
#    0.000    0.000    0.000    0.000    0.000    0.000 
#
# Total GULP energy -396455.584797 kJ/mol
# GULP energy per Si atom -12389.237025 kJ/mol
# Density = 2.346082 g / cm^3
# Si number density = 23.514336 Si / 1000 Ang^3
#
#
#
# Elastic Constant Matrix: (Units=GPa)
#
#
# Indices 1 2 3 4 5 6 
#
# 1 89.8756 34.4330 44.0413 -0.0003 26.8913 -0.0002
# 2 34.4330 76.6195 39.7024 0.0000 -9.3732 -0.0001
# 3 44.0413 39.7024 146.2277 -0.0006 20.2071 -0.0003
# 4 -0.0003 0.0000 -0.0006 30.2032 -0.0002 -4.8205
# 5 26.8913 -9.3732 20.2071 -0.0002 45.6191 -0.0002
# 6 -0.0002 -0.0001 -0.0003 -4.8205 -0.0002 38.5855
#
#
#
# Elastic Compliance Matrix: (Units=1/GPa)
#
#
# Indices 1 2 3 4 5 6 
#
# 1 0.019240 -0.009415 -0.001496 0.000000 -0.012614 0.000000
# 2 -0.009415 0.021086 -0.004532 0.000000 0.011890 0.000000
# 3 -0.001496 -0.004532 0.009083 0.000000 -0.004073 0.000000
# 4 0.000000 0.000000 0.000000 0.033783 0.000000 0.004220
# 5 -0.012614 0.011890 -0.004073 0.000000 0.033603 0.000000
# 6 0.000000 0.000000 0.000000 0.004220 0.000000 0.026444
#
#
# Mechanical properties :
#
#
# Convention : Reuss Voigt Hill
#
# Bulk Modulus (GPa) = 53.98715 61.00846 57.49780
# Shear Modulus (GPa) = 27.73184 35.85132 31.79158
#
# Velocity S-wave (km/s) = 3.43791 3.90892 3.68096
# Velocity P-wave (km/s) = 6.22640 6.80988 6.52466
#
# Compressibility (1/GPa) = 0.01852293
#
# Stress axis : x y z
#
# Youngs Moduli (GPa) = 51.97384 47.42554 110.10165
#
# Poissons Ratio (x) = 0.44650 0.16467
# Poissons Ratio (y) = 0.48932 0.49903
# Poissons Ratio (z) = 0.07773 0.21495
#
# Static dielectric constant tensor:
#      x y z
#    x 4.357430 0.000000 -0.100300 
#    y 0.000000 3.949500 0.000000 
#    z -0.100300 0.000000 4.369500 
# 
# 
# High freq. dielectric constant tensor:
#      x y z
#    x 1.931830 0.000000 -0.004390 
#    y 0.000000 1.939770 0.000000 
#    z -0.004390 0.000000 1.940100 
# 
# From -- ./inp_files/308816.got.cif
#   From: 2010.06.25/outbox.cif.g09.slc.cpg/sg15_155_cif.got.tgz:308816.got - 2010.06.28 07:06:18.
