data_PCOD8146205
_publ_section_title
;
Structure prediction by ZEFSAII (Michael W. Deem and Ramdas Pophale) SiO2 
 PCOD8146205
Probable space group: C 2/C
;
_chemical_formula_sum "Si O2"
_cell_formula_units_Z 44
_cell_length_a 12.022214
_cell_length_b 24.201721
_cell_length_c 7.926701
_cell_angle_alpha 90.000000
_cell_angle_beta 120.630777
_cell_angle_gamma 90.000000
_cell_volume 1984.532156
_symmetry_space_group_name_H-M "C 2/C"
_symmetry_group_IT_number 15
_symmetry_cell_setting 'monoclinic'
loop_
_space_group_symop_operation_xyz
x,y,z
-x,y,1/2-z
-x,-y,-z
x,-y,1/2+z
1/2+x,1/2+y,z
1/2-x,1/2+y,1/2-z
1/2-x,1/2-y,-z
1/2+x,1/2-y,1/2+z
loop_
_atom_site_type_symbol
_atom_site_label
_atom_site_fract_x
_atom_site_fract_y
_atom_site_fract_z
Si Si1 0.419982 0.372923 0.856747
Si Si2 0.728070 0.462002 0.603493
Si Si3 0.658157 0.576549 0.687168
Si Si4 0.000000 0.423427 0.750000
Si Si5 0.137590 0.757097 0.773838
Si Si6 0.411061 0.860762 0.348041
O O1 0.500000 0.379336 0.750000
O O2 0.346654 0.313638 0.822933
O O3 0.306863 0.418877 0.774498
O O4 0.527848 0.387318 0.080052
O O5 0.657113 0.519585 0.581368
O O6 0.672822 0.435796 0.393012
O O7 0.883545 0.465346 0.706207
O O8 0.777616 0.609774 0.701562
O O9 0.973985 0.384945 0.567055
O O10 0.126822 0.703372 0.646772
O O11 0.000000 0.766482 0.750000
O O12 0.250000 0.750000 0.000000
O O13 0.500000 0.866123 0.250000
#
# Coordination Sequence:
#
# PCOD8146205 Si02
#       6
#     8   8   8   4   8   8
#     4  11  23  41  68  96 133 175 225 279 343 406
#     4  11  25  42  67  96 142 172 234 280 346 411
#     4  11  24  42  64 101 130 182 224 282 349 407
#     4  10  26  42  62 108 132 182 234 284 342 422
#     4  10  22  40  69 101 132 182 235 279 345 415
#     4  10  23  41  68  94 139 179 232 285 346 406
#
# _framework density 22.171472999999999
#
# number of rings (size 3 to 8) (size 9 to 14) (size 15 to 20)
#    0.000    1.455    0.000    4.364   11.455    1.455 
#    3.273    1.818    0.000    0.000    0.000    0.000 
#    0.000    0.000    0.000    0.000    0.000    0.000 
#
# Total GULP energy -272609.421050 kJ/mol
# GULP energy per Si atom -12391.337320 kJ/mol
# Density = 2.212101 g / cm^3
# Si number density = 22.171473 Si / 1000 Ang^3
#
#
#
# Elastic Constant Matrix: (Units=GPa)
#
#
# Indices 1 2 3 4 5 6 
#
# 1 89.3699 35.7228 26.8378 0.0000 7.3247 0.0000
# 2 35.7228 153.4680 29.0210 0.0000 4.0944 0.0000
# 3 26.8378 29.0210 84.8695 0.0000 22.7908 0.0000
# 4 0.0000 0.0000 0.0000 34.8739 0.0000 9.9782
# 5 7.3247 4.0944 22.7908 0.0000 37.0889 0.0000
# 6 0.0000 0.0000 0.0000 9.9782 0.0000 36.6705
#
#
#
# Elastic Compliance Matrix: (Units=1/GPa)
#
#
# Indices 1 2 3 4 5 6 
#
# 1 0.013166 -0.002444 -0.003236 0.000000 -0.000342 0.000000
# 2 -0.002444 0.007442 -0.002013 0.000000 0.000898 0.000000
# 3 -0.003236 -0.002013 0.015884 0.000000 -0.008899 0.000000
# 4 0.000000 0.000000 0.000000 0.031096 0.000000 -0.008461
# 5 -0.000342 0.000898 -0.008899 0.000000 0.032399 0.000000
# 6 0.000000 0.000000 0.000000 -0.008461 0.000000 0.029572
#
#
# Mechanical properties :
#
#
# Convention : Reuss Voigt Hill
#
# Bulk Modulus (GPa) = 47.37879 56.76339 52.07109
# Shear Modulus (GPa) = 32.89911 37.46840 35.18375
#
# Velocity S-wave (km/s) = 3.85625 4.11534 3.98790
# Velocity P-wave (km/s) = 6.42209 6.94543 6.68888
#
# Compressibility (1/GPa) = 0.02110649
#
# Stress axis : x y z
#
# Youngs Moduli (GPa) = 75.95326 134.38111 62.95523
#
# Poissons Ratio (x) = 0.32837 0.20372
# Poissons Ratio (y) = 0.18560 0.12673
# Poissons Ratio (z) = 0.24579 0.27052
#
# Static dielectric constant tensor:
#      x y z
#    x 4.239330 0.000000 0.217120 
#    y 0.000000 4.845690 0.000000 
#    z 0.217120 0.000000 4.239630 
# 
# 
# High freq. dielectric constant tensor:
#      x y z
#    x 1.878450 0.000000 0.014220 
#    y 0.000000 1.883910 0.000000 
#    z 0.014220 0.000000 1.871040 
# 
# From -- ./inp_files/34476.got.cif
#   From: 2010.06.25/outbox.cif.g09.slc.cpg/sg15_18_cif.got.tgz:34476.got - 2010.06.28 07:06:18.
