data_PCOD8146541
_publ_section_title
;
Structure prediction by ZEFSAII (Michael W. Deem and Ramdas Pophale) SiO2 
 PCOD8146541
Probable space group: C 2/C
;
_chemical_formula_sum "Si O2"
_cell_formula_units_Z 60
_cell_length_a 11.403658
_cell_length_b 26.029830
_cell_length_c 17.521754
_cell_angle_alpha 90.000000
_cell_angle_beta 147.488720
_cell_angle_gamma 90.000000
_cell_volume 2795.398958
_symmetry_space_group_name_H-M "C 2/C"
_symmetry_group_IT_number 15
_symmetry_cell_setting 'monoclinic'
loop_
_space_group_symop_operation_xyz
x,y,z
-x,y,1/2-z
-x,-y,-z
x,-y,1/2+z
1/2+x,1/2+y,z
1/2-x,1/2+y,1/2-z
1/2-x,1/2-y,-z
1/2+x,1/2-y,1/2+z
loop_
_atom_site_type_symbol
_atom_site_label
_atom_site_fract_x
_atom_site_fract_y
_atom_site_fract_z
Si Si1 0.458130 0.898757 0.100129
Si Si2 0.069561 0.643909 0.507503
Si Si3 0.027666 0.073877 0.458508
Si Si4 0.413079 0.254233 0.931156
Si Si5 0.000000 0.921879 0.250000
Si Si6 0.837717 0.649469 0.223757
Si Si7 0.833998 0.026921 0.806270
Si Si8 0.858503 0.294802 0.241990
O O1 0.415500 0.875029 0.992781
O O2 0.585375 0.953165 0.160065
O O3 0.608394 0.856422 0.226912
O O4 0.234185 0.910443 0.020216
O O5 0.141279 0.703032 0.552290
O O6 0.289914 0.612669 0.625042
O O7 0.931695 0.636270 0.356968
O O8 0.901007 0.125142 0.410094
O O9 0.093209 0.048900 0.573367
O O10 0.863264 0.034744 0.324092
O O11 0.200367 0.290568 0.815413
O O12 0.449894 0.238217 0.863180
O O13 0.610266 0.283286 0.082330
O O14 0.982591 0.955385 0.316972
O O15 0.000000 0.625737 0.250000
O O16 0.000000 0.274623 0.250000
#
# Coordination Sequence:
#
# PCOD8146541 Si02
#       8
#     8   8   8   8   4   8   8   8
#     4  10  22  42  68  93 132 173 220 280 337 397
#     4  10  24  43  64 100 128 176 225 279 335 411
#     4  11  24  42  67  99 131 174 222 283 335 410
#     4  11  23  41  61  94 131 176 225 275 335 398
#     4  10  22  44  70  92 136 176 222 282 342 408
#     4  12  26  42  63  94 136 173 224 279 341 400
#     4  10  22  41  67  97 128 173 227 271 343 400
#     4  11  21  38  64  93 129 174 221 271 334 399
#
# _framework density 21.463842
#
# number of rings (size 3 to 8) (size 9 to 14) (size 15 to 20)
#    0.000    1.333    1.333    4.000    0.933    8.533 
#    0.000    2.667    0.000    0.000    0.000    0.000 
#    0.000    0.000    0.000    0.000    0.000    0.000 
#
# Total GULP energy -371871.782340 kJ/mol
# GULP energy per Si atom -12395.726078 kJ/mol
# Density = 2.141499 g / cm^3
# Si number density = 21.463842 Si / 1000 Ang^3
#
#
#
# Elastic Constant Matrix: (Units=GPa)
#
#
# Indices 1 2 3 4 5 6 
#
# 1 152.7637 41.1146 36.7485 -0.0027 5.2272 0.0007
# 2 41.1146 103.6067 28.1271 0.0015 7.3132 -0.0005
# 3 36.7485 28.1271 69.4459 -0.0411 -3.1378 0.0103
# 4 -0.0027 0.0015 -0.0411 97.8994 -0.0018 -12.8756
# 5 5.2272 7.3132 -3.1378 -0.0018 32.1828 0.0006
# 6 0.0007 -0.0005 0.0103 -12.8756 0.0006 28.3442
#
#
#
# Elastic Compliance Matrix: (Units=1/GPa)
#
#
# Indices 1 2 3 4 5 6 
#
# 1 0.007986 -0.002166 -0.003400 -0.000001 -0.001136 0.000001
# 2 -0.002166 0.011709 -0.003717 -0.000002 -0.002671 0.000001
# 3 -0.003400 -0.003717 0.017846 0.000007 0.003137 -0.000003
# 4 -0.000001 -0.000002 0.000007 0.010864 0.000002 0.004935
# 5 -0.001136 -0.002671 0.003137 0.000002 0.032170 -0.000001
# 6 0.000001 0.000001 -0.000003 0.004935 -0.000001 0.037522
#
#
# Mechanical properties :
#
#
# Convention : Reuss Voigt Hill
#
# Bulk Modulus (GPa) = 52.70022 59.75521 56.22771
# Shear Modulus (GPa) = 34.96815 46.34034 40.65425
#
# Velocity S-wave (km/s) = 4.04067 4.65154 4.35683
# Velocity P-wave (km/s) = 6.80997 7.53323 7.18071
#
# Compressibility (1/GPa) = 0.01897525
#
# Stress axis : x y z
#
# Youngs Moduli (GPa) = 125.22350 85.40437 56.03474
#
# Poissons Ratio (x) = 0.18497 0.19052
# Poissons Ratio (y) = 0.27121 0.20828
# Poissons Ratio (z) = 0.42575 0.31745
#
# Static dielectric constant tensor:
#      x y z
#    x 3.997170 0.000000 -0.242560 
#    y 0.000000 4.163760 0.000000 
#    z -0.242560 0.000000 3.798900 
# 
# 
# High freq. dielectric constant tensor:
#      x y z
#    x 1.851130 0.000000 -0.013920 
#    y 0.000000 1.849620 0.000000 
#    z -0.013920 0.000000 1.839360 
# 
# From -- ./inp_files/201258.got.cif
#   From: 2010.06.25/outbox.cif.g09.slc.cpg/sg15_101_cif.got.tgz:201258.got - 2010.06.28 07:06:18.
