data_PCOD8146730
_publ_section_title
;
Structure prediction by ZEFSAII (Michael W. Deem and Ramdas Pophale) SiO2 
 PCOD8146730
Probable space group: C 2/C
;
_chemical_formula_sum "Si O2"
_cell_formula_units_Z 60
_cell_length_a 19.440619
_cell_length_b 24.846501
_cell_length_c 12.457278
_cell_angle_alpha 90.000000
_cell_angle_beta 27.835864
_cell_angle_gamma 90.000000
_cell_volume 2809.698974
_symmetry_space_group_name_H-M "C 2/C"
_symmetry_group_IT_number 15
_symmetry_cell_setting 'monoclinic'
loop_
_space_group_symop_operation_xyz
x,y,z
-x,y,1/2-z
-x,-y,-z
x,-y,1/2+z
1/2+x,1/2+y,z
1/2-x,1/2+y,1/2-z
1/2-x,1/2-y,-z
1/2+x,1/2-y,1/2+z
loop_
_atom_site_type_symbol
_atom_site_label
_atom_site_fract_x
_atom_site_fract_y
_atom_site_fract_z
Si Si1 0.350387 0.893764 0.506689
Si Si2 0.127740 0.570734 0.986982
Si Si3 0.560024 0.856584 0.893361
Si Si4 0.796860 0.152257 0.889544
Si Si5 0.423914 0.740312 0.571828
Si Si6 0.355293 0.521930 0.141012
Si Si7 0.742773 0.718951 0.118822
Si Si8 0.000000 0.080691 0.750000
O O1 0.355948 0.885359 0.626598
O O2 0.210296 0.932908 0.687402
O O3 0.326136 0.836958 0.482516
O O4 0.500000 0.918977 0.250000
O O5 0.000000 0.554991 0.250000
O O6 0.059904 0.600398 0.977798
O O7 0.244166 0.613084 0.869473
O O8 0.220672 0.520243 0.816406
O O9 0.669672 0.838729 0.649429
O O10 0.499569 0.798139 0.009615
O O11 0.830645 0.211306 0.794192
O O12 0.929407 0.121079 0.762402
O O13 0.570310 0.703468 0.368205
O O14 0.320963 0.747235 0.607911
O O15 0.500000 0.500000 0.000000
O O16 0.391702 0.542494 0.969724
O O17 0.750000 0.750000 0.000000
#
# Coordination Sequence:
#
# PCOD8146730 Si02
#       8
#     8   8   8   8   8   8   8   4
#     4  11  24  43  70  97 134 180 235 279 343 420
#     4  10  23  43  68  96 138 173 223 286 343 412
#     4  10  22  42  63 102 134 178 222 276 345 413
#     4  11  22  41  66  94 137 175 221 286 341 411
#     4  11  23  39  69 100 138 185 231 272 348 418
#     4  12  25  44  69  97 132 176 229 285 352 412
#     4  11  23  43  66 100 141 188 227 288 339 408
#     4  12  24  44  66  96 136 172 224 294 348 396
#
# _framework density 21.354602
#
# number of rings (size 3 to 8) (size 9 to 14) (size 15 to 20)
#    0.000    1.067    2.667    4.400    1.867    1.600 
#    3.600    0.000    0.000    0.000    0.000    0.000 
#    0.000    0.000    0.000    0.000    0.000    0.000 
#
# Total GULP energy -371707.422937 kJ/mol
# GULP energy per Si atom -12390.247431 kJ/mol
# Density = 2.130600 g / cm^3
# Si number density = 21.354602 Si / 1000 Ang^3
#
#
#
# Elastic Constant Matrix: (Units=GPa)
#
#
# Indices 1 2 3 4 5 6 
#
# 1 113.1924 61.2017 45.1729 -0.0287 -8.8371 -0.0056
# 2 61.2017 117.0257 53.5224 -0.0349 -0.5904 -0.0031
# 3 45.1729 53.5224 103.5444 -0.0787 -9.1371 0.0473
# 4 -0.0287 -0.0349 -0.0787 27.3035 0.0665 -17.0625
# 5 -8.8371 -0.5904 -9.1371 0.0665 36.0420 -0.0055
# 6 -0.0056 -0.0031 0.0473 -17.0625 -0.0055 21.4538
#
#
#
# Elastic Compliance Matrix: (Units=1/GPa)
#
#
# Indices 1 2 3 4 5 6 
#
# 1 0.013122 -0.005673 -0.002574 -0.000003 0.002472 0.000007
# 2 -0.005673 0.013704 -0.004820 0.000020 -0.002388 0.000026
# 3 -0.002574 -0.004820 0.013512 0.000009 0.002715 -0.000023
# 4 -0.000003 0.000020 0.000009 0.072815 -0.000124 0.057911
# 5 0.002472 -0.002388 0.002715 -0.000124 0.029001 -0.000097
# 6 0.000007 0.000026 -0.000023 0.057911 -0.000097 0.092669
#
#
# Mechanical properties :
#
#
# Convention : Reuss Voigt Hill
#
# Bulk Modulus (GPa) = 70.40028 72.61738 71.50883
# Shear Modulus (GPa) = 18.81883 28.55091 23.68487
#
# Velocity S-wave (km/s) = 2.97181 3.66046 3.33396
# Velocity P-wave (km/s) = 6.69436 7.20726 6.95554
#
# Compressibility (1/GPa) = 0.01420449
#
# Stress axis : x y z
#
# Youngs Moduli (GPa) = 76.20804 72.97139 74.00994
#
# Poissons Ratio (x) = 0.41394 0.19053
# Poissons Ratio (y) = 0.43230 0.35670
# Poissons Ratio (z) = 0.19619 0.35169
#
# Static dielectric constant tensor:
#      x y z
#    x 3.621740 0.000070 0.366380 
#    y 0.000070 4.009610 -0.000140 
#    z 0.366380 -0.000140 2.856960 
# 
# 
# High freq. dielectric constant tensor:
#      x y z
#    x 1.834480 0.000000 -0.005010 
#    y 0.000000 1.842750 0.000010 
#    z -0.005010 0.000010 1.850890 
# 
# From -- ./inp_files/108407.got.cif
#   From: 2010.06.25/outbox.cif.g09.slc.cpg/sg15_55_cif.got.tgz:108407.got - 2010.06.28 07:06:18.
