data_PCOD8146339
_publ_section_title
;
Structure prediction by ZEFSAII (Michael W. Deem and Ramdas Pophale) SiO2 
 PCOD8146339
Probable space group: C 2/C
;
_chemical_formula_sum "Si O2"
_cell_formula_units_Z 64
_cell_length_a 18.886150
_cell_length_b 14.193637
_cell_length_c 11.379319
_cell_angle_alpha 90.000000
_cell_angle_beta 94.727605
_cell_angle_gamma 90.000000
_cell_volume 3039.998170
_symmetry_space_group_name_H-M "C 2/C"
_symmetry_group_IT_number 15
_symmetry_cell_setting 'monoclinic'
loop_
_space_group_symop_operation_xyz
x,y,z
-x,y,1/2-z
-x,-y,-z
x,-y,1/2+z
1/2+x,1/2+y,z
1/2-x,1/2+y,1/2-z
1/2-x,1/2-y,-z
1/2+x,1/2-y,1/2+z
loop_
_atom_site_type_symbol
_atom_site_label
_atom_site_fract_x
_atom_site_fract_y
_atom_site_fract_z
Si Si1 0.677670 0.452536 0.305608
Si Si2 0.949723 0.127793 0.574174
Si Si3 0.283624 0.819961 0.173496
Si Si4 0.538047 0.839008 0.922065
Si Si5 0.906360 0.571024 0.291338
Si Si6 0.268228 0.116582 0.410484
Si Si7 0.429460 0.858068 0.302116
Si Si8 0.051286 0.038887 0.161412
O O1 0.626011 0.387960 0.375783
O O2 0.733907 0.383788 0.250392
O O3 0.710393 0.533371 0.393928
O O4 0.630460 0.509631 0.206300
O O5 0.978692 0.230428 0.606051
O O6 0.010790 0.056276 0.619732
O O7 0.938578 0.118266 0.434045
O O8 0.254134 0.715395 0.149956
O O9 0.360153 0.804226 0.244247
O O10 0.290115 0.871795 0.048981
O O11 0.594677 0.872644 0.832051
O O12 0.464608 0.893406 0.892621
O O13 0.568257 0.853976 0.056259
O O14 0.831767 0.577605 0.342387
O O15 0.922551 0.464731 0.258564
O O16 0.500000 0.814863 0.250000
O O17 0.000000 0.088124 0.250000
#
# Coordination Sequence:
#
# PCOD8146339 Si02
#       8
#     8   8   8   8   8   8   8   8
#     4  11  22  42  69  92 138 171 216 275 330 394
#     4  10  22  41  63 101 126 173 217 271 326 387
#     4  11  26  44  67  98 132 178 225 268 333 399
#     4  11  25  40  71  97 126 168 227 273 325 392
#     4  11  24  43  69  94 131 172 216 275 334 391
#     4  11  25  45  66  98 134 178 220 266 338 397
#     4  12  25  46  67  97 132 172 222 278 330 387
#     4   9  21  39  64  91 136 168 214 265 333 384
#
# _framework density 21.052644000000001
#
# number of rings (size 3 to 8) (size 9 to 14) (size 15 to 20)
#    0.000    1.250    2.500    2.625   10.500    0.500 
#   11.250    1.250    0.000    0.000    0.000    0.000 
#    0.000    0.000    0.000    0.000    0.000    0.000 
#
# Total GULP energy -396763.514232 kJ/mol
# GULP energy per Si atom -12398.859820 kJ/mol
# Density = 2.100473 g / cm^3
# Si number density = 21.052644 Si / 1000 Ang^3
#
#
#
# Elastic Constant Matrix: (Units=GPa)
#
#
# Indices 1 2 3 4 5 6 
#
# 1 103.3928 -6.8849 24.7624 0.0000 8.4358 0.0000
# 2 -6.8849 61.5421 2.2137 0.0000 0.4976 0.0000
# 3 24.7624 2.2137 121.0874 0.0000 8.5058 0.0000
# 4 0.0000 0.0000 0.0000 40.3754 0.0000 14.2935
# 5 8.4358 0.4976 8.5058 0.0000 30.0897 0.0000
# 6 0.0000 0.0000 0.0000 14.2935 0.0000 3.2742
#
#
#
# Elastic Compliance Matrix: (Units=1/GPa)
#
#
# Indices 1 2 3 4 5 6 
#
# 1 0.010426 0.001257 -0.001988 0.000000 -0.002382 0.000000
# 2 0.001257 0.016412 -0.000524 0.000000 -0.000476 0.000000
# 3 -0.001988 -0.000524 0.008810 0.000000 -0.001924 0.000000
# 4 0.000000 0.000000 0.000000 -0.045409 0.000000 0.198230
# 5 -0.002382 -0.000476 -0.001924 0.000000 0.034454 0.000000
# 6 0.000000 0.000000 0.000000 0.198230 0.000000 -0.559947
#
#
# Mechanical properties :
#
#
# Convention : Reuss Voigt Hill
#
# Bulk Modulus (GPa) = 30.17558 36.24498 33.21028
# Shear Modulus (GPa) = -9.58407 32.47661 11.44627
#
# Velocity S-wave (km/s) = -2.13596 3.93190 2.33426
# Velocity P-wave (km/s) = 2.87775 6.15361 4.80356
#
# Compressibility (1/GPa) = 0.03313938
#
# Stress axis : x y z
#
# Youngs Moduli (GPa) = 95.91428 60.92966 113.51052
#
# Poissons Ratio (x) = -0.07660 0.22563
# Poissons Ratio (y) = -0.12058 0.05945
# Poissons Ratio (z) = 0.19066 0.03191
#
# Static dielectric constant tensor:
#      x y z
#    x 3.946490 0.000000 -0.057620 
#    y 0.000000 3.790700 0.000000 
#    z -0.057620 0.000000 4.113990 
# 
# 
# High freq. dielectric constant tensor:
#      x y z
#    x 1.828020 0.000000 -0.003230 
#    y 0.000000 1.831810 0.000000 
#    z -0.003230 0.000000 1.836760 
# 
# From -- ./inp_files/105722.got.cif
#   From: 2010.06.25/outbox.cif.g09.slc.cpg/sg15_53_cif.got.tgz:105722.got - 2010.06.28 07:06:18.
