data_PCOD8146147
_publ_section_title
;
Structure prediction by ZEFSAII (Michael W. Deem and Ramdas Pophale) SiO2 
 PCOD8146147
Probable space group: C 2/C
;
_chemical_formula_sum "Si O2"
_cell_formula_units_Z 52
_cell_length_a 13.209970
_cell_length_b 18.366528
_cell_length_c 19.016521
_cell_angle_alpha 90.000000
_cell_angle_beta 32.839727
_cell_angle_gamma 90.000000
_cell_volume 2502.028668
_symmetry_space_group_name_H-M "C 2/C"
_symmetry_group_IT_number 15
_symmetry_cell_setting 'monoclinic'
loop_
_space_group_symop_operation_xyz
x,y,z
-x,y,1/2-z
-x,-y,-z
x,-y,1/2+z
1/2+x,1/2+y,z
1/2-x,1/2+y,1/2-z
1/2-x,1/2-y,-z
1/2+x,1/2-y,1/2+z
loop_
_atom_site_type_symbol
_atom_site_label
_atom_site_fract_x
_atom_site_fract_y
_atom_site_fract_z
Si Si1 0.284330 0.246078 0.130644
Si Si2 0.500000 0.370949 0.750000
Si Si3 0.311058 0.443561 0.993852
Si Si4 0.588151 0.195278 0.296343
Si Si5 0.500000 0.317997 0.250000
Si Si6 0.500000 0.144867 0.750000
Si Si7 0.047611 0.866311 0.958589
Si Si8 0.289793 0.389912 0.492442
O O1 0.188521 0.176026 0.151725
O O2 0.395819 0.220676 0.133550
O O3 0.120551 0.306211 0.234209
O O4 0.443198 0.291072 0.994046
O O5 0.436755 0.418278 0.853901
O O6 0.444958 0.435702 0.983963
O O7 0.241302 0.525260 0.022585
O O8 0.122288 0.400203 0.122466
O O9 0.622682 0.266842 0.229212
O O10 0.742190 0.134105 0.192171
O O11 0.390854 0.160229 0.390185
O O12 0.365848 0.370684 0.371594
O O13 0.053627 0.872822 0.039773
#
# Coordination Sequence:
#
# PCOD8146147 Si02
#       8
#     8   4   8   8   4   4   8   8
#     4  10  22  40  67  98 125 163 222 275 330 368
#     4  11  23  44  70  95 135 168 216 280 329 383
#     4  11  25  44  65  96 134 178 216 261 330 397
#     4  12  22  40  66  96 126 164 219 273 327 372
#     4  12  23  41  65  91 134 166 218 274 326 375
#     4   9  24  41  67  96 125 174 222 272 315 394
#     4  11  22  41  69  93 126 172 217 264 319 392
#     4  12  25  42  63  96 134 174 212 268 324 398
#
# _framework density 20.783135999999999
#
# number of rings (size 3 to 8) (size 9 to 14) (size 15 to 20)
#    0.000    0.923    4.615    2.308    4.308    1.846 
#    0.000    0.769    0.000    0.000    0.000    0.000 
#    0.000    0.000    0.000    0.000    0.000    0.000 
#
# Total GULP energy -322142.388273 kJ/mol
# GULP energy per Si atom -12390.091857 kJ/mol
# Density = 2.073583 g / cm^3
# Si number density = 20.783136 Si / 1000 Ang^3
#
#
#
# Elastic Constant Matrix: (Units=GPa)
#
#
# Indices 1 2 3 4 5 6 
#
# 1 114.2989 43.6033 27.8980 -0.0139 -5.0469 -0.0011
# 2 43.6033 104.6711 24.8313 -0.0089 0.4538 0.0021
# 3 27.8980 24.8313 96.2749 -0.0121 2.1031 0.0332
# 4 -0.0139 -0.0089 -0.0121 29.9917 0.0215 2.9012
# 5 -5.0469 0.4538 2.1031 0.0215 29.3319 -0.0183
# 6 -0.0011 0.0021 0.0332 2.9012 -0.0183 23.1151
#
#
#
# Elastic Compliance Matrix: (Units=1/GPa)
#
#
# Indices 1 2 3 4 5 6 
#
# 1 0.010912 -0.004041 -0.002165 0.000001 0.002095 0.000006
# 2 -0.004041 0.011673 -0.001823 0.000001 -0.000745 0.000001
# 3 -0.002165 -0.001823 0.011510 0.000006 -0.001170 -0.000018
# 4 0.000001 0.000001 0.000006 0.033752 -0.000028 -0.004236
# 5 0.002095 -0.000745 -0.001170 -0.000028 0.034548 0.000033
# 6 0.000006 0.000001 -0.000018 -0.004236 0.000033 0.043794
#
#
# Mechanical properties :
#
#
# Convention : Reuss Voigt Hill
#
# Bulk Modulus (GPa) = 55.44713 56.43444 55.94079
# Shear Modulus (GPa) = 29.71585 31.08190 30.39887
#
# Velocity S-wave (km/s) = 3.78538 3.87141 3.82864
# Velocity P-wave (km/s) = 6.77069 6.86998 6.82052
#
# Compressibility (1/GPa) = 0.01803520
#
# Stress axis : x y z
#
# Youngs Moduli (GPa) = 91.64583 85.66876 86.87880
#
# Poissons Ratio (x) = 0.34617 0.18813
# Poissons Ratio (y) = 0.37033 0.15842
# Poissons Ratio (z) = 0.19845 0.15621
#
# Static dielectric constant tensor:
#      x y z
#    x 3.925650 -0.000020 -0.100110 
#    y -0.000020 3.728260 0.000040 
#    z -0.100110 0.000040 3.705840 
# 
# 
# High freq. dielectric constant tensor:
#      x y z
#    x 1.820340 0.000000 -0.007780 
#    y 0.000000 1.808050 0.000000 
#    z -0.007780 0.000000 1.809600 
# 
# From -- ./inp_files/155576.got.cif
#   From: 2010.06.25/outbox.cif.g09.slc.cpg/sg15_78_cif.got.tgz:155576.got - 2010.06.28 07:06:18.
