data_PCOD8146906
_publ_section_title
;
Structure prediction by ZEFSAII (Michael W. Deem and Ramdas Pophale) SiO2 
 PCOD8146906
Probable space group: C 2/C
;
_chemical_formula_sum "Si O2"
_cell_formula_units_Z 48
_cell_length_a 11.169177
_cell_length_b 16.176648
_cell_length_c 13.792067
_cell_angle_alpha 90.000000
_cell_angle_beta 64.602895
_cell_angle_gamma 90.000000
_cell_volume 2251.119055
_symmetry_space_group_name_H-M "C 2/C"
_symmetry_group_IT_number 15
_symmetry_cell_setting 'monoclinic'
loop_
_space_group_symop_operation_xyz
x,y,z
-x,y,1/2-z
-x,-y,-z
x,-y,1/2+z
1/2+x,1/2+y,z
1/2-x,1/2+y,1/2-z
1/2-x,1/2-y,-z
1/2+x,1/2-y,1/2+z
loop_
_atom_site_type_symbol
_atom_site_label
_atom_site_fract_x
_atom_site_fract_y
_atom_site_fract_z
Si Si1 0.871973 0.207078 0.580056
Si Si2 0.802371 0.478975 0.588079
Si Si3 0.873314 0.826411 0.860326
Si Si4 0.879188 0.728996 0.396944
Si Si5 0.638239 0.618859 0.731190
Si Si6 0.047757 0.453246 0.632860
O O1 0.913296 0.178595 0.458765
O O2 0.738731 0.260333 0.626176
O O3 0.846812 0.126855 0.657634
O O4 0.995340 0.257781 0.577839
O O5 0.678626 0.418534 0.640954
O O6 0.761665 0.568499 0.644925
O O7 0.845341 0.489439 0.460342
O O8 0.923698 0.440299 0.605015
O O9 0.000000 0.808178 0.750000
O O10 0.750000 0.750000 0.500000
O O11 0.871958 0.786962 0.305011
O O12 0.883221 0.633627 0.362181
O O13 0.500000 0.573543 0.750000
O O14 0.000000 0.496045 0.750000
#
# Coordination Sequence:
#
# PCOD8146906 Si02
#       6
#     8   8   8   8   8   8
#     4  10  24  44  65 100 126 175 222 265 332 409
#     4  11  24  43  62  99 134 165 226 271 335 399
#     4  11  25  44  66  93 137 173 217 274 336 400
#     4  11  21  41  70  96 130 172 226 270 326 391
#     4  10  22  42  66  95 130 168 221 278 324 395
#     4  11  24  41  66  94 133 178 214 279 331 396
#
# _framework density 21.322727
#
# number of rings (size 3 to 8) (size 9 to 14) (size 15 to 20)
#    0.000    1.333    3.333    2.000    4.667    0.000 
#    3.000    4.167    0.000    0.000    0.000    0.000 
#    0.000    0.000    0.000    0.000    0.000    0.000 
#
# Total GULP energy -297582.728818 kJ/mol
# GULP energy per Si atom -12399.280367 kJ/mol
# Density = 2.127420 g / cm^3
# Si number density = 21.322727 Si / 1000 Ang^3
#
#
#
# Elastic Constant Matrix: (Units=GPa)
#
#
# Indices 1 2 3 4 5 6 
#
# 1 76.5883 16.9996 53.5470 0.0000 -10.9318 0.0000
# 2 16.9996 68.5379 34.5248 0.0000 -1.0516 0.0000
# 3 53.5470 34.5248 189.3814 0.0000 -9.7656 0.0000
# 4 0.0000 0.0000 0.0000 24.0427 0.0000 -7.0996
# 5 -10.9318 -1.0516 -9.7656 0.0000 38.1746 0.0000
# 6 0.0000 0.0000 0.0000 -7.0996 0.0000 26.2153
#
#
#
# Elastic Compliance Matrix: (Units=1/GPa)
#
#
# Indices 1 2 3 4 5 6 
#
# 1 0.017008 -0.002021 -0.004248 0.000000 0.003728 0.000000
# 2 -0.002021 0.016310 -0.002441 0.000000 -0.000754 0.000000
# 3 -0.004248 -0.002441 0.006952 0.000000 0.000495 0.000000
# 4 0.000000 0.000000 0.000000 0.045208 0.000000 0.012243
# 5 0.003728 -0.000754 0.000495 0.000000 0.027369 0.000000
# 6 0.000000 0.000000 0.000000 0.012243 0.000000 0.041461
#
#
# Mechanical properties :
#
#
# Convention : Reuss Voigt Hill
#
# Bulk Modulus (GPa) = 43.76547 60.51673 52.14110
# Shear Modulus (GPa) = 27.87937 32.98225 30.43081
#
# Velocity S-wave (km/s) = 3.61985 3.93722 3.78187
# Velocity P-wave (km/s) = 6.16773 7.00799 6.60124
#
# Compressibility (1/GPa) = 0.02284906
#
# Stress axis : x y z
#
# Youngs Moduli (GPa) = 58.79695 61.31326 143.84458
#
# Poissons Ratio (x) = 0.12393 0.61107
# Poissons Ratio (y) = 0.11885 0.35108
# Poissons Ratio (z) = 0.24978 0.14964
#
# Static dielectric constant tensor:
#      x y z
#    x 4.130860 0.000000 -0.442910 
#    y 0.000000 3.640500 0.000000 
#    z -0.442910 0.000000 4.718020 
# 
# 
# High freq. dielectric constant tensor:
#      x y z
#    x 1.836890 0.000000 -0.008510 
#    y 0.000000 1.819670 0.000000 
#    z -0.008510 0.000000 1.854120 
# 
# From -- ./inp_files/87782.got.cif
#   From: 2010.06.25/outbox.cif.g09.slc.cpg/sg15_44_cif.got.tgz:87782.got - 2010.06.28 07:06:18.
