data_PCOD8146370
_publ_section_title
;
Structure prediction by ZEFSAII (Michael W. Deem and Ramdas Pophale) SiO2 
 PCOD8146370
Probable space group: C 2/C
;
_chemical_formula_sum "Si O2"
_cell_formula_units_Z 48
_cell_length_a 16.640909
_cell_length_b 28.937451
_cell_length_c 9.158503
_cell_angle_alpha 90.000000
_cell_angle_beta 33.923514
_cell_angle_gamma 90.000000
_cell_volume 2461.289519
_symmetry_space_group_name_H-M "C 2/C"
_symmetry_group_IT_number 15
_symmetry_cell_setting 'monoclinic'
loop_
_space_group_symop_operation_xyz
x,y,z
-x,y,1/2-z
-x,-y,-z
x,-y,1/2+z
1/2+x,1/2+y,z
1/2-x,1/2+y,1/2-z
1/2-x,1/2-y,-z
1/2+x,1/2-y,1/2+z
loop_
_atom_site_type_symbol
_atom_site_label
_atom_site_fract_x
_atom_site_fract_y
_atom_site_fract_z
Si Si1 0.846608 0.454934 0.054394
Si Si2 0.172773 0.877402 0.826343
Si Si3 0.848450 0.451885 0.403114
Si Si4 0.676331 0.270647 0.748951
Si Si5 0.338057 0.381750 0.327683
Si Si6 0.161242 0.776982 0.249136
O O1 0.859977 0.458506 0.210377
O O2 0.737102 0.414956 0.175337
O O3 0.785027 0.502252 0.076663
O O4 0.000000 0.444022 0.750000
O O5 0.248812 0.908544 0.590157
O O6 0.206551 0.824435 0.734893
O O7 0.226405 0.887530 0.911127
O O8 0.006889 0.891179 0.070065
O O9 0.000000 0.441362 0.250000
O O10 0.750000 0.250000 0.500000
O O11 0.763769 0.236672 0.717912
O O12 0.505676 0.262418 0.008713
O O13 0.312536 0.330596 0.311595
O O14 0.250000 0.750000 0.000000
#
# Coordination Sequence:
#
# PCOD8146370 Si02
#       6
#     8   8   8   8   8   8
#     4  11  23  41  65  93 123 161 204 255 311 372
#     4  10  22  42  62  88 126 165 205 256 314 369
#     4  11  23  41  65  92 126 159 202 257 312 371
#     4  11  24  40  62  93 129 169 211 268 315 374
#     4  10  22  41  64  88 123 165 209 256 308 374
#     4  11  22  42  64  89 125 171 217 258 316 374
#
# _framework density 19.501971999999999
#
# number of rings (size 3 to 8) (size 9 to 14) (size 15 to 20)
#    0.000    1.333    1.667    5.000    2.333    4.000 
#    0.000    0.000    0.000    0.000    0.000    0.000 
#    0.000    0.000    0.000    0.000    0.000    0.000 
#
# Total GULP energy -297399.268247 kJ/mol
# GULP energy per Si atom -12391.636177 kJ/mol
# Density = 1.945758 g / cm^3
# Si number density = 19.501972 Si / 1000 Ang^3
#
#
#
# Elastic Constant Matrix: (Units=GPa)
#
#
# Indices 1 2 3 4 5 6 
#
# 1 156.9393 70.5036 59.8479 0.0000 25.6784 0.0000
# 2 70.5036 103.6319 72.2880 0.0000 -7.6796 0.0000
# 3 59.8479 72.2880 110.3501 0.0000 24.2294 0.0000
# 4 0.0000 0.0000 0.0000 38.1612 0.0000 -1.3297
# 5 25.6784 -7.6796 24.2294 0.0000 40.0599 0.0000
# 6 0.0000 0.0000 0.0000 -1.3297 0.0000 40.1762
#
#
#
# Elastic Compliance Matrix: (Units=1/GPa)
#
#
# Indices 1 2 3 4 5 6 
#
# 1 0.012397 -0.012240 0.004099 0.000000 -0.012772 0.000000
# 2 -0.012240 0.036891 -0.023990 0.000000 0.029428 0.000000
# 3 0.004099 -0.023990 0.027838 0.000000 -0.024063 0.000000
# 4 0.000000 0.000000 0.000000 0.026235 0.000000 0.000868
# 5 -0.012772 0.029428 -0.024063 0.000000 0.053345 0.000000
# 6 0.000000 0.000000 0.000000 0.000868 0.000000 0.024919
#
#
# Mechanical properties :
#
#
# Convention : Reuss Voigt Hill
#
# Bulk Modulus (GPa) = 77.73198 86.24447 81.98823
# Shear Modulus (GPa) = 19.98598 34.89824 27.44211
#
# Velocity S-wave (km/s) = 3.20475 4.23480 3.75526
# Velocity P-wave (km/s) = 7.32386 8.26020 7.80608
#
# Compressibility (1/GPa) = 0.01286472
#
# Stress axis : x y z
#
# Youngs Moduli (GPa) = 80.66367 27.10672 35.92206
#
# Poissons Ratio (x) = 0.33177 -0.14723
# Poissons Ratio (y) = 0.98729 0.86177
# Poissons Ratio (z) = -0.33061 0.65029
#
# Static dielectric constant tensor:
#      x y z
#    x 3.685650 0.000000 0.083370 
#    y 0.000000 3.635390 0.000000 
#    z 0.083370 0.000000 3.765150 
# 
# 
# High freq. dielectric constant tensor:
#      x y z
#    x 1.776220 0.000000 0.009590 
#    y 0.000000 1.770300 0.000000 
#    z 0.009590 0.000000 1.764800 
# 
# From -- ./inp_files/43776.got.cif
#   From: 2010.06.25/outbox.cif.g09.slc.cpg/sg15_22_cif.got.tgz:43776.got - 2010.06.28 07:06:18.
