data_PCOD8146533
_publ_section_title
;
Structure prediction by ZEFSAII (Michael W. Deem and Ramdas Pophale) SiO2 
 PCOD8146533
Probable space group: C 2/C
;
_chemical_formula_sum "Si O2"
_cell_formula_units_Z 32
_cell_length_a 16.234727
_cell_length_b 11.413342
_cell_length_c 13.585010
_cell_angle_alpha 90.000000
_cell_angle_beta 146.685999
_cell_angle_gamma 90.000000
_cell_volume 1382.514504
_symmetry_space_group_name_H-M "C 2/C"
_symmetry_group_IT_number 15
_symmetry_cell_setting 'monoclinic'
loop_
_space_group_symop_operation_xyz
x,y,z
-x,y,1/2-z
-x,-y,-z
x,-y,1/2+z
1/2+x,1/2+y,z
1/2-x,1/2+y,1/2-z
1/2-x,1/2-y,-z
1/2+x,1/2-y,1/2+z
loop_
_atom_site_type_symbol
_atom_site_label
_atom_site_fract_x
_atom_site_fract_y
_atom_site_fract_z
Si Si1 0.566709 0.128892 0.082186
Si Si2 0.851052 0.346297 0.045922
Si Si3 0.600377 0.345797 0.545790
Si Si4 0.426936 0.539962 0.274438
O O1 0.724078 0.126747 0.299462
O O2 0.601792 0.196600 0.015074
O O3 0.440781 0.208659 0.009879
O O4 0.500000 0.000000 0.000000
O O5 0.000000 0.385583 0.250000
O O6 0.750000 0.250000 0.000000
O O7 0.750774 0.464083 0.928266
O O8 0.501243 0.413753 0.365452
O O9 0.548988 0.382616 0.604183
O O10 0.500000 0.601593 0.250000
#
# Coordination Sequence:
#
# PCOD8146533 Si02
#       4
#     8   8   8   8
#     4  11  25  42  69  97 134 180 223 279 342 402
#     4  11  22  39  67  99 129 168 228 280 329 397
#     4  10  24  42  68  94 137 170 227 272 341 401
#     4  10  22  41  67  95 131 175 214 280 337 391
#
# _framework density 23.146231
#
# number of rings (size 3 to 8) (size 9 to 14) (size 15 to 20)
#    0.000    1.500    0.000    5.250   14.000    0.000 
#    0.000    2.500    0.000    0.000    0.000    0.000 
#    0.000    0.000    0.000    0.000    0.000    0.000 
#
# Total GULP energy -198215.039065 kJ/mol
# GULP energy per Si atom -12388.439942 kJ/mol
# Density = 2.309355 g / cm^3
# Si number density = 23.146231 Si / 1000 Ang^3
#
#
#
# Elastic Constant Matrix: (Units=GPa)
#
#
# Indices 1 2 3 4 5 6 
#
# 1 60.5376 8.2071 24.2580 0.0000 8.2182 0.0000
# 2 8.2071 132.9634 80.4108 0.0000 35.9511 0.0000
# 3 24.2580 80.4108 223.5255 0.0000 34.7752 0.0000
# 4 0.0000 0.0000 0.0000 18.5527 0.0000 9.1546
# 5 8.2182 35.9511 34.7752 0.0000 38.1447 0.0000
# 6 0.0000 0.0000 0.0000 9.1546 0.0000 21.9639
#
#
#
# Elastic Compliance Matrix: (Units=1/GPa)
#
#
# Indices 1 2 3 4 5 6 
#
# 1 0.017499 0.000742 -0.001714 0.000000 -0.002908 0.000000
# 2 0.000742 0.011493 -0.002919 0.000000 -0.008331 0.000000
# 3 -0.001714 -0.002919 0.006088 0.000000 -0.002430 0.000000
# 4 0.000000 0.000000 0.000000 0.067856 0.000000 -0.028283
# 5 -0.002908 -0.008331 -0.002430 0.000000 0.036909 0.000000
# 6 0.000000 0.000000 0.000000 -0.028283 0.000000 0.057317
#
#
# Mechanical properties :
#
#
# Convention : Reuss Voigt Hill
#
# Bulk Modulus (GPa) = 36.63078 71.41980 54.02529
# Shear Modulus (GPa) = 23.35975 36.00896 29.68435
#
# Velocity S-wave (km/s) = 3.18028 3.94854 3.58504
# Velocity P-wave (km/s) = 5.41717 7.19102 6.36618
#
# Compressibility (1/GPa) = 0.02729944
#
# Stress axis : x y z
#
# Youngs Moduli (GPa) = 57.14457 87.01132 164.26242
#
# Poissons Ratio (x) = -0.06461 0.28153
# Poissons Ratio (y) = -0.04243 0.47947
# Poissons Ratio (z) = 0.09794 0.25398
#
# Static dielectric constant tensor:
#      x y z
#    x 4.285970 0.000000 0.090480 
#    y 0.000000 3.893290 0.000000 
#    z 0.090480 0.000000 4.520670 
# 
# 
# High freq. dielectric constant tensor:
#      x y z
#    x 1.902140 0.000000 0.014490 
#    y 0.000000 1.888980 0.000000 
#    z 0.014490 0.000000 1.930280 
# 
# From -- ./inp_files/45744.got.cif
#   From: 2010.06.25/outbox.cif.g09.slc.cpg/sg15_23_cif.got.tgz:45744.got - 2010.06.28 07:06:18.
