data_PCOD8146119
_publ_section_title
;
Structure prediction by ZEFSAII (Michael W. Deem and Ramdas Pophale) SiO2 
 PCOD8146119
Probable space group: C 2/C
;
_chemical_formula_sum "Si O2"
_cell_formula_units_Z 40
_cell_length_a 19.222115
_cell_length_b 8.239969
_cell_length_c 11.190859
_cell_angle_alpha 90.000000
_cell_angle_beta 99.761528
_cell_angle_gamma 90.000000
_cell_volume 1746.853488
_symmetry_space_group_name_H-M "C 2/C"
_symmetry_group_IT_number 15
_symmetry_cell_setting 'monoclinic'
loop_
_space_group_symop_operation_xyz
x,y,z
-x,y,1/2-z
-x,-y,-z
x,-y,1/2+z
1/2+x,1/2+y,z
1/2-x,1/2+y,1/2-z
1/2-x,1/2-y,-z
1/2+x,1/2-y,1/2+z
loop_
_atom_site_type_symbol
_atom_site_label
_atom_site_fract_x
_atom_site_fract_y
_atom_site_fract_z
Si Si1 0.038575 0.500486 0.641426
Si Si2 0.316394 0.831651 0.851726
Si Si3 0.279606 0.366552 0.110702
Si Si4 0.530917 0.363973 0.641595
Si Si5 0.115003 0.939478 0.000517
O O1 0.106690 0.390966 0.659173
O O2 0.059368 0.684858 0.677616
O O3 0.000000 0.432964 0.750000
O O4 0.000000 0.500000 0.500000
O O5 0.282208 0.743247 0.728607
O O6 0.325664 0.697159 0.959095
O O7 0.271308 0.981096 0.884916
O O8 0.250000 0.250000 0.000000
O O9 0.356024 0.441780 0.095395
O O10 0.500000 0.451502 0.750000
O O11 0.462038 0.357763 0.537233
O O12 0.600829 0.453176 0.614545
#
# Coordination Sequence:
#
# PCOD8146119 Si02
#       5
#     8   8   8   8   8
#     4  11  25  44  74 106 146 190 248 314 382 445
#     4  12  27  46  71 105 144 193 249 305 373 450
#     4  12  28  46  72 101 144 194 244 301 369 454
#     4  10  22  40  67 103 139 182 233 298 369 435
#     4  11  23  43  71  98 144 181 245 295 374 431
#
# _framework density 22.898315
#
# number of rings (size 3 to 8) (size 9 to 14) (size 15 to 20)
#    0.000    0.800    2.000    4.200    5.600    4.000 
#    0.000    0.000    0.000    0.000    0.000    0.000 
#    0.000    0.000    0.000    0.000    0.000    0.000 
#
# Total GULP energy -247816.386280 kJ/mol
# GULP energy per Si atom -12390.819314 kJ/mol
# Density = 2.284620 g / cm^3
# Si number density = 22.898315 Si / 1000 Ang^3
#
#
#
# Elastic Constant Matrix: (Units=GPa)
#
#
# Indices 1 2 3 4 5 6 
#
# 1 86.2194 45.0734 27.2993 0.0000 -11.2097 0.0000
# 2 45.0734 126.8110 36.9910 0.0000 -3.8793 0.0000
# 3 27.2993 36.9910 109.9955 0.0000 -11.9448 0.0000
# 4 0.0000 0.0000 0.0000 35.0331 0.0000 -4.2344
# 5 -11.2097 -3.8793 -11.9448 0.0000 39.9818 0.0000
# 6 0.0000 0.0000 0.0000 -4.2344 0.0000 49.6019
#
#
#
# Elastic Compliance Matrix: (Units=1/GPa)
#
#
# Indices 1 2 3 4 5 6 
#
# 1 0.015059 -0.004730 -0.001796 0.000000 0.003227 0.000000
# 2 -0.004730 0.010229 -0.002380 0.000000 -0.001045 0.000000
# 3 -0.001796 -0.002380 0.010602 0.000000 0.002433 0.000000
# 4 0.000000 0.000000 0.000000 0.028842 0.000000 0.002462
# 5 0.003227 -0.001045 0.002433 0.000000 0.026541 0.000000
# 6 0.000000 0.000000 0.000000 0.002462 0.000000 0.020371
#
#
# Mechanical properties :
#
#
# Convention : Reuss Voigt Hill
#
# Bulk Modulus (GPa) = 55.31550 60.19481 57.75515
# Shear Modulus (GPa) = 36.90525 39.16749 38.03637
#
# Velocity S-wave (km/s) = 4.01896 4.14030 4.08008
# Velocity P-wave (km/s) = 6.76354 7.01435 6.89008
#
# Compressibility (1/GPa) = 0.01807812
#
# Stress axis : x y z
#
# Youngs Moduli (GPa) = 66.40417 97.76029 94.32584
#
# Poissons Ratio (x) = 0.46240 0.16945
# Poissons Ratio (y) = 0.31409 0.22445
# Poissons Ratio (z) = 0.11929 0.23262
#
# Static dielectric constant tensor:
#      x y z
#    x 4.100540 0.000000 -0.118380 
#    y 0.000000 4.354020 0.000000 
#    z -0.118380 0.000000 4.438290 
# 
# 
# High freq. dielectric constant tensor:
#      x y z
#    x 1.903410 0.000000 -0.012710 
#    y 0.000000 1.921560 0.000000 
#    z -0.012710 0.000000 1.907640 
# 
# From -- ./inp_files/102801.got.cif
#   From: 2010.06.25/outbox.cif.g09.slc.cpg/sg15_52_cif.got.tgz:102801.got - 2010.06.28 07:06:18.
