data_PCOD8146090
_publ_section_title
;
Structure prediction by ZEFSAII (Michael W. Deem and Ramdas Pophale) SiO2 
 PCOD8146090
Probable space group: C 2/C
;
_chemical_formula_sum "Si O2"
_cell_formula_units_Z 40
_cell_length_a 12.884219
_cell_length_b 16.823679
_cell_length_c 8.378182
_cell_angle_alpha 90.000000
_cell_angle_beta 88.618057
_cell_angle_gamma 90.000000
_cell_volume 1815.526216
_symmetry_space_group_name_H-M "C 2/C"
_symmetry_group_IT_number 15
_symmetry_cell_setting 'monoclinic'
loop_
_space_group_symop_operation_xyz
x,y,z
-x,y,1/2-z
-x,-y,-z
x,-y,1/2+z
1/2+x,1/2+y,z
1/2-x,1/2+y,1/2-z
1/2-x,1/2-y,-z
1/2+x,1/2-y,1/2+z
loop_
_atom_site_type_symbol
_atom_site_label
_atom_site_fract_x
_atom_site_fract_y
_atom_site_fract_z
Si Si1 0.832518 0.193112 0.912409
Si Si2 0.500000 0.210545 0.250000
Si Si3 0.000000 0.459898 0.250000
Si Si4 0.700406 0.333676 0.443013
Si Si5 0.008803 0.089734 0.437640
Si Si6 0.885464 0.412889 0.557101
O O1 0.938174 0.240343 0.881522
O O2 0.784968 0.161414 0.748536
O O3 0.750000 0.250000 0.000000
O O4 0.874755 0.120643 0.020520
O O5 0.586470 0.162957 0.341118
O O6 0.088995 0.510805 0.336495
O O7 0.947727 0.407480 0.388045
O O8 0.750000 0.250000 0.500000
O O9 0.580400 0.350885 0.488950
O O10 0.764045 0.406626 0.520852
O O11 0.000000 0.089742 0.250000
O O12 0.000000 0.000000 0.500000
#
# Coordination Sequence:
#
# PCOD8146090 Si02
#       6
#     8   4   4   8   8   8
#     4  12  25  44  71 104 138 188 235 293 359 423
#     4  11  22  44  66  98 141 168 234 292 331 426
#     4   9  22  42  60  98 133 172 218 280 339 406
#     4  12  23  45  70 100 136 181 232 283 351 422
#     4  12  27  48  71 103 144 186 238 301 361 432
#     4  10  22  40  66  93 133 172 220 276 339 405
#
# _framework density 22.03218
#
# number of rings (size 3 to 8) (size 9 to 14) (size 15 to 20)
#    0.000    0.800    4.000    2.400    2.800    3.200 
#    5.400    0.000    0.000    0.000    0.000    0.000 
#    0.000    0.000    0.000    0.000    0.000    0.000 
#
# Total GULP energy -247844.945576 kJ/mol
# GULP energy per Si atom -12392.247279 kJ/mol
# Density = 2.198203 g / cm^3
# Si number density = 22.032180 Si / 1000 Ang^3
#
#
#
# Elastic Constant Matrix: (Units=GPa)
#
#
# Indices 1 2 3 4 5 6 
#
# 1 132.5507 51.8252 44.6237 0.0000 18.8270 0.0000
# 2 51.8252 88.6720 34.3492 0.0000 6.9516 0.0000
# 3 44.6237 34.3492 151.0336 0.0000 22.0105 0.0000
# 4 0.0000 0.0000 0.0000 33.0549 0.0000 12.0681
# 5 18.8270 6.9516 22.0105 0.0000 48.4313 0.0000
# 6 0.0000 0.0000 0.0000 12.0681 0.0000 86.3303
#
#
#
# Elastic Compliance Matrix: (Units=1/GPa)
#
#
# Indices 1 2 3 4 5 6 
#
# 1 0.010521 -0.005359 -0.001505 0.000000 -0.002636 0.000000
# 2 -0.005359 0.015110 -0.001971 0.000000 0.000810 0.000000
# 3 -0.001505 -0.001971 0.007912 0.000000 -0.002727 0.000000
# 4 0.000000 0.000000 0.000000 0.031880 0.000000 -0.004456
# 5 -0.002636 0.000810 -0.002727 0.000000 0.022796 0.000000
# 6 0.000000 0.000000 0.000000 -0.004456 0.000000 0.012206
#
#
# Mechanical properties :
#
#
# Convention : Reuss Voigt Hill
#
# Bulk Modulus (GPa) = 63.00837 70.42805 66.71821
# Shear Modulus (GPa) = 40.52325 49.66051 45.09188
#
# Velocity S-wave (km/s) = 4.29333 4.75278 4.52889
# Velocity P-wave (km/s) = 7.29639 7.88378 7.59576
#
# Compressibility (1/GPa) = 0.01587091
#
# Stress axis : x y z
#
# Youngs Moduli (GPa) = 95.04873 66.18239 126.39710
#
# Poissons Ratio (x) = 0.35468 0.19028
# Poissons Ratio (y) = 0.50939 0.24914
# Poissons Ratio (z) = 0.14309 0.13045
#
# Static dielectric constant tensor:
#      x y z
#    x 3.882490 0.000000 0.186870 
#    y 0.000000 4.500380 0.000000 
#    z 0.186870 0.000000 4.181910 
# 
# 
# High freq. dielectric constant tensor:
#      x y z
#    x 1.877400 0.000000 0.023760 
#    y 0.000000 1.861800 0.000000 
#    z 0.023760 0.000000 1.880640 
# 
# From -- ./inp_files/29165.got.cif
#   From: 2010.06.25/outbox.cif.g09.slc.cpg/sg15_15_cif.got.tgz:29165.got - 2010.06.28 07:06:18.
