data_PCOD8146198
_publ_section_title
;
Structure prediction by ZEFSAII (Michael W. Deem and Ramdas Pophale) SiO2 
 PCOD8146198
Probable space group: C 2/C
;
_chemical_formula_sum "Si O2"
_cell_formula_units_Z 56
_cell_length_a 11.567327
_cell_length_b 27.083829
_cell_length_c 8.918240
_cell_angle_alpha 90.000000
_cell_angle_beta 111.550761
_cell_angle_gamma 90.000000
_cell_volume 2598.653499
_symmetry_space_group_name_H-M "C 2/C"
_symmetry_group_IT_number 15
_symmetry_cell_setting 'monoclinic'
loop_
_space_group_symop_operation_xyz
x,y,z
-x,y,1/2-z
-x,-y,-z
x,-y,1/2+z
1/2+x,1/2+y,z
1/2-x,1/2+y,1/2-z
1/2-x,1/2-y,-z
1/2+x,1/2-y,1/2+z
loop_
_atom_site_type_symbol
_atom_site_label
_atom_site_fract_x
_atom_site_fract_y
_atom_site_fract_z
Si Si1 0.143793 0.015798 0.065449
Si Si2 0.587988 0.149488 0.663710
Si Si3 0.903709 0.676005 0.331220
Si Si4 0.824695 0.109668 0.244469
Si Si5 0.788944 0.069822 0.714627
Si Si6 0.939874 0.137563 0.984780
Si Si7 0.709820 0.272390 0.136601
O O1 0.168347 0.051979 0.217326
O O2 0.227521 0.968596 0.153626
O O3 0.180889 0.040975 0.925384
O O4 0.000000 0.000000 0.000000
O O5 0.500000 0.127176 0.750000
O O6 0.489364 0.177981 0.516275
O O7 0.664840 0.103002 0.632756
O O8 0.681619 0.192903 0.752394
O O9 0.812066 0.629748 0.293205
O O10 0.826149 0.726873 0.271747
O O11 0.000000 0.665119 0.250000
O O12 0.914848 0.135502 0.409727
O O13 0.861984 0.118127 0.090660
O O14 0.903111 0.105493 0.820428
O O15 0.913035 0.194843 0.943368
O O16 0.750000 0.250000 0.000000
#
# Coordination Sequence:
#
# PCOD8146198 Si02
#       7
#     8   8   8   8   8   8   8
#     4  12  24  42  70  98 138 170 228 291 353 399
#     4  11  24  46  73  96 141 182 228 280 345 412
#     4  12  26  44  65 102 145 183 226 277 345 416
#     4  11  23  41  68  98 132 176 227 283 343 405
#     4  11  24  44  65 103 132 174 223 289 346 412
#     4  10  22  40  68  98 134 170 229 287 342 394
#     4  11  22  43  71 100 132 181 232 279 333 415
#
# _framework density 21.549620999999998
#
# number of rings (size 3 to 8) (size 9 to 14) (size 15 to 20)
#    0.000    0.857    4.286    3.000    4.000    0.571 
#    5.143    3.571    0.000    0.000    0.000    0.000 
#    0.000    0.000    0.000    0.000    0.000    0.000 
#
# Total GULP energy -346999.127800 kJ/mol
# GULP energy per Si atom -12392.825993 kJ/mol
# Density = 2.150057 g / cm^3
# Si number density = 21.549621 Si / 1000 Ang^3
#
#
#
# Elastic Constant Matrix: (Units=GPa)
#
#
# Indices 1 2 3 4 5 6 
#
# 1 106.2446 35.9372 32.0455 0.0000 10.5785 0.0000
# 2 35.9372 128.1327 28.4644 0.0000 12.7878 0.0000
# 3 32.0455 28.4644 63.7330 0.0000 -0.4940 0.0000
# 4 0.0000 0.0000 0.0000 36.0554 0.0000 2.7803
# 5 10.5785 12.7878 -0.4940 0.0000 36.6164 0.0000
# 6 0.0000 0.0000 0.0000 2.7803 0.0000 43.5002
#
#
#
# Elastic Compliance Matrix: (Units=1/GPa)
#
#
# Indices 1 2 3 4 5 6 
#
# 1 0.011894 -0.001908 -0.005150 0.000000 -0.002839 0.000000
# 2 -0.001908 0.009332 -0.003229 0.000000 -0.002751 0.000000
# 3 -0.005150 -0.003229 0.019745 0.000000 0.002882 0.000000
# 4 0.000000 0.000000 0.000000 0.027872 0.000000 -0.001781
# 5 -0.002839 -0.002751 0.002882 0.000000 0.029130 0.000000
# 6 0.000000 0.000000 0.000000 -0.001781 0.000000 0.023102
#
#
# Mechanical properties :
#
#
# Convention : Reuss Voigt Hill
#
# Bulk Modulus (GPa) = 49.03324 54.55605 51.79465
# Shear Modulus (GPa) = 33.68170 36.67861 35.18016
#
# Velocity S-wave (km/s) = 3.95775 4.13007 4.04483
# Velocity P-wave (km/s) = 6.60969 6.93648 6.77506
#
# Compressibility (1/GPa) = 0.02039433
#
# Stress axis : x y z
#
# Youngs Moduli (GPa) = 84.07761 107.16218 50.64686
#
# Poissons Ratio (x) = 0.20451 0.26083
# Poissons Ratio (y) = 0.16046 0.16356
# Poissons Ratio (z) = 0.43300 0.34607
#
# Static dielectric constant tensor:
#      x y z
#    x 4.356110 0.000000 0.041030 
#    y 0.000000 4.453600 0.000000 
#    z 0.041030 0.000000 4.019270 
# 
# 
# High freq. dielectric constant tensor:
#      x y z
#    x 1.835490 0.000000 0.002730 
#    y 0.000000 1.859900 0.000000 
#    z 0.002730 0.000000 1.849720 
# 
# From -- ./inp_files/34340.got.cif
#   From: 2010.06.25/outbox.cif.g09.slc.cpg/sg15_18_cif.got.tgz:34340.got - 2010.06.28 07:06:18.
