data_PCOD8146655
_publ_section_title
;
Structure prediction by ZEFSAII (Michael W. Deem and Ramdas Pophale) SiO2 
 PCOD8146655
Probable space group: C 2/C
;
_chemical_formula_sum "Si O2"
_cell_formula_units_Z 40
_cell_length_a 8.899075
_cell_length_b 12.729163
_cell_length_c 16.165223
_cell_angle_alpha 90.000000
_cell_angle_beta 92.500942
_cell_angle_gamma 90.000000
_cell_volume 1829.416341
_symmetry_space_group_name_H-M "C 2/C"
_symmetry_group_IT_number 15
_symmetry_cell_setting 'monoclinic'
loop_
_space_group_symop_operation_xyz
x,y,z
-x,y,1/2-z
-x,-y,-z
x,-y,1/2+z
1/2+x,1/2+y,z
1/2-x,1/2+y,1/2-z
1/2-x,1/2-y,-z
1/2+x,1/2-y,1/2+z
loop_
_atom_site_type_symbol
_atom_site_label
_atom_site_fract_x
_atom_site_fract_y
_atom_site_fract_z
Si Si1 0.749219 0.487129 0.502068
Si Si2 0.478196 0.998303 0.870881
Si Si3 0.475849 0.330381 0.500189
Si Si4 0.421005 0.228787 0.328486
Si Si5 0.077592 0.718279 0.830376
O O1 0.824730 0.472739 0.415022
O O2 0.618281 0.404589 0.513075
O O3 0.680404 0.604729 0.508140
O O4 0.879484 0.467213 0.570373
O O5 0.527901 0.097340 0.818295
O O6 0.434174 0.896490 0.816370
O O7 0.496205 0.261737 0.417726
O O8 0.475959 0.258002 0.581335
O O9 0.500000 0.281692 0.250000
O O10 0.253193 0.269709 0.324092
O O11 0.000000 0.778204 0.750000
#
# Coordination Sequence:
#
# PCOD8146655 Si02
#       5
#     8   8   8   8   8
#     4  10  22  41  73 108 131 190 231 291 343 422
#     4  11  23  44  72  99 143 178 239 285 350 417
#     4  11  23  47  73  98 148 179 236 286 354 415
#     4  12  27  47  71 105 138 186 234 290 350 425
#     4  12  27  47  71 105 138 186 234 290 350 425
#
# _framework density 21.864896999999999
#
# number of rings (size 3 to 8) (size 9 to 14) (size 15 to 20)
#    0.000    0.800    4.000    3.600    5.600    1.600 
#    0.000    4.000    0.000    0.000    0.000    0.000 
#    0.000    0.000    0.000    0.000    0.000    0.000 
#
# Total GULP energy -247946.997353 kJ/mol
# GULP energy per Si atom -12397.349868 kJ/mol
# Density = 2.181513 g / cm^3
# Si number density = 21.864897 Si / 1000 Ang^3
#
#
#
# Elastic Constant Matrix: (Units=GPa)
#
#
# Indices 1 2 3 4 5 6 
#
# 1 100.8428 38.6574 41.7203 0.0000 -22.2547 0.0000
# 2 38.6574 111.7206 38.8980 0.0000 -17.4719 0.0000
# 3 41.7203 38.8980 175.4272 0.0000 -17.9605 0.0000
# 4 0.0000 0.0000 0.0000 50.6642 0.0000 5.6782
# 5 -22.2547 -17.4719 -17.9605 0.0000 15.1770 0.0000
# 6 0.0000 0.0000 0.0000 5.6782 0.0000 29.4926
#
#
#
# Elastic Compliance Matrix: (Units=1/GPa)
#
#
# Indices 1 2 3 4 5 6 
#
# 1 0.015322 -0.001922 -0.001302 0.000000 0.018714 0.000000
# 2 -0.001922 0.011420 -0.001158 0.000000 0.008959 0.000000
# 3 -0.001302 -0.001158 0.006753 0.000000 0.004750 0.000000
# 4 0.000000 0.000000 0.000000 0.020173 0.000000 -0.003884
# 5 0.018714 0.008959 0.004750 0.000000 0.109265 0.000000
# 6 0.000000 0.000000 0.000000 -0.003884 0.000000 0.034655
#
#
# Mechanical properties :
#
#
# Convention : Reuss Voigt Hill
#
# Bulk Modulus (GPa) = 40.43369 69.61578 55.02474
# Shear Modulus (GPa) = 23.29985 36.98108 30.14046
#
# Velocity S-wave (km/s) = 3.26794 4.11706 3.71683
# Velocity P-wave (km/s) = 5.72467 7.38298 6.60607
#
# Compressibility (1/GPa) = 0.02473185
#
# Stress axis : x y z
#
# Youngs Moduli (GPa) = 65.26748 87.56523 148.08266
#
# Poissons Ratio (x) = 0.16827 0.19276
# Poissons Ratio (y) = 0.12542 0.17148
# Poissons Ratio (z) = 0.08496 0.10140
#
# Static dielectric constant tensor:
#      x y z
#    x 4.054570 0.000000 -0.106150 
#    y 0.000000 3.989030 0.000000 
#    z -0.106150 0.000000 4.237960 
# 
# 
# High freq. dielectric constant tensor:
#      x y z
#    x 1.870670 0.000000 -0.006390 
#    y 0.000000 1.856420 0.000000 
#    z -0.006390 0.000000 1.869730 
# 
# From -- ./inp_files/187777.got.cif
#   From: 2010.06.25/outbox.cif.g09.slc.cpg/sg15_94_cif.got.tgz:187777.got - 2010.06.28 07:06:18.
