data_PCOD8146967
_publ_section_title
;
Structure prediction by ZEFSAII (Michael W. Deem and Ramdas Pophale) SiO2 
 PCOD8146967
Probable space group: C 2/C
;
_chemical_formula_sum "Si O2"
_cell_formula_units_Z 56
_cell_length_a 28.715303
_cell_length_b 9.735680
_cell_length_c 15.484223
_cell_angle_alpha 90.000000
_cell_angle_beta 140.573087
_cell_angle_gamma 90.000000
_cell_volume 2749.202429
_symmetry_space_group_name_H-M "C 2/C"
_symmetry_group_IT_number 15
_symmetry_cell_setting 'monoclinic'
loop_
_space_group_symop_operation_xyz
x,y,z
-x,y,1/2-z
-x,-y,-z
x,-y,1/2+z
1/2+x,1/2+y,z
1/2-x,1/2+y,1/2-z
1/2-x,1/2-y,-z
1/2+x,1/2-y,1/2+z
loop_
_atom_site_type_symbol
_atom_site_label
_atom_site_fract_x
_atom_site_fract_y
_atom_site_fract_z
Si Si1 0.894761 0.599771 0.764128
Si Si2 0.672966 0.305622 0.701376
Si Si3 0.424891 0.566211 0.918437
Si Si4 0.356705 0.792185 0.711024
Si Si5 0.320955 0.100791 0.478464
Si Si6 0.701304 0.212160 0.554933
Si Si7 0.462583 0.220528 0.608278
O O1 0.871247 0.687983 0.812627
O O2 0.891395 0.439557 0.782574
O O3 0.840210 0.631528 0.605907
O O4 0.978859 0.636930 0.864433
O O5 0.639257 0.454633 0.671184
O O6 0.756980 0.297405 0.854775
O O7 0.667131 0.279460 0.590982
O O8 0.409635 0.676829 0.822810
O O9 0.500000 0.500000 0.000000
O O10 0.432809 0.641515 0.021396
O O11 0.353251 0.765062 0.603534
O O12 0.278041 0.784982 0.644465
O O13 0.393837 0.120035 0.525738
O O14 0.288660 0.949719 0.417403
O O15 0.500000 0.270041 0.750000
#
# Coordination Sequence:
#
# PCOD8146967 Si02
#       7
#     8   8   8   8   8   8   8
#     4  10  23  43  69  96 129 174 215 273 325 394
#     4  12  24  40  66 100 128 170 225 267 323 385
#     4  12  25  42  63  95 135 172 211 267 327 389
#     4  10  23  44  66  92 134 172 209 267 331 379
#     4  10  22  42  67  98 131 169 223 268 325 387
#     4  10  23  41  65  99 129 166 219 270 320 386
#     4  10  23  43  67  97 132 171 217 271 330 387
#
# _framework density 20.369544000000001
#
# number of rings (size 3 to 8) (size 9 to 14) (size 15 to 20)
#    0.000    1.429    2.857    1.286    4.000    2.857 
#    0.000    1.429    0.000    0.000    0.000    0.000 
#    0.000    0.000    0.000    0.000    0.000    0.000 
#
# Total GULP energy -347317.775401 kJ/mol
# GULP energy per Si atom -12404.206264 kJ/mol
# Density = 2.032318 g / cm^3
# Si number density = 20.369544 Si / 1000 Ang^3
#
#
#
# Elastic Constant Matrix: (Units=GPa)
#
#
# Indices 1 2 3 4 5 6 
#
# 1 138.1082 61.9722 55.7878 0.0000 -6.4645 0.0000
# 2 61.9722 122.2347 58.7318 0.0000 -9.3589 0.0000
# 3 55.7878 58.7318 98.2666 0.0000 0.5949 0.0000
# 4 0.0000 0.0000 0.0000 38.0879 0.0000 -2.9607
# 5 -6.4645 -9.3589 0.5949 0.0000 31.1909 0.0000
# 6 0.0000 0.0000 0.0000 -2.9607 0.0000 35.0596
#
#
#
# Elastic Compliance Matrix: (Units=1/GPa)
#
#
# Indices 1 2 3 4 5 6 
#
# 1 0.010352 -0.003263 -0.003934 0.000000 0.001242 0.000000
# 2 -0.003263 0.012918 -0.005889 0.000000 0.003312 0.000000
# 3 -0.003934 -0.005889 0.015947 0.000000 -0.002886 0.000000
# 4 0.000000 0.000000 0.000000 0.026429 0.000000 0.002232
# 5 0.001242 0.003312 -0.002886 0.000000 0.033367 0.000000
# 6 0.000000 0.000000 0.000000 0.002232 0.000000 0.028711
#
#
# Mechanical properties :
#
#
# Convention : Reuss Voigt Hill
#
# Bulk Modulus (GPa) = 76.65485 79.06589 77.86037
# Shear Modulus (GPa) = 31.59660 33.00886 32.30273
#
# Velocity S-wave (km/s) = 3.94276 4.02991 3.98657
# Velocity P-wave (km/s) = 7.64467 7.78162 7.71345
#
# Compressibility (1/GPa) = 0.01304549
#
# Stress axis : x y z
#
# Youngs Moduli (GPa) = 96.59681 77.40977 62.70780
#
# Poissons Ratio (x) = 0.25259 0.24672
# Poissons Ratio (y) = 0.31520 0.36926
# Poissons Ratio (z) = 0.38006 0.45583
#
# Static dielectric constant tensor:
#      x y z
#    x 3.726580 0.000000 -0.048060 
#    y 0.000000 3.297080 0.000000 
#    z -0.048060 0.000000 3.779980 
# 
# 
# High freq. dielectric constant tensor:
#      x y z
#    x 1.799520 0.000000 -0.002550 
#    y 0.000000 1.795140 0.000000 
#    z -0.002550 0.000000 1.807800 
# 
# From -- ./inp_files/224432.got.cif
#   From: 2010.06.25/outbox.cif.g09.slc.cpg/sg15_113_cif.got.tgz:224432.got - 2010.06.28 07:06:18.
