data_PCOD8146428
_publ_section_title
;
Structure prediction by ZEFSAII (Michael W. Deem and Ramdas Pophale) SiO2 
 PCOD8146428
Probable space group: C 2/C
;
_chemical_formula_sum "Si O2"
_cell_formula_units_Z 60
_cell_length_a 11.314384
_cell_length_b 17.183243
_cell_length_c 20.219138
_cell_angle_alpha 90.000000
_cell_angle_beta 132.316997
_cell_angle_gamma 90.000000
_cell_volume 2906.675686
_symmetry_space_group_name_H-M "C 2/C"
_symmetry_group_IT_number 15
_symmetry_cell_setting 'monoclinic'
loop_
_space_group_symop_operation_xyz
x,y,z
-x,y,1/2-z
-x,-y,-z
x,-y,1/2+z
1/2+x,1/2+y,z
1/2-x,1/2+y,1/2-z
1/2-x,1/2-y,-z
1/2+x,1/2-y,1/2+z
loop_
_atom_site_type_symbol
_atom_site_label
_atom_site_fract_x
_atom_site_fract_y
_atom_site_fract_z
Si Si1 0.013458 0.085848 0.037760
Si Si2 0.171606 0.335575 0.415518
Si Si3 0.500000 0.062124 0.750000
Si Si4 0.176341 0.518922 0.094273
Si Si5 0.160097 0.309261 0.556523
Si Si6 0.545130 0.595017 0.839481
Si Si7 0.411275 0.286170 0.037910
Si Si8 0.277027 0.484589 0.782266
O O1 0.124080 0.086634 0.146367
O O2 0.101033 0.145863 0.021326
O O3 0.836603 0.116940 0.988158
O O4 0.000000 0.000000 0.000000
O O5 0.039808 0.385431 0.328314
O O6 0.093998 0.310988 0.456251
O O7 0.203037 0.256553 0.385836
O O8 0.649029 0.008583 0.788895
O O9 0.230926 0.605644 0.096191
O O10 0.291887 0.456252 0.102738
O O11 0.188851 0.524504 0.178667
O O12 0.000000 0.500000 0.000000
O O13 0.020888 0.285621 0.555032
O O14 0.500000 0.619375 0.750000
O O15 0.538901 0.675936 0.874559
O O16 0.410029 0.549156 0.826427
O O17 0.250000 0.250000 0.000000
#
# Coordination Sequence:
#
# PCOD8146428 Si02
#       8
#     8   8   4   8   8   8   8   8
#     4  11  20  42  70  89 126 175 216 269 321 403
#     4  10  22  41  65  90 128 172 214 270 336 389
#     4  12  22  38  62  98 126 166 222 276 314 396
#     4  11  23  41  68  98 128 169 219 281 321 395
#     4  10  22  42  59  93 131 163 213 270 335 386
#     4  10  22  43  68  90 129 178 221 261 330 411
#     4  11  23  40  64  94 129 170 213 266 339 388
#     4  11  23  38  64  99 125 167 230 263 330 383
#
# _framework density 20.642137000000002
#
# number of rings (size 3 to 8) (size 9 to 14) (size 15 to 20)
#    0.000    1.333    2.667    3.200    0.000    3.200 
#   13.200    0.000    0.000    0.000    0.000    0.000 
#    0.000    0.000    0.000    0.000    0.000    0.000 
#
# Total GULP energy -371668.211903 kJ/mol
# GULP energy per Si atom -12388.940397 kJ/mol
# Density = 2.059515 g / cm^3
# Si number density = 20.642137 Si / 1000 Ang^3
#
#
#
# Elastic Constant Matrix: (Units=GPa)
#
#
# Indices 1 2 3 4 5 6 
#
# 1 125.4114 32.9202 32.9076 0.0000 1.7719 0.0000
# 2 32.9202 85.8549 35.1537 0.0000 -2.6686 0.0000
# 3 32.9076 35.1537 114.3065 0.0000 6.9453 0.0000
# 4 0.0000 0.0000 0.0000 32.0204 0.0000 -5.0293
# 5 1.7719 -2.6686 6.9453 0.0000 21.0482 0.0000
# 6 0.0000 0.0000 0.0000 -5.0293 0.0000 47.7109
#
#
#
# Elastic Compliance Matrix: (Units=1/GPa)
#
#
# Indices 1 2 3 4 5 6 
#
# 1 0.009180 -0.002825 -0.001740 0.000000 -0.000557 0.000000
# 2 -0.002825 0.014396 -0.003816 0.000000 0.003322 0.000000
# 3 -0.001740 -0.003816 0.010657 0.000000 -0.003854 0.000000
# 4 0.000000 0.000000 0.000000 0.031756 0.000000 0.003347
# 5 -0.000557 0.003322 -0.003854 0.000000 0.049250 0.000000
# 6 0.000000 0.000000 0.000000 0.003347 0.000000 0.021312
#
#
# Mechanical properties :
#
#
# Convention : Reuss Voigt Hill
#
# Bulk Modulus (GPa) = 57.23667 58.61509 57.92588
# Shear Modulus (GPa) = 31.41945 35.12865 33.27405
#
# Velocity S-wave (km/s) = 3.90565 4.12976 4.01926
# Velocity P-wave (km/s) = 6.93736 7.15523 7.04714
#
# Compressibility (1/GPa) = 0.01747132
#
# Stress axis : x y z
#
# Youngs Moduli (GPa) = 108.93583 69.46155 93.83347
#
# Poissons Ratio (x) = 0.19620 0.16329
# Poissons Ratio (y) = 0.30770 0.35808
# Poissons Ratio (z) = 0.18957 0.26508
#
# Static dielectric constant tensor:
#      x y z
#    x 3.810240 0.000000 -0.054120 
#    y 0.000000 3.857950 0.000000 
#    z -0.054120 0.000000 3.302760 
# 
# 
# High freq. dielectric constant tensor:
#      x y z
#    x 1.823420 0.000000 -0.012610 
#    y 0.000000 1.809410 0.000000 
#    z -0.012610 0.000000 1.798560 
# 
# From -- ./inp_files/239995.got.cif
#   From: 2010.06.25/outbox.cif.g09.slc.cpg/sg15_120_cif.got.tgz:239995.got - 2010.06.28 07:06:18.
