data_PCOD8146928
_publ_section_title
;
Structure prediction by ZEFSAII (Michael W. Deem and Ramdas Pophale) SiO2 
 PCOD8146928
Probable space group: C 2/C
;
_chemical_formula_sum "Si O2"
_cell_formula_units_Z 36
_cell_length_a 12.575991
_cell_length_b 8.739390
_cell_length_c 15.206724
_cell_angle_alpha 90.000000
_cell_angle_beta 81.061770
_cell_angle_gamma 90.000000
_cell_volume 1651.021874
_symmetry_space_group_name_H-M "C 2/C"
_symmetry_group_IT_number 15
_symmetry_cell_setting 'monoclinic'
loop_
_space_group_symop_operation_xyz
x,y,z
-x,y,1/2-z
-x,-y,-z
x,-y,1/2+z
1/2+x,1/2+y,z
1/2-x,1/2+y,1/2-z
1/2-x,1/2-y,-z
1/2+x,1/2-y,1/2+z
loop_
_atom_site_type_symbol
_atom_site_label
_atom_site_fract_x
_atom_site_fract_y
_atom_site_fract_z
Si Si1 0.000000 0.946070 0.250000
Si Si2 0.099211 0.807641 0.514895
Si Si3 0.117438 0.096326 0.395951
Si Si4 0.286234 0.680511 0.806014
Si Si5 0.267771 0.146562 0.132895
O O1 0.086580 0.841047 0.184853
O O2 0.072177 0.048732 0.305940
O O3 0.151154 0.822781 0.604839
O O4 0.140834 0.661243 0.454818
O O5 0.971284 0.798623 0.543457
O O6 0.140953 0.953724 0.454651
O O7 0.228511 0.190157 0.372094
O O8 0.283901 0.723677 0.703955
O O9 0.222478 0.521562 0.826828
#
# Coordination Sequence:
#
# PCOD8146928 Si02
#       5
#     4   8   8   8   8
#     4  12  22  44  68  96 136 180 218 274 324 406
#     4  10  22  42  66  98 136 172 218 287 331 390
#     4  11  22  42  70  93 132 183 221 269 344 387
#     4  12  23  42  69  95 132 182 222 271 329 406
#     4  11  22  40  67  98 134 174 228 270 334 396
#
# _framework density 21.804677000000002
#
# number of rings (size 3 to 8) (size 9 to 14) (size 15 to 20)
#    0.000    0.889    6.667    0.000    0.000    1.778 
#    0.000    7.778    0.000    0.000    0.000    0.000 
#    0.000    0.000    0.000    0.000    0.000    0.000 
#
# Total GULP energy -223168.645876 kJ/mol
# GULP energy per Si atom -12398.258104 kJ/mol
# Density = 2.175505 g / cm^3
# Si number density = 21.804677 Si / 1000 Ang^3
#
#
#
# Elastic Constant Matrix: (Units=GPa)
#
#
# Indices 1 2 3 4 5 6 
#
# 1 96.3611 45.5347 11.9639 0.0000 -36.0781 0.0000
# 2 45.5347 80.6568 31.1262 0.0000 -9.5065 0.0000
# 3 11.9639 31.1262 70.2226 0.0000 -5.4611 0.0000
# 4 0.0000 0.0000 0.0000 34.4969 0.0000 -9.9571
# 5 -36.0781 -9.5065 -5.4611 0.0000 41.7252 0.0000
# 6 0.0000 0.0000 0.0000 -9.9571 0.0000 35.4331
#
#
#
# Elastic Compliance Matrix: (Units=1/GPa)
#
#
# Indices 1 2 3 4 5 6 
#
# 1 0.021463 -0.011182 0.002571 0.000000 0.016347 0.000000
# 2 -0.011182 0.021060 -0.007889 0.000000 -0.005903 0.000000
# 3 0.002571 -0.007889 0.017510 0.000000 0.002718 0.000000
# 4 0.000000 0.000000 0.000000 0.031547 0.000000 0.008865
# 5 0.016347 -0.005903 0.002718 0.000000 0.037111 0.000000
# 6 0.000000 0.000000 0.000000 0.008865 0.000000 0.030713
#
#
# Mechanical properties :
#
#
# Convention : Reuss Voigt Hill
#
# Bulk Modulus (GPa) = 36.99141 47.16556 42.07848
# Shear Modulus (GPa) = 24.82429 32.90543 28.86486
#
# Velocity S-wave (km/s) = 3.37780 3.88893 3.64234
# Velocity P-wave (km/s) = 5.67578 6.46861 6.08512
#
# Compressibility (1/GPa) = 0.02703330
#
# Stress axis : x y z
#
# Youngs Moduli (GPa) = 46.59199 47.48394 57.10897
#
# Poissons Ratio (x) = 0.53099 -0.14684
# Poissons Ratio (y) = 0.52101 0.45051
# Poissons Ratio (z) = -0.11980 0.37459
#
# Static dielectric constant tensor:
#      x y z
#    x 4.050030 0.000000 -0.296390 
#    y 0.000000 3.745190 0.000000 
#    z -0.296390 0.000000 4.128260 
# 
# 
# High freq. dielectric constant tensor:
#      x y z
#    x 1.849440 0.000000 -0.018880 
#    y 0.000000 1.834840 0.000000 
#    z -0.018880 0.000000 1.875610 
# 
# From -- ./inp_files/150135.got.cif
#   From: 2010.06.25/outbox.cif.g09.slc.cpg/sg15_76_cif.got.tgz:150135.got - 2010.06.28 07:06:18.
