data_PCOD8146546
_publ_section_title
;
Structure prediction by ZEFSAII (Michael W. Deem and Ramdas Pophale) SiO2 
 PCOD8146546
Probable space group: C 2/C
;
_chemical_formula_sum "Si O2"
_cell_formula_units_Z 48
_cell_length_a 18.321810
_cell_length_b 5.299432
_cell_length_c 23.894873
_cell_angle_alpha 90.000000
_cell_angle_beta 78.326141
_cell_angle_gamma 90.000000
_cell_volume 2272.086881
_symmetry_space_group_name_H-M "C 2/C"
_symmetry_group_IT_number 15
_symmetry_cell_setting 'monoclinic'
loop_
_space_group_symop_operation_xyz
x,y,z
-x,y,1/2-z
-x,-y,-z
x,-y,1/2+z
1/2+x,1/2+y,z
1/2-x,1/2+y,1/2-z
1/2-x,1/2-y,-z
1/2+x,1/2-y,1/2+z
loop_
_atom_site_type_symbol
_atom_site_label
_atom_site_fract_x
_atom_site_fract_y
_atom_site_fract_z
Si Si1 0.394317 0.944511 0.438711
Si Si2 0.288834 0.903165 0.043396
Si Si3 0.486351 0.454366 0.437664
Si Si4 0.208413 0.262529 0.131694
Si Si5 0.644090 0.443104 0.874331
Si Si6 0.703212 0.337392 0.752416
O O1 0.443394 0.696709 0.420056
O O2 0.339489 0.973363 0.393433
O O3 0.345837 0.904872 0.503174
O O4 0.442416 0.196743 0.434487
O O5 0.341111 0.748921 0.077408
O O6 0.220712 0.030458 0.087229
O O7 0.250000 0.750000 0.000000
O O8 0.500000 0.500000 0.500000
O O9 0.564661 0.424634 0.393846
O O10 0.291094 0.350473 0.134677
O O11 0.166340 0.191684 0.196231
O O12 0.644131 0.314288 0.812553
O O13 0.738320 0.614861 0.746604
#
# Coordination Sequence:
#
# PCOD8146546 Si02
#       6
#     8   8   8   8   8   8
#     4  12  26  41  64  97 136 173 209 269 333 398
#     4  12  22  39  66 103 132 167 218 278 334 385
#     4  12  26  42  62  98 138 172 212 263 335 397
#     4  11  24  42  69  95 133 170 230 270 336 389
#     4  11  24  41  69  95 133 172 227 269 329 394
#     4  10  22  41  67  98 126 167 222 281 321 378
#
# _framework density 21.12595
#
# number of rings (size 3 to 8) (size 9 to 14) (size 15 to 20)
#    0.000    0.667    5.000    3.000    2.333    0.000 
#    0.000    0.833    0.000    4.000    0.000    0.000 
#    0.000    0.000    0.000    0.000    0.000    0.000 
#
# Total GULP energy -297504.301211 kJ/mol
# GULP energy per Si atom -12396.012550 kJ/mol
# Density = 2.107787 g / cm^3
# Si number density = 21.125950 Si / 1000 Ang^3
#
#
#
# Elastic Constant Matrix: (Units=GPa)
#
#
# Indices 1 2 3 4 5 6 
#
# 1 90.7859 41.4191 56.5487 0.0000 -2.8066 0.0000
# 2 41.4191 86.6099 34.2474 0.0000 9.9541 0.0000
# 3 56.5487 34.2474 193.8106 0.0000 11.7726 0.0000
# 4 0.0000 0.0000 0.0000 32.4703 0.0000 0.8839
# 5 -2.8066 9.9541 11.7726 0.0000 20.6305 0.0000
# 6 0.0000 0.0000 0.0000 0.8839 0.0000 37.0912
#
#
#
# Elastic Compliance Matrix: (Units=1/GPa)
#
#
# Indices 1 2 3 4 5 6 
#
# 1 0.017392 -0.007612 -0.004243 0.000000 0.008460 0.000000
# 2 -0.007612 0.016244 -0.000114 0.000000 -0.008808 0.000000
# 3 -0.004243 -0.000114 0.006681 0.000000 -0.004335 0.000000
# 4 0.000000 0.000000 0.000000 0.030817 0.000000 -0.000734
# 5 0.008460 -0.008808 -0.004335 0.000000 0.056346 0.000000
# 6 0.000000 0.000000 0.000000 -0.000734 0.000000 0.026978
#
#
# Mechanical properties :
#
#
# Convention : Reuss Voigt Hill
#
# Bulk Modulus (GPa) = 61.05771 70.62631 65.84201
# Shear Modulus (GPa) = 27.19492 33.97114 30.58303
#
# Velocity S-wave (km/s) = 3.59175 4.01437 3.80893
# Velocity P-wave (km/s) = 6.79452 7.41556 7.11182
#
# Compressibility (1/GPa) = 0.01637795
#
# Stress axis : x y z
#
# Youngs Moduli (GPa) = 57.49639 61.56214 149.67095
#
# Poissons Ratio (x) = 0.46860 0.63512
# Poissons Ratio (y) = 0.43766 0.01712
# Poissons Ratio (z) = 0.24398 0.00704
#
# Static dielectric constant tensor:
#      x y z
#    x 3.925490 0.000000 -0.108000 
#    y 0.000000 3.793290 0.000000 
#    z -0.108000 0.000000 4.521850 
# 
# 
# High freq. dielectric constant tensor:
#      x y z
#    x 1.806200 0.000000 0.004270 
#    y 0.000000 1.831330 0.000000 
#    z 0.004270 0.000000 1.843750 
# 
# From -- ./inp_files/275616.got.cif
#   From: 2010.06.25/outbox.cif.g09.slc.cpg/sg15_138_cif.got.tgz:275616.got - 2010.06.28 07:06:18.
