data_PCOD8146396
_publ_section_title
;
Structure prediction by ZEFSAII (Michael W. Deem and Ramdas Pophale) SiO2 
 PCOD8146396
Probable space group: C 2/C
;
_chemical_formula_sum "Si O2"
_cell_formula_units_Z 56
_cell_length_a 31.789144
_cell_length_b 9.997350
_cell_length_c 9.948676
_cell_angle_alpha 90.000000
_cell_angle_beta 110.099296
_cell_angle_gamma 90.000000
_cell_volume 2969.204792
_symmetry_space_group_name_H-M "C 2/C"
_symmetry_group_IT_number 15
_symmetry_cell_setting 'monoclinic'
loop_
_space_group_symop_operation_xyz
x,y,z
-x,y,1/2-z
-x,-y,-z
x,-y,1/2+z
1/2+x,1/2+y,z
1/2-x,1/2+y,1/2-z
1/2-x,1/2-y,-z
1/2+x,1/2-y,1/2+z
loop_
_atom_site_type_symbol
_atom_site_label
_atom_site_fract_x
_atom_site_fract_y
_atom_site_fract_z
Si Si1 0.590901 0.764953 0.178077
Si Si2 0.503180 0.126099 0.907301
Si Si3 0.195241 0.096134 0.953847
Si Si4 0.348417 0.001464 0.830074
Si Si5 0.359308 0.507747 0.356174
Si Si6 0.202696 0.410050 0.975366
Si Si7 0.900906 0.258818 0.001581
O O1 0.537258 0.771614 0.106707
O O2 0.611108 0.893113 0.123611
O O3 0.607446 0.631914 0.124068
O O4 0.606828 0.768197 0.348687
O O5 0.500000 0.074529 0.750000
O O6 0.548579 0.206182 0.985243
O O7 0.500000 0.000000 0.000000
O O8 0.192865 0.255068 0.938865
O O9 0.164002 0.028812 0.808679
O O10 0.179382 0.044796 0.081143
O O11 0.246041 0.048907 0.990549
O O12 0.327486 0.995277 0.659352
O O13 0.309622 0.049807 0.887305
O O14 0.366406 0.857419 0.891955
O O15 0.390843 0.389648 0.441741
#
# Coordination Sequence:
#
# PCOD8146396 Si02
#       7
#     8   8   8   8   8   8   8
#     4  11  23  40  65  92 127 160 202 254 311 364
#     4  10  22  41  64  96 126 156 202 257 300 362
#     4  11  24  41  61  90 127 161 208 260 307 363
#     4  12  21  39  64  90 122 160 204 255 307 370
#     4  12  23  43  64  88 128 168 202 251 313 368
#     4  11  24  39  61  94 121 161 210 260 307 361
#     4  11  23  40  65  92 127 160 202 254 311 364
#
# _framework density 18.860268999999999
#
# number of rings (size 3 to 8) (size 9 to 14) (size 15 to 20)
#    0.000    0.857    7.143    0.857    0.000    0.571 
#    2.571    1.429    0.000    0.000    0.000    0.000 
#    0.000    0.000    0.000    0.000    0.000    0.000 
#
# Total GULP energy -347367.731989 kJ/mol
# GULP energy per Si atom -12405.990428 kJ/mol
# Density = 1.881734 g / cm^3
# Si number density = 18.860269 Si / 1000 Ang^3
#
#
#
# Elastic Constant Matrix: (Units=GPa)
#
#
# Indices 1 2 3 4 5 6 
#
# 1 108.8416 39.2066 17.3394 0.0000 -2.8401 0.0000
# 2 39.2066 90.7135 13.1524 0.0000 -2.0489 0.0000
# 3 17.3394 13.1524 55.4377 0.0000 -3.0619 0.0000
# 4 0.0000 0.0000 0.0000 28.7084 0.0000 -5.9078
# 5 -2.8401 -2.0489 -3.0619 0.0000 29.7815 0.0000
# 6 0.0000 0.0000 0.0000 -5.9078 0.0000 27.3087
#
#
#
# Elastic Compliance Matrix: (Units=1/GPa)
#
#
# Indices 1 2 3 4 5 6 
#
# 1 0.011199 -0.004479 -0.002412 0.000000 0.000512 0.000000
# 2 -0.004479 0.013215 -0.001718 0.000000 0.000305 0.000000
# 3 -0.002412 -0.001718 0.019290 0.000000 0.001635 0.000000
# 4 0.000000 0.000000 0.000000 0.036456 0.000000 0.007887
# 5 0.000512 0.000305 0.001635 0.000000 0.033816 0.000000
# 6 0.000000 0.000000 0.000000 0.007887 0.000000 0.038325
#
#
# Mechanical properties :
#
#
# Convention : Reuss Voigt Hill
#
# Bulk Modulus (GPa) = 37.75284 43.82105 40.78694
# Shear Modulus (GPa) = 28.03533 29.51268 28.77401
#
# Velocity S-wave (km/s) = 3.85967 3.96006 3.91018
# Velocity P-wave (km/s) = 6.31849 6.64789 6.48528
#
# Compressibility (1/GPa) = 0.02648807
#
# Stress axis : x y z
#
# Youngs Moduli (GPa) = 89.29705 75.66932 51.83925
#
# Poissons Ratio (x) = 0.33891 0.12502
# Poissons Ratio (y) = 0.39994 0.08904
# Poissons Ratio (z) = 0.21536 0.12997
#
# Static dielectric constant tensor:
#      x y z
#    x 3.593240 0.000000 -0.063270 
#    y 0.000000 3.450730 0.000000 
#    z -0.063270 0.000000 3.453430 
# 
# 
# High freq. dielectric constant tensor:
#      x y z
#    x 1.746470 0.000000 -0.005150 
#    y 0.000000 1.734120 0.000000 
#    z -0.005150 0.000000 1.738080 
# 
# From -- ./inp_files/125622.got.cif
#   From: 2010.06.25/outbox.cif.g09.slc.cpg/sg15_63_cif.got.tgz:125622.got - 2010.06.28 07:06:18.
