data_PCOD8146795
_publ_section_title
;
Structure prediction by ZEFSAII (Michael W. Deem and Ramdas Pophale) SiO2 
 PCOD8146795
Probable space group: C 2/C
;
_chemical_formula_sum "Si O2"
_cell_formula_units_Z 56
_cell_length_a 18.780770
_cell_length_b 23.177789
_cell_length_c 10.319426
_cell_angle_alpha 90.000000
_cell_angle_beta 143.882344
_cell_angle_gamma 90.000000
_cell_volume 2647.795629
_symmetry_space_group_name_H-M "C 2/C"
_symmetry_group_IT_number 15
_symmetry_cell_setting 'monoclinic'
loop_
_space_group_symop_operation_xyz
x,y,z
-x,y,1/2-z
-x,-y,-z
x,-y,1/2+z
1/2+x,1/2+y,z
1/2-x,1/2+y,1/2-z
1/2-x,1/2-y,-z
1/2+x,1/2-y,1/2+z
loop_
_atom_site_type_symbol
_atom_site_label
_atom_site_fract_x
_atom_site_fract_y
_atom_site_fract_z
Si Si1 0.369859 0.112647 0.708958
Si Si2 0.723410 0.707688 0.077058
Si Si3 0.135554 0.948212 0.870111
Si Si4 0.360494 0.890658 0.899566
Si Si5 0.500000 0.632121 0.750000
Si Si6 0.244359 0.218447 0.629002
Si Si7 0.500000 0.341722 0.750000
Si Si8 0.130725 0.036405 0.080990
O O1 0.278616 0.060002 0.599660
O O2 0.356166 0.133840 0.539885
O O3 0.334642 0.164284 0.753597
O O4 0.504063 0.089127 0.936149
O O5 0.829860 0.661570 0.257172
O O6 0.701738 0.741990 0.178698
O O7 0.750000 0.750000 0.000000
O O8 0.606430 0.673037 0.858326
O O9 0.069533 0.885877 0.754755
O O10 0.115673 0.984137 0.708099
O O11 0.090069 0.983101 0.930292
O O12 0.268092 0.944248 0.749556
O O13 0.455645 0.591491 0.567409
O O14 0.250000 0.250000 0.500000
O O15 0.106301 0.198972 0.463817
#
# Coordination Sequence:
#
# PCOD8146795 Si02
#       8
#     8   8   8   8   4   8   4   8
#     4   9  19  38  64  88 120 155 211 247 289 364
#     4  11  25  38  58  86 124 165 198 241 306 355
#     4  10  22  42  64  95 121 158 201 258 310 360
#     4   9  19  39  62  88 120 162 200 248 300 361
#     4  10  25  42  60  88 124 164 203 246 298 372
#     4  11  23  38  62  90 118 161 206 252 288 353
#     4  10  25  38  64  96 120 156 213 252 292 364
#     4  10  22  42  66  90 123 159 203 254 312 359
#
# _framework density 21.149668999999999
#
# number of rings (size 3 to 8) (size 9 to 14) (size 15 to 20)
#    0.000    2.000    1.429    0.429    8.000    2.857 
#    7.714    0.000    0.000    0.000    0.000    0.000 
#    0.000    0.000    0.000    0.000    0.000    0.000 
#
# Total GULP energy -347051.682040 kJ/mol
# GULP energy per Si atom -12394.702930 kJ/mol
# Density = 2.110153 g / cm^3
# Si number density = 21.149669 Si / 1000 Ang^3
#
#
#
# Elastic Constant Matrix: (Units=GPa)
#
#
# Indices 1 2 3 4 5 6 
#
# 1 98.2456 30.9692 42.7004 0.0000 -13.5236 0.0000
# 2 30.9692 69.3904 33.8540 0.0000 -11.3456 0.0000
# 3 42.7004 33.8540 115.4096 0.0000 13.7449 0.0000
# 4 0.0000 0.0000 0.0000 18.6433 0.0000 -3.1887
# 5 -13.5236 -11.3456 13.7449 0.0000 37.3654 0.0000
# 6 0.0000 0.0000 0.0000 -3.1887 0.0000 31.5419
#
#
#
# Elastic Compliance Matrix: (Units=1/GPa)
#
#
# Indices 1 2 3 4 5 6 
#
# 1 0.014145 -0.002793 -0.005149 0.000000 0.006165 0.000000
# 2 -0.002793 0.019476 -0.005505 0.000000 0.006928 0.000000
# 3 -0.005149 -0.005505 0.013183 0.000000 -0.008384 0.000000
# 4 0.000000 0.000000 0.000000 0.054582 0.000000 0.005518
# 5 0.006165 0.006928 -0.008384 0.000000 0.034182 0.000000
# 6 0.000000 0.000000 0.000000 0.005518 0.000000 0.032262
#
#
# Mechanical properties :
#
#
# Convention : Reuss Voigt Hill
#
# Bulk Modulus (GPa) = 50.22200 55.34361 52.78281
# Shear Modulus (GPa) = 24.83105 29.21160 27.02132
#
# Velocity S-wave (km/s) = 3.43018 3.72046 3.57826
# Velocity P-wave (km/s) = 6.28377 6.68432 6.48714
#
# Compressibility (1/GPa) = 0.01991159
#
# Stress axis : x y z
#
# Youngs Moduli (GPa) = 70.69401 51.34484 75.85523
#
# Poissons Ratio (x) = 0.14342 0.39055
# Poissons Ratio (y) = 0.19746 0.41756
# Poissons Ratio (z) = 0.36398 0.28264
#
# Static dielectric constant tensor:
#      x y z
#    x 3.714400 0.000000 0.172240 
#    y 0.000000 3.723650 0.000000 
#    z 0.172240 0.000000 4.112000 
# 
# 
# High freq. dielectric constant tensor:
#      x y z
#    x 1.814160 0.000000 0.017910 
#    y 0.000000 1.820450 0.000000 
#    z 0.017910 0.000000 1.840020 
# 
# From -- ./inp_files/114781.got.cif
#   From: 2010.06.25/outbox.cif.g09.slc.cpg/sg15_58_cif.got.tgz:114781.got - 2010.06.28 07:06:18.
