data_PCOD8146195
_publ_section_title
;
Structure prediction by ZEFSAII (Michael W. Deem and Ramdas Pophale) SiO2 
 PCOD8146195
Probable space group: C 2/C
;
_chemical_formula_sum "Si O2"
_cell_formula_units_Z 48
_cell_length_a 13.590365
_cell_length_b 11.686693
_cell_length_c 14.898882
_cell_angle_alpha 90.000000
_cell_angle_beta 99.933954
_cell_angle_gamma 90.000000
_cell_volume 2330.858295
_symmetry_space_group_name_H-M "C 2/C"
_symmetry_group_IT_number 15
_symmetry_cell_setting 'monoclinic'
loop_
_space_group_symop_operation_xyz
x,y,z
-x,y,1/2-z
-x,-y,-z
x,-y,1/2+z
1/2+x,1/2+y,z
1/2-x,1/2+y,1/2-z
1/2-x,1/2-y,-z
1/2+x,1/2-y,1/2+z
loop_
_atom_site_type_symbol
_atom_site_label
_atom_site_fract_x
_atom_site_fract_y
_atom_site_fract_z
Si Si1 0.279275 0.513337 0.355620
Si Si2 0.128987 0.417382 0.684024
Si Si3 0.215314 0.264937 0.095368
Si Si4 0.889783 0.166076 0.758420
Si Si5 0.691700 0.132521 0.996202
Si Si6 0.983308 0.588409 0.919208
O O1 0.192150 0.523191 0.270343
O O2 0.320271 0.641848 0.372803
O O3 0.359492 0.424866 0.329370
O O4 0.242814 0.467151 0.445985
O O5 0.093445 0.289602 0.695470
O O6 0.187184 0.415605 0.596986
O O7 0.033195 0.502458 0.667118
O O8 0.306316 0.322428 0.166671
O O9 0.115706 0.338234 0.083058
O O10 0.250000 0.250000 0.000000
O O11 0.000000 0.122578 0.750000
O O12 0.584159 0.163134 0.932642
O O13 0.750000 0.250000 0.000000
O O14 0.000000 0.500000 0.000000
#
# Coordination Sequence:
#
# PCOD8146195 Si02
#       6
#     8   8   8   8   8   8
#     4  11  24  44  66 100 137 180 218 287 350 396
#     4  10  22  43  67  96 132 174 227 275 328 417
#     4  11  24  44  69 101 138 178 230 284 341 415
#     4  11  25  43  68  98 141 181 227 276 346 410
#     4  11  23  42  68  97 134 171 230 281 338 400
#     4  10  22  40  68  98 128 170 227 275 334 400
#
# _framework density 20.593271999999999
#
# number of rings (size 3 to 8) (size 9 to 14) (size 15 to 20)
#    0.000    1.333    3.333    2.000    9.333    0.000 
#    3.000    1.667    0.000    0.000    0.000    0.000 
#    0.000    0.000    0.000    0.000    0.000    0.000 
#
# Total GULP energy -297323.047620 kJ/mol
# GULP energy per Si atom -12388.460318 kJ/mol
# Density = 2.054640 g / cm^3
# Si number density = 20.593272 Si / 1000 Ang^3
#
#
#
# Elastic Constant Matrix: (Units=GPa)
#
#
# Indices 1 2 3 4 5 6 
#
# 1 123.7480 51.7707 22.1810 0.0000 18.6536 0.0000
# 2 51.7707 93.2823 26.6743 0.0000 26.0130 0.0000
# 3 22.1810 26.6743 90.0607 0.0000 2.8303 0.0000
# 4 0.0000 0.0000 0.0000 38.5427 0.0000 8.5520
# 5 18.6536 26.0130 2.8303 0.0000 29.3354 0.0000
# 6 0.0000 0.0000 0.0000 8.5520 0.0000 28.0358
#
#
#
# Elastic Compliance Matrix: (Units=1/GPa)
#
#
# Indices 1 2 3 4 5 6 
#
# 1 0.010710 -0.005000 -0.001085 0.000000 -0.002272 0.000000
# 2 -0.005000 0.018030 -0.003717 0.000000 -0.012450 0.000000
# 3 -0.001085 -0.003717 0.012384 0.000000 0.002792 0.000000
# 4 0.000000 0.000000 0.000000 0.027829 0.000000 -0.008489
# 5 -0.002272 -0.012450 0.002792 0.000000 0.046303 0.000000
# 6 0.000000 0.000000 0.000000 -0.008489 0.000000 0.038258
#
#
# Mechanical properties :
#
#
# Convention : Reuss Voigt Hill
#
# Bulk Modulus (GPa) = 46.47214 56.48258 51.47736
# Shear Modulus (GPa) = 27.73273 32.94710 30.33992
#
# Velocity S-wave (km/s) = 3.67371 4.00421 3.84251
# Velocity P-wave (km/s) = 6.37264 6.99039 6.68865
#
# Compressibility (1/GPa) = 0.02151827
#
# Stress axis : x y z
#
# Youngs Moduli (GPa) = 93.37373 55.46354 80.74772
#
# Poissons Ratio (x) = 0.27731 0.08764
# Poissons Ratio (y) = 0.46686 0.30017
# Poissons Ratio (z) = 0.10135 0.20618
#
# Static dielectric constant tensor:
#      x y z
#    x 6.315030 0.000000 1.201720 
#    y 0.000000 4.206980 0.000000 
#    z 1.201720 0.000000 4.615090 
# 
# 
# High freq. dielectric constant tensor:
#      x y z
#    x 1.796460 0.000000 0.005990 
#    y 0.000000 1.820040 0.000000 
#    z 0.005990 0.000000 1.818290 
# 
# From -- ./inp_files/152080.got.cif
#   From: 2010.06.25/outbox.cif.g09.slc.cpg/sg15_77_cif.got.tgz:152080.got - 2010.06.28 07:06:18.
