data_PCOD8146043
_publ_section_title
;
Structure prediction by ZEFSAII (Michael W. Deem and Ramdas Pophale) SiO2 
 PCOD8146043
Probable space group: C 2/C
;
_chemical_formula_sum "Si O2"
_cell_formula_units_Z 48
_cell_length_a 9.669212
_cell_length_b 14.750866
_cell_length_c 25.203764
_cell_angle_alpha 90.000000
_cell_angle_beta 42.880543
_cell_angle_gamma 90.000000
_cell_volume 2446.156881
_symmetry_space_group_name_H-M "C 2/C"
_symmetry_group_IT_number 15
_symmetry_cell_setting 'monoclinic'
loop_
_space_group_symop_operation_xyz
x,y,z
-x,y,1/2-z
-x,-y,-z
x,-y,1/2+z
1/2+x,1/2+y,z
1/2-x,1/2+y,1/2-z
1/2-x,1/2-y,-z
1/2+x,1/2-y,1/2+z
loop_
_atom_site_type_symbol
_atom_site_label
_atom_site_fract_x
_atom_site_fract_y
_atom_site_fract_z
Si Si1 0.650692 0.912461 0.660415
Si Si2 0.927483 0.920529 0.672833
Si Si3 0.923284 0.294882 0.915950
Si Si4 0.322300 0.235676 0.757855
Si Si5 0.870600 0.458681 0.582399
Si Si6 0.861925 0.551854 0.691363
O O1 0.500000 0.881105 0.750000
O O2 0.871923 0.925659 0.625639
O O3 0.676325 0.834259 0.609638
O O4 0.566728 0.005660 0.657789
O O5 0.825575 0.833129 0.728907
O O6 0.166104 0.920689 0.613848
O O7 0.835659 0.008624 0.726369
O O8 0.103832 0.225307 0.848829
O O9 0.018173 0.374518 0.923337
O O10 0.750000 0.250000 0.000000
O O11 0.500000 0.226891 0.750000
O O12 0.357520 0.158636 0.703878
O O13 0.840716 0.537246 0.634392
O O14 0.000000 0.500000 0.500000
#
# Coordination Sequence:
#
# PCOD8146043 Si02
#       6
#     8   8   8   8   8   8
#     4   9  18  41  66  87 128 162 215 267 314 388
#     4  11  20  43  68  91 126 169 221 270 312 387
#     4  11  24  42  61  97 135 166 211 277 333 378
#     4  12  21  40  71  93 127 174 223 266 316 394
#     4  11  24  45  62  93 136 168 210 274 335 391
#     4  10  22  40  65  96 122 168 220 261 322 393
#
# _framework density 19.622617000000002
#
# number of rings (size 3 to 8) (size 9 to 14) (size 15 to 20)
#    0.000    1.333    6.667    2.000    2.333    1.333 
#    6.000    3.333    0.000    0.000    0.000    0.000 
#    0.000    0.000    0.000    0.000    0.000    0.000 
#
# Total GULP energy -297576.915890 kJ/mol
# GULP energy per Si atom -12399.038162 kJ/mol
# Density = 1.957795 g / cm^3
# Si number density = 19.622617 Si / 1000 Ang^3
#
#
#
# Elastic Constant Matrix: (Units=GPa)
#
#
# Indices 1 2 3 4 5 6 
#
# 1 148.3550 26.1985 62.1670 0.0009 3.4591 -0.0007
# 2 26.1985 65.1678 23.8379 -0.0011 2.3935 -0.0025
# 3 62.1670 23.8379 98.8069 -0.0032 2.2645 -0.0069
# 4 0.0009 -0.0011 -0.0032 30.5454 -0.0012 5.0005
# 5 3.4591 2.3935 2.2645 -0.0012 28.1578 0.0015
# 6 -0.0007 -0.0025 -0.0069 5.0005 0.0015 17.4206
#
#
#
# Elastic Compliance Matrix: (Units=1/GPa)
#
#
# Indices 1 2 3 4 5 6 
#
# 1 0.009343 -0.001744 -0.005445 -0.000001 -0.000562 -0.000002
# 2 -0.001744 0.017190 -0.003027 0.000000 -0.001004 0.000001
# 3 -0.005445 -0.003027 0.014282 0.000001 -0.000222 0.000005
# 4 -0.000001 0.000000 0.000001 0.034352 0.000002 -0.009861
# 5 -0.000562 -0.001004 -0.000222 0.000002 0.035686 -0.000004
# 6 -0.000002 0.000001 0.000005 -0.009861 -0.000004 0.060234
#
#
# Mechanical properties :
#
#
# Convention : Reuss Voigt Hill
#
# Bulk Modulus (GPa) = 49.05878 59.63739 54.34808
# Shear Modulus (GPa) = 25.21246 28.56650 26.88948
#
# Velocity S-wave (km/s) = 3.58839 3.81963 3.70581
# Velocity P-wave (km/s) = 6.49801 7.06476 6.78731
#
# Compressibility (1/GPa) = 0.02038371
#
# Stress axis : x y z
#
# Youngs Moduli (GPa) = 107.02832 58.17271 70.01796
#
# Poissons Ratio (x) = 0.10144 0.38125
# Poissons Ratio (y) = 0.18663 0.21195
# Poissons Ratio (z) = 0.58277 0.17610
#
# Static dielectric constant tensor:
#      x y z
#    x 4.099670 0.000070 0.050180 
#    y 0.000070 3.630360 0.000010 
#    z 0.050180 0.000010 3.482800 
# 
# 
# High freq. dielectric constant tensor:
#      x y z
#    x 1.789200 0.000000 0.001070 
#    y 0.000000 1.753940 0.000000 
#    z 0.001070 0.000000 1.744040 
# 
# From -- ./inp_files/289014.got.cif
#   From: 2010.06.25/outbox.cif.g09.slc.cpg/sg15_145_cif.got.tgz:289014.got - 2010.06.28 07:06:18.
