data_PCOD8146724
_publ_section_title
;
Structure prediction by ZEFSAII (Michael W. Deem and Ramdas Pophale) SiO2 
 PCOD8146724
Probable space group: C 2/C
;
_chemical_formula_sum "Si O2"
_cell_formula_units_Z 64
_cell_length_a 12.340672
_cell_length_b 14.597055
_cell_length_c 30.820026
_cell_angle_alpha 90.000000
_cell_angle_beta 144.480968
_cell_angle_gamma 90.000000
_cell_volume 3225.471919
_symmetry_space_group_name_H-M "C 2/C"
_symmetry_group_IT_number 15
_symmetry_cell_setting 'monoclinic'
loop_
_space_group_symop_operation_xyz
x,y,z
-x,y,1/2-z
-x,-y,-z
x,-y,1/2+z
1/2+x,1/2+y,z
1/2-x,1/2+y,1/2-z
1/2-x,1/2-y,-z
1/2+x,1/2-y,1/2+z
loop_
_atom_site_type_symbol
_atom_site_label
_atom_site_fract_x
_atom_site_fract_y
_atom_site_fract_z
Si Si1 0.212488 0.473683 0.936232
Si Si2 0.744979 0.719062 0.449274
Si Si3 0.071509 0.866927 0.040216
Si Si4 0.673961 0.967372 0.729841
Si Si5 0.797043 0.369012 0.199819
Si Si6 0.712085 0.605610 0.806294
Si Si7 0.450961 0.955951 0.029435
Si Si8 0.827817 0.763749 0.786164
O O1 0.316258 0.566815 0.956113
O O2 0.133577 0.478814 0.959985
O O3 0.046321 0.454729 0.848560
O O4 0.354549 0.390271 0.975382
O O5 0.750000 0.750000 0.500000
O O6 0.909043 0.767585 0.475098
O O7 0.784370 0.611975 0.462453
O O8 0.551261 0.741972 0.362289
O O9 0.149543 0.866402 0.113809
O O10 0.711236 0.027979 0.784395
O O11 0.756975 0.022811 0.716779
O O12 0.767313 0.868906 0.766387
O O13 0.749658 0.288966 0.218602
O O14 0.000000 0.344317 0.250000
O O15 0.500000 0.595856 0.750000
O O16 0.743343 0.708291 0.799012
O O17 0.859535 0.593505 0.893218
O O18 0.500000 0.000000 0.000000
#
# Coordination Sequence:
#
# PCOD8146724 Si02
#       8
#     8   8   8   8   8   8   8   8
#     4  10  22  42  62  98 129 161 215 264 322 375
#     4  12  22  42  65  93 125 168 217 257 325 382
#     4  11  22  39  70  95 128 167 211 276 313 388
#     4  10  23  41  64  93 129 166 205 264 319 390
#     4  11  21  41  62  94 130 161 208 263 324 366
#     4  10  23  43  60  90 132 163 206 267 312 372
#     4  11  25  42  64  92 130 171 212 263 320 389
#     4  11  24  40  65  94 127 165 214 264 314 396
#
# _framework density 19.84206
#
# number of rings (size 3 to 8) (size 9 to 14) (size 15 to 20)
#    0.000    1.250    5.000    0.750    3.500    5.000 
#    0.000    1.250    0.000    0.000    0.000    0.000 
#    0.000    0.000    0.000    0.000    0.000    0.000 
#
# Total GULP energy -396717.149100 kJ/mol
# GULP energy per Si atom -12397.410909 kJ/mol
# Density = 1.979690 g / cm^3
# Si number density = 19.842060 Si / 1000 Ang^3
#
#
#
# Elastic Constant Matrix: (Units=GPa)
#
#
# Indices 1 2 3 4 5 6 
#
# 1 95.2604 28.3186 51.8816 0.0000 -1.6524 0.0000
# 2 28.3186 100.3291 41.3052 0.0000 -6.6198 0.0000
# 3 51.8816 41.3052 90.4480 0.0000 -5.9397 0.0000
# 4 0.0000 0.0000 0.0000 30.9395 0.0000 4.9815
# 5 -1.6524 -6.6198 -5.9397 0.0000 44.5108 0.0000
# 6 0.0000 0.0000 0.0000 4.9815 0.0000 33.2780
#
#
#
# Elastic Compliance Matrix: (Units=1/GPa)
#
#
# Indices 1 2 3 4 5 6 
#
# 1 0.015349 -0.000905 -0.008437 0.000000 -0.000691 0.000000
# 2 -0.000905 0.012381 -0.005061 0.000000 0.001132 0.000000
# 3 -0.008437 -0.005061 0.018297 0.000000 0.001376 0.000000
# 4 0.000000 0.000000 0.000000 0.033119 0.000000 -0.004958
# 5 -0.000691 0.001132 0.001376 0.000000 0.022793 0.000000
# 6 0.000000 0.000000 0.000000 -0.004958 0.000000 0.030792
#
#
# Mechanical properties :
#
#
# Convention : Reuss Voigt Hill
#
# Bulk Modulus (GPa) = 58.06235 58.78314 58.42274
# Shear Modulus (GPa) = 29.89067 32.71447 31.30257
#
# Velocity S-wave (km/s) = 3.88549 4.06488 3.97619
# Velocity P-wave (km/s) = 7.03243 7.19172 7.11252
#
# Compressibility (1/GPa) = 0.01722287
#
# Stress axis : x y z
#
# Youngs Moduli (GPa) = 65.14919 80.77077 54.65415
#
# Poissons Ratio (x) = 0.07307 0.46110
# Poissons Ratio (y) = 0.05894 0.27659
# Poissons Ratio (z) = 0.54965 0.40875
#
# Static dielectric constant tensor:
#      x y z
#    x 3.622160 0.000000 0.003360 
#    y 0.000000 3.503220 0.000000 
#    z 0.003360 0.000000 5.233630 
# 
# 
# High freq. dielectric constant tensor:
#      x y z
#    x 1.776450 0.000000 -0.003890 
#    y 0.000000 1.767070 0.000000 
#    z -0.003890 0.000000 1.783750 
# 
# From -- ./inp_files/293075.got.cif
#   From: 2010.06.25/outbox.cif.g09.slc.cpg/sg15_147_cif.got.tgz:293075.got - 2010.06.28 07:06:18.
