data_PCOD8146781
_publ_section_title
;
Structure prediction by ZEFSAII (Michael W. Deem and Ramdas Pophale) SiO2 
 PCOD8146781
Probable space group: C 2/C
;
_chemical_formula_sum "Si O2"
_cell_formula_units_Z 64
_cell_length_a 10.510079
_cell_length_b 9.168515
_cell_length_c 31.565971
_cell_angle_alpha 90.000000
_cell_angle_beta 85.179540
_cell_angle_gamma 90.000000
_cell_volume 3030.995376
_symmetry_space_group_name_H-M "C 2/C"
_symmetry_group_IT_number 15
_symmetry_cell_setting 'monoclinic'
loop_
_space_group_symop_operation_xyz
x,y,z
-x,y,1/2-z
-x,-y,-z
x,-y,1/2+z
1/2+x,1/2+y,z
1/2-x,1/2+y,1/2-z
1/2-x,1/2-y,-z
1/2+x,1/2-y,1/2+z
loop_
_atom_site_type_symbol
_atom_site_label
_atom_site_fract_x
_atom_site_fract_y
_atom_site_fract_z
Si Si1 0.020558 0.857653 0.918949
Si Si2 0.281505 0.564683 0.674421
Si Si3 0.209389 0.942250 0.094661
Si Si4 0.696721 0.099246 0.098491
Si Si5 0.015765 0.444775 0.452520
Si Si6 0.240168 0.129206 0.175070
Si Si7 0.037292 0.815574 0.823650
Si Si8 0.364628 0.069353 0.736437
O O1 0.159351 0.932572 0.923466
O O2 0.990795 0.729562 0.953235
O O3 0.025812 0.771142 0.873515
O O4 0.909816 0.978457 0.925051
O O5 0.188645 0.469853 0.646200
O O6 0.309399 0.725678 0.653925
O O7 0.413170 0.481259 0.677766
O O8 0.225789 0.601251 0.721866
O O9 0.175631 0.772507 0.099873
O O10 0.338722 0.974733 0.065548
O O11 0.226895 0.004372 0.140894
O O12 0.587733 0.026817 0.073460
O O13 0.000000 0.500000 0.500000
O O14 0.100232 0.183739 0.194676
O O15 0.314659 0.071051 0.213163
O O16 0.130003 0.707872 0.795486
O O17 0.500000 0.021365 0.750000
#
# Coordination Sequence:
#
# PCOD8146781 Si02
#       8
#     8   8   8   8   8   8   8   8
#     4   9  21  43  65  92 123 166 207 253 307 369
#     4  11  23  39  65  88 117 166 206 256 305 359
#     4  10  23  41  69  93 124 166 208 256 306 371
#     4  10  22  42  64  92 126 162 207 253 311 366
#     4  11  24  41  66  97 130 161 198 253 313 377
#     4  11  23  42  61  89 122 161 209 256 303 359
#     4  10  22  45  61  83 122 164 206 255 307 355
#     4  12  24  39  58  87 126 164 202 257 309 355
#
# _framework density 21.115176000000002
#
# number of rings (size 3 to 8) (size 9 to 14) (size 15 to 20)
#    0.000    1.500    1.250    4.500    1.750    6.500 
#    4.500    1.250    0.000    0.000    0.000    0.000 
#    0.000    0.000    0.000    0.000    0.000    0.000 
#
# Total GULP energy -396703.680734 kJ/mol
# GULP energy per Si atom -12396.990023 kJ/mol
# Density = 2.106712 g / cm^3
# Si number density = 21.115176 Si / 1000 Ang^3
#
#
#
# Elastic Constant Matrix: (Units=GPa)
#
#
# Indices 1 2 3 4 5 6 
#
# 1 88.6710 51.6449 21.5332 0.0000 3.3877 0.0000
# 2 51.6449 122.9162 25.2874 0.0000 5.7770 0.0000
# 3 21.5332 25.2874 58.6506 0.0000 -3.9122 0.0000
# 4 0.0000 0.0000 0.0000 55.4059 0.0000 5.8334
# 5 3.3877 5.7770 -3.9122 0.0000 21.1618 0.0000
# 6 0.0000 0.0000 0.0000 5.8334 0.0000 40.8271
#
#
#
# Elastic Compliance Matrix: (Units=1/GPa)
#
#
# Indices 1 2 3 4 5 6 
#
# 1 0.015492 -0.005757 -0.003307 0.000000 -0.001520 0.000000
# 2 -0.005757 0.011285 -0.002932 0.000000 -0.002701 0.000000
# 3 -0.003307 -0.002932 0.019862 0.000000 0.005002 0.000000
# 4 0.000000 0.000000 0.000000 0.018324 0.000000 -0.002618
# 5 -0.001520 -0.002701 0.005002 0.000000 0.049160 0.000000
# 6 0.000000 0.000000 0.000000 -0.002618 0.000000 0.024868
#
#
# Mechanical properties :
#
#
# Convention : Reuss Voigt Hill
#
# Bulk Modulus (GPa) = 44.15690 51.90765 48.03227
# Shear Modulus (GPa) = 29.32001 34.93045 32.12523
#
# Velocity S-wave (km/s) = 3.73040 4.07170 3.90478
# Velocity P-wave (km/s) = 6.28588 6.83677 6.56711
#
# Compressibility (1/GPa) = 0.02264652
#
# Stress axis : x y z
#
# Youngs Moduli (GPa) = 64.54899 88.61463 50.34768
#
# Poissons Ratio (x) = 0.51020 0.16649
# Poissons Ratio (y) = 0.37164 0.14761
# Poissons Ratio (z) = 0.21345 0.25980
#
# Static dielectric constant tensor:
#      x y z
#    x 3.958700 0.000000 0.060100 
#    y 0.000000 4.031540 0.000000 
#    z 0.060100 0.000000 3.711520 
# 
# 
# High freq. dielectric constant tensor:
#      x y z
#    x 1.833760 0.000000 0.010230 
#    y 0.000000 1.839580 0.000000 
#    z 0.010230 0.000000 1.808790 
# 
# From -- ./inp_files/310331.got.cif
#   From: 2010.06.25/outbox.cif.g09.slc.cpg/sg15_156_cif.got.tgz:310331.got - 2010.06.28 07:06:18.
