data_PCOD8146136
_publ_section_title
;
Structure prediction by ZEFSAII (Michael W. Deem and Ramdas Pophale) SiO2 
 PCOD8146136
Probable space group: C 2/C
;
_chemical_formula_sum "Si O2"
_cell_formula_units_Z 64
_cell_length_a 15.603617
_cell_length_b 15.573563
_cell_length_c 16.426713
_cell_angle_alpha 90.000000
_cell_angle_beta 135.652048
_cell_angle_gamma 90.000000
_cell_volume 2790.293072
_symmetry_space_group_name_H-M "C 2/C"
_symmetry_group_IT_number 15
_symmetry_cell_setting 'monoclinic'
loop_
_space_group_symop_operation_xyz
x,y,z
-x,y,1/2-z
-x,-y,-z
x,-y,1/2+z
1/2+x,1/2+y,z
1/2-x,1/2+y,1/2-z
1/2-x,1/2-y,-z
1/2+x,1/2-y,1/2+z
loop_
_atom_site_type_symbol
_atom_site_label
_atom_site_fract_x
_atom_site_fract_y
_atom_site_fract_z
Si Si1 0.136503 0.509013 0.682965
Si Si2 0.448456 0.379149 0.607540
Si Si3 0.684648 0.304261 0.834268
Si Si4 0.381358 0.070026 0.496074
Si Si5 0.625775 0.325075 0.287010
Si Si6 0.296957 0.537172 0.539396
Si Si7 0.136417 0.632405 0.307042
Si Si8 0.685784 0.646415 0.645514
O O1 0.141595 0.499965 0.589960
O O2 0.123482 0.413495 0.710992
O O3 0.253368 0.553601 0.802180
O O4 0.021198 0.573068 0.620528
O O5 0.594224 0.363134 0.717098
O O6 0.374657 0.310283 0.615090
O O7 0.421690 0.480593 0.610509
O O8 0.417068 0.359317 0.493230
O O9 0.824713 0.339290 0.929935
O O10 0.703746 0.210829 0.807197
O O11 0.303624 0.037200 0.519624
O O12 0.500000 0.330625 0.250000
O O13 0.704491 0.399872 0.382985
O O14 0.681619 0.230397 0.334743
O O15 0.616118 0.334566 0.182966
O O16 0.250520 0.590067 0.431074
O O17 0.000000 0.624073 0.250000
#
# Coordination Sequence:
#
# PCOD8146136 Si02
#       8
#     8   8   8   8   8   8   8   8
#     4  11  22  40  68 101 133 176 234 280 335 412
#     4  10  24  45  73 103 138 182 226 288 341 424
#     4  10  24  45  70 101 145 175 226 283 355 407
#     4  10  22  40  67  95 137 181 217 284 342 403
#     4  11  27  46  69  98 142 182 230 289 348 407
#     4  11  21  43  69  95 139 181 226 276 351 406
#     4  11  22  43  63  99 133 178 228 279 338 409
#     4  12  24  46  71 105 137 179 239 281 346 416
#
# _framework density 22.936657
#
# number of rings (size 3 to 8) (size 9 to 14) (size 15 to 20)
#    0.000    1.250    3.750    1.500    5.250    0.000 
#   13.500    1.250    0.000    0.000    0.000    0.000 
#    0.000    0.000    0.000    0.000    0.000    0.000 
#
# Total GULP energy -396450.495744 kJ/mol
# GULP energy per Si atom -12389.077992 kJ/mol
# Density = 2.288445 g / cm^3
# Si number density = 22.936657 Si / 1000 Ang^3
#
#
#
# Elastic Constant Matrix: (Units=GPa)
#
#
# Indices 1 2 3 4 5 6 
#
# 1 76.5977 28.4508 24.9855 0.0000 -21.1276 0.0000
# 2 28.4508 102.0753 12.9385 0.0000 -10.7729 0.0000
# 3 24.9855 12.9385 96.2650 0.0000 -27.3128 0.0000
# 4 0.0000 0.0000 0.0000 33.7921 0.0000 -2.6857
# 5 -21.1276 -10.7729 -27.3128 0.0000 31.7648 0.0000
# 6 0.0000 0.0000 0.0000 -2.6857 0.0000 23.1835
#
#
#
# Elastic Compliance Matrix: (Units=1/GPa)
#
#
# Indices 1 2 3 4 5 6 
#
# 1 0.017409 -0.003711 -0.001444 0.000000 0.009079 0.000000
# 2 -0.003711 0.010971 -0.000206 0.000000 0.001075 0.000000
# 3 -0.001444 -0.000206 0.013886 0.000000 0.010909 0.000000
# 4 0.000000 0.000000 0.000000 0.029868 0.000000 0.003460
# 5 0.009079 0.001075 0.010909 0.000000 0.047265 0.000000
# 6 0.000000 0.000000 0.000000 0.003460 0.000000 0.043535
#
#
# Mechanical properties :
#
#
# Convention : Reuss Voigt Hill
#
# Bulk Modulus (GPa) = 31.70280 45.29864 38.50072
# Shear Modulus (GPa) = 27.14896 31.65230 29.40063
#
# Velocity S-wave (km/s) = 3.44415 3.71885 3.58413
# Velocity P-wave (km/s) = 5.44685 6.18321 5.82667
#
# Compressibility (1/GPa) = 0.03154296
#
# Stress axis : x y z
#
# Youngs Moduli (GPa) = 57.44229 91.15234 72.01667
#
# Poissons Ratio (x) = 0.33827 0.10397
# Poissons Ratio (y) = 0.21317 0.01486
# Poissons Ratio (z) = 0.08293 0.01881
#
# Static dielectric constant tensor:
#      x y z
#    x 4.034270 0.000000 -0.042300 
#    y 0.000000 4.275250 0.000000 
#    z -0.042300 0.000000 4.022010 
# 
# 
# High freq. dielectric constant tensor:
#      x y z
#    x 1.896150 0.000000 -0.008520 
#    y 0.000000 1.907260 0.000000 
#    z -0.008520 0.000000 1.904310 
# 
# From -- ./inp_files/211404.got.cif
#   From: 2010.06.25/outbox.cif.g09.slc.cpg/sg15_106_cif.got.tgz:211404.got - 2010.06.28 07:06:18.
