data_PCOD8146895
_publ_section_title
;
Structure prediction by ZEFSAII (Michael W. Deem and Ramdas Pophale) SiO2 
 PCOD8146895
Probable space group: C 2/C
;
_chemical_formula_sum "Si O2"
_cell_formula_units_Z 60
_cell_length_a 12.348805
_cell_length_b 17.987763
_cell_length_c 14.180197
_cell_angle_alpha 90.000000
_cell_angle_beta 66.393491
_cell_angle_gamma 90.000000
_cell_volume 2886.225191
_symmetry_space_group_name_H-M "C 2/C"
_symmetry_group_IT_number 15
_symmetry_cell_setting 'monoclinic'
loop_
_space_group_symop_operation_xyz
x,y,z
-x,y,1/2-z
-x,-y,-z
x,-y,1/2+z
1/2+x,1/2+y,z
1/2-x,1/2+y,1/2-z
1/2-x,1/2-y,-z
1/2+x,1/2-y,1/2+z
loop_
_atom_site_type_symbol
_atom_site_label
_atom_site_fract_x
_atom_site_fract_y
_atom_site_fract_z
Si Si1 0.462291 0.436687 0.121939
Si Si2 0.742280 0.564647 0.953801
Si Si3 0.721530 0.341392 0.646648
Si Si4 0.636530 0.815809 0.201251
Si Si5 0.220191 0.099426 0.491605
Si Si6 0.302136 0.666435 0.807268
Si Si7 0.368757 0.828981 0.776999
Si Si8 0.500000 0.436219 0.750000
O O1 0.381702 0.446850 0.057919
O O2 0.577280 0.394919 0.042159
O O3 0.390909 0.392999 0.228421
O O4 0.508943 0.513654 0.152174
O O5 0.836214 0.603741 0.852577
O O6 0.746213 0.618561 0.040807
O O7 0.778694 0.482590 0.972926
O O8 0.698009 0.254943 0.629337
O O9 0.829652 0.348188 0.683441
O O10 0.610370 0.383074 0.730751
O O11 0.500000 0.800592 0.250000
O O12 0.684580 0.816860 0.290022
O O13 0.256700 0.138604 0.575685
O O14 0.271250 0.139777 0.382654
O O15 0.376836 0.741250 0.792901
O O16 0.500000 0.862364 0.750000
#
# Coordination Sequence:
#
# PCOD8146895 Si02
#       8
#     8   8   8   8   8   8   8   4
#     4  11  21  38  65 100 129 158 207 282 322 372
#     4  11  24  38  63  95 132 165 211 263 327 377
#     4  11  23  41  65  93 126 171 211 269 320 374
#     4  10  23  42  63  91 129 169 215 254 318 389
#     4  12  22  38  64  92 121 167 214 258 325 369
#     4  10  22  42  66  94 125 166 213 270 324 371
#     4  11  26  43  61  91 132 172 219 260 310 388
#     4  12  20  38  72  98 132 152 216 276 328 362
#
# _framework density 20.788399999999999
#
# number of rings (size 3 to 8) (size 9 to 14) (size 15 to 20)
#    0.000    1.067    3.333    2.800    1.867    2.667 
#    0.000    1.333    0.000    0.000    0.000    0.000 
#    0.000    0.000    0.000    0.000    0.000    0.000 
#
# Total GULP energy -371886.781233 kJ/mol
# GULP energy per Si atom -12396.226041 kJ/mol
# Density = 2.074108 g / cm^3
# Si number density = 20.788400 Si / 1000 Ang^3
#
#
#
# Elastic Constant Matrix: (Units=GPa)
#
#
# Indices 1 2 3 4 5 6 
#
# 1 108.1933 28.4052 25.8746 0.0000 6.5115 0.0000
# 2 28.4052 85.2312 19.6100 0.0000 22.4689 0.0000
# 3 25.8746 19.6100 84.9925 0.0000 15.8573 0.0000
# 4 0.0000 0.0000 0.0000 36.5720 0.0000 4.1858
# 5 6.5115 22.4689 15.8573 0.0000 27.9347 0.0000
# 6 0.0000 0.0000 0.0000 4.1858 0.0000 23.4597
#
#
#
# Elastic Compliance Matrix: (Units=1/GPa)
#
#
# Indices 1 2 3 4 5 6 
#
# 1 0.010699 -0.003403 -0.002815 0.000000 0.001842 0.000000
# 2 -0.003403 0.016111 -0.000460 0.000000 -0.011904 0.000000
# 3 -0.002815 -0.000460 0.014023 0.000000 -0.006934 0.000000
# 4 0.000000 0.000000 0.000000 0.027913 0.000000 -0.004980
# 5 0.001842 -0.011904 -0.006934 0.000000 0.048879 0.000000
# 6 0.000000 0.000000 0.000000 -0.004980 0.000000 0.043515
#
#
# Mechanical properties :
#
#
# Convention : Reuss Voigt Hill
#
# Bulk Modulus (GPa) = 36.39722 47.35519 41.87621
# Shear Modulus (GPa) = 27.22475 31.22841 29.22658
#
# Velocity S-wave (km/s) = 3.62278 3.88003 3.75361
# Velocity P-wave (km/s) = 5.91995 6.54996 6.24291
#
# Compressibility (1/GPa) = 0.02747462
#
# Stress axis : x y z
#
# Youngs Moduli (GPa) = 93.46930 62.06882 71.31319
#
# Poissons Ratio (x) = 0.21124 0.20078
# Poissons Ratio (y) = 0.31811 0.03282
# Poissons Ratio (z) = 0.26316 0.02856
#
# Static dielectric constant tensor:
#      x y z
#    x 3.695560 0.000000 0.192160 
#    y 0.000000 4.113180 0.000000 
#    z 0.192160 0.000000 3.740480 
# 
# 
# High freq. dielectric constant tensor:
#      x y z
#    x 1.808080 0.000000 0.015890 
#    y 0.000000 1.823660 0.000000 
#    z 0.015890 0.000000 1.815430 
# 
# From -- ./inp_files/146035.got.cif
#   From: 2010.06.25/outbox.cif.g09.slc.cpg/sg15_74_cif.got.tgz:146035.got - 2010.06.28 07:06:18.
