data_PCOD8146678
_publ_section_title
;
Structure prediction by ZEFSAII (Michael W. Deem and Ramdas Pophale) SiO2 
 PCOD8146678
Probable space group: C 2/C
;
_chemical_formula_sum "Si O2"
_cell_formula_units_Z 56
_cell_length_a 8.869107
_cell_length_b 10.451409
_cell_length_c 34.950606
_cell_angle_alpha 90.000000
_cell_angle_beta 59.121312
_cell_angle_gamma 90.000000
_cell_volume 2780.521313
_symmetry_space_group_name_H-M "C 2/C"
_symmetry_group_IT_number 15
_symmetry_cell_setting 'monoclinic'
loop_
_space_group_symop_operation_xyz
x,y,z
-x,y,1/2-z
-x,-y,-z
x,-y,1/2+z
1/2+x,1/2+y,z
1/2-x,1/2+y,1/2-z
1/2-x,1/2-y,-z
1/2+x,1/2-y,1/2+z
loop_
_atom_site_type_symbol
_atom_site_label
_atom_site_fract_x
_atom_site_fract_y
_atom_site_fract_z
Si Si1 0.611060 0.757947 0.099586
Si Si2 0.500000 0.246063 0.750000
Si Si3 0.028373 0.234816 0.902345
Si Si4 0.441834 0.000671 0.946113
Si Si5 0.124142 0.142095 0.309822
Si Si6 0.500000 0.243707 0.250000
Si Si7 0.877032 0.856027 0.189402
Si Si8 0.784909 0.002695 0.451017
O O1 0.784031 0.770758 0.102226
O O2 0.444696 0.740045 0.149218
O O3 0.622303 0.638407 0.069123
O O4 0.581305 0.888189 0.081309
O O5 0.478682 0.336769 0.716267
O O6 0.330637 0.156550 0.776689
O O7 0.928199 0.364717 0.926513
O O8 0.053550 0.236485 0.853182
O O9 0.919548 0.113488 0.930796
O O10 0.628975 0.021298 0.941516
O O11 0.284841 0.007881 0.996778
O O12 0.331423 0.154278 0.276632
O O13 0.081003 0.999565 0.329564
O O14 0.481186 0.330726 0.214937
#
# Coordination Sequence:
#
# PCOD8146678 Si02
#       8
#     8   4   8   8   8   4   8   8
#     4  11  23  39  64  94 124 163 204 254 308 367
#     4  10  22  42  60  86 122 158 196 260 302 362
#     4  11  23  39  64  93 127 162 203 255 308 365
#     4  10  24  41  64  94 124 164 207 255 309 372
#     4  11  22  41  61  89 121 157 204 248 306 362
#     4  10  26  38  62  92 114 164 206 248 304 362
#     4  11  22  42  62  90 123 160 203 252 306 364
#     4  10  22  44  64  89 127 164 208 255 309 366
#
# _framework density 20.140108999999999
#
# number of rings (size 3 to 8) (size 9 to 14) (size 15 to 20)
#    0.000    1.429    2.857    1.714    2.000    2.857 
#   10.286    0.000    0.000    0.000    0.000    0.000 
#    0.000    0.000    0.000    0.000    0.000    0.000 
#
# Total GULP energy -347335.210119 kJ/mol
# GULP energy per Si atom -12404.828933 kJ/mol
# Density = 2.009427 g / cm^3
# Si number density = 20.140109 Si / 1000 Ang^3
#
#
#
# Elastic Constant Matrix: (Units=GPa)
#
#
# Indices 1 2 3 4 5 6 
#
# 1 63.6961 31.8123 30.9831 0.0000 13.9546 0.0000
# 2 31.8123 128.7632 50.0971 0.0000 14.1640 0.0000
# 3 30.9831 50.0971 132.6171 0.0000 16.8641 0.0000
# 4 0.0000 0.0000 0.0000 38.8061 0.0000 5.6222
# 5 13.9546 14.1640 16.8641 0.0000 28.0397 0.0000
# 6 0.0000 0.0000 0.0000 5.6222 0.0000 3.0444
#
#
#
# Elastic Compliance Matrix: (Units=1/GPa)
#
#
# Indices 1 2 3 4 5 6 
#
# 1 0.020054 -0.003189 -0.002616 0.000000 -0.006796 0.000000
# 2 -0.003189 0.009810 -0.002742 0.000000 -0.001719 0.000000
# 3 -0.002616 -0.002742 0.009578 0.000000 -0.003074 0.000000
# 4 0.000000 0.000000 0.000000 0.035182 0.000000 -0.064971
# 5 -0.006796 -0.001719 -0.003074 0.000000 0.041763 0.000000
# 6 0.000000 0.000000 0.000000 -0.064971 0.000000 0.448454
#
#
# Mechanical properties :
#
#
# Convention : Reuss Voigt Hill
#
# Bulk Modulus (GPa) = 44.74814 61.20681 52.97748
# Shear Modulus (GPa) = 8.48341 28.12365 18.30353
#
# Velocity S-wave (km/s) = 2.05459 3.74090 3.01792
# Velocity P-wave (km/s) = 5.28158 7.00825 6.20527
#
# Compressibility (1/GPa) = 0.02234730
#
# Stress axis : x y z
#
# Youngs Moduli (GPa) = 49.86610 101.93621 104.40097
#
# Poissons Ratio (x) = 0.32508 0.27314
# Poissons Ratio (y) = 0.15903 0.28628
# Poissons Ratio (z) = 0.13046 0.27952
#
# Static dielectric constant tensor:
#      x y z
#    x 3.677960 0.000000 -0.032710 
#    y 0.000000 3.571860 0.000000 
#    z -0.032710 0.000000 3.838910 
# 
# 
# High freq. dielectric constant tensor:
#      x y z
#    x 1.785970 0.000000 -0.002590 
#    y 0.000000 1.788420 0.000000 
#    z -0.002590 0.000000 1.804400 
# 
# From -- ./inp_files/307110.got.cif
#   From: 2010.06.25/outbox.cif.g09.slc.cpg/sg15_154_cif.got.tgz:307110.got - 2010.06.28 07:06:18.
