data_PCOD8146130
_publ_section_title
;
Structure prediction by ZEFSAII (Michael W. Deem and Ramdas Pophale) SiO2 
 PCOD8146130
Probable space group: C 2/C
;
_chemical_formula_sum "Si O2"
_cell_formula_units_Z 48
_cell_length_a 23.704603
_cell_length_b 5.061058
_cell_length_c 19.129806
_cell_angle_alpha 90.000000
_cell_angle_beta 107.779631
_cell_angle_gamma 90.000000
_cell_volume 2185.395674
_symmetry_space_group_name_H-M "C 2/C"
_symmetry_group_IT_number 15
_symmetry_cell_setting 'monoclinic'
loop_
_space_group_symop_operation_xyz
x,y,z
-x,y,1/2-z
-x,-y,-z
x,-y,1/2+z
1/2+x,1/2+y,z
1/2-x,1/2+y,1/2-z
1/2-x,1/2-y,-z
1/2+x,1/2-y,1/2+z
loop_
_atom_site_type_symbol
_atom_site_label
_atom_site_fract_x
_atom_site_fract_y
_atom_site_fract_z
Si Si1 0.397350 0.878536 0.370367
Si Si2 0.124552 0.794997 0.912794
Si Si3 0.829336 0.299305 0.628257
Si Si4 0.235845 0.644132 0.702841
Si Si5 0.066088 0.554780 0.767042
Si Si6 0.435500 0.620056 0.964381
O O1 0.424541 0.813025 0.304916
O O2 0.436257 0.119374 0.416295
O O3 0.328938 0.964205 0.340443
O O4 0.397405 0.612968 0.415993
O O5 0.172929 0.560024 0.921500
O O6 0.076009 0.773818 0.831806
O O7 0.160678 0.063734 0.921745
O O8 0.091626 0.779835 0.973531
O O9 0.769024 0.257281 0.647589
O O10 0.884788 0.323020 0.703804
O O11 0.270665 0.387138 0.745009
O O12 0.000000 0.437919 0.750000
O O13 0.500000 0.500000 0.000000
#
# Coordination Sequence:
#
# PCOD8146130 Si02
#       6
#     8   8   8   8   8   8
#     4  12  26  42  71 108 127 190 238 282 353 422
#     4  10  23  43  64  94 136 185 219 278 363 400
#     4  10  22  40  67  93 134 178 222 281 356 392
#     4  12  22  43  69 103 148 175 233 303 350 411
#     4  10  23  40  68 100 133 168 242 282 347 411
#     4  12  27  46  67  97 148 182 230 286 358 425
#
# _framework density 21.963985000000001
#
# number of rings (size 3 to 8) (size 9 to 14) (size 15 to 20)
#    1.000    0.000    1.667    5.500    4.667    0.667 
#    0.000    5.000    0.000    0.000    0.000    0.000 
#    0.000    0.000    0.000    0.000    0.000    0.000 
#
# Total GULP energy -297539.309183 kJ/mol
# GULP energy per Si atom -12397.471216 kJ/mol
# Density = 2.191399 g / cm^3
# Si number density = 21.963985 Si / 1000 Ang^3
#
#
#
# Elastic Constant Matrix: (Units=GPa)
#
#
# Indices 1 2 3 4 5 6 
#
# 1 108.8847 -4.5784 26.9041 0.0000 -8.8386 -0.0001
# 2 -4.5784 117.6848 29.3342 0.0001 -8.3109 -0.0001
# 3 26.9041 29.3342 93.4845 0.0001 -19.0476 0.0000
# 4 0.0000 0.0001 0.0001 25.7391 0.0000 -1.1387
# 5 -8.8386 -8.3109 -19.0476 0.0000 31.0305 0.0000
# 6 -0.0001 -0.0001 0.0000 -1.1387 0.0000 35.8673
#
#
#
# Elastic Compliance Matrix: (Units=1/GPa)
#
#
# Indices 1 2 3 4 5 6 
#
# 1 0.010092 0.001240 -0.003018 0.000000 0.001354 0.000000
# 2 0.001240 0.009388 -0.003107 0.000000 0.000960 0.000000
# 3 -0.003018 -0.003107 0.013939 0.000000 0.006865 0.000000
# 4 0.000000 0.000000 0.000000 0.038906 0.000000 0.001235
# 5 0.001354 0.000960 0.006865 0.000000 0.037083 0.000000
# 6 0.000000 0.000000 0.000000 0.001235 0.000000 0.027920
#
#
# Mechanical properties :
#
#
# Convention : Reuss Voigt Hill
#
# Bulk Modulus (GPa) = 42.28312 47.04153 44.66232
# Shear Modulus (GPa) = 32.26240 36.42033 34.34137
#
# Velocity S-wave (km/s) = 3.83675 4.07650 3.95844
# Velocity P-wave (km/s) = 6.23863 6.60463 6.42424
#
# Compressibility (1/GPa) = 0.02365010
#
# Stress axis : x y z
#
# Youngs Moduli (GPa) = 99.09100 106.52090 71.74113
#
# Poissons Ratio (x) = -0.13213 0.21649
# Poissons Ratio (y) = -0.12291 0.22290
# Poissons Ratio (z) = 0.29902 0.33097
#
# Static dielectric constant tensor:
#      x y z
#    x 3.903230 0.000000 -0.081460 
#    y 0.000000 3.944090 0.000000 
#    z -0.081460 0.000000 3.907440 
# 
# 
# High freq. dielectric constant tensor:
#      x y z
#    x 1.863510 0.000000 -0.013050 
#    y 0.000000 1.866640 0.000000 
#    z -0.013050 0.000000 1.853910 
# 
# From -- ./inp_files/220995.got.cif
#   From: 2010.06.25/outbox.cif.g09.slc.cpg/sg15_111_cif.got.tgz:220995.got - 2010.06.28 07:06:18.
