data_PCOD8146281
_publ_section_title
;
Structure prediction by ZEFSAII (Michael W. Deem and Ramdas Pophale) SiO2 
 PCOD8146281
Probable space group: C 2/C
;
_chemical_formula_sum "Si O2"
_cell_formula_units_Z 40
_cell_length_a 10.177882
_cell_length_b 16.607250
_cell_length_c 13.290911
_cell_angle_alpha 90.000000
_cell_angle_beta 42.691076
_cell_angle_gamma 90.000000
_cell_volume 1523.240675
_symmetry_space_group_name_H-M "C 2/C"
_symmetry_group_IT_number 15
_symmetry_cell_setting 'monoclinic'
loop_
_space_group_symop_operation_xyz
x,y,z
-x,y,1/2-z
-x,-y,-z
x,-y,1/2+z
1/2+x,1/2+y,z
1/2-x,1/2+y,1/2-z
1/2-x,1/2-y,-z
1/2+x,1/2-y,1/2+z
loop_
_atom_site_type_symbol
_atom_site_label
_atom_site_fract_x
_atom_site_fract_y
_atom_site_fract_z
Si Si1 0.262505 0.213802 0.844137
Si Si2 0.367690 0.090902 0.531935
Si Si3 0.000000 0.382971 0.750000
Si Si4 0.210504 0.621906 0.482725
Si Si5 0.158509 0.763224 0.911813
Si Si6 0.500000 0.495620 0.750000
O O1 0.283484 0.302534 0.877585
O O2 0.378510 0.214670 0.673820
O O3 0.355471 0.149105 0.868615
O O4 0.038201 0.190465 0.949391
O O5 0.429137 0.060877 0.383865
O O6 0.542418 0.075954 0.512966
O O7 0.313964 0.185092 0.532036
O O8 0.176290 0.051742 0.689798
O O9 0.830943 0.325264 0.802988
O O10 0.395420 0.561590 0.391577
#
# Coordination Sequence:
#
# PCOD8146281 Si02
#       6
#     8   8   4   8   8   4
#     4  10  22  40  77 101 129 176 232 300 358 383
#     4  11  26  42  68 101 143 192 231 277 350 417
#     4  12  23  44  64 101 150 182 230 290 338 415
#     4  10  22  45  68 103 137 172 234 296 340 408
#     4  11  21  41  69 104 139 174 233 297 348 400
#     4  12  25  46  72  97 148 190 234 274 346 429
#
# _framework density 26.259803000000002
#
# number of rings (size 3 to 8) (size 9 to 14) (size 15 to 20)
#    0.000    1.200    4.000    3.000    2.800    6.400 
#    0.000    8.000    0.000    0.000    0.000    0.000 
#    0.000    0.000    0.000    0.000    0.000    0.000 
#
# Total GULP energy -247829.685417 kJ/mol
# GULP energy per Si atom -12391.484271 kJ/mol
# Density = 2.620003 g / cm^3
# Si number density = 26.259803 Si / 1000 Ang^3
#
#
#
# Elastic Constant Matrix: (Units=GPa)
#
#
# Indices 1 2 3 4 5 6 
#
# 1 104.9305 31.9226 47.5373 0.0013 -18.3282 -0.0003
# 2 31.9226 48.8645 25.1502 -0.0007 -12.8393 -0.0003
# 3 47.5373 25.1502 122.8008 -0.0033 -8.4099 -0.0003
# 4 0.0013 -0.0007 -0.0033 23.6386 -0.0002 -3.0188
# 5 -18.3282 -12.8393 -8.4099 -0.0002 53.8422 0.0012
# 6 -0.0003 -0.0003 -0.0003 -3.0188 0.0012 32.6072
#
#
#
# Elastic Compliance Matrix: (Units=1/GPa)
#
#
# Indices 1 2 3 4 5 6 
#
# 1 0.013605 -0.006258 -0.003811 -0.000001 0.002544 0.000000
# 2 -0.006258 0.027037 -0.002850 0.000001 0.003872 0.000000
# 3 -0.003811 -0.002850 0.010175 0.000002 -0.000387 0.000000
# 4 -0.000001 0.000001 0.000002 0.042810 0.000000 0.003963
# 5 0.002544 0.003872 -0.000387 0.000000 0.020301 -0.000001
# 6 0.000000 0.000000 0.000000 0.003963 -0.000001 0.031035
#
#
# Mechanical properties :
#
#
# Convention : Reuss Voigt Hill
#
# Bulk Modulus (GPa) = 40.03103 53.97955 47.00529
# Shear Modulus (GPa) = 27.91317 33.48332 30.69825
#
# Velocity S-wave (km/s) = 3.26385 3.57470 3.42280
# Velocity P-wave (km/s) = 5.42963 6.13503 5.79308
#
# Compressibility (1/GPa) = 0.02498062
#
# Stress axis : x y z
#
# Youngs Moduli (GPa) = 73.50441 36.98617 98.27552
#
# Poissons Ratio (x) = 0.23146 0.37449
# Poissons Ratio (y) = 0.46000 0.28004
# Poissons Ratio (z) = 0.28010 0.10540
#
# Static dielectric constant tensor:
#      x y z
#    x 4.739510 0.000000 -0.084280 
#    y 0.000000 4.713450 0.000000 
#    z -0.084280 0.000000 4.827910 
# 
# 
# High freq. dielectric constant tensor:
#      x y z
#    x 2.042710 0.000000 -0.017340 
#    y 0.000000 2.039660 0.000000 
#    z -0.017340 0.000000 2.071960 
# 
# From -- ./inp_files/145406.got.cif
#   From: 2010.06.25/outbox.cif.g09.slc.cpg/sg15_73_cif.got.tgz:145406.got - 2010.06.28 07:06:18.
