data_PCOD8146741
_publ_section_title
;
Structure prediction by ZEFSAII (Michael W. Deem and Ramdas Pophale) SiO2 
 PCOD8146741
Probable space group: C 2/C
;
_chemical_formula_sum "Si O2"
_cell_formula_units_Z 44
_cell_length_a 26.144677
_cell_length_b 13.153417
_cell_length_c 11.285456
_cell_angle_alpha 90.000000
_cell_angle_beta 145.618566
_cell_angle_gamma 90.000000
_cell_volume 2191.585740
_symmetry_space_group_name_H-M "C 2/C"
_symmetry_group_IT_number 15
_symmetry_cell_setting 'monoclinic'
loop_
_space_group_symop_operation_xyz
x,y,z
-x,y,1/2-z
-x,-y,-z
x,-y,1/2+z
1/2+x,1/2+y,z
1/2-x,1/2+y,1/2-z
1/2-x,1/2-y,-z
1/2+x,1/2-y,1/2+z
loop_
_atom_site_type_symbol
_atom_site_label
_atom_site_fract_x
_atom_site_fract_y
_atom_site_fract_z
Si Si1 0.096682 0.654791 0.890556
Si Si2 0.426155 0.082716 0.899322
Si Si3 0.000000 0.282103 0.750000
Si Si4 0.769250 0.499677 0.740489
Si Si5 0.154832 0.161666 0.916056
Si Si6 0.187159 0.187362 0.718496
O O1 0.091337 0.664553 0.738245
O O2 0.000000 0.612632 0.750000
O O3 0.174400 0.573296 0.065534
O O4 0.117354 0.763706 0.990495
O O5 0.331962 0.026901 0.748011
O O6 0.454939 0.144412 0.069197
O O7 0.500000 0.000000 0.000000
O O8 0.929701 0.208785 0.679041
O O9 0.677572 0.448681 0.514561
O O10 0.741581 0.596624 0.763467
O O11 0.133821 0.151794 0.735080
O O12 0.243751 0.227302 0.107967
#
# Coordination Sequence:
#
# PCOD8146741 Si02
#       6
#     8   8   4   8   8   8
#     4  11  22  38  63  93 124 163 209 260 317 373
#     4  12  23  37  66  98 125 160 217 273 309 373
#     4  12  24  44  64  94 128 172 212 260 320 376
#     4  11  22  41  63  95 126 167 212 258 324 372
#     4  10  23  41  65  90 131 167 211 259 318 378
#     4  10  22  42  63  92 127 169 206 264 317 375
#
# _framework density 20.076786999999999
#
# number of rings (size 3 to 8) (size 9 to 14) (size 15 to 20)
#    0.000    1.091    3.636    3.273    5.091    0.727 
#    4.909    0.909    0.000    0.000    0.000    0.000 
#    0.000    0.000    0.000    0.000    0.000    0.000 
#
# Total GULP energy -272822.836164 kJ/mol
# GULP energy per Si atom -12401.038007 kJ/mol
# Density = 2.003109 g / cm^3
# Si number density = 20.076787 Si / 1000 Ang^3
#
#
#
# Elastic Constant Matrix: (Units=GPa)
#
#
# Indices 1 2 3 4 5 6 
#
# 1 132.8264 38.6036 31.3806 0.0000 -9.5507 0.0000
# 2 38.6036 70.2419 35.8855 0.0000 -10.5974 0.0000
# 3 31.3806 35.8855 64.0492 0.0000 -14.2681 0.0000
# 4 0.0000 0.0000 0.0000 13.9721 0.0000 5.8252
# 5 -9.5507 -10.5974 -14.2681 0.0000 39.6741 0.0000
# 6 0.0000 0.0000 0.0000 5.8252 0.0000 29.2317
#
#
#
# Elastic Compliance Matrix: (Units=1/GPa)
#
#
# Indices 1 2 3 4 5 6 
#
# 1 0.009210 -0.003842 -0.002277 0.000000 0.000372 0.000000
# 2 -0.003842 0.021623 -0.009949 0.000000 0.001273 0.000000
# 3 -0.002277 -0.009949 0.023469 0.000000 0.005235 0.000000
# 4 0.000000 0.000000 0.000000 0.078056 0.000000 -0.015555
# 5 0.000372 0.001273 0.005235 0.000000 0.027517 0.000000
# 6 0.000000 0.000000 0.000000 -0.015555 0.000000 0.037309
#
#
# Mechanical properties :
#
#
# Convention : Reuss Voigt Hill
#
# Bulk Modulus (GPa) = 45.11448 53.20630 49.16039
# Shear Modulus (GPa) = 21.12304 27.32544 24.22424
#
# Velocity S-wave (km/s) = 3.24715 3.69324 3.47735
# Velocity P-wave (km/s) = 6.04801 6.68922 6.37668
#
# Compressibility (1/GPa) = 0.02216583
#
# Stress axis : x y z
#
# Youngs Moduli (GPa) = 108.57800 46.24718 42.61001
#
# Poissons Ratio (x) = 0.17770 0.09701
# Poissons Ratio (y) = 0.41720 0.42392
# Poissons Ratio (z) = 0.24720 0.46010
#
# Static dielectric constant tensor:
#      x y z
#    x 3.772720 0.000000 -0.183010 
#    y 0.000000 -4.034030 0.000000 
#    z -0.183010 0.000000 3.701720 
# 
# 
# High freq. dielectric constant tensor:
#      x y z
#    x 1.798360 0.000000 -0.012100 
#    y 0.000000 1.771610 0.000000 
#    z -0.012100 0.000000 1.777190 
# 
# From -- ./inp_files/94995.got.cif
#   From: 2010.06.25/outbox.cif.g09.slc.cpg/sg15_48_cif.got.tgz:94995.got - 2010.06.28 07:06:18.
