data_PCOD8146334
_publ_section_title
;
Structure prediction by ZEFSAII (Michael W. Deem and Ramdas Pophale) SiO2 
 PCOD8146334
Probable space group: C 2/C
;
_chemical_formula_sum "Si O2"
_cell_formula_units_Z 56
_cell_length_a 8.023268
_cell_length_b 14.322992
_cell_length_c 30.050074
_cell_angle_alpha 90.000000
_cell_angle_beta 127.324340
_cell_angle_gamma 90.000000
_cell_volume 2746.095848
_symmetry_space_group_name_H-M "C 2/C"
_symmetry_group_IT_number 15
_symmetry_cell_setting 'monoclinic'
loop_
_space_group_symop_operation_xyz
x,y,z
-x,y,1/2-z
-x,-y,-z
x,-y,1/2+z
1/2+x,1/2+y,z
1/2-x,1/2+y,1/2-z
1/2-x,1/2-y,-z
1/2+x,1/2-y,1/2+z
loop_
_atom_site_type_symbol
_atom_site_label
_atom_site_fract_x
_atom_site_fract_y
_atom_site_fract_z
Si Si1 0.130688 0.084000 0.626946
Si Si2 0.375122 0.165593 0.123393
Si Si3 0.331582 0.720078 0.184333
Si Si4 0.767242 0.006481 0.945214
Si Si5 0.763249 0.316486 0.461137
Si Si6 0.295636 0.145336 0.491427
Si Si7 0.543782 0.390577 0.636426
O O1 0.255532 0.173407 0.665235
O O2 0.274118 0.041965 0.611574
O O3 0.914462 0.105156 0.565702
O O4 0.082799 0.000856 0.655658
O O5 0.627964 0.164222 0.168414
O O6 0.281102 0.264774 0.092941
O O7 0.268518 0.147078 0.154482
O O8 0.326777 0.097353 0.073470
O O9 0.500000 0.718660 0.250000
O O10 0.440161 0.671634 0.158618
O O11 0.650613 0.077879 0.958686
O O12 0.000000 0.000000 0.000000
O O13 0.750000 0.250000 0.500000
O O14 0.992304 0.360408 0.502229
O O15 0.250000 0.250000 0.500000
O O16 0.104491 0.109143 0.430935
#
# Coordination Sequence:
#
# PCOD8146334 Si02
#       7
#     8   8   8   8   8   8   8
#     4  10  23  41  61  97 129 168 222 274 322 410
#     4  10  22  41  62  95 128 171 220 271 321 408
#     4  11  26  49  69  89 129 172 231 299 352 377
#     4  11  19  36  61  95 136 169 206 252 327 413
#     4  11  21  33  56  89 136 171 210 252 312 394
#     4  12  20  32  60  93 134 178 204 245 330 403
#     4  11  23  42  68  97 132 171 224 268 333 407
#
# _framework density 20.392586999999999
#
# number of rings (size 3 to 8) (size 9 to 14) (size 15 to 20)
#    0.000    1.143    4.286    4.286    2.000    1.143 
#    5.143    0.000    0.000    0.000    0.000    0.000 
#    0.000    0.000    0.000    0.000    0.000    0.000 
#
# Total GULP energy -346890.954772 kJ/mol
# GULP energy per Si atom -12388.962670 kJ/mol
# Density = 2.034617 g / cm^3
# Si number density = 20.392587 Si / 1000 Ang^3
#
#
#
# Elastic Constant Matrix: (Units=GPa)
#
#
# Indices 1 2 3 4 5 6 
#
# 1 132.0041 42.7232 35.5554 0.0000 9.4184 0.0000
# 2 42.7232 114.5258 29.0206 0.0000 0.6138 0.0000
# 3 35.5554 29.0206 81.4370 0.0000 15.5328 0.0000
# 4 0.0000 0.0000 0.0000 20.7868 0.0000 0.7813
# 5 9.4184 0.6138 15.5328 0.0000 26.9002 0.0000
# 6 0.0000 0.0000 0.0000 0.7813 0.0000 30.2117
#
#
#
# Elastic Compliance Matrix: (Units=1/GPa)
#
#
# Indices 1 2 3 4 5 6 
#
# 1 0.009336 -0.002768 -0.002785 0.000000 -0.001597 0.000000
# 2 -0.002768 0.010513 -0.003008 0.000000 0.002466 0.000000
# 3 -0.002785 -0.003008 0.016146 0.000000 -0.008280 0.000000
# 4 0.000000 0.000000 0.000000 0.048154 0.000000 -0.001245
# 5 -0.001597 0.002466 -0.008280 0.000000 0.042458 0.000000
# 6 0.000000 0.000000 0.000000 -0.001245 0.000000 0.033132
#
#
# Mechanical properties :
#
#
# Convention : Reuss Voigt Hill
#
# Bulk Modulus (GPa) = 52.98637 60.28503 56.63570
# Shear Modulus (GPa) = 27.29947 30.29091 28.79519
#
# Velocity S-wave (km/s) = 3.66279 3.85825 3.76179
# Velocity P-wave (km/s) = 6.62779 7.03382 6.83382
#
# Compressibility (1/GPa) = 0.01887278
#
# Stress axis : x y z
#
# Youngs Moduli (GPa) = 107.11744 95.11616 61.93302
#
# Poissons Ratio (x) = 0.26332 0.17246
# Poissons Ratio (y) = 0.29654 0.18631
# Poissons Ratio (z) = 0.29829 0.28614
#
# Static dielectric constant tensor:
#      x y z
#    x 3.980340 0.000000 0.026250 
#    y 0.000000 5.214110 0.000000 
#    z 0.026250 0.000000 3.386910 
# 
# 
# High freq. dielectric constant tensor:
#      x y z
#    x 1.804030 0.000000 0.005430 
#    y 0.000000 1.816790 0.000000 
#    z 0.005430 0.000000 1.756930 
# 
# From -- ./inp_files/308055.got.cif
#   From: 2010.06.25/outbox.cif.g09.slc.cpg/sg15_155_cif.got.tgz:308055.got - 2010.06.28 07:06:18.
