data_PCOD8146832
_publ_section_title
;
Structure prediction by ZEFSAII (Michael W. Deem and Ramdas Pophale) SiO2 
 PCOD8146832
Probable space group: C 2/C
;
_chemical_formula_sum "Si O2"
_cell_formula_units_Z 60
_cell_length_a 14.575624
_cell_length_b 21.337273
_cell_length_c 9.594182
_cell_angle_alpha 90.000000
_cell_angle_beta 118.428038
_cell_angle_gamma 90.000000
_cell_volume 2624.026682
_symmetry_space_group_name_H-M "C 2/C"
_symmetry_group_IT_number 15
_symmetry_cell_setting 'monoclinic'
loop_
_space_group_symop_operation_xyz
x,y,z
-x,y,1/2-z
-x,-y,-z
x,-y,1/2+z
1/2+x,1/2+y,z
1/2-x,1/2+y,1/2-z
1/2-x,1/2-y,-z
1/2+x,1/2-y,1/2+z
loop_
_atom_site_type_symbol
_atom_site_label
_atom_site_fract_x
_atom_site_fract_y
_atom_site_fract_z
Si Si1 0.667725 0.289001 0.168423
Si Si2 0.099667 0.461387 0.019112
Si Si3 0.000000 0.229678 0.750000
Si Si4 0.346458 0.823290 0.496888
Si Si5 0.927495 0.000105 0.579286
Si Si6 0.723010 0.843135 0.758225
Si Si7 0.386165 0.359434 0.643135
Si Si8 0.294656 0.025690 0.179141
O O1 0.573900 0.312719 0.202531
O O2 0.781219 0.301690 0.315938
O O3 0.654528 0.213241 0.142695
O O4 0.668790 0.321381 0.019835
O O5 0.089095 0.386819 0.991335
O O6 0.194622 0.470770 0.198982
O O7 0.129600 0.491588 0.892986
O O8 0.000000 0.500000 0.000000
O O9 0.931322 0.271763 0.596604
O O10 0.263537 0.830201 0.565334
O O11 0.890685 0.932063 0.604715
O O12 0.000000 0.032692 0.750000
O O13 0.822631 0.037380 0.463167
O O14 0.000000 0.000000 0.500000
O O15 0.829649 0.849641 0.749535
O O16 0.665971 0.910863 0.713103
O O17 0.500000 0.331169 0.750000
#
# Coordination Sequence:
#
# PCOD8146832 Si02
#       8
#     8   8   4   8   8   8   8   8
#     4  11  24  42  70  98 133 175 229 275 332 404
#     4  11  24  39  67  95 130 174 222 271 335 397
#     4  10  22  42  70  98 130 174 224 278 336 402
#     4  10  24  42  69  95 132 175 226 278 330 397
#     4  11  23  43  64  96 132 173 221 270 333 404
#     4  10  22  42  65  92 133 175 214 278 334 391
#     4  11  24  40  65  97 134 177 221 274 338 395
#     4  11  22  41  66  94 134 174 217 279 332 391
#
# _framework density 22.86562
#
# number of rings (size 3 to 8) (size 9 to 14) (size 15 to 20)
#    0.000    1.333    0.000    6.400    9.333    1.067 
#    1.200    0.000    2.933    0.000    0.000    0.000 
#    0.000    0.000    0.000    0.000    0.000    0.000 
#
# Total GULP energy -371775.247115 kJ/mol
# GULP energy per Si atom -12392.508237 kJ/mol
# Density = 2.281358 g / cm^3
# Si number density = 22.865620 Si / 1000 Ang^3
#
#
#
# Elastic Constant Matrix: (Units=GPa)
#
#
# Indices 1 2 3 4 5 6 
#
# 1 123.6136 12.2189 27.5603 0.0000 -17.9151 0.0000
# 2 12.2189 56.0654 20.1061 0.0000 -4.3471 0.0000
# 3 27.5603 20.1061 113.8844 0.0000 4.7479 0.0000
# 4 0.0000 0.0000 0.0000 26.2581 0.0000 -5.1380
# 5 -17.9151 -4.3471 4.7479 0.0000 41.8044 0.0000
# 6 0.0000 0.0000 0.0000 -5.1380 0.0000 30.8308
#
#
#
# Elastic Compliance Matrix: (Units=1/GPa)
#
#
# Indices 1 2 3 4 5 6 
#
# 1 0.009282 -0.000891 -0.002262 0.000000 0.004142 0.000000
# 2 -0.000891 0.019365 -0.003287 0.000000 0.002005 0.000000
# 3 -0.002262 -0.003287 0.010011 0.000000 -0.002448 0.000000
# 4 0.000000 0.000000 0.000000 0.039367 0.000000 0.006561
# 5 0.004142 0.002005 -0.002448 0.000000 0.026183 0.000000
# 6 0.000000 0.000000 0.000000 0.006561 0.000000 0.033528
#
#
# Mechanical properties :
#
#
# Convention : Reuss Voigt Hill
#
# Bulk Modulus (GPa) = 38.79148 45.92600 42.35874
# Shear Modulus (GPa) = 31.40557 35.35720 33.38138
#
# Velocity S-wave (km/s) = 3.71008 3.93657 3.82500
# Velocity P-wave (km/s) = 5.94598 6.38678 6.17032
#
# Compressibility (1/GPa) = 0.02577885
#
# Stress axis : x y z
#
# Youngs Moduli (GPa) = 107.73114 51.64055 99.89473
#
# Poissons Ratio (x) = 0.04600 0.22594
# Poissons Ratio (y) = 0.09596 0.32834
# Poissons Ratio (z) = 0.24367 0.16973
#
# Static dielectric constant tensor:
#      x y z
#    x 4.096140 0.000000 -0.087540 
#    y 0.000000 5.246330 0.000000 
#    z -0.087540 0.000000 4.269890 
# 
# 
# High freq. dielectric constant tensor:
#      x y z
#    x 1.905500 0.000000 -0.010170 
#    y 0.000000 1.894510 0.000000 
#    z -0.010170 0.000000 1.904230 
# 
# From -- ./inp_files/42684.got.cif
#   From: 2010.06.25/outbox.cif.g09.slc.cpg/sg15_22_cif.got.tgz:42684.got - 2010.06.28 07:06:18.
