data_PCOD8146104
_publ_section_title
;
Structure prediction by ZEFSAII (Michael W. Deem and Ramdas Pophale) SiO2 
 PCOD8146104
Probable space group: C 2/C
;
_chemical_formula_sum "Si O2"
_cell_formula_units_Z 44
_cell_length_a 20.989954
_cell_length_b 13.708288
_cell_length_c 18.249643
_cell_angle_alpha 90.000000
_cell_angle_beta 159.189420
_cell_angle_gamma 90.000000
_cell_volume 1865.603396
_symmetry_space_group_name_H-M "C 2/C"
_symmetry_group_IT_number 15
_symmetry_cell_setting 'monoclinic'
loop_
_space_group_symop_operation_xyz
x,y,z
-x,y,1/2-z
-x,-y,-z
x,-y,1/2+z
1/2+x,1/2+y,z
1/2-x,1/2+y,1/2-z
1/2-x,1/2-y,-z
1/2+x,1/2-y,1/2+z
loop_
_atom_site_type_symbol
_atom_site_label
_atom_site_fract_x
_atom_site_fract_y
_atom_site_fract_z
Si Si1 0.500000 0.700971 0.250000
Si Si2 0.024887 0.666563 0.914687
Si Si3 0.161927 0.315159 0.966441
Si Si4 0.690958 0.555565 0.546731
Si Si5 0.529520 0.634222 0.908118
Si Si6 0.572178 0.648320 0.120885
O O1 0.544531 0.768731 0.228899
O O2 0.659579 0.625787 0.442878
O O3 0.901881 0.570090 0.791855
O O4 0.989288 0.738117 0.945536
O O5 0.230688 0.635054 0.131353
O O6 0.081885 0.244374 0.943452
O O7 0.000000 0.373567 0.750000
O O8 0.250000 0.250000 0.000000
O O9 0.315293 0.384605 0.165453
O O10 0.645412 0.441888 0.482963
O O11 0.565774 0.585265 0.480356
O O12 0.575257 0.611753 0.041260
#
# Coordination Sequence:
#
# PCOD8146104 Si02
#       6
#     4   8   8   8   8   8
#     4  10  22  40  66  96 132 174 212 272 334 388
#     4  11  22  41  66  97 134 177 216 266 337 400
#     4   9  21  42  65  88 121 168 217 264 328 387
#     4  11  25  39  67  96 133 166 228 275 316 403
#     4  11  23  44  66  93 132 172 216 280 327 386
#     4  11  22  41  63  98 132 175 216 260 335 395
#
# _framework density 23.584862999999999
#
# number of rings (size 3 to 8) (size 9 to 14) (size 15 to 20)
#    0.000    1.455    3.636    2.182    6.364    0.727 
#    6.545    0.000    0.000    0.000    0.000    0.000 
#    0.000    0.000    0.000    0.000    0.000    0.000 
#
# Total GULP energy -272630.428139 kJ/mol
# GULP energy per Si atom -12392.292188 kJ/mol
# Density = 2.353118 g / cm^3
# Si number density = 23.584863 Si / 1000 Ang^3
#
#
#
# Elastic Constant Matrix: (Units=GPa)
#
#
# Indices 1 2 3 4 5 6 
#
# 1 72.1963 -3.2893 34.4211 0.0001 -15.3680 0.0000
# 2 -3.2893 68.4517 28.3248 -0.0050 -5.3289 -0.0014
# 3 34.4211 28.3248 110.4987 -0.0032 4.1194 0.0008
# 4 0.0001 -0.0050 -0.0032 22.5507 -0.0019 10.6089
# 5 -15.3680 -5.3289 4.1194 -0.0019 35.9443 -0.0005
# 6 0.0000 -0.0014 0.0008 10.6089 -0.0005 21.6293
#
#
#
# Elastic Compliance Matrix: (Units=1/GPa)
#
#
# Indices 1 2 3 4 5 6 
#
# 1 0.020025 0.005030 -0.007908 0.000001 0.010213 0.000001
# 2 0.005030 0.017915 -0.006365 0.000004 0.005536 0.000000
# 3 -0.007908 -0.006365 0.013363 0.000001 -0.005856 -0.000001
# 4 0.000001 0.000004 0.000001 0.057646 0.000003 -0.028275
# 5 0.010213 0.005536 -0.005856 0.000003 0.033679 0.000000
# 6 0.000001 0.000000 -0.000001 -0.028275 0.000000 0.060102
#
#
# Mechanical properties :
#
#
# Convention : Reuss Voigt Hill
#
# Bulk Modulus (GPa) = 30.47320 41.11778 35.79549
# Shear Modulus (GPa) = 21.53714 28.80420 25.17067
#
# Velocity S-wave (km/s) = 3.02516 3.49850 3.27041
# Velocity P-wave (km/s) = 5.01506 5.81302 5.42872
#
# Compressibility (1/GPa) = 0.03281572
#
# Stress axis : x y z
#
# Youngs Moduli (GPa) = 49.93871 55.81765 74.83213
#
# Poissons Ratio (x) = -0.28074 0.59176
# Poissons Ratio (y) = -0.25117 0.47634
# Poissons Ratio (z) = 0.39490 0.35531
#
# Static dielectric constant tensor:
#      x y z
#    x 4.093890 0.000000 0.021020 
#    y 0.000000 3.220170 0.000030 
#    z 0.021020 0.000030 4.905640 
# 
# 
# High freq. dielectric constant tensor:
#      x y z
#    x 1.924700 0.000000 0.002700 
#    y 0.000000 1.903580 0.000000 
#    z 0.002700 0.000000 1.945670 
# 
# From -- ./inp_files/255672.got.cif
#   From: 2010.06.25/outbox.cif.g09.slc.cpg/sg15_128_cif.got.tgz:255672.got - 2010.06.28 07:06:18.
