data_PCOD8146372
_publ_section_title
;
Structure prediction by ZEFSAII (Michael W. Deem and Ramdas Pophale) SiO2 
 PCOD8146372
Probable space group: C 2/C
;
_chemical_formula_sum "Si O2"
_cell_formula_units_Z 52
_cell_length_a 27.417894
_cell_length_b 6.882145
_cell_length_c 13.840201
_cell_angle_alpha 90.000000
_cell_angle_beta 66.147705
_cell_angle_gamma 90.000000
_cell_volume 2388.510830
_symmetry_space_group_name_H-M "C 2/C"
_symmetry_group_IT_number 15
_symmetry_cell_setting 'monoclinic'
loop_
_space_group_symop_operation_xyz
x,y,z
-x,y,1/2-z
-x,-y,-z
x,-y,1/2+z
1/2+x,1/2+y,z
1/2-x,1/2+y,1/2-z
1/2-x,1/2-y,-z
1/2+x,1/2-y,1/2+z
loop_
_atom_site_type_symbol
_atom_site_label
_atom_site_fract_x
_atom_site_fract_y
_atom_site_fract_z
Si Si1 0.923965 0.319576 0.803313
Si Si2 0.741345 0.395704 0.154392
Si Si3 0.082454 0.470705 0.384420
Si Si4 0.970177 0.368408 0.402491
Si Si5 0.817779 0.268436 0.256543
Si Si6 0.000000 0.975701 0.750000
Si Si7 0.186900 0.432265 0.578114
O O1 0.905209 0.389385 0.713763
O O2 0.965598 0.463525 0.824453
O O3 0.868091 0.318662 0.906770
O O4 0.950300 0.111219 0.761373
O O5 0.768353 0.352923 0.235533
O O6 0.692092 0.541032 0.214619
O O7 0.721421 0.197797 0.123019
O O8 0.783280 0.488438 0.044916
O O9 0.079829 0.600797 0.484589
O O10 0.128052 0.303989 0.349454
O O11 0.024936 0.373412 0.418273
O O12 0.972166 0.155682 0.354073
O O13 0.823965 0.367327 0.356663
#
# Coordination Sequence:
#
# PCOD8146372 Si02
#       7
#     8   8   8   8   8   4   8
#     4  11  22  43  61  94 130 166 218 268 319 391
#     4  11  22  42  63  96 125 167 213 270 319 391
#     4  10  22  41  64  89 130 171 207 270 327 380
#     4  11  22  42  61  93 132 168 214 269 325 377
#     4  11  22  41  65  91 129 166 213 265 328 383
#     4  12  22  38  66  90 130 172 212 266 318 398
#     4  10  24  40  65  91 128 169 213 263 326 385
#
# _framework density 21.770887999999999
#
# number of rings (size 3 to 8) (size 9 to 14) (size 15 to 20)
#    0.000    1.231    4.615    1.385    2.154    0.615 
#    0.000    6.154    0.000    0.000    0.000    0.000 
#    0.000    0.000    0.000    0.000    0.000    0.000 
#
# Total GULP energy -322205.605989 kJ/mol
# GULP energy per Si atom -12392.523307 kJ/mol
# Density = 2.172134 g / cm^3
# Si number density = 21.770888 Si / 1000 Ang^3
#
#
#
# Elastic Constant Matrix: (Units=GPa)
#
#
# Indices 1 2 3 4 5 6 
#
# 1 66.5046 14.2494 20.6906 0.0000 -17.8405 0.0000
# 2 14.2494 83.5687 39.5815 0.0000 -3.3028 0.0000
# 3 20.6906 39.5815 98.8073 0.0000 -10.8467 0.0000
# 4 0.0000 0.0000 0.0000 27.1300 0.0000 -8.2551
# 5 -17.8405 -3.3028 -10.8467 0.0000 34.7999 0.0000
# 6 0.0000 0.0000 0.0000 -8.2551 0.0000 32.5491
#
#
#
# Elastic Compliance Matrix: (Units=1/GPa)
#
#
# Indices 1 2 3 4 5 6 
#
# 1 0.018401 -0.001752 -0.002210 0.000000 0.008578 0.000000
# 2 -0.001752 0.014942 -0.005759 0.000000 -0.001275 0.000000
# 3 -0.002210 -0.005759 0.013156 0.000000 0.002421 0.000000
# 4 0.000000 0.000000 0.000000 0.039942 0.000000 0.010130
# 5 0.008578 -0.001275 0.002421 0.000000 0.033767 0.000000
# 6 0.000000 0.000000 0.000000 0.010130 0.000000 0.033292
#
#
# Mechanical properties :
#
#
# Convention : Reuss Voigt Hill
#
# Bulk Modulus (GPa) = 36.95750 44.21373 40.58561
# Shear Modulus (GPa) = 27.47857 30.51974 28.99916
#
# Velocity S-wave (km/s) = 3.55656 3.74820 3.65364
# Velocity P-wave (km/s) = 5.82048 6.25178 6.03998
#
# Compressibility (1/GPa) = 0.02705811
#
# Stress axis : x y z
#
# Youngs Moduli (GPa) = 54.34620 66.92481 76.01002
#
# Poissons Ratio (x) = 0.11725 0.16796
# Poissons Ratio (y) = 0.09521 0.43773
# Poissons Ratio (z) = 0.12009 0.38541
#
# Static dielectric constant tensor:
#      x y z
#    x 3.970420 0.000000 -0.159290 
#    y 0.000000 3.659450 0.000000 
#    z -0.159290 0.000000 4.142830 
# 
# 
# High freq. dielectric constant tensor:
#      x y z
#    x 1.859580 0.000000 -0.007980 
#    y 0.000000 1.829430 0.000000 
#    z -0.007980 0.000000 1.865730 
# 
# From -- ./inp_files/180061.got.cif
#   From: 2010.06.25/outbox.cif.g09.slc.cpg/sg15_91_cif.got.tgz:180061.got - 2010.06.28 07:06:18.
