data_PCOD8146475
_publ_section_title
;
Structure prediction by ZEFSAII (Michael W. Deem and Ramdas Pophale) SiO2 
 PCOD8146475
Probable space group: C 2/C
;
_chemical_formula_sum "Si O2"
_cell_formula_units_Z 64
_cell_length_a 19.332839
_cell_length_b 13.293103
_cell_length_c 15.080474
_cell_angle_alpha 90.000000
_cell_angle_beta 42.066245
_cell_angle_gamma 90.000000
_cell_volume 2596.599169
_symmetry_space_group_name_H-M "C 2/C"
_symmetry_group_IT_number 15
_symmetry_cell_setting 'monoclinic'
loop_
_space_group_symop_operation_xyz
x,y,z
-x,y,1/2-z
-x,-y,-z
x,-y,1/2+z
1/2+x,1/2+y,z
1/2-x,1/2+y,1/2-z
1/2-x,1/2-y,-z
1/2+x,1/2-y,1/2+z
loop_
_atom_site_type_symbol
_atom_site_label
_atom_site_fract_x
_atom_site_fract_y
_atom_site_fract_z
Si Si1 0.212352 0.297847 0.398889
Si Si2 0.776088 0.570892 0.301977
Si Si3 0.879379 0.434130 0.882399
Si Si4 0.377414 0.444393 0.167039
Si Si5 0.104700 0.407489 0.983476
Si Si6 0.801930 0.792873 0.036835
Si Si7 0.107739 0.680262 0.823599
Si Si8 0.501237 0.379437 0.893355
O O1 0.249316 0.184718 0.353126
O O2 0.165544 0.326237 0.540125
O O3 0.306938 0.372931 0.291726
O O4 0.119981 0.317840 0.417362
O O5 0.820406 0.525309 0.351381
O O6 0.677210 0.514697 0.355755
O O7 0.866868 0.557313 0.142545
O O8 0.000000 0.421025 0.750000
O O9 0.853470 0.515694 0.983154
O O10 0.438321 0.515992 0.179425
O O11 0.457804 0.376167 0.035764
O O12 0.158293 0.299421 0.941940
O O13 0.981747 0.398665 0.114314
O O14 0.717471 0.853936 0.176114
O O15 0.750000 0.750000 0.000000
O O16 0.902097 0.864026 0.921355
O O17 0.082145 0.788772 0.805645
#
# Coordination Sequence:
#
# PCOD8146475 Si02
#       8
#     8   8   8   8   8   8   8   8
#     4  12  23  47  78 104 145 202 253 313 385 452
#     4  12  25  51  76 107 151 200 259 322 381 462
#     4  12  30  44  71 111 154 199 255 307 382 465
#     4  11  22  42  77 106 141 197 255 311 383 456
#     4  11  25  45  73 109 146 197 252 309 385 462
#     4  11  24  41  69 110 150 192 243 323 391 445
#     4  11  22  43  72 101 144 193 242 318 391 452
#     4  10  22  41  66 110 138 193 248 309 384 459
#
# _framework density 24.647625000000001
#
# number of rings (size 3 to 8) (size 9 to 14) (size 15 to 20)
#    0.000    0.750    5.000    1.875    5.250    2.500 
#    0.000    1.250    0.000    0.000    0.000    0.000 
#    0.000    0.000    0.000    0.000    0.000    0.000 
#
# Total GULP energy -396771.328964 kJ/mol
# GULP energy per Si atom -12399.104030 kJ/mol
# Density = 2.459153 g / cm^3
# Si number density = 24.647625 Si / 1000 Ang^3
#
#
#
# Elastic Constant Matrix: (Units=GPa)
#
#
# Indices 1 2 3 4 5 6 
#
# 1 126.6531 22.4762 26.6605 0.0000 3.5156 0.0000
# 2 22.4762 81.6270 19.0506 0.0000 -3.0909 0.0000
# 3 26.6605 19.0506 81.5610 0.0000 -1.9993 0.0000
# 4 0.0000 0.0000 0.0000 34.6863 0.0000 1.6239
# 5 3.5156 -3.0909 -1.9993 0.0000 45.9019 0.0000
# 6 0.0000 0.0000 0.0000 1.6239 0.0000 33.0274
#
#
#
# Elastic Compliance Matrix: (Units=1/GPa)
#
#
# Indices 1 2 3 4 5 6 
#
# 1 0.008770 -0.001877 -0.002450 0.000000 -0.000905 0.000000
# 2 -0.001877 0.013384 -0.002490 0.000000 0.000937 0.000000
# 3 -0.002450 -0.002490 0.013658 0.000000 0.000615 0.000000
# 4 0.000000 0.000000 0.000000 0.028896 0.000000 -0.001421
# 5 -0.000905 0.000937 0.000615 0.000000 0.021945 0.000000
# 6 0.000000 0.000000 0.000000 -0.001421 0.000000 0.030348
#
#
# Mechanical properties :
#
#
# Convention : Reuss Voigt Hill
#
# Bulk Modulus (GPa) = 45.08987 47.35729 46.22358
# Shear Modulus (GPa) = 36.22457 37.50005 36.86231
#
# Velocity S-wave (km/s) = 3.83782 3.90480 3.87146
# Velocity P-wave (km/s) = 6.16215 6.29170 6.22726
#
# Compressibility (1/GPa) = 0.02217793
#
# Stress axis : x y z
#
# Youngs Moduli (GPa) = 114.03020 74.71476 73.21549
#
# Poissons Ratio (x) = 0.14025 0.17940
# Poissons Ratio (y) = 0.21405 0.18228
# Poissons Ratio (z) = 0.27941 0.18602
#
# Static dielectric constant tensor:
#      x y z
#    x 4.634070 0.000000 -0.201300 
#    y 0.000000 4.756120 0.000000 
#    z -0.201300 0.000000 4.386230 
# 
# 
# High freq. dielectric constant tensor:
#      x y z
#    x 1.980030 0.000000 -0.017510 
#    y 0.000000 1.990870 0.000000 
#    z -0.017510 0.000000 1.974810 
# 
# From -- ./inp_files/162524.got.cif
#   From: 2010.06.25/outbox.cif.g09.slc.cpg/sg15_82_cif.got.tgz:162524.got - 2010.06.28 07:06:18.
