data_PCOD8146637
_publ_section_title
;
Structure prediction by ZEFSAII (Michael W. Deem and Ramdas Pophale) SiO2 
 PCOD8146637
Probable space group: C 2/C
;
_chemical_formula_sum "Si O2"
_cell_formula_units_Z 48
_cell_length_a 25.676169
_cell_length_b 8.648115
_cell_length_c 18.472780
_cell_angle_alpha 90.000000
_cell_angle_beta 31.987202
_cell_angle_gamma 90.000000
_cell_volume 2172.893121
_symmetry_space_group_name_H-M "C 2/C"
_symmetry_group_IT_number 15
_symmetry_cell_setting 'monoclinic'
loop_
_space_group_symop_operation_xyz
x,y,z
-x,y,1/2-z
-x,-y,-z
x,-y,1/2+z
1/2+x,1/2+y,z
1/2-x,1/2+y,1/2-z
1/2-x,1/2-y,-z
1/2+x,1/2-y,1/2+z
loop_
_atom_site_type_symbol
_atom_site_label
_atom_site_fract_x
_atom_site_fract_y
_atom_site_fract_z
Si Si1 0.314402 0.345008 0.759551
Si Si2 0.531514 0.276184 0.547824
Si Si3 0.779607 0.806345 0.261875
Si Si4 0.845095 0.179515 0.462996
Si Si5 0.440761 0.940312 0.254901
Si Si6 0.759150 0.624296 0.428971
O O1 0.430274 0.356629 0.641141
O O2 0.296042 0.229815 0.713807
O O3 0.271619 0.513953 0.792387
O O4 0.253641 0.273119 0.897996
O O5 0.607618 0.265614 0.391827
O O6 0.585010 0.364125 0.551383
O O7 0.510441 0.105714 0.605320
O O8 0.743530 0.698780 0.369398
O O9 0.896481 0.280793 0.340433
O O10 0.817301 0.012659 0.463710
O O11 0.500000 0.024740 0.250000
O O12 0.368036 0.059260 0.305283
O O13 0.750000 0.750000 0.500000
#
# Coordination Sequence:
#
# PCOD8146637 Si02
#       6
#     8   8   8   8   8   8
#     4  11  22  44  67  93 132 168 218 273 320 390
#     4  10  22  41  71  91 128 169 214 267 322 384
#     4  11  25  41  64  99 124 172 217 263 337 381
#     4  10  22  44  70  95 125 175 219 259 328 387
#     4  10  22  43  67  96 129 172 219 263 327 384
#     4  12  25  43  65  95 135 171 215 270 323 384
#
# _framework density 22.090364999999998
#
# number of rings (size 3 to 8) (size 9 to 14) (size 15 to 20)
#    0.000    1.333    1.667    4.000    2.333    0.667 
#   12.000    0.000    0.000    0.000    0.000    0.000 
#    0.000    0.000    0.000    0.000    0.000    0.000 
#
# Total GULP energy -297523.946717 kJ/mol
# GULP energy per Si atom -12396.831113 kJ/mol
# Density = 2.204009 g / cm^3
# Si number density = 22.090365 Si / 1000 Ang^3
#
#
#
# Elastic Constant Matrix: (Units=GPa)
#
#
# Indices 1 2 3 4 5 6 
#
# 1 72.7305 19.9010 11.0577 -0.0015 -22.5892 0.0005
# 2 19.9010 93.5318 16.3140 -0.0006 -3.3225 0.0011
# 3 11.0577 16.3140 81.4604 -0.0025 -2.9489 0.0014
# 4 -0.0015 -0.0006 -0.0025 12.9860 0.0011 -3.0909
# 5 -22.5892 -3.3225 -2.9489 0.0011 45.7636 -0.0005
# 6 0.0005 0.0011 0.0014 -3.0909 -0.0005 39.7145
#
#
#
# Elastic Compliance Matrix: (Units=1/GPa)
#
#
# Indices 1 2 3 4 5 6 
#
# 1 0.017399 -0.003159 -0.001430 0.000001 0.008267 0.000000
# 2 -0.003159 0.011672 -0.001939 0.000000 -0.000837 0.000000
# 3 -0.001430 -0.001939 0.012858 0.000002 -0.000018 0.000000
# 4 0.000001 0.000000 0.000002 0.078460 -0.000001 0.006106
# 5 0.008267 -0.000837 -0.000018 -0.000001 0.025870 0.000000
# 6 0.000000 0.000000 0.000000 0.006106 0.000000 0.025655
#
#
# Mechanical properties :
#
#
# Convention : Reuss Voigt Hill
#
# Bulk Modulus (GPa) = 34.63464 38.02978 36.33221
# Shear Modulus (GPa) = 25.69467 33.05615 29.37541
#
# Velocity S-wave (km/s) = 3.41422 3.87254 3.65058
# Velocity P-wave (km/s) = 5.59063 6.10314 5.85250
#
# Compressibility (1/GPa) = 0.02887283
#
# Stress axis : x y z
#
# Youngs Moduli (GPa) = 57.47578 85.67386 77.77458
#
# Poissons Ratio (x) = 0.27064 0.11121
# Poissons Ratio (y) = 0.18156 0.15081
# Poissons Ratio (z) = 0.08218 0.16613
#
# Static dielectric constant tensor:
#      x y z
#    x 4.282150 0.000000 -0.062090 
#    y 0.000000 3.611160 0.000020 
#    z -0.062090 0.000020 4.334120 
# 
# 
# High freq. dielectric constant tensor:
#      x y z
#    x 1.891750 0.000000 -0.004090 
#    y 0.000000 1.849940 0.000000 
#    z -0.004090 0.000000 1.867830 
# 
# From -- ./inp_files/257128.got.cif
#   From: 2010.06.25/outbox.cif.g09.slc.cpg/sg15_129_cif.got.tgz:257128.got - 2010.06.28 07:06:18.
