data_PCOD8146057
_publ_section_title
;
Structure prediction by ZEFSAII (Michael W. Deem and Ramdas Pophale) SiO2 
 PCOD8146057
Probable space group: C 2/C
;
_chemical_formula_sum "Si O2"
_cell_formula_units_Z 32
_cell_length_a 23.152824
_cell_length_b 11.030786
_cell_length_c 5.280340
_cell_angle_alpha 90.000000
_cell_angle_beta 111.010461
_cell_angle_gamma 90.000000
_cell_volume 1258.906885
_symmetry_space_group_name_H-M "C 2/C"
_symmetry_group_IT_number 15
_symmetry_cell_setting 'monoclinic'
loop_
_space_group_symop_operation_xyz
x,y,z
-x,y,1/2-z
-x,-y,-z
x,-y,1/2+z
1/2+x,1/2+y,z
1/2-x,1/2+y,1/2-z
1/2-x,1/2-y,-z
1/2+x,1/2-y,1/2+z
loop_
_atom_site_type_symbol
_atom_site_label
_atom_site_fract_x
_atom_site_fract_y
_atom_site_fract_z
Si Si1 0.973659 0.365220 0.960315
Si Si2 0.651300 0.780277 0.865234
Si Si3 0.572768 0.570264 0.888740
Si Si4 0.734936 0.579630 0.801075
O O1 0.899137 0.362646 0.862639
O O2 0.000000 0.298776 0.750000
O O3 0.000000 0.295204 0.250000
O O4 0.000000 0.500000 0.000000
O O5 0.610821 0.694389 0.985800
O O6 0.694659 0.870951 0.092602
O O7 0.691406 0.698845 0.733341
O O8 0.500000 0.592132 0.750000
O O9 0.593916 0.514014 0.652781
O O10 0.722490 0.500581 0.034494
#
# Coordination Sequence:
#
# PCOD8146057 Si02
#       4
#     8   8   8   8
#     4  10  24  41  66 103 136 178 219 283 356 418
#     4  11  25  45  74 100 144 186 234 292 357 411
#     4  10  22  40  65  99 136 177 229 281 339 419
#     4  11  28  47  70 103 137 191 243 291 339 417
#
# _framework density 25.418877999999999
#
# number of rings (size 3 to 8) (size 9 to 14) (size 15 to 20)
#    0.000    1.500    0.000    2.250    7.000   13.000 
#    0.000    0.000    0.000    0.000    0.000    0.000 
#    0.000    0.000    0.000    0.000    0.000    0.000 
#
# Total GULP energy -198302.788983 kJ/mol
# GULP energy per Si atom -12393.924311 kJ/mol
# Density = 2.536102 g / cm^3
# Si number density = 25.418878 Si / 1000 Ang^3
#
#
#
# Elastic Constant Matrix: (Units=GPa)
#
#
# Indices 1 2 3 4 5 6 
#
# 1 105.3370 28.8179 68.6533 0.0000 16.7042 0.0000
# 2 28.8179 96.2964 38.0268 0.0000 7.3989 0.0000
# 3 68.6533 38.0268 158.9722 0.0000 -9.9889 0.0000
# 4 0.0000 0.0000 0.0000 23.2244 0.0000 34.5336
# 5 16.7042 7.3989 -9.9889 0.0000 63.5343 0.0000
# 6 0.0000 0.0000 0.0000 34.5336 0.0000 48.0043
#
#
#
# Elastic Compliance Matrix: (Units=1/GPa)
#
#
# Indices 1 2 3 4 5 6 
#
# 1 0.014772 -0.001573 -0.006298 0.000000 -0.004691 0.000000
# 2 -0.001573 0.011839 -0.002235 0.000000 -0.001317 0.000000
# 3 -0.006298 -0.002235 0.009762 0.000000 0.003451 0.000000
# 4 0.000000 0.000000 0.000000 -0.617837 0.000000 0.444463
# 5 -0.004691 -0.001317 0.003451 0.000000 0.017669 0.000000
# 6 0.000000 0.000000 0.000000 0.444463 0.000000 -0.298909
#
#
# Mechanical properties :
#
#
# Convention : Reuss Voigt Hill
#
# Bulk Modulus (GPa) = 61.88028 70.17793 66.02911
# Shear Modulus (GPa) = -5.97297 41.95980 17.99341
#
# Velocity S-wave (km/s) = -1.53457 4.06733 2.66348
# Velocity P-wave (km/s) = 4.61055 7.05167 5.95749
#
# Compressibility (1/GPa) = 0.01616024
#
# Stress axis : x y z
#
# Youngs Moduli (GPa) = 67.69421 84.46450 102.44091
#
# Poissons Ratio (x) = 0.13289 0.64516
# Poissons Ratio (y) = 0.10651 0.22898
# Poissons Ratio (z) = 0.42633 0.18880
#
# Static dielectric constant tensor:
#      x y z
#    x -0.787450 0.000000 8.327720 
#    y 0.000000 5.181620 0.000000 
#    z 8.327720 0.000000 -6.652690 
# 
# 
# High freq. dielectric constant tensor:
#      x y z
#    x 2.030210 0.000000 0.024590 
#    y 0.000000 2.019660 0.000000 
#    z 0.024590 0.000000 2.008350 
# 
# From -- ./inp_files/18016.got.cif
#   From: 2010.06.25/outbox.cif.g09.slc.cpg/sg15_10_cif.got.tgz:18016.got - 2010.06.28 07:06:18.
