data_PCOD8146617
_publ_section_title
;
Structure prediction by ZEFSAII (Michael W. Deem and Ramdas Pophale) SiO2 
 PCOD8146617
Probable space group: C 2/C
;
_chemical_formula_sum "Si O2"
_cell_formula_units_Z 40
_cell_length_a 12.385765
_cell_length_b 8.494355
_cell_length_c 19.369506
_cell_angle_alpha 90.000000
_cell_angle_beta 115.828737
_cell_angle_gamma 90.000000
_cell_volume 1834.267730
_symmetry_space_group_name_H-M "C 2/C"
_symmetry_group_IT_number 15
_symmetry_cell_setting 'monoclinic'
loop_
_space_group_symop_operation_xyz
x,y,z
-x,y,1/2-z
-x,-y,-z
x,-y,1/2+z
1/2+x,1/2+y,z
1/2-x,1/2+y,1/2-z
1/2-x,1/2-y,-z
1/2+x,1/2-y,1/2+z
loop_
_atom_site_type_symbol
_atom_site_label
_atom_site_fract_x
_atom_site_fract_y
_atom_site_fract_z
Si Si1 0.984202 0.838245 0.956144
Si Si2 0.464231 0.905422 0.663707
Si Si3 0.644270 0.125783 0.095323
Si Si4 0.160283 0.283892 0.412094
Si Si5 0.748505 0.295458 0.420071
O O1 0.842943 0.815616 0.906267
O O2 0.046635 0.831484 0.897529
O O3 0.039820 0.691882 0.015694
O O4 0.000000 0.000000 0.000000
O O5 0.500000 0.958584 0.750000
O O6 0.587395 0.891052 0.654957
O O7 0.386289 0.743482 0.644772
O O8 0.381736 0.037084 0.604929
O O9 0.760403 0.242220 0.133544
O O10 0.707284 0.971425 0.081127
O O11 0.250000 0.250000 0.500000
O O12 0.750000 0.250000 0.500000
#
# Coordination Sequence:
#
# PCOD8146617 Si02
#       5
#     8   8   8   8   8
#     4  11  20  37  69 106 132 168 228 289 340 392
#     4  12  27  46  66  99 144 184 223 279 348 411
#     4  11  23  42  67  99 140 173 228 284 332 407
#     4  10  22  41  69  99 132 178 226 283 339 403
#     4  12  21  39  71  99 131 178 227 281 337 398
#
# _framework density 21.807065000000001
#
# number of rings (size 3 to 8) (size 9 to 14) (size 15 to 20)
#    0.000    0.800    4.000    6.600    0.000    1.600 
#    0.000    1.000    0.000    0.000    0.000    0.000 
#    0.000    0.000    0.000    0.000    0.000    0.000 
#
# Total GULP energy -247771.206163 kJ/mol
# GULP energy per Si atom -12388.560308 kJ/mol
# Density = 2.175743 g / cm^3
# Si number density = 21.807065 Si / 1000 Ang^3
#
#
#
# Elastic Constant Matrix: (Units=GPa)
#
#
# Indices 1 2 3 4 5 6 
#
# 1 205.0737 46.0486 31.9341 0.0000 -29.6111 0.0000
# 2 46.0486 118.3997 16.2516 0.0000 -2.1237 0.0000
# 3 31.9341 16.2516 68.5338 0.0000 -13.0530 0.0000
# 4 0.0000 0.0000 0.0000 16.4726 0.0000 2.2911
# 5 -29.6111 -2.1237 -13.0530 0.0000 26.4049 0.0000
# 6 0.0000 0.0000 0.0000 2.2911 0.0000 51.3689
#
#
#
# Elastic Compliance Matrix: (Units=1/GPa)
#
#
# Indices 1 2 3 4 5 6 
#
# 1 0.006516 -0.002244 -0.001266 0.000000 0.006501 0.000000
# 2 -0.002244 0.009506 -0.001703 0.000000 -0.002593 0.000000
# 3 -0.001266 -0.001703 0.016878 0.000000 0.006787 0.000000
# 4 0.000000 0.000000 0.000000 0.061086 0.000000 -0.002725
# 5 0.006501 -0.002593 0.006787 0.000000 0.048308 0.000000
# 6 0.000000 0.000000 0.000000 -0.002725 0.000000 0.019589
#
#
# Mechanical properties :
#
#
# Convention : Reuss Voigt Hill
#
# Bulk Modulus (GPa) = 44.49454 64.49732 54.49593
# Shear Modulus (GPa) = 27.80898 38.70082 33.25490
#
# Velocity S-wave (km/s) = 3.57491 4.21728 3.90931
# Velocity P-wave (km/s) = 6.12274 7.30441 6.73953
#
# Compressibility (1/GPa) = 0.02247467
#
# Stress axis : x y z
#
# Youngs Moduli (GPa) = 153.46954 105.19856 59.25040
#
# Poissons Ratio (x) = 0.23605 0.07501
# Poissons Ratio (y) = 0.34436 0.10088
# Poissons Ratio (z) = 0.19428 0.17910
#
# Static dielectric constant tensor:
#      x y z
#    x 6.040360 0.000000 -0.116800 
#    y 0.000000 4.295880 0.000000 
#    z -0.116800 0.000000 3.334060 
# 
# 
# High freq. dielectric constant tensor:
#      x y z
#    x 1.906450 0.000000 -0.010600 
#    y 0.000000 1.861020 0.000000 
#    z -0.010600 0.000000 1.782560 
# 
# From -- ./inp_files/235932.got.cif
#   From: 2010.06.25/outbox.cif.g09.slc.cpg/sg15_118_cif.got.tgz:235932.got - 2010.06.28 07:06:18.
