data_PCOD8146745
_publ_section_title
;
Structure prediction by ZEFSAII (Michael W. Deem and Ramdas Pophale) SiO2 
 PCOD8146745
Probable space group: C 2/C
;
_chemical_formula_sum "Si O2"
_cell_formula_units_Z 60
_cell_length_a 26.399627
_cell_length_b 7.731143
_cell_length_c 14.403746
_cell_angle_alpha 90.000000
_cell_angle_beta 101.453247
_cell_angle_gamma 90.000000
_cell_volume 2881.254409
_symmetry_space_group_name_H-M "C 2/C"
_symmetry_group_IT_number 15
_symmetry_cell_setting 'monoclinic'
loop_
_space_group_symop_operation_xyz
x,y,z
-x,y,1/2-z
-x,-y,-z
x,-y,1/2+z
1/2+x,1/2+y,z
1/2-x,1/2+y,1/2-z
1/2-x,1/2-y,-z
1/2+x,1/2-y,1/2+z
loop_
_atom_site_type_symbol
_atom_site_label
_atom_site_fract_x
_atom_site_fract_y
_atom_site_fract_z
Si Si1 0.463596 0.906485 0.413994
Si Si2 0.407499 0.517024 0.183875
Si Si3 0.853600 0.612721 0.812740
Si Si4 0.000000 0.257027 0.250000
Si Si5 0.294053 0.171691 0.398725
Si Si6 0.555062 0.430318 0.491835
Si Si7 0.320293 0.235258 0.613054
Si Si8 0.139590 0.976755 0.148809
O O1 0.409681 0.981984 0.352643
O O2 0.503619 0.867638 0.345330
O O3 0.437705 0.752885 0.460499
O O4 0.500000 0.000000 0.500000
O O5 0.447706 0.649832 0.245100
O O6 0.438480 0.409123 0.117163
O O7 0.361477 0.612363 0.113733
O O8 0.384660 0.408159 0.261900
O O9 0.811467 0.498781 0.850439
O O10 0.841905 0.600205 0.697931
O O11 0.846624 0.817907 0.836717
O O12 0.312698 0.142944 0.511474
O O13 0.232447 0.176722 0.371107
O O14 0.312737 0.353432 0.360068
O O15 0.500000 0.500000 0.500000
O O16 0.597916 0.555886 0.552062
#
# Coordination Sequence:
#
# PCOD8146745 Si02
#       8
#     8   8   8   4   8   8   8   8
#     4  11  25  40  63  96 132 173 215 274 335 397
#     4  11  20  40  65  92 131 168 221 269 331 395
#     4  10  24  44  64  98 133 169 222 276 335 398
#     4  12  20  42  64  86 130 176 204 272 336 378
#     4  11  24  44  71  94 132 176 223 280 341 397
#     4  11  20  37  66  91 122 173 219 264 324 399
#     4  10  23  43  68  99 127 175 222 276 340 400
#     4  10  22  42  63  95 129 171 222 271 329 397
#
# _framework density 20.824263999999999
#
# number of rings (size 3 to 8) (size 9 to 14) (size 15 to 20)
#    0.000    1.333    6.667    0.000    7.467    0.000 
#    7.200    2.667    0.000    0.000    0.000    0.000 
#    0.000    0.000    0.000    0.000    0.000    0.000 
#
# Total GULP energy -371686.819724 kJ/mol
# GULP energy per Si atom -12389.560657 kJ/mol
# Density = 2.077687 g / cm^3
# Si number density = 20.824264 Si / 1000 Ang^3
#
#
#
# Elastic Constant Matrix: (Units=GPa)
#
#
# Indices 1 2 3 4 5 6 
#
# 1 108.9733 28.7341 43.7630 0.0000 -1.0224 0.0000
# 2 28.7341 54.5307 32.9713 0.0000 -10.9052 0.0000
# 3 43.7630 32.9713 155.1611 0.0000 -11.8925 0.0000
# 4 0.0000 0.0000 0.0000 22.0923 0.0000 -6.2634
# 5 -1.0224 -10.9052 -11.8925 0.0000 45.8300 0.0000
# 6 0.0000 0.0000 0.0000 -6.2634 0.0000 22.2823
#
#
#
# Elastic Compliance Matrix: (Units=1/GPa)
#
#
# Indices 1 2 3 4 5 6 
#
# 1 0.011374 -0.004917 -0.002279 0.000000 -0.001508 0.000000
# 2 -0.004917 0.023883 -0.003327 0.000000 0.004710 0.000000
# 3 -0.002279 -0.003327 0.007887 0.000000 0.001204 0.000000
# 4 0.000000 0.000000 0.000000 0.049184 0.000000 0.013825
# 5 -0.001508 0.004710 0.001204 0.000000 0.023219 0.000000
# 6 0.000000 0.000000 0.000000 0.013825 0.000000 0.048765
#
#
# Mechanical properties :
#
#
# Convention : Reuss Voigt Hill
#
# Bulk Modulus (GPa) = 45.25319 58.84467 52.04893
# Shear Modulus (GPa) = 25.94376 32.25402 29.09889
#
# Velocity S-wave (km/s) = 3.53348 3.93983 3.74218
# Velocity P-wave (km/s) = 6.19883 7.00111 6.61215
#
# Compressibility (1/GPa) = 0.02209789
#
# Stress axis : x y z
#
# Youngs Moduli (GPa) = 87.91915 41.87091 126.79193
#
# Poissons Ratio (x) = 0.20588 0.28892
# Poissons Ratio (y) = 0.43231 0.42186
# Poissons Ratio (z) = 0.20034 0.13931
#
# Static dielectric constant tensor:
#      x y z
#    x 4.831490 0.000000 1.487910 
#    y 0.000000 3.506980 0.000000 
#    z 1.487910 0.000000 6.068970 
# 
# 
# High freq. dielectric constant tensor:
#      x y z
#    x 1.829800 0.000000 0.001710 
#    y 0.000000 1.766480 0.000000 
#    z 0.001710 0.000000 1.842810 
# 
# From -- ./inp_files/171862.got.cif
#   From: 2010.06.25/outbox.cif.g09.slc.cpg/sg15_86_cif.got.tgz:171862.got - 2010.06.28 07:06:18.
