data_PCOD8146694
_publ_section_title
;
Structure prediction by ZEFSAII (Michael W. Deem and Ramdas Pophale) SiO2 
 PCOD8146694
Probable space group: C 2/C
;
_chemical_formula_sum "Si O2"
_cell_formula_units_Z 48
_cell_length_a 24.890414
_cell_length_b 11.481316
_cell_length_c 9.946783
_cell_angle_alpha 90.000000
_cell_angle_beta 125.568008
_cell_angle_gamma 90.000000
_cell_volume 2312.194206
_symmetry_space_group_name_H-M "C 2/C"
_symmetry_group_IT_number 15
_symmetry_cell_setting 'monoclinic'
loop_
_space_group_symop_operation_xyz
x,y,z
-x,y,1/2-z
-x,-y,-z
x,-y,1/2+z
1/2+x,1/2+y,z
1/2-x,1/2+y,1/2-z
1/2-x,1/2-y,-z
1/2+x,1/2-y,1/2+z
loop_
_atom_site_type_symbol
_atom_site_label
_atom_site_fract_x
_atom_site_fract_y
_atom_site_fract_z
Si Si1 0.778961 0.092367 0.439322
Si Si2 0.547876 0.002990 0.444232
Si Si3 0.176232 0.926368 0.198874
Si Si4 0.039964 0.034495 0.929659
Si Si5 0.603804 0.758464 0.932491
Si Si6 0.639482 0.180993 0.200415
O O1 0.812071 0.047730 0.626410
O O2 0.822346 0.201790 0.443676
O O3 0.704070 0.125855 0.364620
O O4 0.769577 0.987661 0.317322
O O5 0.500000 0.978996 0.250000
O O6 0.591567 0.120516 0.493116
O O7 0.500000 0.000000 0.500000
O O8 0.601392 0.900270 0.539893
O O9 0.167888 0.789870 0.157717
O O10 0.111628 0.984652 0.046207
O O11 0.048186 0.172095 0.910684
O O12 0.000000 0.975214 0.750000
O O13 0.000000 0.000000 0.000000
O O14 0.591899 0.780163 0.754782
#
# Coordination Sequence:
#
# PCOD8146694 Si02
#       6
#     8   8   8   8   8   8
#     4  10  23  42  72  92 129 169 222 272 335 387
#     4  12  26  44  66  98 135 180 223 268 329 401
#     4  10  22  42  61  99 123 167 220 268 326 391
#     4  11  22  38  68  93 129 172 212 269 325 387
#     4  10  22  44  66  93 127 176 219 262 327 396
#     4  11  24  42  71  91 134 178 213 272 332 399
#
# _framework density 20.759502999999999
#
# number of rings (size 3 to 8) (size 9 to 14) (size 15 to 20)
#    0.000    1.333    1.667    5.500    7.000    0.667 
#    6.000    0.833    0.000    0.000    0.000    0.000 
#    0.000    0.000    0.000    0.000    0.000    0.000 
#
# Total GULP energy -297381.859657 kJ/mol
# GULP energy per Si atom -12390.910819 kJ/mol
# Density = 2.071225 g / cm^3
# Si number density = 20.759503 Si / 1000 Ang^3
#
#
#
# Elastic Constant Matrix: (Units=GPa)
#
#
# Indices 1 2 3 4 5 6 
#
# 1 84.6686 48.6264 52.4933 0.0000 -9.7816 0.0000
# 2 48.6264 133.9329 70.0752 0.0000 -10.6885 0.0000
# 3 52.4933 70.0752 128.7475 0.0000 -8.1331 0.0000
# 4 0.0000 0.0000 0.0000 33.6534 0.0000 -8.7334
# 5 -9.7816 -10.6885 -8.1331 0.0000 32.7903 0.0000
# 6 0.0000 0.0000 0.0000 -8.7334 0.0000 28.3566
#
#
#
# Elastic Compliance Matrix: (Units=1/GPa)
#
#
# Indices 1 2 3 4 5 6 
#
# 1 0.017172 -0.003414 -0.004968 0.000000 0.002778 0.000000
# 2 -0.003414 0.011252 -0.004638 0.000000 0.001499 0.000000
# 3 -0.004968 -0.004638 0.012321 0.000000 0.000062 0.000000
# 4 0.000000 0.000000 0.000000 0.032296 0.000000 0.009947
# 5 0.002778 0.001499 0.000062 0.000000 0.031830 0.000000
# 6 0.000000 0.000000 0.000000 0.009947 0.000000 0.038329
#
#
# Mechanical properties :
#
#
# Convention : Reuss Voigt Hill
#
# Bulk Modulus (GPa) = 67.99831 76.63765 72.31798
# Shear Modulus (GPa) = 28.71249 30.70366 29.70808
#
# Velocity S-wave (km/s) = 3.72304 3.84997 3.78704
# Velocity P-wave (km/s) = 7.16294 7.53393 7.35078
#
# Compressibility (1/GPa) = 0.01470625
#
# Stress axis : x y z
#
# Youngs Moduli (GPa) = 58.23335 88.87355 81.16278
#
# Poissons Ratio (x) = 0.30338 0.40322
# Poissons Ratio (y) = 0.19879 0.37641
# Poissons Ratio (z) = 0.28931 0.41217
#
# Static dielectric constant tensor:
#      x y z
#    x 2.986860 0.000000 0.394450 
#    y 0.000000 4.027560 0.000000 
#    z 0.394450 0.000000 3.461500 
# 
# 
# High freq. dielectric constant tensor:
#      x y z
#    x 1.823780 0.000000 0.008660 
#    y 0.000000 1.811180 0.000000 
#    z 0.008660 0.000000 1.806720 
# 
# From -- ./inp_files/65245.got.cif
#   From: 2010.06.25/outbox.cif.g09.slc.cpg/sg15_33_cif.got.tgz:65245.got - 2010.06.28 07:06:18.
