data_PCOD8146373
_publ_section_title
;
Structure prediction by ZEFSAII (Michael W. Deem and Ramdas Pophale) SiO2 
 PCOD8146373
Probable space group: C 2/C
;
_chemical_formula_sum "Si O2"
_cell_formula_units_Z 56
_cell_length_a 24.449730
_cell_length_b 13.686967
_cell_length_c 9.011291
_cell_angle_alpha 90.000000
_cell_angle_beta 119.263693
_cell_angle_gamma 90.000000
_cell_volume 2630.713831
_symmetry_space_group_name_H-M "C 2/C"
_symmetry_group_IT_number 15
_symmetry_cell_setting 'monoclinic'
loop_
_space_group_symop_operation_xyz
x,y,z
-x,y,1/2-z
-x,-y,-z
x,-y,1/2+z
1/2+x,1/2+y,z
1/2-x,1/2+y,1/2-z
1/2-x,1/2-y,-z
1/2+x,1/2-y,1/2+z
loop_
_atom_site_type_symbol
_atom_site_label
_atom_site_fract_x
_atom_site_fract_y
_atom_site_fract_z
Si Si1 0.922338 0.723074 0.894984
Si Si2 0.300645 0.334386 0.368229
Si Si3 0.917868 0.092550 0.879327
Si Si4 0.500000 0.304873 0.250000
Si Si5 0.153502 0.900955 0.753430
Si Si6 0.711597 0.897036 0.634404
Si Si7 0.000000 0.820164 0.750000
Si Si8 0.175042 0.433781 0.260597
O O1 0.867338 0.800629 0.849519
O O2 0.953391 0.748666 0.776921
O O3 0.892160 0.615852 0.858643
O O4 0.970731 0.730653 0.093026
O O5 0.349492 0.356191 0.300613
O O6 0.329940 0.383591 0.553101
O O7 0.295391 0.218454 0.374745
O O8 0.231319 0.377477 0.247951
O O9 0.950080 0.127256 0.769815
O O10 0.904011 0.976870 0.843281
O O11 0.961505 0.112488 0.081687
O O12 0.216158 0.931884 0.748972
O O13 0.685825 0.936985 0.447566
O O14 0.671601 0.952741 0.706427
#
# Coordination Sequence:
#
# PCOD8146373 Si02
#       8
#     8   8   8   4   8   8   4   8
#     4  11  22  42  64  91 130 170 214 261 309 383
#     4  11  21  43  65  94 130 173 202 263 323 380
#     4  11  23  40  62  95 132 172 212 254 309 387
#     4  10  28  39  60  95 138 166 213 266 315 360
#     4  11  21  36  65  94 131 163 210 250 308 392
#     4  11  22  39  67 100 129 165 204 261 327 383
#     4  10  22  41  64  89 132 188 211 240 315 372
#     4  11  22  41  67  95 124 168 214 262 324 373
#
# _framework density 21.286998000000001
#
# number of rings (size 3 to 8) (size 9 to 14) (size 15 to 20)
#    0.000    1.143    5.714    0.857    2.000    4.571 
#    0.000    1.429    0.000   14.571    0.000    0.000 
#    0.000    0.000    0.000    0.000    0.000    0.000 
#
# Total GULP energy -347137.823712 kJ/mol
# GULP energy per Si atom -12397.779418 kJ/mol
# Density = 2.123855 g / cm^3
# Si number density = 21.286998 Si / 1000 Ang^3
#
#
#
# Elastic Constant Matrix: (Units=GPa)
#
#
# Indices 1 2 3 4 5 6 
#
# 1 69.0357 21.5228 18.4606 0.0000 4.3953 0.0000
# 2 21.5228 73.4339 20.1162 0.0000 -3.2427 0.0000
# 3 18.4606 20.1162 58.1818 0.0000 2.5328 0.0000
# 4 0.0000 0.0000 0.0000 5.7654 0.0000 6.3231
# 5 4.3953 -3.2427 2.5328 0.0000 27.4628 0.0000
# 6 0.0000 0.0000 0.0000 6.3231 0.0000 38.3998
#
#
#
# Elastic Compliance Matrix: (Units=1/GPa)
#
#
# Indices 1 2 3 4 5 6 
#
# 1 0.016957 -0.004037 -0.003861 0.000000 -0.002835 0.000000
# 2 -0.004037 0.016145 -0.004430 0.000000 0.002961 0.000000
# 3 -0.003861 -0.004430 0.020020 0.000000 -0.001752 0.000000
# 4 0.000000 0.000000 0.000000 0.211675 0.000000 -0.034856
# 5 -0.002835 0.002961 -0.001752 0.000000 0.037378 0.000000
# 6 0.000000 0.000000 0.000000 -0.034856 0.000000 0.031781
#
#
# Mechanical properties :
#
#
# Convention : Reuss Voigt Hill
#
# Bulk Modulus (GPa) = 35.12984 35.65006 35.38995
# Shear Modulus (GPa) = 13.58319 23.69571 18.63945
#
# Velocity S-wave (km/s) = 2.52880 3.34002 2.96231
# Velocity P-wave (km/s) = 5.00652 5.62654 5.32556
#
# Compressibility (1/GPa) = 0.02846583
#
# Stress axis : x y z
#
# Youngs Moduli (GPa) = 58.97301 61.93734 49.94883
#
# Poissons Ratio (x) = 0.25007 0.19285
# Poissons Ratio (y) = 0.23810 0.22128
# Poissons Ratio (z) = 0.22769 0.27439
#
# Static dielectric constant tensor:
#      x y z
#    x 4.173530 0.000000 0.097390 
#    y 0.000000 3.727180 0.000000 
#    z 0.097390 0.000000 3.806860 
# 
# 
# High freq. dielectric constant tensor:
#      x y z
#    x 1.841510 0.000000 0.005620 
#    y 0.000000 1.821550 0.000000 
#    z 0.005620 0.000000 1.827160 
# 
# From -- ./inp_files/61510.got.cif
#   From: 2010.06.25/outbox.cif.g09.slc.cpg/sg15_31_cif.got.tgz:61510.got - 2010.06.28 07:06:18.
