data_PCOD8146463
_publ_section_title
;
Structure prediction by ZEFSAII (Michael W. Deem and Ramdas Pophale) SiO2 
 PCOD8146463
Probable space group: C 2/C
;
_chemical_formula_sum "Si O2"
_cell_formula_units_Z 40
_cell_length_a 4.850060
_cell_length_b 12.406401
_cell_length_c 26.233249
_cell_angle_alpha 90.000000
_cell_angle_beta 114.268399
_cell_angle_gamma 90.000000
_cell_volume 1439.009516
_symmetry_space_group_name_H-M "C 2/C"
_symmetry_group_IT_number 15
_symmetry_cell_setting 'monoclinic'
loop_
_space_group_symop_operation_xyz
x,y,z
-x,y,1/2-z
-x,-y,-z
x,-y,1/2+z
1/2+x,1/2+y,z
1/2-x,1/2+y,1/2-z
1/2-x,1/2-y,-z
1/2+x,1/2-y,1/2+z
loop_
_atom_site_type_symbol
_atom_site_label
_atom_site_fract_x
_atom_site_fract_y
_atom_site_fract_z
Si Si1 0.235628 0.698141 0.836604
Si Si2 0.000000 0.129736 0.250000
Si Si3 0.282239 0.172344 0.080751
Si Si4 0.964814 0.646300 0.506091
Si Si5 0.117504 0.940619 0.065925
Si Si6 0.500000 0.980414 0.250000
O O1 0.566865 0.756243 0.863244
O O2 0.171056 0.646788 0.887685
O O3 0.233775 0.596383 0.798257
O O4 0.005155 0.791970 0.800543
O O5 0.297588 0.055765 0.270961
O O6 0.982177 0.231580 0.032809
O O7 0.175687 0.058207 0.094592
O O8 0.535635 0.154799 0.055212
O O9 0.274264 0.592309 0.549396
O O10 0.707952 0.567411 0.512041
#
# Coordination Sequence:
#
# PCOD8146463 Si02
#       6
#     8   4   8   8   8   4
#     4  10  25  42  69 100 124 166 221 264 326 393
#     4  11  26  49  70  92 128 165 208 275 334 388
#     4  10  22  41  65  96 136 175 215 267 313 373
#     4  10  24  40  62  96 136 179 220 254 311 382
#     4  11  23  41  64  96 134 174 217 263 315 377
#     4  11  26  49  70  94 128 165 210 273 336 392
#
# _framework density 27.796897999999999
#
# number of rings (size 3 to 8) (size 9 to 14) (size 15 to 20)
#    0.000    1.600    0.000    2.400    0.000   24.800 
#    0.000    0.000    0.000    0.000    0.000    0.000 
#    0.000    0.000    0.000    0.000    0.000    0.000 
#
# Total GULP energy -247941.297219 kJ/mol
# GULP energy per Si atom -12397.064861 kJ/mol
# Density = 2.773363 g / cm^3
# Si number density = 27.796898 Si / 1000 Ang^3
#
#
#
# Elastic Constant Matrix: (Units=GPa)
#
#
# Indices 1 2 3 4 5 6 
#
# 1 110.4563 44.4070 6.1065 -0.0002 4.6502 -0.0002
# 2 44.4070 204.3860 59.0900 -0.0001 20.1783 -0.0001
# 3 6.1065 59.0900 90.3575 -0.0002 24.4946 -0.0002
# 4 -0.0002 -0.0001 -0.0002 47.4097 -0.0002 0.3672
# 5 4.6502 20.1783 24.4946 -0.0002 35.5832 -0.0001
# 6 -0.0002 -0.0001 -0.0002 0.3672 -0.0001 24.1741
#
#
#
# Elastic Compliance Matrix: (Units=1/GPa)
#
#
# Indices 1 2 3 4 5 6 
#
# 1 0.009995 -0.002420 0.001093 0.000000 -0.000686 0.000000
# 2 -0.002420 0.006641 -0.003989 0.000000 -0.000704 0.000000
# 3 0.001093 -0.003989 0.016016 0.000000 -0.008906 0.000000
# 4 0.000000 0.000000 0.000000 0.021095 0.000000 -0.000320
# 5 -0.000686 -0.000704 -0.008906 0.000000 0.034723 0.000000
# 6 0.000000 0.000000 0.000000 -0.000320 0.000000 0.041371
#
#
# Mechanical properties :
#
#
# Convention : Reuss Voigt Hill
#
# Bulk Modulus (GPa) = 45.41109 69.37854 57.39481
# Shear Modulus (GPa) = 33.82671 41.13982 37.48327
#
# Velocity S-wave (km/s) = 3.49223 3.85127 3.67613
# Velocity P-wave (km/s) = 5.71254 6.69251 6.22185
#
# Compressibility (1/GPa) = 0.02202105
#
# Stress axis : x y z
#
# Youngs Moduli (GPa) = 100.05345 150.57724 62.43775
#
# Poissons Ratio (x) = 0.36437 -0.06825
# Poissons Ratio (y) = 0.24211 0.24904
# Poissons Ratio (z) = -0.10936 0.60059
#
# Static dielectric constant tensor:
#      x y z
#    x 4.685840 0.000000 0.247800 
#    y 0.000000 5.949510 0.000000 
#    z 0.247800 0.000000 5.145270 
# 
# 
# High freq. dielectric constant tensor:
#      x y z
#    x 2.098900 0.000000 0.029540 
#    y 0.000000 2.177360 0.000000 
#    z 0.029540 0.000000 2.110130 
# 
# From -- ./inp_files/285267.got.cif
#   From: 2010.06.25/outbox.cif.g09.slc.cpg/sg15_143_cif.got.tgz:285267.got - 2010.06.28 07:06:18.
