data_PCOD8146451
_publ_section_title
;
Structure prediction by ZEFSAII (Michael W. Deem and Ramdas Pophale) SiO2 
 PCOD8146451
Probable space group: C 2/C
;
_chemical_formula_sum "Si O2"
_cell_formula_units_Z 40
_cell_length_a 5.124650
_cell_length_b 13.487795
_cell_length_c 23.913652
_cell_angle_alpha 90.000000
_cell_angle_beta 107.789476
_cell_angle_gamma 90.000000
_cell_volume 1573.883733
_symmetry_space_group_name_H-M "C 2/C"
_symmetry_group_IT_number 15
_symmetry_cell_setting 'monoclinic'
loop_
_space_group_symop_operation_xyz
x,y,z
-x,y,1/2-z
-x,-y,-z
x,-y,1/2+z
1/2+x,1/2+y,z
1/2-x,1/2+y,1/2-z
1/2-x,1/2-y,-z
1/2+x,1/2-y,1/2+z
loop_
_atom_site_type_symbol
_atom_site_label
_atom_site_fract_x
_atom_site_fract_y
_atom_site_fract_z
Si Si1 0.787259 0.446750 0.524594
Si Si2 0.655584 0.502493 0.629396
Si Si3 0.860658 0.799366 0.069695
Si Si4 0.000000 0.178723 0.250000
Si Si5 0.500000 0.953764 0.750000
Si Si6 0.919903 0.206817 0.124191
O O1 0.500000 0.500000 0.500000
O O2 0.861962 0.462288 0.594208
O O3 0.749674 0.331516 0.500779
O O4 0.000000 0.500000 0.500000
O O5 0.480503 0.599095 0.603811
O O6 0.848660 0.524084 0.695201
O O7 0.451093 0.411432 0.627626
O O8 0.619222 0.761930 0.093916
O O9 0.109540 0.721901 0.083152
O O10 0.723155 0.114291 0.233753
O O11 0.023516 0.245250 0.308419
#
# Coordination Sequence:
#
# PCOD8146451 Si02
#       6
#     8   8   8   4   4   8
#     4  10  22  41  65  94 132 168 209 270 322 373
#     4  10  24  45  68  94 134 168 211 274 318 378
#     4  11  24  41  66  99 127 170 220 258 326 391
#     4  10  22  43  64  95 136 166 212 279 320 369
#     4  10  22  41  70  95 122 176 218 251 332 389
#     4  11  24  42  66  95 129 170 217 265 321 385
#
# _framework density 25.414838
#
# number of rings (size 3 to 8) (size 9 to 14) (size 15 to 20)
#    0.000    1.600    0.000    4.800    0.000   16.800 
#    0.000    6.000    0.000    0.000    0.000    0.000 
#    0.000    0.000    0.000    0.000    0.000    0.000 
#
# Total GULP energy -247931.779792 kJ/mol
# GULP energy per Si atom -12396.588990 kJ/mol
# Density = 2.535699 g / cm^3
# Si number density = 25.414838 Si / 1000 Ang^3
#
#
#
# Elastic Constant Matrix: (Units=GPa)
#
#
# Indices 1 2 3 4 5 6 
#
# 1 155.1018 9.3747 42.5715 0.0000 -13.8258 0.0000
# 2 9.3747 71.6661 -9.0520 0.0000 5.7469 0.0000
# 3 42.5715 -9.0520 161.6735 0.0000 -6.2096 0.0000
# 4 0.0000 0.0000 0.0000 17.4970 0.0000 -1.2590
# 5 -13.8258 5.7469 -6.2096 0.0000 46.9364 0.0000
# 6 0.0000 0.0000 0.0000 -1.2590 0.0000 45.3612
#
#
#
# Elastic Compliance Matrix: (Units=1/GPa)
#
#
# Indices 1 2 3 4 5 6 
#
# 1 0.007233 -0.001350 -0.001902 0.000000 0.002044 0.000000
# 2 -0.001350 0.014429 0.001086 0.000000 -0.002021 0.000000
# 3 -0.001902 0.001086 0.006755 0.000000 0.000200 0.000000
# 4 0.000000 0.000000 0.000000 0.057267 0.000000 0.001589
# 5 0.002044 -0.002021 0.000200 0.000000 0.022182 0.000000
# 6 0.000000 0.000000 0.000000 0.001589 0.000000 0.022089
#
#
# Mechanical properties :
#
#
# Convention : Reuss Voigt Hill
#
# Bulk Modulus (GPa) = 41.51994 52.69221 47.10608
# Shear Modulus (GPa) = 35.13312 44.99539 40.06425
#
# Velocity S-wave (km/s) = 3.72208 4.21222 3.97471
# Velocity P-wave (km/s) = 5.90290 6.66595 6.29600
#
# Compressibility (1/GPa) = 0.02408481
#
# Stress axis : x y z
#
# Youngs Moduli (GPa) = 138.25128 69.30273 148.04826
#
# Poissons Ratio (x) = 0.09358 0.28155
# Poissons Ratio (y) = 0.18668 -0.16076
# Poissons Ratio (z) = 0.26291 -0.07525
#
# Static dielectric constant tensor:
#      x y z
#    x 4.976480 0.000000 -0.108310 
#    y 0.000000 4.742520 0.000000 
#    z -0.108310 0.000000 5.753150 
# 
# 
# High freq. dielectric constant tensor:
#      x y z
#    x 2.028160 0.000000 0.002850 
#    y 0.000000 2.016640 0.000000 
#    z 0.002850 0.000000 2.046320 
# 
# From -- ./inp_files/260199.got.cif
#   From: 2010.06.25/outbox.cif.g09.slc.cpg/sg15_131_cif.got.tgz:260199.got - 2010.06.28 07:06:18.
