data_PCOD8146709
_publ_section_title
;
Structure prediction by ZEFSAII (Michael W. Deem and Ramdas Pophale) SiO2 
 PCOD8146709
Probable space group: C 2/C
;
_chemical_formula_sum "Si O2"
_cell_formula_units_Z 40
_cell_length_a 8.817423
_cell_length_b 10.520724
_cell_length_c 21.061150
_cell_angle_alpha 90.000000
_cell_angle_beta 89.163205
_cell_angle_gamma 90.000000
_cell_volume 1953.543405
_symmetry_space_group_name_H-M "C 2/C"
_symmetry_group_IT_number 15
_symmetry_cell_setting 'monoclinic'
loop_
_space_group_symop_operation_xyz
x,y,z
-x,y,1/2-z
-x,-y,-z
x,-y,1/2+z
1/2+x,1/2+y,z
1/2-x,1/2+y,1/2-z
1/2-x,1/2-y,-z
1/2+x,1/2-y,1/2+z
loop_
_atom_site_type_symbol
_atom_site_label
_atom_site_fract_x
_atom_site_fract_y
_atom_site_fract_z
Si Si1 0.757152 0.735458 0.165215
Si Si2 0.000000 0.133811 0.250000
Si Si3 0.177130 0.132066 0.036304
Si Si4 0.000000 0.622417 0.250000
Si Si5 0.259770 0.520705 0.163514
Si Si6 0.681950 0.373525 0.968117
O O1 0.619691 0.725669 0.215476
O O2 0.733907 0.635282 0.108611
O O3 0.914608 0.710067 0.199822
O O4 0.762859 0.877358 0.137058
O O5 0.084336 0.044138 0.299871
O O6 0.997193 0.143540 0.033839
O O7 0.250000 0.250000 0.000000
O O8 0.230736 0.997468 0.007834
O O9 0.882106 0.535322 0.288753
O O10 0.249950 0.614539 0.103268
O O11 0.750000 0.250000 0.000000
#
# Coordination Sequence:
#
# PCOD8146709 Si02
#       6
#     8   4   8   4   8   8
#     4  11  22  43  66  92 129 166 215 266 318 387
#     4  10  22  42  62  92 126 172 206 264 326 376
#     4  11  24  44  67  93 128 174 214 264 323 381
#     4  10  26  38  64 100 122 166 212 262 324 382
#     4  11  22  43  64  93 128 164 214 264 320 382
#     4  11  26  43  66  97 130 171 219 267 323 380
#
# _framework density 20.475612000000002
#
# number of rings (size 3 to 8) (size 9 to 14) (size 15 to 20)
#    0.000    1.200    4.000    1.200    2.800    2.400 
#   14.400    0.000    0.000    0.000    0.000    0.000 
#    0.000    0.000    0.000    0.000    0.000    0.000 
#
# Total GULP energy -248083.661735 kJ/mol
# GULP energy per Si atom -12404.183087 kJ/mol
# Density = 2.042901 g / cm^3
# Si number density = 20.475612 Si / 1000 Ang^3
#
#
#
# Elastic Constant Matrix: (Units=GPa)
#
#
# Indices 1 2 3 4 5 6 
#
# 1 93.5909 44.4732 41.5331 0.0000 16.5179 0.0000
# 2 44.4732 140.9024 61.9741 0.0000 12.5555 0.0000
# 3 41.5331 61.9741 139.3002 0.0000 19.9077 0.0000
# 4 0.0000 0.0000 0.0000 39.5936 0.0000 2.7088
# 5 16.5179 12.5555 19.9077 0.0000 31.6609 0.0000
# 6 0.0000 0.0000 0.0000 2.7088 0.0000 22.3075
#
#
#
# Elastic Compliance Matrix: (Units=1/GPa)
#
#
# Indices 1 2 3 4 5 6 
#
# 1 0.013900 -0.003034 -0.002120 0.000000 -0.004715 0.000000
# 2 -0.003034 0.009523 -0.003317 0.000000 -0.000108 0.000000
# 3 -0.002120 -0.003317 0.009823 0.000000 -0.003755 0.000000
# 4 0.000000 0.000000 0.000000 0.025468 0.000000 -0.003093
# 5 -0.004715 -0.000108 -0.003755 0.000000 0.036449 0.000000
# 6 0.000000 0.000000 0.000000 -0.003093 0.000000 0.045204
#
#
# Mechanical properties :
#
#
# Convention : Reuss Voigt Hill
#
# Bulk Modulus (GPa) = 61.33776 74.41715 67.87745
# Shear Modulus (GPa) = 30.72304 33.76661 32.24482
#
# Velocity S-wave (km/s) = 3.87779 4.06533 3.97267
# Velocity P-wave (km/s) = 7.07610 7.64586 7.36649
#
# Compressibility (1/GPa) = 0.01630317
#
# Stress axis : x y z
#
# Youngs Moduli (GPa) = 71.94299 105.00554 101.79972
#
# Poissons Ratio (x) = 0.31863 0.21586
# Poissons Ratio (y) = 0.21831 0.33764
# Poissons Ratio (z) = 0.15255 0.34827
#
# Static dielectric constant tensor:
#      x y z
#    x 3.807590 0.000000 -0.012950 
#    y 0.000000 3.569680 0.000000 
#    z -0.012950 0.000000 3.920940 
# 
# 
# High freq. dielectric constant tensor:
#      x y z
#    x 1.806380 0.000000 -0.001160 
#    y 0.000000 1.795810 0.000000 
#    z -0.001160 0.000000 1.817400 
# 
# From -- ./inp_files/187848.got.cif
#   From: 2010.06.25/outbox.cif.g09.slc.cpg/sg15_94_cif.got.tgz:187848.got - 2010.06.28 07:06:18.
