data_PCOD8146974
_publ_section_title
;
Structure prediction by ZEFSAII (Michael W. Deem and Ramdas Pophale) SiO2 
 PCOD8146974
Probable space group: C 2/C
;
_chemical_formula_sum "Si O2"
_cell_formula_units_Z 48
_cell_length_a 17.449939
_cell_length_b 16.115865
_cell_length_c 7.135058
_cell_angle_alpha 90.000000
_cell_angle_beta 77.318189
_cell_angle_gamma 90.000000
_cell_volume 1957.576494
_symmetry_space_group_name_H-M "C 2/C"
_symmetry_group_IT_number 15
_symmetry_cell_setting 'monoclinic'
loop_
_space_group_symop_operation_xyz
x,y,z
-x,y,1/2-z
-x,-y,-z
x,-y,1/2+z
1/2+x,1/2+y,z
1/2-x,1/2+y,1/2-z
1/2-x,1/2-y,-z
1/2+x,1/2-y,1/2+z
loop_
_atom_site_type_symbol
_atom_site_label
_atom_site_fract_x
_atom_site_fract_y
_atom_site_fract_z
Si Si1 0.508806 0.903417 0.459579
Si Si2 0.161330 0.688127 0.834387
Si Si3 0.225645 0.847898 0.932169
Si Si4 0.868883 0.704802 0.091887
Si Si5 0.600334 0.558404 0.331244
Si Si6 0.565923 0.615079 0.958017
O O1 0.500000 0.879780 0.250000
O O2 0.594025 0.868134 0.467095
O O3 0.439145 0.858057 0.607471
O O4 0.500000 0.000000 0.500000
O O5 0.157863 0.778298 0.935218
O O6 0.158036 0.695218 0.611584
O O7 0.243595 0.647703 0.868675
O O8 0.295922 0.821599 0.755785
O O9 0.181917 0.932879 0.903521
O O10 0.903171 0.795732 0.126766
O O11 0.613352 0.597055 0.121666
O O12 0.528017 0.609413 0.463543
O O13 0.585248 0.460275 0.304987
#
# Coordination Sequence:
#
# PCOD8146974 Si02
#       6
#     8   8   8   8   8   8
#     4  10  24  45  70  97 138 183 232 278 332 406
#     4  10  23  42  66 100 136 180 227 276 336 408
#     4  11  23  42  67 102 141 170 227 284 346 400
#     4  11  23  44  72  99 133 188 224 282 338 409
#     4  10  22  42  67  99 135 176 222 284 337 415
#     4  10  22  43  71  94 137 177 231 272 346 407
#
# _framework density 24.520115000000001
#
# number of rings (size 3 to 8) (size 9 to 14) (size 15 to 20)
#    0.000    1.667    1.667    1.500    7.000    2.667 
#    6.000    3.333    0.000    0.000    0.000    0.000 
#    0.000    0.000    0.000    0.000    0.000    0.000 
#
# Total GULP energy -297351.457324 kJ/mol
# GULP energy per Si atom -12389.644055 kJ/mol
# Density = 2.446431 g / cm^3
# Si number density = 24.520115 Si / 1000 Ang^3
#
#
#
# Elastic Constant Matrix: (Units=GPa)
#
#
# Indices 1 2 3 4 5 6 
#
# 1 106.8768 66.0097 22.4505 0.0000 8.1301 0.0000
# 2 66.0097 145.7501 7.9478 0.0000 -17.1449 0.0000
# 3 22.4505 7.9478 34.6117 0.0000 -4.6582 0.0000
# 4 0.0000 0.0000 0.0000 26.5470 0.0000 2.0721
# 5 8.1301 -17.1449 -4.6582 0.0000 35.6227 0.0000
# 6 0.0000 0.0000 0.0000 2.0721 0.0000 47.1720
#
#
#
# Elastic Compliance Matrix: (Units=1/GPa)
#
#
# Indices 1 2 3 4 5 6 
#
# 1 0.017581 -0.008495 -0.010732 0.000000 -0.009504 0.000000
# 2 -0.008495 0.011429 0.003957 0.000000 0.007957 0.000000
# 3 -0.010732 0.003957 0.036167 0.000000 0.009083 0.000000
# 4 0.000000 0.000000 0.000000 0.037799 0.000000 -0.001660
# 5 -0.009504 0.007957 0.009083 0.000000 0.035258 0.000000
# 6 0.000000 0.000000 0.000000 -0.001660 0.000000 0.021272
#
#
# Mechanical properties :
#
#
# Convention : Reuss Voigt Hill
#
# Bulk Modulus (GPa) = 28.87190 53.33940 41.10565
# Shear Modulus (GPa) = 24.80271 34.59038 29.69655
#
# Velocity S-wave (km/s) = 3.18390 3.76000 3.48388
# Velocity P-wave (km/s) = 5.03156 6.37579 5.74314
#
# Compressibility (1/GPa) = 0.03463575
#
# Stress axis : x y z
#
# Youngs Moduli (GPa) = 56.88073 87.49957 27.64957
#
# Poissons Ratio (x) = 0.74331 0.29673
# Poissons Ratio (y) = 0.48320 -0.10940
# Poissons Ratio (z) = 0.61044 -0.34621
#
# Static dielectric constant tensor:
#      x y z
#    x 4.722050 0.000000 0.219940 
#    y 0.000000 4.361380 0.000000 
#    z 0.219940 0.000000 4.463610 
# 
# 
# High freq. dielectric constant tensor:
#      x y z
#    x 1.985020 0.000000 0.012640 
#    y 0.000000 1.964830 0.000000 
#    z 0.012640 0.000000 1.978570 
# 
# From -- ./inp_files/47469.got.cif
#   From: 2010.06.25/outbox.cif.g09.slc.cpg/sg15_24_cif.got.tgz:47469.got - 2010.06.28 07:06:18.
