data_PCOD8146351
_publ_section_title
;
Structure prediction by ZEFSAII (Michael W. Deem and Ramdas Pophale) SiO2 
 PCOD8146351
Probable space group: C 2/C
;
_chemical_formula_sum "Si O2"
_cell_formula_units_Z 36
_cell_length_a 11.649274
_cell_length_b 24.849090
_cell_length_c 8.680543
_cell_angle_alpha 90.000000
_cell_angle_beta 140.071677
_cell_angle_gamma 90.000000
_cell_volume 1612.781129
_symmetry_space_group_name_H-M "C 2/C"
_symmetry_group_IT_number 15
_symmetry_cell_setting 'monoclinic'
loop_
_space_group_symop_operation_xyz
x,y,z
-x,y,1/2-z
-x,-y,-z
x,-y,1/2+z
1/2+x,1/2+y,z
1/2-x,1/2+y,1/2-z
1/2-x,1/2-y,-z
1/2+x,1/2-y,1/2+z
loop_
_atom_site_type_symbol
_atom_site_label
_atom_site_fract_x
_atom_site_fract_y
_atom_site_fract_z
Si Si1 0.382967 0.826317 0.950892
Si Si2 0.113306 0.575052 0.637967
Si Si3 0.828203 0.832791 0.468829
Si Si4 0.000000 0.510904 0.250000
Si Si5 0.951391 0.766515 0.021544
O O1 0.559987 0.793290 0.069483
O O2 0.214643 0.806642 0.673493
O O3 0.430590 0.889083 0.972218
O O4 0.337465 0.816973 0.085895
O O5 0.287791 0.611246 0.842228
O O6 0.121950 0.526216 0.767542
O O7 0.124608 0.549915 0.479984
O O8 0.870346 0.787614 0.384170
O O9 0.000000 0.842460 0.750000
O O10 0.000000 0.761745 0.250000
#
# Coordination Sequence:
#
# PCOD8146351 Si02
#       5
#     8   8   8   4   8
#     4  11  22  39  63  91 131 168 202 249 311 377
#     4  11  22  43  67  93 121 161 213 257 313 362
#     4  10  22  41  63  90 134 166 200 248 313 378
#     4  10  24  40  70  90 118 158 220 262 306 362
#     4  11  24  37  61  98 130 165 206 249 309 375
#
# _framework density 22.321688999999999
#
# number of rings (size 3 to 8) (size 9 to 14) (size 15 to 20)
#    0.000    1.333    2.222    2.667    4.667    3.556 
#    0.000    1.111    0.000    0.000    0.000    0.000 
#    0.000    0.000    0.000    0.000    0.000    0.000 
#
# Total GULP energy -223154.185562 kJ/mol
# GULP energy per Si atom -12397.454753 kJ/mol
# Density = 2.227088 g / cm^3
# Si number density = 22.321689 Si / 1000 Ang^3
#
#
#
# Elastic Constant Matrix: (Units=GPa)
#
#
# Indices 1 2 3 4 5 6 
#
# 1 106.4703 54.5209 58.2228 0.0000 -19.5946 0.0000
# 2 54.5209 114.9565 46.6422 0.0000 -28.9493 0.0000
# 3 58.2228 46.6422 72.6861 0.0000 -32.2572 0.0000
# 4 0.0000 0.0000 0.0000 37.6951 0.0000 -11.9028
# 5 -19.5946 -28.9493 -32.2572 0.0000 57.8059 0.0000
# 6 0.0000 0.0000 0.0000 -11.9028 0.0000 11.5102
#
#
#
# Elastic Compliance Matrix: (Units=1/GPa)
#
#
# Indices 1 2 3 4 5 6 
#
# 1 0.018213 -0.004003 -0.013518 0.000000 -0.003374 0.000000
# 2 -0.004003 0.012861 -0.003709 0.000000 0.003015 0.000000
# 3 -0.013518 -0.003709 0.032043 0.000000 0.011441 0.000000
# 4 0.000000 0.000000 0.000000 0.039391 0.000000 0.040735
# 5 -0.003374 0.003015 0.011441 0.000000 0.024050 0.000000
# 6 0.000000 0.000000 0.000000 0.040735 0.000000 0.129003
#
#
# Mechanical properties :
#
#
# Convention : Reuss Voigt Hill
#
# Bulk Modulus (GPa) = 48.40601 68.09831 58.25216
# Shear Modulus (GPa) = 16.39839 30.38404 23.39122
#
# Velocity S-wave (km/s) = 2.71336 3.69343 3.24066
# Velocity P-wave (km/s) = 5.61687 6.98302 6.33686
#
# Compressibility (1/GPa) = 0.02065859
#
# Stress axis : x y z
#
# Youngs Moduli (GPa) = 54.90448 77.75182 31.20776
#
# Poissons Ratio (x) = 0.31125 0.42186
# Poissons Ratio (y) = 0.21979 0.11574
# Poissons Ratio (z) = 0.74220 0.28836
#
# Static dielectric constant tensor:
#      x y z
#    x 4.362950 0.000000 0.028170 
#    y 0.000000 4.074580 0.000000 
#    z 0.028170 0.000000 4.244470 
# 
# 
# High freq. dielectric constant tensor:
#      x y z
#    x 1.877190 0.000000 -0.011260 
#    y 0.000000 1.877790 0.000000 
#    z -0.011260 0.000000 1.902250 
# 
# From -- ./inp_files/31671.got.cif
#   From: 2010.06.25/outbox.cif.g09.slc.cpg/sg15_16_cif.got.tgz:31671.got - 2010.06.28 07:06:18.
