data_PCOD8146328
_publ_section_title
;
Structure prediction by ZEFSAII (Michael W. Deem and Ramdas Pophale) SiO2 
 PCOD8146328
Probable space group: C 2/C
;
_chemical_formula_sum "Si O2"
_cell_formula_units_Z 36
_cell_length_a 14.649820
_cell_length_b 8.238988
_cell_length_c 14.032394
_cell_angle_alpha 90.000000
_cell_angle_beta 92.431915
_cell_angle_gamma 90.000000
_cell_volume 1692.180185
_symmetry_space_group_name_H-M "C 2/C"
_symmetry_group_IT_number 15
_symmetry_cell_setting 'monoclinic'
loop_
_space_group_symop_operation_xyz
x,y,z
-x,y,1/2-z
-x,-y,-z
x,-y,1/2+z
1/2+x,1/2+y,z
1/2-x,1/2+y,1/2-z
1/2-x,1/2-y,-z
1/2+x,1/2-y,1/2+z
loop_
_atom_site_type_symbol
_atom_site_label
_atom_site_fract_x
_atom_site_fract_y
_atom_site_fract_z
Si Si1 0.092564 0.907678 0.366841
Si Si2 0.428005 0.042162 0.076688
Si Si3 0.500000 0.171467 0.750000
Si Si4 0.232731 0.059238 0.511284
Si Si5 0.906732 0.037426 0.334025
O O1 0.069329 0.728407 0.397018
O O2 0.182002 0.987852 0.417048
O O3 0.106563 0.912449 0.253750
O O4 0.002562 0.008745 0.392959
O O5 0.446837 0.936477 0.170968
O O6 0.500000 0.000000 0.000000
O O7 0.330919 0.017596 0.024251
O O8 0.581986 0.278948 0.706192
O O9 0.250000 0.250000 0.500000
O O10 0.176982 0.997365 0.600696
#
# Coordination Sequence:
#
# PCOD8146328 Si02
#       5
#     8   8   4   8   8
#     4  10  22  41  62  93 127 162 209 265 318 381
#     4  12  25  40  62  92 128 170 212 263 317 377
#     4  10  22  44  66  90 128 174 214 262 320 380
#     4  12  24  40  65  94 125 167 211 264 323 381
#     4  10  22  42  66  91 123 165 211 262 318 382
#
# _framework density 21.274329999999999
#
# number of rings (size 3 to 8) (size 9 to 14) (size 15 to 20)
#    0.000    1.333    0.000    8.000    0.000    5.333 
#    0.000    0.000    0.000    0.000    0.000    0.000 
#    0.000    0.000    0.000    0.000    0.000    0.000 
#
# Total GULP energy -223119.232759 kJ/mol
# GULP energy per Si atom -12395.512931 kJ/mol
# Density = 2.122591 g / cm^3
# Si number density = 21.274330 Si / 1000 Ang^3
#
#
#
# Elastic Constant Matrix: (Units=GPa)
#
#
# Indices 1 2 3 4 5 6 
#
# 1 169.6969 37.8452 70.9363 0.0000 7.4679 0.0000
# 2 37.8452 129.8459 45.6201 0.0000 13.3064 0.0000
# 3 70.9363 45.6201 106.5886 0.0000 17.6898 0.0000
# 4 0.0000 0.0000 0.0000 35.1417 0.0000 9.1974
# 5 7.4679 13.3064 17.6898 0.0000 40.9751 0.0000
# 6 0.0000 0.0000 0.0000 9.1974 0.0000 31.9176
#
#
#
# Elastic Compliance Matrix: (Units=1/GPa)
#
#
# Indices 1 2 3 4 5 6 
#
# 1 0.008237 -0.000612 -0.005390 0.000000 0.001025 0.000000
# 2 -0.000612 0.009182 -0.003281 0.000000 -0.001454 0.000000
# 3 -0.005390 -0.003281 0.015117 0.000000 -0.004478 0.000000
# 4 0.000000 0.000000 0.000000 0.030777 0.000000 -0.008869
# 5 0.001025 -0.001454 -0.004478 0.000000 0.026624 0.000000
# 6 0.000000 0.000000 0.000000 -0.008869 0.000000 0.033886
#
#
# Mechanical properties :
#
#
# Convention : Reuss Voigt Hill
#
# Bulk Modulus (GPa) = 71.58778 79.43714 75.51246
# Shear Modulus (GPa) = 34.00284 38.38886 36.19585
#
# Velocity S-wave (km/s) = 4.00222 4.25251 4.12926
# Velocity P-wave (km/s) = 7.42158 7.84425 7.63584
#
# Compressibility (1/GPa) = 0.01396887
#
# Stress axis : x y z
#
# Youngs Moduli (GPa) = 121.39619 108.91349 66.15202
#
# Poissons Ratio (x) = 0.06667 0.35657
# Poissons Ratio (y) = 0.07431 0.21705
# Poissons Ratio (z) = 0.65435 0.35736
#
# Static dielectric constant tensor:
#      x y z
#    x 3.972200 0.000000 0.173100 
#    y 0.000000 3.978300 0.000000 
#    z 0.173100 0.000000 3.890550 
# 
# 
# High freq. dielectric constant tensor:
#      x y z
#    x 1.838250 0.000000 0.012380 
#    y 0.000000 1.847720 0.000000 
#    z 0.012380 0.000000 1.847950 
# 
# From -- ./inp_files/150318.got.cif
#   From: 2010.06.25/outbox.cif.g09.slc.cpg/sg15_76_cif.got.tgz:150318.got - 2010.06.28 07:06:18.
