data_PCOD8146501
_publ_section_title
;
Structure prediction by ZEFSAII (Michael W. Deem and Ramdas Pophale) SiO2 
 PCOD8146501
Probable space group: C 2/C
;
_chemical_formula_sum "Si O2"
_cell_formula_units_Z 32
_cell_length_a 7.133299
_cell_length_b 18.647912
_cell_length_c 11.504212
_cell_angle_alpha 90.000000
_cell_angle_beta 113.601437
_cell_angle_gamma 90.000000
_cell_volume 1402.297546
_symmetry_space_group_name_H-M "C 2/C"
_symmetry_group_IT_number 15
_symmetry_cell_setting 'monoclinic'
loop_
_space_group_symop_operation_xyz
x,y,z
-x,y,1/2-z
-x,-y,-z
x,-y,1/2+z
1/2+x,1/2+y,z
1/2-x,1/2+y,1/2-z
1/2-x,1/2-y,-z
1/2+x,1/2-y,1/2+z
loop_
_atom_site_type_symbol
_atom_site_label
_atom_site_fract_x
_atom_site_fract_y
_atom_site_fract_z
Si Si1 0.976410 0.264766 0.112478
Si Si2 0.202924 0.542557 0.149649
Si Si3 0.539906 0.607266 0.091670
Si Si4 0.679110 0.104192 0.538309
O O1 0.000000 0.295060 0.250000
O O2 0.083872 0.187861 0.144256
O O3 0.750000 0.250000 0.000000
O O4 0.112393 0.318376 0.068875
O O5 0.310521 0.578864 0.060877
O O6 0.318427 0.555994 0.296942
O O7 0.980573 0.578229 0.099784
O O8 0.188035 0.456342 0.139464
O O9 0.598573 0.605299 0.969842
#
# Coordination Sequence:
#
# PCOD8146501 Si02
#       4
#     8   8   8   8
#     4  12  24  46  70 100 143 182 230 294 344 409
#     4  10  22  41  66  96 139 174 222 295 344 403
#     4  11  21  44  67  95 138 181 222 289 354 404
#     4  11  23  39  69 100 127 182 234 273 345 423
#
# _framework density 22.819693000000001
#
# number of rings (size 3 to 8) (size 9 to 14) (size 15 to 20)
#    0.000    1.000    5.000    2.250    0.000    4.000 
#    9.000    2.500    0.000    0.000    0.000    0.000 
#    0.000    0.000    0.000    0.000    0.000    0.000 
#
# Total GULP energy -198253.105770 kJ/mol
# GULP energy per Si atom -12390.819111 kJ/mol
# Density = 2.276775 g / cm^3
# Si number density = 22.819693 Si / 1000 Ang^3
#
#
#
# Elastic Constant Matrix: (Units=GPa)
#
#
# Indices 1 2 3 4 5 6 
#
# 1 89.0121 15.4799 13.7335 0.0000 -14.3561 0.0000
# 2 15.4799 118.7676 3.6621 0.0000 1.4730 0.0000
# 3 13.7335 3.6621 77.5327 0.0000 2.7947 0.0000
# 4 0.0000 0.0000 0.0000 4.0560 0.0000 10.5343
# 5 -14.3561 1.4730 2.7947 0.0000 27.3771 0.0000
# 6 0.0000 0.0000 0.0000 10.5343 0.0000 20.6686
#
#
#
# Elastic Compliance Matrix: (Units=1/GPa)
#
#
# Indices 1 2 3 4 5 6 
#
# 1 0.013080 -0.001717 -0.002496 0.000000 0.007206 0.000000
# 2 -0.001717 0.008662 -0.000056 0.000000 -0.001361 0.000000
# 3 -0.002496 -0.000056 0.013439 0.000000 -0.002677 0.000000
# 4 0.000000 0.000000 0.000000 -0.761542 0.000000 0.388140
# 5 0.007206 -0.001361 -0.002677 0.000000 0.040652 0.000000
# 6 0.000000 0.000000 0.000000 0.388140 0.000000 -0.149443
#
#
# Mechanical properties :
#
#
# Convention : Reuss Voigt Hill
#
# Bulk Modulus (GPa) = 37.53189 39.00706 38.26947
# Shear Modulus (GPa) = -6.11447 27.24945 10.56749
#
# Velocity S-wave (km/s) = -1.63868 3.45935 2.15428
# Velocity P-wave (km/s) = 3.59200 5.75212 4.79528
#
# Compressibility (1/GPa) = 0.02664401
#
# Stress axis : x y z
#
# Youngs Moduli (GPa) = 76.45047 115.44368 74.41039
#
# Poissons Ratio (x) = 0.19825 0.18570
# Poissons Ratio (y) = 0.13129 0.00416
# Poissons Ratio (z) = 0.19079 0.00645
#
# Static dielectric constant tensor:
#      x y z
#    x 4.421530 0.000000 0.041390 
#    y 0.000000 4.232090 0.000000 
#    z 0.041390 0.000000 3.763010 
# 
# 
# High freq. dielectric constant tensor:
#      x y z
#    x 1.902770 0.000000 -0.002030 
#    y 0.000000 1.916780 0.000000 
#    z -0.002030 0.000000 1.877370 
# 
# From -- ./inp_files/76191.got.cif
#   From: 2010.06.25/outbox.cif.g09.slc.cpg/sg15_39_cif.got.tgz:76191.got - 2010.06.28 07:06:18.
