data_PCOD8146155
_publ_section_title
;
Structure prediction by ZEFSAII (Michael W. Deem and Ramdas Pophale) SiO2 
 PCOD8146155
Probable space group: C 2/C
;
_chemical_formula_sum "Si O2"
_cell_formula_units_Z 56
_cell_length_a 19.326973
_cell_length_b 8.281376
_cell_length_c 15.323692
_cell_angle_alpha 90.000000
_cell_angle_beta 96.021703
_cell_angle_gamma 90.000000
_cell_volume 2439.084154
_symmetry_space_group_name_H-M "C 2/C"
_symmetry_group_IT_number 15
_symmetry_cell_setting 'monoclinic'
loop_
_space_group_symop_operation_xyz
x,y,z
-x,y,1/2-z
-x,-y,-z
x,-y,1/2+z
1/2+x,1/2+y,z
1/2-x,1/2+y,1/2-z
1/2-x,1/2-y,-z
1/2+x,1/2-y,1/2+z
loop_
_atom_site_type_symbol
_atom_site_label
_atom_site_fract_x
_atom_site_fract_y
_atom_site_fract_z
Si Si1 0.709244 0.461249 0.350477
Si Si2 0.500000 0.161130 0.750000
Si Si3 0.590690 0.904512 0.694617
Si Si4 0.285880 0.922212 0.020118
Si Si5 0.937091 0.370143 0.999020
Si Si6 0.564049 0.400553 0.875836
Si Si7 0.773317 0.407165 0.695938
Si Si8 0.000000 0.857743 0.250000
O O1 0.770246 0.475332 0.430723
O O2 0.639768 0.519042 0.391731
O O3 0.714602 0.570226 0.263071
O O4 0.710568 0.277664 0.320936
O O5 0.561860 0.265536 0.799570
O O6 0.532785 0.045729 0.680367
O O7 0.598707 0.837620 0.598614
O O8 0.659211 0.980689 0.746131
O O9 0.567965 0.753085 0.751239
O O10 0.369799 0.923938 0.047849
O O11 0.250000 0.750000 0.000000
O O12 0.253919 0.999269 0.104413
O O13 0.960737 0.193634 0.039384
O O14 0.000000 0.500000 0.000000
O O15 0.508553 0.537553 0.839919
#
# Coordination Sequence:
#
# PCOD8146155 Si02
#       8
#     8   4   8   8   8   8   8   4
#     4  12  26  46  71 106 141 195 248 311 376 445
#     4  10  22  40  68 100 138 190 240 290 362 452
#     4  11  23  43  70 100 137 191 240 294 368 445
#     4  12  26  47  73 105 151 195 250 312 374 454
#     4  12  25  43  71 110 144 190 246 306 376 454
#     4  11  23  43  69 100 148 185 242 310 368 440
#     4  12  27  46  74 104 144 194 250 310 374 444
#     4  10  24  44  66 100 140 192 238 296 370 432
#
# _framework density 22.959437999999999
#
# number of rings (size 3 to 8) (size 9 to 14) (size 15 to 20)
#    0.000    0.571    5.714    2.143    4.000    0.571 
#    0.000    0.000    0.000    0.000    0.000    0.000 
#    0.000    0.000    0.000    0.000    0.000    0.000 
#
# Total GULP energy -346945.413995 kJ/mol
# GULP energy per Si atom -12390.907643 kJ/mol
# Density = 2.290718 g / cm^3
# Si number density = 22.959438 Si / 1000 Ang^3
#
#
#
# Elastic Constant Matrix: (Units=GPa)
#
#
# Indices 1 2 3 4 5 6 
#
# 1 80.8448 26.2664 -0.1489 0.0000 5.7030 0.0000
# 2 26.2664 107.9507 26.7540 0.0000 2.6300 0.0000
# 3 -0.1489 26.7540 128.1669 0.0000 6.8560 0.0000
# 4 0.0000 0.0000 0.0000 43.3065 0.0000 -2.6082
# 5 5.7030 2.6300 6.8560 0.0000 29.6326 0.0000
# 6 0.0000 0.0000 0.0000 -2.6082 0.0000 26.9883
#
#
#
# Elastic Compliance Matrix: (Units=1/GPa)
#
#
# Indices 1 2 3 4 5 6 
#
# 1 0.013682 -0.003485 0.000879 0.000000 -0.002527 0.000000
# 2 -0.003485 0.010661 -0.002243 0.000000 0.000243 0.000000
# 3 0.000879 -0.002243 0.008373 0.000000 -0.001907 0.000000
# 4 0.000000 0.000000 0.000000 0.023226 0.000000 0.002245
# 5 -0.002527 0.000243 -0.001907 0.000000 0.034653 0.000000
# 6 0.000000 0.000000 0.000000 0.002245 0.000000 0.037270
#
#
# Mechanical properties :
#
#
# Convention : Reuss Voigt Hill
#
# Bulk Modulus (GPa) = 43.44393 46.96725 45.20559
# Shear Modulus (GPa) = 34.42660 37.59154 36.00907
#
# Velocity S-wave (km/s) = 3.87648 4.05075 3.96457
# Velocity P-wave (km/s) = 6.24494 6.50992 6.37881
#
# Compressibility (1/GPa) = 0.02301818
#
# Stress axis : x y z
#
# Youngs Moduli (GPa) = 73.09093 93.79678 119.42445
#
# Poissons Ratio (x) = 0.32690 -0.10492
# Poissons Ratio (y) = 0.25473 0.26782
# Poissons Ratio (z) = -0.06422 0.21034
#
# Static dielectric constant tensor:
#      x y z
#    x 4.019200 0.000000 0.123240 
#    y 0.000000 4.089340 0.000000 
#    z 0.123240 0.000000 4.377140 
# 
# 
# High freq. dielectric constant tensor:
#      x y z
#    x 1.895960 0.000000 0.014820 
#    y 0.000000 1.907440 0.000000 
#    z 0.014820 0.000000 1.914520 
# 
# From -- ./inp_files/166699.got.cif
#   From: 2010.06.25/outbox.cif.g09.slc.cpg/sg15_84_cif.got.tgz:166699.got - 2010.06.28 07:06:18.
