data_PCOD8146035
_publ_section_title
;
Structure prediction by ZEFSAII (Michael W. Deem and Ramdas Pophale) SiO2 
 PCOD8146035
Probable space group: C 2/C
;
_chemical_formula_sum "Si O2"
_cell_formula_units_Z 56
_cell_length_a 12.564988
_cell_length_b 20.557356
_cell_length_c 11.113579
_cell_angle_alpha 90.000000
_cell_angle_beta 68.135847
_cell_angle_gamma 90.000000
_cell_volume 2664.181107
_symmetry_space_group_name_H-M "C 2/C"
_symmetry_group_IT_number 15
_symmetry_cell_setting 'monoclinic'
loop_
_space_group_symop_operation_xyz
x,y,z
-x,y,1/2-z
-x,-y,-z
x,-y,1/2+z
1/2+x,1/2+y,z
1/2-x,1/2+y,1/2-z
1/2-x,1/2-y,-z
1/2+x,1/2-y,1/2+z
loop_
_atom_site_type_symbol
_atom_site_label
_atom_site_fract_x
_atom_site_fract_y
_atom_site_fract_z
Si Si1 0.822437 0.908270 0.226960
Si Si2 0.500000 0.489438 0.750000
Si Si3 0.450313 0.282393 0.152334
Si Si4 0.800358 0.072499 0.466196
Si Si5 0.307824 0.169349 0.179508
Si Si6 0.000000 0.600160 0.250000
Si Si7 0.687167 0.935815 0.500213
Si Si8 0.688013 0.309836 0.957841
O O1 0.877162 0.840136 0.246780
O O2 0.702661 0.924086 0.348538
O O3 0.911777 0.967132 0.210152
O O4 0.801424 0.895091 0.095890
O O5 0.571038 0.441894 0.632681
O O6 0.500000 0.244401 0.250000
O O7 0.374452 0.233344 0.102078
O O8 0.551273 0.308528 0.026596
O O9 0.733855 0.121962 0.406985
O O10 0.733799 0.005979 0.512373
O O11 0.394870 0.136158 0.234990
O O12 0.205139 0.195545 0.306627
O O13 0.941416 0.563222 0.390032
O O14 0.768896 0.880375 0.519460
O O15 0.750000 0.250000 0.000000
#
# Coordination Sequence:
#
# PCOD8146035 Si02
#       8
#     8   4   8   8   8   4   8   8
#     4  11  22  40  65  96 127 165 218 279 333 395
#     4  10  22  41  68  94 127 170 224 268 338 390
#     4  12  19  38  64  95 124 168 221 270 326 382
#     4  11  26  40  61  99 138 171 209 275 340 407
#     4  11  24  40  63  98 132 170 221 276 326 393
#     4  10  22  41  68  90 125 172 224 266 316 396
#     4  10  22  40  65  94 130 171 220 271 333 391
#     4  11  20  37  67  97 124 166 230 280 312 386
#
# _framework density 21.019590999999998
#
# number of rings (size 3 to 8) (size 9 to 14) (size 15 to 20)
#    0.000    1.143    4.286    2.143   10.000    1.143 
#    0.000    0.000    0.000    0.000    0.000    0.000 
#    0.000    0.000    0.000    0.000    0.000    0.000 
#
# Total GULP energy -346887.590689 kJ/mol
# GULP energy per Si atom -12388.842525 kJ/mol
# Density = 2.097175 g / cm^3
# Si number density = 21.019591 Si / 1000 Ang^3
#
#
#
# Elastic Constant Matrix: (Units=GPa)
#
#
# Indices 1 2 3 4 5 6 
#
# 1 72.9913 37.3546 66.2380 0.0000 -17.5558 0.0000
# 2 37.3546 100.7725 37.9833 0.0000 -7.1191 0.0000
# 3 66.2380 37.9833 144.5166 0.0000 -18.9992 0.0000
# 4 0.0000 0.0000 0.0000 23.5835 0.0000 -3.9136
# 5 -17.5558 -7.1191 -18.9992 0.0000 48.5785 0.0000
# 6 0.0000 0.0000 0.0000 -3.9136 0.0000 26.4717
#
#
#
# Elastic Compliance Matrix: (Units=1/GPa)
#
#
# Indices 1 2 3 4 5 6 
#
# 1 0.027230 -0.005866 -0.010287 0.000000 0.004958 0.000000
# 2 -0.005866 0.012290 -0.000615 0.000000 -0.000559 0.000000
# 3 -0.010287 -0.000615 0.011908 0.000000 0.000849 0.000000
# 4 0.000000 0.000000 0.000000 0.043469 0.000000 0.006427
# 5 0.004958 -0.000559 0.000849 0.000000 0.022627 0.000000
# 6 0.000000 0.000000 0.000000 0.006427 0.000000 0.038726
#
#
# Mechanical properties :
#
#
# Convention : Reuss Voigt Hill
#
# Bulk Modulus (GPa) = 55.89210 66.82580 61.35895
# Shear Modulus (GPa) = 25.54264 31.50705 28.52484
#
# Velocity S-wave (km/s) = 3.48973 3.87581 3.68783
# Velocity P-wave (km/s) = 6.54873 7.20350 6.88390
#
# Compressibility (1/GPa) = 0.01789161
#
# Stress axis : x y z
#
# Youngs Moduli (GPa) = 36.72409 81.36636 83.97716
#
# Poissons Ratio (x) = 0.47730 0.86389
# Poissons Ratio (y) = 0.21542 0.05165
# Poissons Ratio (z) = 0.37779 0.05005
#
# Static dielectric constant tensor:
#      x y z
#    x 3.735820 0.000000 -0.553470 
#    y 0.000000 3.865250 0.000000 
#    z -0.553470 0.000000 4.195350 
# 
# 
# High freq. dielectric constant tensor:
#      x y z
#    x 1.793950 0.000000 -0.030210 
#    y 0.000000 1.828470 0.000000 
#    z -0.030210 0.000000 1.831990 
# 
# From -- ./inp_files/88938.got.cif
#   From: 2010.06.25/outbox.cif.g09.slc.cpg/sg15_45_cif.got.tgz:88938.got - 2010.06.28 07:06:18.
