data_PCOD8146698
_publ_section_title
;
Structure prediction by ZEFSAII (Michael W. Deem and Ramdas Pophale) SiO2 
 PCOD8146698
Probable space group: C 2/C
;
_chemical_formula_sum "Si O2"
_cell_formula_units_Z 36
_cell_length_a 11.645745
_cell_length_b 8.375432
_cell_length_c 13.819192
_cell_angle_alpha 90.000000
_cell_angle_beta 116.103288
_cell_angle_gamma 90.000000
_cell_volume 1210.415863
_symmetry_space_group_name_H-M "C 2/C"
_symmetry_group_IT_number 15
_symmetry_cell_setting 'monoclinic'
loop_
_space_group_symop_operation_xyz
x,y,z
-x,y,1/2-z
-x,-y,-z
x,-y,1/2+z
1/2+x,1/2+y,z
1/2-x,1/2+y,1/2-z
1/2-x,1/2-y,-z
1/2+x,1/2-y,1/2+z
loop_
_atom_site_type_symbol
_atom_site_label
_atom_site_fract_x
_atom_site_fract_y
_atom_site_fract_z
Si Si1 0.000000 0.934047 0.750000
Si Si2 0.499244 0.873609 0.356419
Si Si3 0.306657 0.948145 0.903375
Si Si4 0.131648 0.881930 0.146244
Si Si5 0.843572 0.108197 0.508250
O O1 0.977709 0.815824 0.648807
O O2 0.882941 0.049222 0.749564
O O3 0.500000 0.958413 0.250000
O O4 0.604490 0.943014 0.468050
O O5 0.358816 0.913425 0.350628
O O6 0.288403 0.782316 0.837451
O O7 0.168641 0.988755 0.902695
O O8 0.197671 0.016558 0.104191
O O9 0.989437 0.833046 0.054708
O O10 0.750000 0.250000 0.500000
#
# Coordination Sequence:
#
# PCOD8146698 Si02
#       5
#     4   8   8   8   8
#     4  10  22  42  62 102 142 176 222 284 344 396
#     4   9  21  40  70 100 139 174 223 291 334 398
#     4  11  21  43  73  99 132 185 231 273 347 408
#     4  11  24  42  68 100 142 175 222 292 332 406
#     4  11  23  43  70 101 131 185 226 273 352 404
#
# _framework density 29.741847
#
# number of rings (size 3 to 8) (size 9 to 14) (size 15 to 20)
#    0.667    0.889    0.000    7.333    1.556    0.000 
#    4.000    0.000    0.000    0.000    0.000    0.000 
#    0.000    0.000    0.000    0.000    0.000    0.000 
#
# Total GULP energy -223029.826638 kJ/mol
# GULP energy per Si atom -12390.545924 kJ/mol
# Density = 2.967415 g / cm^3
# Si number density = 29.741847 Si / 1000 Ang^3
#
#
#
# Elastic Constant Matrix: (Units=GPa)
#
#
# Indices 1 2 3 4 5 6 
#
# 1 178.6405 67.0821 31.9071 0.0000 -45.4115 0.0000
# 2 67.0821 178.3569 38.2028 0.0000 -30.3178 0.0000
# 3 31.9071 38.2028 124.0322 0.0000 -49.6824 0.0000
# 4 0.0000 0.0000 0.0000 47.3486 0.0000 -15.2416
# 5 -45.4115 -30.3178 -49.6824 0.0000 46.2514 0.0000
# 6 0.0000 0.0000 0.0000 -15.2416 0.0000 46.4045
#
#
#
# Elastic Compliance Matrix: (Units=1/GPa)
#
#
# Indices 1 2 3 4 5 6 
#
# 1 0.008294 -0.002029 0.002142 0.000000 0.009115 0.000000
# 2 -0.002029 0.006824 -0.001029 0.000000 0.001376 0.000000
# 3 0.002142 -0.001029 0.014745 0.000000 0.017268 0.000000
# 4 0.000000 0.000000 0.000000 0.023617 0.000000 0.007757
# 5 0.009115 0.001376 0.017268 0.000000 0.050021 0.000000
# 6 0.000000 0.000000 0.000000 0.007757 0.000000 0.024097
#
#
# Mechanical properties :
#
#
# Convention : Reuss Voigt Hill
#
# Bulk Modulus (GPa) = 35.67317 83.93484 59.80400
# Shear Modulus (GPa) = 36.02989 50.92340 43.47665
#
# Velocity S-wave (km/s) = 3.48432 4.14234 3.82750
# Velocity P-wave (km/s) = 5.31109 7.15269 6.29955
#
# Compressibility (1/GPa) = 0.02803227
#
# Stress axis : x y z
#
# Youngs Moduli (GPa) = 120.56705 146.53905 67.81947
#
# Poissons Ratio (x) = 0.29733 -0.14529
# Poissons Ratio (y) = 0.24463 0.06977
# Poissons Ratio (z) = -0.25829 0.15075
#
# Static dielectric constant tensor:
#      x y z
#    x 6.250940 0.000000 -0.345540 
#    y 0.000000 5.557610 0.000000 
#    z -0.345540 0.000000 5.769310 
# 
# 
# High freq. dielectric constant tensor:
#      x y z
#    x 2.246280 0.000000 -0.012670 
#    y 0.000000 2.202140 0.000000 
#    z -0.012670 0.000000 2.255840 
# 
# From -- ./inp_files/195292.got.cif
#   From: 2010.06.25/outbox.cif.g09.slc.cpg/sg15_98_cif.got.tgz:195292.got - 2010.06.28 07:06:18.
