data_PCOD8146148
_publ_section_title
;
Structure prediction by ZEFSAII (Michael W. Deem and Ramdas Pophale) SiO2 
 PCOD8146148
Probable space group: C 2/C
;
_chemical_formula_sum "Si O2"
_cell_formula_units_Z 64
_cell_length_a 17.779134
_cell_length_b 15.287030
_cell_length_c 16.172026
_cell_angle_alpha 90.000000
_cell_angle_beta 42.810496
_cell_angle_gamma 90.000000
_cell_volume 2987.005320
_symmetry_space_group_name_H-M "C 2/C"
_symmetry_group_IT_number 15
_symmetry_cell_setting 'monoclinic'
loop_
_space_group_symop_operation_xyz
x,y,z
-x,y,1/2-z
-x,-y,-z
x,-y,1/2+z
1/2+x,1/2+y,z
1/2-x,1/2+y,1/2-z
1/2-x,1/2-y,-z
1/2+x,1/2-y,1/2+z
loop_
_atom_site_type_symbol
_atom_site_label
_atom_site_fract_x
_atom_site_fract_y
_atom_site_fract_z
Si Si1 0.499512 0.068864 0.926763
Si Si2 0.604710 0.661917 0.115508
Si Si3 0.176179 0.673734 0.966219
Si Si4 0.898717 0.026110 0.522015
Si Si5 0.729735 0.155595 0.744659
Si Si6 0.532864 0.903082 0.813038
Si Si7 0.238392 0.868656 0.931006
Si Si8 0.797126 0.309620 0.574543
O O1 0.599985 0.136655 0.837915
O O2 0.510536 0.007475 0.836539
O O3 0.383890 0.117886 0.033227
O O4 0.500000 0.000000 0.000000
O O5 0.500000 0.693389 0.250000
O O6 0.700733 0.637304 0.104043
O O7 0.567510 0.583885 0.084503
O O8 0.641474 0.746713 0.037457
O O9 0.251708 0.654802 0.825336
O O10 0.178213 0.776230 0.980646
O O11 0.220000 0.615720 0.008192
O O12 0.046098 0.647721 0.056805
O O13 0.804933 0.079251 0.646722
O O14 0.853387 0.937353 0.520659
O O15 0.000000 0.000000 0.500000
O O16 0.752374 0.251354 0.687456
O O17 0.500000 0.867665 0.750000
O O18 0.662338 0.877082 0.716807
#
# Coordination Sequence:
#
# PCOD8146148 Si02
#       8
#     8   8   8   8   8   8   8   8
#     4  12  24  39  67 103 132 170 226 276 345 401
#     4  10  23  46  66  93 133 175 228 270 347 412
#     4  10  23  41  67  96 132 180 221 273 345 409
#     4  11  26  43  65  97 131 180 226 283 343 410
#     4  11  24  43  66 101 137 172 226 282 346 405
#     4  10  22  40  67  98 127 170 224 280 334 396
#     4  10  23  44  65  93 137 174 225 281 336 407
#     4  10  25  41  69  99 134 177 221 283 342 408
#
# _framework density 21.426141999999999
#
# number of rings (size 3 to 8) (size 9 to 14) (size 15 to 20)
#    0.000    1.500    2.500    0.750    5.250    7.500 
#    0.000    3.125    0.000    0.000    0.000    0.000 
#    0.000    0.000    0.000    0.000    0.000    0.000 
#
# Total GULP energy -396625.408088 kJ/mol
# GULP energy per Si atom -12394.544003 kJ/mol
# Density = 2.137737 g / cm^3
# Si number density = 21.426142 Si / 1000 Ang^3
#
#
#
# Elastic Constant Matrix: (Units=GPa)
#
#
# Indices 1 2 3 4 5 6 
#
# 1 116.7168 57.3450 52.9668 0.0000 -8.5423 0.0000
# 2 57.3450 106.7238 40.1415 0.0000 -11.4791 0.0000
# 3 52.9668 40.1415 124.0576 0.0000 2.3861 0.0000
# 4 0.0000 0.0000 0.0000 33.6786 0.0000 -5.7145
# 5 -8.5423 -11.4791 2.3861 0.0000 35.6155 0.0000
# 6 0.0000 0.0000 0.0000 -5.7145 0.0000 37.9447
#
#
#
# Elastic Compliance Matrix: (Units=1/GPa)
#
#
# Indices 1 2 3 4 5 6 
#
# 1 0.013104 -0.005404 -0.003878 0.000000 0.001661 0.000000
# 2 -0.005404 0.013400 -0.002089 0.000000 0.003163 0.000000
# 3 -0.003878 -0.002089 0.010437 0.000000 -0.002303 0.000000
# 4 0.000000 0.000000 0.000000 0.030471 0.000000 0.004589
# 5 0.001661 0.003163 -0.002303 0.000000 0.029650 0.000000
# 6 0.000000 0.000000 0.000000 0.004589 0.000000 0.027045
#
#
# Mechanical properties :
#
#
# Convention : Reuss Voigt Hill
#
# Bulk Modulus (GPa) = 70.43334 72.04498 71.23916
# Shear Modulus (GPa) = 32.98527 34.58410 33.78468
#
# Velocity S-wave (km/s) = 3.92789 4.02195 3.97520
# Velocity P-wave (km/s) = 7.31540 7.43411 7.37499
#
# Compressibility (1/GPa) = 0.01419782
#
# Stress axis : x y z
#
# Youngs Moduli (GPa) = 76.31052 74.62901 95.81285
#
# Poissons Ratio (x) = 0.40328 0.37160
# Poissons Ratio (y) = 0.41237 0.20019
# Poissons Ratio (z) = 0.29596 0.15593
#
# Static dielectric constant tensor:
#      x y z
#    x 4.128920 0.000000 0.175640 
#    y 0.000000 4.007270 0.000000 
#    z 0.175640 0.000000 4.379500 
# 
# 
# High freq. dielectric constant tensor:
#      x y z
#    x 1.840710 0.000000 0.007390 
#    y 0.000000 1.837510 0.000000 
#    z 0.007390 0.000000 1.853230 
# 
# From -- ./inp_files/211361.got.cif
#   From: 2010.06.25/outbox.cif.g09.slc.cpg/sg15_106_cif.got.tgz:211361.got - 2010.06.28 07:06:18.
