data_PCOD8146667
_publ_section_title
;
Structure prediction by ZEFSAII (Michael W. Deem and Ramdas Pophale) SiO2 
 PCOD8146667
Probable space group: C 2/C
;
_chemical_formula_sum "Si O2"
_cell_formula_units_Z 44
_cell_length_a 11.653941
_cell_length_b 13.559100
_cell_length_c 21.258657
_cell_angle_alpha 90.000000
_cell_angle_beta 140.638767
_cell_angle_gamma 90.000000
_cell_volume 2130.447792
_symmetry_space_group_name_H-M "C 2/C"
_symmetry_group_IT_number 15
_symmetry_cell_setting 'monoclinic'
loop_
_space_group_symop_operation_xyz
x,y,z
-x,y,1/2-z
-x,-y,-z
x,-y,1/2+z
1/2+x,1/2+y,z
1/2-x,1/2+y,1/2-z
1/2-x,1/2-y,-z
1/2+x,1/2-y,1/2+z
loop_
_atom_site_type_symbol
_atom_site_label
_atom_site_fract_x
_atom_site_fract_y
_atom_site_fract_z
Si Si1 0.625827 0.906719 0.042713
Si Si2 0.028137 0.197857 0.031944
Si Si3 0.191500 0.581710 0.841427
Si Si4 0.244314 0.424008 0.960783
Si Si5 0.500000 0.483785 0.250000
Si Si6 0.579972 0.541201 0.151577
O O1 0.532821 0.815821 0.040194
O O2 0.833129 0.917365 0.154421
O O3 0.619489 0.885871 0.964838
O O4 0.500000 0.000000 0.000000
O O5 0.166708 0.169759 0.035192
O O6 0.096161 0.149066 0.126311
O O7 0.828019 0.160640 0.929287
O O8 0.140611 0.490282 0.865781
O O9 0.268438 0.534924 0.809292
O O10 0.000000 0.636960 0.750000
O O11 0.390034 0.498221 0.050422
O O12 0.581718 0.550858 0.228140
#
# Coordination Sequence:
#
# PCOD8146667 Si02
#       6
#     8   8   8   8   4   8
#     4  11  23  39  61  86 126 158 196 247 302 353
#     4   9  18  39  62  89 115 156 204 248 293 350
#     4   9  17  32  63  92 119 154 202 248 296 358
#     4   8  17  36  61  84 116 155 194 250 296 344
#     4  10  22  42  58  82 124 166 196 242 302 354
#     4   8  17  36  61  85 119 155 198 246 294 351
#
# _framework density 20.652936
#
# number of rings (size 3 to 8) (size 9 to 14) (size 15 to 20)
#    0.000    2.909    0.000    2.727    2.545    0.000 
#    8.182   13.636    0.000    2.182    0.000    0.000 
#    0.000    0.000    0.000    0.000    0.000    0.000 
#
# Total GULP energy -272617.861967 kJ/mol
# GULP energy per Si atom -12391.720999 kJ/mol
# Density = 2.060593 g / cm^3
# Si number density = 20.652936 Si / 1000 Ang^3
#
#
#
# Elastic Constant Matrix: (Units=GPa)
#
#
# Indices 1 2 3 4 5 6 
#
# 1 115.7057 40.7411 53.9000 0.0000 -22.3184 0.0000
# 2 40.7411 126.2427 31.6332 0.0000 -1.5480 0.0000
# 3 53.9000 31.6332 82.0286 0.0001 4.5694 0.0001
# 4 0.0000 0.0000 0.0001 15.6839 0.0001 0.5442
# 5 -22.3184 -1.5480 4.5694 0.0001 46.5901 0.0000
# 6 0.0000 0.0000 0.0001 0.5442 0.0000 24.1409
#
#
#
# Elastic Compliance Matrix: (Units=1/GPa)
#
#
# Indices 1 2 3 4 5 6 
#
# 1 0.015734 -0.002509 -0.009840 0.000000 0.008419 0.000000
# 2 -0.002509 0.009187 -0.001855 0.000000 -0.000715 0.000000
# 3 -0.009840 -0.001855 0.019746 0.000000 -0.006712 0.000000
# 4 0.000000 0.000000 0.000000 0.063809 0.000000 -0.001439
# 5 0.008419 -0.000715 -0.006712 0.000000 0.026131 0.000000
# 6 0.000000 0.000000 0.000000 -0.001439 0.000000 0.041456
#
#
# Mechanical properties :
#
#
# Convention : Reuss Voigt Hill
#
# Bulk Modulus (GPa) = 61.50137 64.05840 62.77988
# Shear Modulus (GPa) = 23.82217 30.46317 27.14267
#
# Velocity S-wave (km/s) = 3.39994 3.84475 3.62916
# Velocity P-wave (km/s) = 6.72725 7.12695 6.92998
#
# Compressibility (1/GPa) = 0.01625980
#
# Stress axis : x y z
#
# Youngs Moduli (GPa) = 63.55828 108.85193 50.64426
#
# Poissons Ratio (x) = 0.27308 0.49833
# Poissons Ratio (y) = 0.15945 0.09392
# Poissons Ratio (z) = 0.62540 0.20187
#
# Static dielectric constant tensor:
#      x y z
#    x 4.325400 0.000000 -0.503230 
#    y 0.000000 3.350040 0.000000 
#    z -0.503230 0.000000 3.894420 
# 
# 
# High freq. dielectric constant tensor:
#      x y z
#    x 1.816810 0.000000 -0.005550 
#    y 0.000000 1.773860 0.000000 
#    z -0.005550 0.000000 1.797180 
# 
# From -- ./inp_files/238871.got.cif
#   From: 2010.06.25/outbox.cif.g09.slc.cpg/sg15_120_cif.got.tgz:238871.got - 2010.06.28 07:06:18.
