data_PCOD8146166
_publ_section_title
;
Structure prediction by ZEFSAII (Michael W. Deem and Ramdas Pophale) SiO2 
 PCOD8146166
Probable space group: C 2/C
;
_chemical_formula_sum "Si O2"
_cell_formula_units_Z 56
_cell_length_a 18.435335
_cell_length_b 9.362393
_cell_length_c 14.950734
_cell_angle_alpha 90.000000
_cell_angle_beta 61.872214
_cell_angle_gamma 90.000000
_cell_volume 2275.720605
_symmetry_space_group_name_H-M "C 2/C"
_symmetry_group_IT_number 15
_symmetry_cell_setting 'monoclinic'
loop_
_space_group_symop_operation_xyz
x,y,z
-x,y,1/2-z
-x,-y,-z
x,-y,1/2+z
1/2+x,1/2+y,z
1/2-x,1/2+y,1/2-z
1/2-x,1/2-y,-z
1/2+x,1/2-y,1/2+z
loop_
_atom_site_type_symbol
_atom_site_label
_atom_site_fract_x
_atom_site_fract_y
_atom_site_fract_z
Si Si1 0.593948 0.386289 0.528919
Si Si2 0.067722 0.992448 0.355315
Si Si3 0.772090 0.017555 0.941573
Si Si4 0.334114 0.261617 0.281597
Si Si5 0.901391 0.442674 0.475525
Si Si6 0.188579 0.211378 0.236547
Si Si7 0.584695 0.986100 0.323568
O O1 0.557379 0.402699 0.451386
O O2 0.516018 0.436217 0.634004
O O3 0.672565 0.486535 0.503358
O O4 0.615501 0.223155 0.529332
O O5 0.094783 0.879546 0.265853
O O6 0.138313 0.110127 0.333285
O O7 0.792528 0.884065 0.862307
O O8 0.785952 0.179712 0.896660
O O9 0.676550 0.017774 0.026256
O O10 0.273395 0.264625 0.230859
O O11 0.378278 0.109307 0.261603
O O12 0.896408 0.489630 0.582516
O O13 0.985277 0.483912 0.375227
O O14 0.127951 0.346222 0.256623
#
# Coordination Sequence:
#
# PCOD8146166 Si02
#       7
#     8   8   8   8   8   8   8
#     4  11  22  41  67  96 127 173 223 278 325 393
#     4  10  22  40  68  89 124 175 225 264 333 398
#     4  11  24  40  71  95 135 166 232 275 324 384
#     4  11  21  40  65  98 126 176 216 270 329 397
#     4  11  21  38  66 103 124 171 217 280 321 394
#     4  11  20  40  66  95 127 177 217 273 325 406
#     4  11  21  38  69  93 136 168 222 261 333 399
#
# _framework density 24.607590999999999
#
# number of rings (size 3 to 8) (size 9 to 14) (size 15 to 20)
#    0.000    1.143    5.714    1.286    0.000    2.286 
#    0.000    0.714   12.571    0.000    0.000    0.000 
#    0.000    0.000    0.000    0.000    0.000    0.000 
#
# Total GULP energy -346955.799624 kJ/mol
# GULP energy per Si atom -12391.278558 kJ/mol
# Density = 2.455158 g / cm^3
# Si number density = 24.607591 Si / 1000 Ang^3
#
#
#
# Elastic Constant Matrix: (Units=GPa)
#
#
# Indices 1 2 3 4 5 6 
#
# 1 109.8259 9.0766 19.8370 0.0000 -32.5264 0.0000
# 2 9.0766 122.0611 23.5271 0.0000 -21.1031 0.0000
# 3 19.8370 23.5271 43.3806 0.0000 -24.1310 0.0000
# 4 0.0000 0.0000 0.0000 29.0791 0.0000 -7.6041
# 5 -32.5264 -21.1031 -24.1310 0.0000 38.6465 0.0000
# 6 0.0000 0.0000 0.0000 -7.6041 0.0000 32.1899
#
#
#
# Elastic Compliance Matrix: (Units=1/GPa)
#
#
# Indices 1 2 3 4 5 6 
#
# 1 0.012230 0.000975 -0.000152 0.000000 0.010731 0.000000
# 2 0.000975 0.009445 -0.003436 0.000000 0.003832 0.000000
# 3 -0.000152 -0.003436 0.036573 0.000000 0.020832 0.000000
# 4 0.000000 0.000000 0.000000 0.036653 0.000000 0.008658
# 5 0.010731 0.003832 0.020832 0.000000 0.050007 0.000000
# 6 0.000000 0.000000 0.000000 0.008658 0.000000 0.033111
#
#
# Mechanical properties :
#
#
# Convention : Reuss Voigt Hill
#
# Bulk Modulus (GPa) = 18.86037 42.23875 30.54956
# Shear Modulus (GPa) = 24.88542 34.83823 29.86182
#
# Velocity S-wave (km/s) = 3.18353 3.76673 3.48734
# Velocity P-wave (km/s) = 4.60372 6.00998 5.35323
#
# Compressibility (1/GPa) = 0.05302124
#
# Stress axis : x y z
#
# Youngs Moduli (GPa) = 81.76384 105.87517 27.34249
#
# Poissons Ratio (x) = -0.10324 0.00416
# Poissons Ratio (y) = -0.07973 0.09396
# Poissons Ratio (z) = 0.01245 0.36384
#
# Static dielectric constant tensor:
#      x y z
#    x 4.496810 0.000000 -0.658160 
#    y 0.000000 4.522500 0.000000 
#    z -0.658160 0.000000 4.499890 
# 
# 
# High freq. dielectric constant tensor:
#      x y z
#    x 1.976560 0.000000 -0.031430 
#    y 0.000000 1.985230 0.000000 
#    z -0.031430 0.000000 1.964920 
# 
# From -- ./inp_files/209526.got.cif
#   From: 2010.06.25/outbox.cif.g09.slc.cpg/sg15_105_cif.got.tgz:209526.got - 2010.06.28 07:06:18.
