data_PCOD8146826
_publ_section_title
;
Structure prediction by ZEFSAII (Michael W. Deem and Ramdas Pophale) SiO2 
 PCOD8146826
Probable space group: C 2/C
;
_chemical_formula_sum "Si O2"
_cell_formula_units_Z 48
_cell_length_a 33.112958
_cell_length_b 14.776239
_cell_length_c 16.500928
_cell_angle_alpha 90.000000
_cell_angle_beta 15.907085
_cell_angle_gamma 90.000000
_cell_volume 2212.812706
_symmetry_space_group_name_H-M "C 2/C"
_symmetry_group_IT_number 15
_symmetry_cell_setting 'monoclinic'
loop_
_space_group_symop_operation_xyz
x,y,z
-x,y,1/2-z
-x,-y,-z
x,-y,1/2+z
1/2+x,1/2+y,z
1/2-x,1/2+y,1/2-z
1/2-x,1/2-y,-z
1/2+x,1/2-y,1/2+z
loop_
_atom_site_type_symbol
_atom_site_label
_atom_site_fract_x
_atom_site_fract_y
_atom_site_fract_z
Si Si1 0.665234 0.659829 0.198146
Si Si2 0.091792 0.419335 0.357576
Si Si3 0.347324 0.700880 0.590163
Si Si4 0.097883 0.747443 0.338340
Si Si5 0.658047 0.640092 0.401183
Si Si6 0.837733 0.464814 0.095991
O O1 0.496776 0.661295 0.492340
O O2 0.649859 0.632880 0.321105
O O3 0.750000 0.750000 0.000000
O O4 0.753595 0.577214 0.988441
O O5 0.136817 0.425967 0.363816
O O6 0.000000 0.500000 0.500000
O O7 0.996779 0.331027 0.520760
O O8 0.376429 0.757768 0.615703
O O9 0.242992 0.765618 0.741226
O O10 0.257080 0.606812 0.774534
O O11 0.500000 0.680364 0.250000
O O12 0.250000 0.750000 0.000000
O O13 0.749272 0.558824 0.266249
O O14 0.500000 0.646383 0.750000
O O15 0.000000 0.483138 0.750000
#
# Coordination Sequence:
#
# PCOD8146826 Si02
#       6
#     8   8   8   8   8   8
#     4  10  22  42  65  91 128 173 216 266 328 394
#     4  11  22  41  64  91 125 168 215 267 327 393
#     4  12  23  41  66  96 132 174 220 276 336 399
#     4  11  22  39  62  91 122 165 212 261 323 390
#     4  12  25  44  68 100 135 177 226 278 334 401
#     4  12  25  43  66  99 135 175 224 282 338 399
#
# _framework density 21.691849000000001
#
# number of rings (size 3 to 8) (size 9 to 14) (size 15 to 20)
#    0.000    0.667    0.000   10.500    0.000    0.000 
#    0.000    2.500    0.000    0.000    0.000    0.000 
#    0.000    0.000    0.000    0.000    0.000    0.000 
#
# Total GULP energy -297362.737594 kJ/mol
# GULP energy per Si atom -12390.114066 kJ/mol
# Density = 2.164248 g / cm^3
# Si number density = 21.691849 Si / 1000 Ang^3
#
#
#
# Elastic Constant Matrix: (Units=GPa)
#
#
# Indices 1 2 3 4 5 6 
#
# 1 105.1552 -0.8163 25.4046 -0.0002 12.4658 -0.0009
# 2 -0.8163 78.4682 37.7971 -0.0004 -12.3689 -0.0013
# 3 25.4046 37.7971 178.9966 -0.0006 -6.1411 -0.0017
# 4 -0.0002 -0.0004 -0.0006 19.7204 0.0002 -14.9967
# 5 12.4658 -12.3689 -6.1411 0.0002 39.3562 0.0013
# 6 -0.0009 -0.0013 -0.0017 -14.9967 0.0013 -24.2683
#
#
#
# Elastic Compliance Matrix: (Units=1/GPa)
#
#
# Indices 1 2 3 4 5 6 
#
# 1 0.010318 0.000369 -0.001659 0.000000 -0.003411 0.000000
# 2 0.000369 0.014860 -0.003050 0.000000 0.004077 0.000000
# 3 -0.001659 -0.003050 0.006486 0.000000 0.000579 0.000000
# 4 0.000000 0.000000 0.000000 0.034497 0.000001 -0.021318
# 5 -0.003411 0.004077 0.000579 0.000001 0.027861 0.000001
# 6 0.000000 0.000000 0.000000 -0.021318 0.000001 -0.028033
#
#
# Mechanical properties :
#
#
# Convention : Reuss Voigt Hill
#
# Bulk Modulus (GPa) = 43.51133 54.15451 48.83292
# Shear Modulus (GPa) = 60.72966 26.97731 43.85349
#
# Velocity S-wave (km/s) = 5.29692 3.53038 4.50116
# Velocity P-wave (km/s) = 7.58368 6.45273 7.04095
#
# Compressibility (1/GPa) = 0.02298252
#
# Stress axis : x y z
#
# Youngs Moduli (GPa) = 96.91925 67.29540 154.17425
#
# Poissons Ratio (x) = -0.02483 0.25582
# Poissons Ratio (y) = -0.03576 0.47028
# Poissons Ratio (z) = 0.16082 0.20527
#
# Static dielectric constant tensor:
#      x y z
#    x 4.020280 0.000000 -0.085400 
#    y 0.000000 4.108540 0.000000 
#    z -0.085400 0.000000 4.374560 
# 
# 
# High freq. dielectric constant tensor:
#      x y z
#    x 1.865590 0.000000 -0.004610 
#    y 0.000000 1.844900 0.000000 
#    z -0.004610 0.000000 1.879950 
# 
# From -- ./inp_files/182447.got.cif
#   From: 2010.06.25/outbox.cif.g09.slc.cpg/sg15_92_cif.got.tgz:182447.got - 2010.06.28 07:06:18.
