data_PCOD8146962
_publ_section_title
;
Structure prediction by ZEFSAII (Michael W. Deem and Ramdas Pophale) SiO2 
 PCOD8146962
Probable space group: C 2/C
;
_chemical_formula_sum "Si O2"
_cell_formula_units_Z 28
_cell_length_a 17.250424
_cell_length_b 15.638132
_cell_length_c 9.644525
_cell_angle_alpha 90.000000
_cell_angle_beta 148.816690
_cell_angle_gamma 90.000000
_cell_volume 1347.128232
_symmetry_space_group_name_H-M "C 2/C"
_symmetry_group_IT_number 15
_symmetry_cell_setting 'monoclinic'
loop_
_space_group_symop_operation_xyz
x,y,z
-x,y,1/2-z
-x,-y,-z
x,-y,1/2+z
1/2+x,1/2+y,z
1/2-x,1/2+y,1/2-z
1/2-x,1/2-y,-z
1/2+x,1/2-y,1/2+z
loop_
_atom_site_type_symbol
_atom_site_label
_atom_site_fract_x
_atom_site_fract_y
_atom_site_fract_z
Si Si1 0.500000 0.179870 0.250000
Si Si2 0.914361 0.058710 0.260909
Si Si3 0.143945 0.446638 0.761391
Si Si4 0.872662 0.842854 0.951130
O O1 0.395748 0.121799 0.183491
O O2 0.620355 0.240338 0.515073
O O3 0.898101 0.145873 0.325352
O O4 0.000000 0.079497 0.250000
O O5 0.000000 0.000000 0.500000
O O6 0.754643 0.018085 0.987293
O O7 0.216666 0.390156 0.749312
O O8 0.000000 0.500000 0.500000
O O9 0.000000 0.885683 0.250000
#
# Coordination Sequence:
#
# PCOD8146962 Si02
#       4
#     4   8   8   8
#     4  10  24  42  72  92 144 180 222 272 354 400
#     4  12  21  42  71  98 133 178 230 274 334 411
#     4  12  23  40  71 104 132 172 235 281 327 399
#     4  10  22  42  67  97 131 183 223 264 347 400
#
# _framework density 20.784956999999999
#
# number of rings (size 3 to 8) (size 9 to 14) (size 15 to 20)
#    0.857    0.000    5.714    2.571    0.000    0.000 
#    0.000    1.429    3.143    0.000    0.000    0.000 
#    0.000    0.000    0.000    0.000    0.000    0.000 
#
# Total GULP energy -173462.951327 kJ/mol
# GULP energy per Si atom -12390.210809 kJ/mol
# Density = 2.073765 g / cm^3
# Si number density = 20.784957 Si / 1000 Ang^3
#
#
#
# Elastic Constant Matrix: (Units=GPa)
#
#
# Indices 1 2 3 4 5 6 
#
# 1 196.6132 78.3274 65.0965 0.0000 -19.1848 0.0000
# 2 78.3274 125.0975 52.1330 0.0000 -1.6972 0.0000
# 3 65.0965 52.1330 116.0104 0.0000 8.3074 0.0000
# 4 0.0000 0.0000 0.0000 -30.8507 0.0000 -61.7619
# 5 -19.1848 -1.6972 8.3074 0.0000 40.4164 0.0000
# 6 0.0000 0.0000 0.0000 -61.7619 0.0000 -13.0073
#
#
#
# Elastic Compliance Matrix: (Units=1/GPa)
#
#
# Indices 1 2 3 4 5 6 
#
# 1 0.008000 -0.003632 -0.003164 0.000000 0.004295 0.000000
# 2 -0.003632 0.011557 -0.003113 0.000000 -0.000599 0.000000
# 3 -0.003164 -0.003113 0.012089 0.000000 -0.004118 0.000000
# 4 0.000000 0.000000 0.000000 0.003811 0.000000 -0.018095
# 5 0.004295 -0.000599 -0.004118 0.000000 0.027602 0.000000
# 6 0.000000 0.000000 0.000000 -0.018095 0.000000 0.009039
#
#
# Mechanical properties :
#
#
# Convention : Reuss Voigt Hill
#
# Bulk Modulus (GPa) = 84.54492 92.09275 88.31883
# Shear Modulus (GPa) = 52.16043 15.45595 33.80819
#
# Velocity S-wave (km/s) = 5.01495 2.72988 4.03745
# Velocity P-wave (km/s) = 8.61959 7.37156 8.01989
#
# Compressibility (1/GPa) = 0.01182803
#
# Stress axis : x y z
#
# Youngs Moduli (GPa) = 125.00254 86.52875 82.71904
#
# Poissons Ratio (x) = 0.31427 0.26175
# Poissons Ratio (y) = 0.45400 0.25747
# Poissons Ratio (z) = 0.39555 0.26933
#
# Static dielectric constant tensor:
#      x y z
#    x 4.841210 0.000000 -0.539950 
#    y 0.000000 3.867590 0.000000 
#    z -0.539950 0.000000 4.019610 
# 
# 
# High freq. dielectric constant tensor:
#      x y z
#    x 1.829230 0.000000 0.003390 
#    y 0.000000 1.810690 0.000000 
#    z 0.003390 0.000000 1.795240 
# 
# From -- ./inp_files/48868.got.cif
#   From: 2010.06.25/outbox.cif.g09.slc.cpg/sg15_25_cif.got.tgz:48868.got - 2010.06.28 07:06:18.
