data_PCOD8146329
_publ_section_title
;
Structure prediction by ZEFSAII (Michael W. Deem and Ramdas Pophale) SiO2 
 PCOD8146329
Probable space group: C 2/C
;
_chemical_formula_sum "Si O2"
_cell_formula_units_Z 44
_cell_length_a 12.416979
_cell_length_b 17.896958
_cell_length_c 12.073290
_cell_angle_alpha 90.000000
_cell_angle_beta 127.353151
_cell_angle_gamma 90.000000
_cell_volume 2132.746795
_symmetry_space_group_name_H-M "C 2/C"
_symmetry_group_IT_number 15
_symmetry_cell_setting 'monoclinic'
loop_
_space_group_symop_operation_xyz
x,y,z
-x,y,1/2-z
-x,-y,-z
x,-y,1/2+z
1/2+x,1/2+y,z
1/2-x,1/2+y,1/2-z
1/2-x,1/2-y,-z
1/2+x,1/2-y,1/2+z
loop_
_atom_site_type_symbol
_atom_site_label
_atom_site_fract_x
_atom_site_fract_y
_atom_site_fract_z
Si Si1 0.500000 0.669759 0.750000
Si Si2 0.766437 0.602188 0.020458
Si Si3 0.661536 0.053278 0.851781
Si Si4 0.809803 0.277168 0.730027
Si Si5 0.618735 0.145693 0.621491
Si Si6 0.819106 0.319599 0.980435
O O1 0.381880 0.618372 0.624003
O O2 0.443986 0.724779 0.812245
O O3 0.762857 0.525255 0.086681
O O4 0.815579 0.664514 0.135326
O O5 0.881325 0.598223 0.993864
O O6 0.500000 0.040510 0.750000
O O7 0.700002 0.094965 0.761143
O O8 0.726435 0.103625 0.990499
O O9 0.687762 0.222173 0.629983
O O10 0.783285 0.318669 0.829160
O O11 0.481123 0.174995 0.590800
O O12 0.750000 0.250000 0.000000
#
# Coordination Sequence:
#
# PCOD8146329 Si02
#       6
#     4   8   8   8   8   8
#     4  10  22  44  62  96 126 160 226 268 308 392
#     4  11  24  40  68  94 127 170 211 270 328 375
#     4  10  24  40  60  94 130 164 211 264 322 378
#     4  11  21  39  68  92 123 168 215 261 320 384
#     4  10  22  41  62  93 127 164 217 267 307 388
#     4  11  22  39  64  91 128 166 210 261 318 382
#
# _framework density 20.630672000000001
#
# number of rings (size 3 to 8) (size 9 to 14) (size 15 to 20)
#    0.000    1.455    1.818    4.364    6.364    1.455 
#    0.000    5.455    0.000    0.000    0.000    0.000 
#    0.000    0.000    0.000    0.000    0.000    0.000 
#
# Total GULP energy -272560.808452 kJ/mol
# GULP energy per Si atom -12389.127657 kJ/mol
# Density = 2.058372 g / cm^3
# Si number density = 20.630672 Si / 1000 Ang^3
#
#
#
# Elastic Constant Matrix: (Units=GPa)
#
#
# Indices 1 2 3 4 5 6 
#
# 1 87.9612 43.3632 34.2206 0.0000 -13.7485 0.0000
# 2 43.3632 143.7039 51.8625 0.0000 -5.4150 0.0000
# 3 34.2206 51.8625 101.2945 0.0000 -22.3123 0.0000
# 4 0.0000 0.0000 0.0000 36.2996 0.0000 -1.3395
# 5 -13.7485 -5.4150 -22.3123 0.0000 39.9873 0.0000
# 6 0.0000 0.0000 0.0000 -1.3395 0.0000 21.9960
#
#
#
# Elastic Compliance Matrix: (Units=1/GPa)
#
#
# Indices 1 2 3 4 5 6 
#
# 1 0.014479 -0.003355 -0.002482 0.000000 0.003139 0.000000
# 2 -0.003355 0.009389 -0.004159 0.000000 -0.002203 0.000000
# 3 -0.002482 -0.004159 0.014284 0.000000 0.006553 0.000000
# 4 0.000000 0.000000 0.000000 0.027611 0.000000 0.001681
# 5 0.003139 -0.002203 0.006553 0.000000 0.029445 0.000000
# 6 0.000000 0.000000 0.000000 0.001681 0.000000 0.045565
#
#
# Mechanical properties :
#
#
# Convention : Reuss Voigt Hill
#
# Bulk Modulus (GPa) = 55.06850 65.76137 60.41493
# Shear Modulus (GPa) = 29.97270 33.22414 31.59842
#
# Velocity S-wave (km/s) = 3.81573 4.01736 3.91784
# Velocity P-wave (km/s) = 6.79437 7.31189 7.05787
#
# Compressibility (1/GPa) = 0.01815920
#
# Stress axis : x y z
#
# Youngs Moduli (GPa) = 69.06611 106.50684 70.00968
#
# Poissons Ratio (x) = 0.35732 0.17379
# Poissons Ratio (y) = 0.23171 0.29117
# Poissons Ratio (z) = 0.17145 0.44296
#
# Static dielectric constant tensor:
#      x y z
#    x 4.113070 0.000000 -0.369000 
#    y 0.000000 3.844640 0.000000 
#    z -0.369000 0.000000 3.796980 
# 
# 
# High freq. dielectric constant tensor:
#      x y z
#    x 1.802840 0.000000 -0.021880 
#    y 0.000000 1.807860 0.000000 
#    z -0.021880 0.000000 1.804930 
# 
# From -- ./inp_files/87950.got.cif
#   From: 2010.06.25/outbox.cif.g09.slc.cpg/sg15_44_cif.got.tgz:87950.got - 2010.06.28 07:06:18.
