data_PCOD8146353
_publ_section_title
;
Structure prediction by ZEFSAII (Michael W. Deem and Ramdas Pophale) SiO2 
 PCOD8146353
Probable space group: C 2/C
;
_chemical_formula_sum "Si O2"
_cell_formula_units_Z 44
_cell_length_a 21.109142
_cell_length_b 12.123710
_cell_length_c 8.352875
_cell_angle_alpha 90.000000
_cell_angle_beta 104.488528
_cell_angle_gamma 90.000000
_cell_volume 2069.694157
_symmetry_space_group_name_H-M "C 2/C"
_symmetry_group_IT_number 15
_symmetry_cell_setting 'monoclinic'
loop_
_space_group_symop_operation_xyz
x,y,z
-x,y,1/2-z
-x,-y,-z
x,-y,1/2+z
1/2+x,1/2+y,z
1/2-x,1/2+y,1/2-z
1/2-x,1/2-y,-z
1/2+x,1/2-y,1/2+z
loop_
_atom_site_type_symbol
_atom_site_label
_atom_site_fract_x
_atom_site_fract_y
_atom_site_fract_z
Si Si1 0.062069 0.575185 0.514366
Si Si2 0.000000 0.249749 0.750000
Si Si3 0.752799 0.933171 0.281701
Si Si4 0.370359 0.883560 0.116389
Si Si5 0.126038 0.226652 0.666803
Si Si6 0.781724 0.637351 0.071196
O O1 0.116895 0.502543 0.457827
O O2 0.086413 0.624197 0.697249
O O3 0.000000 0.500000 0.500000
O O4 0.040689 0.679394 0.400278
O O5 0.056669 0.179999 0.692535
O O6 0.823155 0.874185 0.315504
O O7 0.761860 0.062849 0.334351
O O8 0.711849 0.929207 0.090963
O O9 0.706736 0.121775 0.888153
O O10 0.387473 0.780025 0.015076
O O11 0.151363 0.327425 0.796699
O O12 0.750000 0.750000 0.000000
#
# Coordination Sequence:
#
# PCOD8146353 Si02
#       6
#     8   4   8   8   8   8
#     4  12  21  34  57  90 128 175 213 271 341 397
#     4  12  22  38  56  84 134 168 220 264 332 390
#     4  11  22  39  63  92 126 165 217 269 329 389
#     4  12  21  35  56  88 130 165 213 267 331 390
#     4  11  24  38  60  93 129 175 215 267 329 397
#     4  10  22  41  63  91 126 166 216 275 328 374
#
# _framework density 21.259177999999999
#
# number of rings (size 3 to 8) (size 9 to 14) (size 15 to 20)
#    0.000    0.727    3.636    6.000    0.000    1.455 
#    0.000    0.000    0.000    4.364    0.000    0.000 
#    0.000    0.000    0.000    0.000    0.000    0.000 
#
# Total GULP energy -272558.670854 kJ/mol
# GULP energy per Si atom -12389.030493 kJ/mol
# Density = 2.121079 g / cm^3
# Si number density = 21.259178 Si / 1000 Ang^3
#
#
#
# Elastic Constant Matrix: (Units=GPa)
#
#
# Indices 1 2 3 4 5 6 
#
# 1 191.4490 50.7804 39.6092 0.0000 -12.0859 0.0000
# 2 50.7804 85.5077 40.5765 0.0000 -0.8014 0.0000
# 3 39.6092 40.5765 142.6875 0.0000 -1.3578 0.0000
# 4 0.0000 0.0000 0.0000 30.7287 0.0000 -0.5148
# 5 -12.0859 -0.8014 -1.3578 0.0000 26.5480 0.0000
# 6 0.0000 0.0000 0.0000 -0.5148 0.0000 40.7990
#
#
#
# Elastic Compliance Matrix: (Units=1/GPa)
#
#
# Indices 1 2 3 4 5 6 
#
# 1 0.006478 -0.003445 -0.000792 0.000000 0.002805 0.000000
# 2 -0.003445 0.015352 -0.003422 0.000000 -0.001280 0.000000
# 3 -0.000792 -0.003422 0.008201 0.000000 -0.000044 0.000000
# 4 0.000000 0.000000 0.000000 0.032550 0.000000 0.000411
# 5 0.002805 -0.001280 -0.000044 0.000000 0.038904 0.000000
# 6 0.000000 0.000000 0.000000 0.000411 0.000000 0.024516
#
#
# Mechanical properties :
#
#
# Convention : Reuss Voigt Hill
#
# Bulk Modulus (GPa) = 67.96241 75.73071 71.84656
# Shear Modulus (GPa) = 34.19461 38.86035 36.52748
#
# Velocity S-wave (km/s) = 4.01492 4.28007 4.14961
# Velocity P-wave (km/s) = 7.31646 7.75405 7.53843
#
# Compressibility (1/GPa) = 0.01471402
#
# Stress axis : x y z
#
# Youngs Moduli (GPa) = 154.36944 65.13618 121.93985
#
# Poissons Ratio (x) = 0.22439 0.09656
# Poissons Ratio (y) = 0.53180 0.41724
# Poissons Ratio (z) = 0.12224 0.22288
#
# Static dielectric constant tensor:
#      x y z
#    x 3.995960 0.000000 -0.033250 
#    y 0.000000 3.552580 0.000000 
#    z -0.033250 0.000000 4.200890 
# 
# 
# High freq. dielectric constant tensor:
#      x y z
#    x 1.841580 0.000000 -0.004690 
#    y 0.000000 1.788590 0.000000 
#    z -0.004690 0.000000 1.858840 
# 
# From -- ./inp_files/60721.got.cif
#   From: 2010.06.25/outbox.cif.g09.slc.cpg/sg15_31_cif.got.tgz:60721.got - 2010.06.28 07:06:18.
