data_PCOD8146234
_publ_section_title
;
Structure prediction by ZEFSAII (Michael W. Deem and Ramdas Pophale) SiO2 
 PCOD8146234
Probable space group: C 2/C
;
_chemical_formula_sum "Si O2"
_cell_formula_units_Z 36
_cell_length_a 7.679741
_cell_length_b 21.749842
_cell_length_c 13.740865
_cell_angle_alpha 90.000000
_cell_angle_beta 47.311571
_cell_angle_gamma 90.000000
_cell_volume 1687.075592
_symmetry_space_group_name_H-M "C 2/C"
_symmetry_group_IT_number 15
_symmetry_cell_setting 'monoclinic'
loop_
_space_group_symop_operation_xyz
x,y,z
-x,y,1/2-z
-x,-y,-z
x,-y,1/2+z
1/2+x,1/2+y,z
1/2-x,1/2+y,1/2-z
1/2-x,1/2-y,-z
1/2+x,1/2-y,1/2+z
loop_
_atom_site_type_symbol
_atom_site_label
_atom_site_fract_x
_atom_site_fract_y
_atom_site_fract_z
Si Si1 0.749877 0.159870 0.687431
Si Si2 0.809246 0.999062 0.486351
Si Si3 0.000000 0.562402 0.250000
Si Si4 0.000000 0.089294 0.750000
Si Si5 0.495189 0.377411 0.593483
Si Si6 0.000000 0.777935 0.750000
O O1 0.500000 0.129238 0.750000
O O2 0.722844 0.234353 0.695221
O O3 0.810700 0.134254 0.770731
O O4 0.957489 0.139850 0.536130
O O5 0.563312 0.980404 0.632193
O O6 0.862463 0.952096 0.379876
O O7 0.000000 0.000000 0.500000
O O8 0.825383 0.068347 0.438160
O O9 0.781089 0.604214 0.297326
O O10 0.562139 0.319734 0.634428
#
# Coordination Sequence:
#
# PCOD8146234 Si02
#       6
#     8   8   4   4   8   4
#     4  10  25  43  72 102 145 184 249 289 351 424
#     4  10  22  40  70 107 146 175 239 291 363 431
#     4  10  22  40  70 108 144 182 228 300 358 440
#     4  12  21  47  74 106 140 200 222 300 368 422
#     4  11  22  47  68 103 149 179 246 298 355 433
#     4  10  25  45  70 100 140 198 234 312 346 402
#
# _framework density 21.338698999999998
#
# number of rings (size 3 to 8) (size 9 to 14) (size 15 to 20)
#    0.667    0.889    4.444    1.333    1.556    2.667 
#    0.000    8.889    0.000    0.000    0.000    0.000 
#    0.000    0.000    0.000    0.000    0.000    0.000 
#
# Total GULP energy -223078.447306 kJ/mol
# GULP energy per Si atom -12393.247073 kJ/mol
# Density = 2.129013 g / cm^3
# Si number density = 21.338699 Si / 1000 Ang^3
#
#
#
# Elastic Constant Matrix: (Units=GPa)
#
#
# Indices 1 2 3 4 5 6 
#
# 1 111.2676 67.3713 51.0459 0.0000 15.4822 0.0000
# 2 67.3713 178.6922 71.1579 0.0000 12.0019 0.0000
# 3 51.0459 71.1579 150.9940 0.0000 4.4993 0.0000
# 4 0.0000 0.0000 0.0000 47.8082 0.0000 12.2656
# 5 15.4822 12.0019 4.4993 0.0000 33.5511 0.0000
# 6 0.0000 0.0000 0.0000 12.2656 0.0000 61.2803
#
#
#
# Elastic Compliance Matrix: (Units=1/GPa)
#
#
# Indices 1 2 3 4 5 6 
#
# 1 0.012923 -0.003560 -0.002561 0.000000 -0.004346 0.000000
# 2 -0.003560 0.008011 -0.002546 0.000000 -0.000882 0.000000
# 3 -0.002561 -0.002546 0.008661 0.000000 0.000931 0.000000
# 4 0.000000 0.000000 0.000000 0.022049 0.000000 -0.004413
# 5 -0.004346 -0.000882 0.000931 0.000000 0.032001 0.000000
# 6 0.000000 0.000000 0.000000 -0.004413 0.000000 0.017202
#
#
# Mechanical properties :
#
#
# Convention : Reuss Voigt Hill
#
# Bulk Modulus (GPa) = 81.56449 91.12269 86.34359
# Shear Modulus (GPa) = 40.89348 45.28650 43.08999
#
# Velocity S-wave (km/s) = 4.38242 4.61181 4.49858
# Velocity P-wave (km/s) = 7.99464 8.43529 8.21792
#
# Compressibility (1/GPa) = 0.01226024
#
# Stress axis : x y z
#
# Youngs Moduli (GPa) = 77.38175 124.82115 115.46524
#
# Poissons Ratio (x) = 0.44441 0.29576
# Poissons Ratio (y) = 0.27551 0.29393
# Poissons Ratio (z) = 0.19821 0.31775
#
# Static dielectric constant tensor:
#      x y z
#    x 3.673620 0.000000 0.090420 
#    y 0.000000 4.358190 0.000000 
#    z 0.090420 0.000000 3.987280 
# 
# 
# High freq. dielectric constant tensor:
#      x y z
#    x 1.814770 0.000000 0.012090 
#    y 0.000000 1.847410 0.000000 
#    z 0.012090 0.000000 1.843890 
# 
# From -- ./inp_files/136759.got.cif
#   From: 2010.06.25/outbox.cif.g09.slc.cpg/sg15_69_cif.got.tgz:136759.got - 2010.06.28 07:06:18.
