data_PCOD8146156
_publ_section_title
;
Structure prediction by ZEFSAII (Michael W. Deem and Ramdas Pophale) SiO2 
 PCOD8146156
Probable space group: C 2/C
;
_chemical_formula_sum "Si O2"
_cell_formula_units_Z 64
_cell_length_a 17.454387
_cell_length_b 18.365476
_cell_length_c 17.509035
_cell_angle_alpha 90.000000
_cell_angle_beta 150.198300
_cell_angle_gamma 90.000000
_cell_volume 2789.492090
_symmetry_space_group_name_H-M "C 2/C"
_symmetry_group_IT_number 15
_symmetry_cell_setting 'monoclinic'
loop_
_space_group_symop_operation_xyz
x,y,z
-x,y,1/2-z
-x,-y,-z
x,-y,1/2+z
1/2+x,1/2+y,z
1/2-x,1/2+y,1/2-z
1/2-x,1/2-y,-z
1/2+x,1/2-y,1/2+z
loop_
_atom_site_type_symbol
_atom_site_label
_atom_site_fract_x
_atom_site_fract_y
_atom_site_fract_z
Si Si1 0.882768 0.320692 0.715321
Si Si2 0.362055 0.839351 0.857462
Si Si3 0.529674 0.329362 0.363014
Si Si4 0.888843 0.379784 0.219944
Si Si5 0.414757 0.970253 0.000960
Si Si6 0.089785 0.976563 0.246979
Si Si7 0.946726 0.118875 0.117535
Si Si8 0.076077 0.249494 0.139327
O O1 0.898531 0.373402 0.803900
O O2 0.710874 0.317985 0.533666
O O3 0.000000 0.345148 0.750000
O O4 0.930389 0.242629 0.793342
O O5 0.335815 0.896018 0.902868
O O6 0.206698 0.795614 0.710779
O O7 0.492401 0.782969 0.994389
O O8 0.500000 0.348736 0.250000
O O9 0.462590 0.403340 0.345055
O O10 0.857717 0.312983 0.249826
O O11 0.000000 0.351242 0.250000
O O12 0.963132 0.450109 0.327126
O O13 0.732215 0.403726 0.043016
O O14 0.278132 0.022506 0.914943
O O15 0.500000 0.000000 0.000000
O O16 0.000000 0.982925 0.250000
O O17 0.038841 0.050631 0.159025
O O18 0.000000 0.132607 0.250000
O O19 0.967670 0.194579 0.091852
#
# Coordination Sequence:
#
# PCOD8146156 Si02
#       8
#     8   8   8   8   8   8   8   8
#     4  11  23  43  70  98 131 176 234 302 351 410
#     4  11  24  42  63  99 132 178 229 285 348 408
#     4  10  22  40  68 101 127 169 227 288 352 406
#     4  11  24  41  69 106 134 185 239 278 337 409
#     4  11  26  47  67  97 143 186 226 286 348 417
#     4  10  22  43  70  97 135 179 225 276 340 421
#     4  11  22  39  67  98 142 183 221 276 331 407
#     4  11  22  39  65  96 141 176 227 278 343 404
#
# _framework density 22.943245000000001
#
# number of rings (size 3 to 8) (size 9 to 14) (size 15 to 20)
#    0.000    1.250    2.500    4.125    1.750    7.000 
#    2.250    2.500    0.000    0.750    0.000    0.000 
#    0.000    0.000    0.000    0.000    0.000    0.000 
#
# Total GULP energy -396511.672158 kJ/mol
# GULP energy per Si atom -12390.989755 kJ/mol
# Density = 2.289103 g / cm^3
# Si number density = 22.943245 Si / 1000 Ang^3
#
#
#
# Elastic Constant Matrix: (Units=GPa)
#
#
# Indices 1 2 3 4 5 6 
#
# 1 104.9785 3.2949 55.1572 0.0031 -0.6161 -0.0003
# 2 3.2949 42.8541 23.5740 0.0010 5.7417 -0.0003
# 3 55.1572 23.5740 179.8868 0.0183 13.7428 0.0068
# 4 0.0031 0.0010 0.0183 9.4123 0.0066 9.6146
# 5 -0.6161 5.7417 13.7428 0.0066 41.1756 0.0010
# 6 -0.0003 -0.0003 0.0068 9.6146 0.0010 22.0748
#
#
#
# Elastic Compliance Matrix: (Units=1/GPa)
#
#
# Indices 1 2 3 4 5 6 
#
# 1 0.011470 0.001008 -0.003747 0.000002 0.001282 0.000000
# 2 0.001008 0.025484 -0.003467 0.000007 -0.002381 -0.000002
# 3 -0.003747 -0.003467 0.007316 -0.000016 -0.002015 0.000005
# 4 0.000002 0.000007 -0.000016 0.191399 -0.000024 -0.083364
# 5 0.001282 -0.002381 -0.002015 -0.000024 0.025310 0.000010
# 6 0.000000 -0.000002 0.000005 -0.083364 0.000010 0.081609
#
#
# Mechanical properties :
#
#
# Convention : Reuss Voigt Hill
#
# Bulk Modulus (GPa) = 31.38924 54.64129 43.01526
# Shear Modulus (GPa) = 13.67539 30.91210 22.29375
#
# Velocity S-wave (km/s) = 2.44407 3.67458 3.12058
# Velocity P-wave (km/s) = 4.65570 6.47078 5.63678
#
# Compressibility (1/GPa) = 0.03185805
#
# Stress axis : x y z
#
# Youngs Moduli (GPa) = 87.18086 39.24093 136.68337
#
# Poissons Ratio (x) = -0.03954 0.51216
# Poissons Ratio (y) = -0.08784 0.47383
# Poissons Ratio (z) = 0.32667 0.13603
#
# Static dielectric constant tensor:
#      x y z
#    x 5.079180 0.000030 0.716610 
#    y 0.000030 4.752630 0.000000 
#    z 0.716610 0.000000 4.673640 
# 
# 
# High freq. dielectric constant tensor:
#      x y z
#    x 1.898180 0.000000 0.006040 
#    y 0.000000 1.907230 0.000000 
#    z 0.006040 0.000000 1.915710 
# 
# From -- ./inp_files/211992.got.cif
#   From: 2010.06.25/outbox.cif.g09.slc.cpg/sg15_106_cif.got.tgz:211992.got - 2010.06.28 07:06:18.
