data_PCOD8146321
_publ_section_title
;
Structure prediction by ZEFSAII (Michael W. Deem and Ramdas Pophale) SiO2 
 PCOD8146321
Probable space group: C 2/C
;
_chemical_formula_sum "Si O2"
_cell_formula_units_Z 56
_cell_length_a 27.134022
_cell_length_b 11.006471
_cell_length_c 9.358917
_cell_angle_alpha 90.000000
_cell_angle_beta 110.176572
_cell_angle_gamma 90.000000
_cell_volume 2623.518955
_symmetry_space_group_name_H-M "C 2/C"
_symmetry_group_IT_number 15
_symmetry_cell_setting 'monoclinic'
loop_
_space_group_symop_operation_xyz
x,y,z
-x,y,1/2-z
-x,-y,-z
x,-y,1/2+z
1/2+x,1/2+y,z
1/2-x,1/2+y,1/2-z
1/2-x,1/2-y,-z
1/2+x,1/2-y,1/2+z
loop_
_atom_site_type_symbol
_atom_site_label
_atom_site_fract_x
_atom_site_fract_y
_atom_site_fract_z
Si Si1 0.597527 0.874653 0.267332
Si Si2 0.698982 0.271697 0.540197
Si Si3 0.198982 0.771697 0.857768
Si Si4 0.636734 0.500000 0.386734
Si Si5 0.402473 0.125347 0.072277
Si Si6 0.452896 0.337651 0.291511
Si Si7 0.452896 0.662349 0.114280
O O1 0.656556 0.829915 0.356345
O O2 0.558071 0.781350 0.301926
O O3 0.588966 1.000000 0.338966
O O4 0.586057 0.884588 0.086057
O O5 0.750000 0.250000 0.500000
O O6 0.718983 0.251987 0.718983
O O7 0.674258 0.406422 0.506545
O O8 0.656556 0.170085 0.456767
O O9 0.174258 0.906422 0.841971
O O10 0.250000 0.750000 0.000000
O O11 0.598092 0.424454 0.244154
O O12 0.598092 0.575546 0.452030
O O13 0.441930 0.218650 0.185785
O O14 0.500000 0.402646 0.250000
O O15 0.470369 0.304380 0.470369
O O16 0.500000 0.597354 0.250000
#
# Coordination Sequence:
#
# PCOD8146321 Si02
#       7
#     8   8   8   8   8   8   8
#     4  10  22  41  62  89 125 164 210 259 309 368
#     4  10  23  40  61  90 122 161 207 255 308 366
#     4  10  23  40  61  90 122 161 207 255 308 366
#     4  10  23  42  64  92 124 164 207 256 306 368
#     4  10  22  41  62  89 125 164 210 259 309 368
#     4  11  23  40  65  94 126 164 206 256 313 371
#     4  11  23  40  65  94 126 164 206 256 313 371
#
# _framework density 21.345375000000001
#
# number of rings (size 3 to 8) (size 9 to 14) (size 15 to 20)
#    0.000    1.714    0.000    3.000    2.000   12.000 
#    0.000    2.857    0.000    0.000    0.000    0.000 
#    0.000    0.000    0.000    0.000    0.000    0.000 
#
# Total GULP energy -347057.922909 kJ/mol
# GULP energy per Si atom -12394.925818 kJ/mol
# Density = 2.129679 g / cm^3
# Si number density = 21.345375 Si / 1000 Ang^3
#
#
#
# Elastic Constant Matrix: (Units=GPa)
#
#
# Indices 1 2 3 4 5 6 
#
# 1 118.9226 35.8031 56.8827 0.0000 -5.2132 0.0000
# 2 35.8031 126.1757 37.5831 0.0000 -0.7326 0.0000
# 3 56.8827 37.5831 144.2889 0.0000 -5.2274 0.0000
# 4 0.0000 0.0000 0.0000 20.3589 0.0000 -1.4294
# 5 -5.2132 -0.7326 -5.2274 0.0000 37.3587 0.0000
# 6 0.0000 0.0000 0.0000 -1.4294 0.0000 16.8861
#
#
#
# Elastic Compliance Matrix: (Units=1/GPa)
#
#
# Indices 1 2 3 4 5 6 
#
# 1 0.010819 -0.001956 -0.003721 0.000000 0.000951 0.000000
# 2 -0.001956 0.008947 -0.001571 0.000000 -0.000317 0.000000
# 3 -0.003721 -0.001571 0.008832 0.000000 0.000686 0.000000
# 4 0.000000 0.000000 0.000000 0.049412 0.000000 0.004183
# 5 0.000951 -0.000317 0.000686 0.000000 0.026990 0.000000
# 6 0.000000 0.000000 0.000000 0.004183 0.000000 0.059574
#
#
# Mechanical properties :
#
#
# Convention : Reuss Voigt Hill
#
# Bulk Modulus (GPa) = 70.91571 72.21388 71.56479
# Shear Modulus (GPa) = 27.20781 32.19528 29.70154
#
# Velocity S-wave (km/s) = 3.57409 3.88790 3.73429
# Velocity P-wave (km/s) = 7.09417 7.35248 7.22448
#
# Compressibility (1/GPa) = 0.01410125
#
# Stress axis : x y z
#
# Youngs Moduli (GPa) = 92.42655 111.77552 113.23030
#
# Poissons Ratio (x) = 0.21864 0.42137
# Poissons Ratio (y) = 0.18079 0.17785
# Poissons Ratio (z) = 0.34395 0.17556
#
# Static dielectric constant tensor:
#      x y z
#    x 3.858090 0.000000 -0.037850 
#    y 0.000000 3.907010 0.000000 
#    z -0.037850 0.000000 3.950060 
# 
# 
# High freq. dielectric constant tensor:
#      x y z
#    x 1.842520 0.000000 0.000660 
#    y 0.000000 1.843330 0.000000 
#    z 0.000660 0.000000 1.840920 
# 
# From -- ./inp_files/65521.got.cif
#   From: 2010.06.25/outbox.cif.g09.slc.cpg/sg15_33_cif.got.tgz:65521.got - 2010.06.28 07:06:18.
