data_PCOD8146770
_publ_section_title
;
Structure prediction by ZEFSAII (Michael W. Deem and Ramdas Pophale) SiO2 
 PCOD8146770
Probable space group: C 2/C
;
_chemical_formula_sum "Si O2"
_cell_formula_units_Z 48
_cell_length_a 13.815440
_cell_length_b 12.406214
_cell_length_c 26.297496
_cell_angle_alpha 90.000000
_cell_angle_beta 31.295769
_cell_angle_gamma 90.000000
_cell_volume 2341.354449
_symmetry_space_group_name_H-M "C 2/C"
_symmetry_group_IT_number 15
_symmetry_cell_setting 'monoclinic'
loop_
_space_group_symop_operation_xyz
x,y,z
-x,y,1/2-z
-x,-y,-z
x,-y,1/2+z
1/2+x,1/2+y,z
1/2-x,1/2+y,1/2-z
1/2-x,1/2-y,-z
1/2+x,1/2-y,1/2+z
loop_
_atom_site_type_symbol
_atom_site_label
_atom_site_fract_x
_atom_site_fract_y
_atom_site_fract_z
Si Si1 0.621446 0.378868 0.744823
Si Si2 0.414254 0.031699 0.648273
Si Si3 0.038707 0.356238 0.672328
Si Si4 0.211886 0.126133 0.028394
Si Si5 0.158090 0.192971 0.809130
Si Si6 0.085993 0.956035 0.012134
O O1 0.500000 0.363302 0.750000
O O2 0.756191 0.483156 0.681765
O O3 0.472444 0.390727 0.856316
O O4 0.764932 0.280222 0.685721
O O5 0.604118 0.062824 0.532261
O O6 0.340773 0.146054 0.700604
O O7 0.439718 0.952954 0.685687
O O8 0.260696 0.364189 0.567014
O O9 0.000000 0.360371 0.750000
O O10 0.974030 0.244464 0.675229
O O11 0.250000 0.250000 0.000000
O O12 0.176621 0.065734 0.991642
O O13 0.057915 0.096764 0.884078
O O14 0.000000 0.000000 0.000000
#
# Coordination Sequence:
#
# PCOD8146770 Si02
#       6
#     8   8   8   8   8   8
#     4  11  25  42  64  95 130 169 214 264 325 387
#     4  10  22  42  64  89 130 170 212 269 311 388
#     4  10  23  40  63  95 127 169 215 265 323 376
#     4  11  23  42  66  94 128 169 216 266 322 382
#     4  11  22  41  63  91 132 163 216 270 315 379
#     4  11  24  40  68  93 127 171 219 262 321 382
#
# _framework density 20.500954
#
# number of rings (size 3 to 8) (size 9 to 14) (size 15 to 20)
#    0.000    1.333    3.333    1.500    4.667    2.000 
#    0.000    0.000    0.000    0.000    0.000    0.000 
#    0.000    0.000    0.000    0.000    0.000    0.000 
#
# Total GULP energy -297436.703378 kJ/mol
# GULP energy per Si atom -12393.195974 kJ/mol
# Density = 2.045429 g / cm^3
# Si number density = 20.500954 Si / 1000 Ang^3
#
#
#
# Elastic Constant Matrix: (Units=GPa)
#
#
# Indices 1 2 3 4 5 6 
#
# 1 106.1276 32.4012 19.5278 -0.0002 -13.3762 0.0000
# 2 32.4012 100.6619 32.6654 -0.0009 -9.1416 0.0004
# 3 19.5278 32.6654 86.6605 -0.0030 -22.2636 0.0017
# 4 -0.0002 -0.0009 -0.0030 22.8216 0.0010 2.8189
# 5 -13.3762 -9.1416 -22.2636 0.0010 31.6655 -0.0008
# 6 0.0000 0.0004 0.0017 2.8189 -0.0008 16.8450
#
#
#
# Elastic Compliance Matrix: (Units=1/GPa)
#
#
# Indices 1 2 3 4 5 6 
#
# 1 0.010861 -0.003049 -0.000422 0.000000 0.003411 0.000000
# 2 -0.003049 0.012178 -0.004065 0.000000 -0.000631 0.000000
# 3 -0.000422 -0.004065 0.015645 0.000002 0.009648 -0.000001
# 4 0.000000 0.000000 0.000002 0.044743 -0.000001 -0.007487
# 5 0.003411 -0.000631 0.009648 -0.000001 0.039623 0.000001
# 6 0.000000 0.000000 -0.000001 -0.007487 0.000001 0.060618
#
#
# Mechanical properties :
#
#
# Convention : Reuss Voigt Hill
#
# Bulk Modulus (GPa) = 42.35155 51.40433 46.87794
# Shear Modulus (GPa) = 24.20017 28.19012 26.19515
#
# Velocity S-wave (km/s) = 3.43948 3.71221 3.57844
# Velocity P-wave (km/s) = 6.03958 6.59565 6.32373
#
# Compressibility (1/GPa) = 0.02361189
#
# Stress axis : x y z
#
# Youngs Moduli (GPa) = 92.07138 82.11758 63.91716
#
# Poissons Ratio (x) = 0.25041 0.02695
# Poissons Ratio (y) = 0.28076 0.25983
# Poissons Ratio (z) = 0.03882 0.33381
#
# Static dielectric constant tensor:
#      x y z
#    x 3.706890 0.000000 -0.587730 
#    y 0.000000 3.819850 -0.000060 
#    z -0.587730 -0.000060 -2.418530 
# 
# 
# High freq. dielectric constant tensor:
#      x y z
#    x 1.795670 0.000000 -0.026280 
#    y 0.000000 1.810060 0.000000 
#    z -0.026280 0.000000 1.809090 
# 
# From -- ./inp_files/152442.got.cif
#   From: 2010.06.25/outbox.cif.g09.slc.cpg/sg15_77_cif.got.tgz:152442.got - 2010.06.28 07:06:18.
