data_PCOD8146779
_publ_section_title
;
Structure prediction by ZEFSAII (Michael W. Deem and Ramdas Pophale) SiO2 
 PCOD8146779
Probable space group: C 2/C
;
_chemical_formula_sum "Si O2"
_cell_formula_units_Z 60
_cell_length_a 22.878173
_cell_length_b 25.641331
_cell_length_c 16.923702
_cell_angle_alpha 90.000000
_cell_angle_beta 161.912462
_cell_angle_gamma 90.000000
_cell_volume 3082.311108
_symmetry_space_group_name_H-M "C 2/C"
_symmetry_group_IT_number 15
_symmetry_cell_setting 'monoclinic'
loop_
_space_group_symop_operation_xyz
x,y,z
-x,y,1/2-z
-x,-y,-z
x,-y,1/2+z
1/2+x,1/2+y,z
1/2-x,1/2+y,1/2-z
1/2-x,1/2-y,-z
1/2+x,1/2-y,1/2+z
loop_
_atom_site_type_symbol
_atom_site_label
_atom_site_fract_x
_atom_site_fract_y
_atom_site_fract_z
Si Si1 0.636113 0.544405 0.196032
Si Si2 0.672403 0.691389 0.909897
Si Si3 0.651819 0.315969 0.808988
Si Si4 0.170865 0.923301 0.911835
Si Si5 0.507715 0.108712 0.167825
Si Si6 0.091928 0.142733 0.637034
Si Si7 0.479894 0.004669 0.881420
Si Si8 0.500000 0.754733 0.250000
O O1 0.621913 0.543029 0.272412
O O2 0.841623 0.529922 0.431029
O O3 0.500000 0.500000 0.000000
O O4 0.559890 0.596021 0.054537
O O5 0.500000 0.690647 0.750000
O O6 0.600718 0.671204 0.732767
O O7 0.750000 0.750000 0.000000
O O8 0.839634 0.653740 0.157063
O O9 0.732509 0.368015 0.954463
O O10 0.488407 0.319973 0.533840
O O11 0.565405 0.279526 0.762728
O O12 0.832312 0.290170 0.000291
O O13 0.000000 0.912620 0.750000
O O14 0.320330 0.953747 0.156499
O O15 0.500000 0.099462 0.250000
O O16 0.569551 0.053661 0.210573
O O17 0.297920 0.124856 0.870687
O O18 0.500000 0.000000 0.000000
#
# Coordination Sequence:
#
# PCOD8146779 Si02
#       8
#     8   8   8   8   8   8   8   4
#     4  11  22  41  65  94 132 171 214 262 323 391
#     4  11  25  45  69  96 130 171 219 274 338 395
#     4  10  23  41  65  92 127 166 213 268 328 383
#     4  11  24  41  63  91 134 170 214 270 325 378
#     4  10  22  43  65  91 131 169 212 269 324 381
#     4  10  23  41  67  95 128 171 216 265 329 391
#     4  12  26  39  64  99 129 177 218 262 327 396
#     4  10  22  42  64  92 122 166 214 266 326 382
#
# _framework density 19.465913
#
# number of rings (size 3 to 8) (size 9 to 14) (size 15 to 20)
#    0.000    1.333    2.000    3.200    9.333    2.667 
#    0.000    2.667    0.000    0.000    0.000    0.000 
#    0.000    0.000    0.000    0.000    0.000    0.000 
#
# Total GULP energy -371836.349140 kJ/mol
# GULP energy per Si atom -12394.544971 kJ/mol
# Density = 1.942161 g / cm^3
# Si number density = 19.465913 Si / 1000 Ang^3
#
#
#
# Elastic Constant Matrix: (Units=GPa)
#
#
# Indices 1 2 3 4 5 6 
#
# 1 63.7489 18.6602 10.2106 0.0000 -14.0599 0.0000
# 2 18.6602 94.8858 46.0314 0.0000 -7.2937 0.0000
# 3 10.2106 46.0314 101.0279 0.0001 -15.0187 0.0001
# 4 0.0000 0.0000 0.0001 43.4175 0.0001 0.1491
# 5 -14.0599 -7.2937 -15.0187 0.0001 30.5994 0.0001
# 6 0.0000 0.0000 0.0001 0.1491 0.0001 29.2334
#
#
#
# Elastic Compliance Matrix: (Units=1/GPa)
#
#
# Indices 1 2 3 4 5 6 
#
# 1 0.018318 -0.003423 0.000904 0.000000 0.008045 0.000000
# 2 -0.003423 0.014170 -0.006302 0.000000 -0.001288 0.000000
# 3 0.000904 -0.006302 0.013502 0.000000 0.005540 0.000000
# 4 0.000000 0.000000 0.000000 0.023033 0.000000 -0.000118
# 5 0.008045 -0.001288 0.005540 0.000000 0.038789 0.000000
# 6 0.000000 0.000000 0.000000 -0.000118 0.000000 0.034208
#
#
# Mechanical properties :
#
#
# Convention : Reuss Voigt Hill
#
# Bulk Modulus (GPa) = 35.27474 45.49634 40.38554
# Shear Modulus (GPa) = 29.56651 32.96743 31.26697
#
# Velocity S-wave (km/s) = 3.90152 4.11980 4.01214
# Velocity P-wave (km/s) = 6.20132 6.78626 6.50038
#
# Compressibility (1/GPa) = 0.02834890
#
# Stress axis : x y z
#
# Youngs Moduli (GPa) = 54.59159 70.57019 74.06389
#
# Poissons Ratio (x) = 0.24153 -0.06695
# Poissons Ratio (y) = 0.18684 0.46675
# Poissons Ratio (z) = -0.04935 0.44473
#
# Static dielectric constant tensor:
#      x y z
#    x 3.678070 0.000000 0.175610 
#    y 0.000000 3.848270 0.000000 
#    z 0.175610 0.000000 4.038060 
# 
# 
# High freq. dielectric constant tensor:
#      x y z
#    x 1.761490 0.000000 0.001040 
#    y 0.000000 1.774980 0.000000 
#    z 0.001040 0.000000 1.770090 
# 
# From -- ./inp_files/169957.got.cif
#   From: 2010.06.25/outbox.cif.g09.slc.cpg/sg15_85_cif.got.tgz:169957.got - 2010.06.28 07:06:18.
