data_PCOD8146932
_publ_section_title
;
Structure prediction by ZEFSAII (Michael W. Deem and Ramdas Pophale) SiO2 
 PCOD8146932
Probable space group: C 2/C
;
_chemical_formula_sum "Si O2"
_cell_formula_units_Z 48
_cell_length_a 16.562937
_cell_length_b 12.466858
_cell_length_c 21.456357
_cell_angle_alpha 90.000000
_cell_angle_beta 30.506205
_cell_angle_gamma 90.000000
_cell_volume 2249.049739
_symmetry_space_group_name_H-M "C 2/C"
_symmetry_group_IT_number 15
_symmetry_cell_setting 'monoclinic'
loop_
_space_group_symop_operation_xyz
x,y,z
-x,y,1/2-z
-x,-y,-z
x,-y,1/2+z
1/2+x,1/2+y,z
1/2-x,1/2+y,1/2-z
1/2-x,1/2-y,-z
1/2+x,1/2-y,1/2+z
loop_
_atom_site_type_symbol
_atom_site_label
_atom_site_fract_x
_atom_site_fract_y
_atom_site_fract_z
Si Si1 0.884209 0.129438 0.560426
Si Si2 0.441536 0.859361 0.482892
Si Si3 0.298798 0.128095 0.478283
Si Si4 0.538953 0.041437 0.793460
Si Si5 0.227220 0.435241 0.364906
Si Si6 0.478517 0.451236 0.413971
O O1 0.852779 0.246741 0.553404
O O2 0.726325 0.058439 0.679696
O O3 0.981089 0.139538 0.560983
O O4 0.991576 0.066588 0.438707
O O5 0.444266 0.886347 0.407339
O O6 0.620413 0.858585 0.391778
O O7 0.343083 0.945399 0.587916
O O8 0.250000 0.250000 0.500000
O O9 0.256311 0.111199 0.577699
O O10 0.197296 0.058741 0.496974
O O11 0.479696 0.083727 0.343831
O O12 0.500000 0.082533 0.750000
O O13 0.403590 0.441449 0.221787
#
# Coordination Sequence:
#
# PCOD8146932 Si02
#       6
#     8   8   8   8   8   8
#     4  11  24  43  67  97 132 180 222 275 337 393
#     4  10  23  43  67  97 130 180 220 270 336 387
#     4  11  24  44  68  99 133 176 218 277 344 393
#     4  11  23  45  66  96 136 171 229 278 323 409
#     4  10  22  42  66  99 135 166 225 275 322 407
#     4  11  23  42  64  99 134 165 227 274 327 412
#
# _framework density 21.342345999999999
#
# number of rings (size 3 to 8) (size 9 to 14) (size 15 to 20)
#    0.000    1.333    3.333    1.500    2.333    2.000 
#    6.000    0.000    0.000    0.000    0.000    0.000 
#    0.000    0.000    0.000    0.000    0.000    0.000 
#
# Total GULP energy -297494.055997 kJ/mol
# GULP energy per Si atom -12395.585667 kJ/mol
# Density = 2.129377 g / cm^3
# Si number density = 21.342346 Si / 1000 Ang^3
#
#
#
# Elastic Constant Matrix: (Units=GPa)
#
#
# Indices 1 2 3 4 5 6 
#
# 1 128.2035 34.4147 28.6059 0.0002 17.7683 -0.0003
# 2 34.4147 126.9347 46.1282 0.0001 4.7716 -0.0006
# 3 28.6059 46.1282 91.9166 -0.0002 6.7982 -0.0011
# 4 0.0002 0.0001 -0.0002 23.3612 -0.0002 -0.3277
# 5 17.7683 4.7716 6.7982 -0.0002 37.6996 0.0001
# 6 -0.0003 -0.0006 -0.0011 -0.3277 0.0001 24.7152
#
#
#
# Elastic Compliance Matrix: (Units=1/GPa)
#
#
# Indices 1 2 3 4 5 6 
#
# 1 0.009170 -0.001723 -0.001709 0.000000 -0.003796 0.000000
# 2 -0.001723 0.009963 -0.004491 0.000000 0.000361 0.000000
# 3 -0.001709 -0.004491 0.013747 0.000000 -0.001105 0.000001
# 4 0.000000 0.000000 0.000000 0.042814 0.000000 0.000568
# 5 -0.003796 0.000361 -0.001105 0.000000 0.028468 0.000000
# 6 0.000000 0.000000 0.000001 0.000568 0.000000 0.040468
#
#
# Mechanical properties :
#
#
# Convention : Reuss Voigt Hill
#
# Bulk Modulus (GPa) = 58.69891 62.81694 60.75793
# Shear Modulus (GPa) = 30.09278 33.01561 31.55419
#
# Velocity S-wave (km/s) = 3.75907 3.93740 3.84927
# Velocity P-wave (km/s) = 6.81205 7.08292 6.94881
#
# Compressibility (1/GPa) = 0.01703609
#
# Stress axis : x y z
#
# Youngs Moduli (GPa) = 109.05370 100.36664 72.74533
#
# Poissons Ratio (x) = 0.17289 0.12429
# Poissons Ratio (y) = 0.18785 0.32668
# Poissons Ratio (z) = 0.18633 0.45072
#
# Static dielectric constant tensor:
#      x y z
#    x 4.129650 0.000000 0.041630 
#    y 0.000000 3.626250 0.000010 
#    z 0.041630 0.000010 3.818230 
# 
# 
# High freq. dielectric constant tensor:
#      x y z
#    x 1.857470 0.000000 0.012520 
#    y 0.000000 1.814310 0.000000 
#    z 0.012520 0.000000 1.836900 
# 
# From -- ./inp_files/277211.got.cif
#   From: 2010.06.25/outbox.cif.g09.slc.cpg/sg15_139_cif.got.tgz:277211.got - 2010.06.28 07:06:18.
