data_PCOD8146027
_publ_section_title
;
Structure prediction by ZEFSAII (Michael W. Deem and Ramdas Pophale) SiO2 
 PCOD8146027
Probable space group: C 2/C
;
_chemical_formula_sum "Si O2"
_cell_formula_units_Z 48
_cell_length_a 9.104347
_cell_length_b 17.578699
_cell_length_c 16.973332
_cell_angle_alpha 90.000000
_cell_angle_beta 59.455897
_cell_angle_gamma 90.000000
_cell_volume 2339.515561
_symmetry_space_group_name_H-M "C 2/C"
_symmetry_group_IT_number 15
_symmetry_cell_setting 'monoclinic'
loop_
_space_group_symop_operation_xyz
x,y,z
-x,y,1/2-z
-x,-y,-z
x,-y,1/2+z
1/2+x,1/2+y,z
1/2-x,1/2+y,1/2-z
1/2-x,1/2-y,-z
1/2+x,1/2-y,1/2+z
loop_
_atom_site_type_symbol
_atom_site_label
_atom_site_fract_x
_atom_site_fract_y
_atom_site_fract_z
Si Si1 0.757047 0.245569 0.815945
Si Si2 0.145021 0.057619 0.935646
Si Si3 0.827713 0.927465 0.256908
Si Si4 0.075154 0.222082 0.014651
Si Si5 0.495974 0.978369 0.844025
Si Si6 0.491086 0.808162 0.626762
O O1 0.791784 0.156857 0.796832
O O2 0.818653 0.291649 0.722469
O O3 0.850147 0.273632 0.869404
O O4 0.558876 0.264134 0.878700
O O5 0.145342 0.072980 0.843204
O O6 0.094319 0.133804 0.993258
O O7 0.331166 0.028396 0.912193
O O8 0.000000 0.000000 0.000000
O O9 0.000000 0.959689 0.250000
O O10 0.667052 0.979049 0.325401
O O11 0.015483 0.269486 0.955744
O O12 0.250000 0.250000 0.000000
O O13 0.500000 0.961903 0.750000
O O14 0.485179 0.898255 0.892071
#
# Coordination Sequence:
#
# PCOD8146027 Si02
#       6
#     8   8   8   8   8   8
#     4  11  21  42  70  90 128 171 228 255 322 394
#     4  11  24  43  66  97 133 172 217 270 329 388
#     4  11  22  42  67  96 128 176 217 270 326 388
#     4  12  26  41  65 101 133 168 215 276 332 379
#     4  10  22  40  65  92 130 170 214 262 328 385
#     4  11  22  44  66  96 125 177 221 266 318 396
#
# _framework density 20.517067999999998
#
# number of rings (size 3 to 8) (size 9 to 14) (size 15 to 20)
#    0.000    1.000    5.000    2.500    2.333    3.333 
#    0.000    2.500    0.000    0.000    0.000    0.000 
#    0.000    0.000    0.000    0.000    0.000    0.000 
#
# Total GULP energy -297709.009480 kJ/mol
# GULP energy per Si atom -12404.542062 kJ/mol
# Density = 2.047037 g / cm^3
# Si number density = 20.517068 Si / 1000 Ang^3
#
#
#
# Elastic Constant Matrix: (Units=GPa)
#
#
# Indices 1 2 3 4 5 6 
#
# 1 107.9003 60.1158 34.6214 -0.0001 -41.5033 0.0000
# 2 60.1158 155.4044 27.9240 0.0000 -13.4212 0.0000
# 3 34.6214 27.9240 74.5701 0.0000 -32.6718 0.0000
# 4 -0.0001 0.0000 0.0000 54.2687 0.0000 7.5597
# 5 -41.5033 -13.4212 -32.6718 0.0000 35.8368 0.0000
# 6 0.0000 0.0000 0.0000 7.5597 0.0000 37.9441
#
#
#
# Elastic Compliance Matrix: (Units=1/GPa)
#
#
# Indices 1 2 3 4 5 6 
#
# 1 0.022129 -0.006980 0.004035 0.000000 0.026693 0.000000
# 2 -0.006980 0.009104 -0.003690 0.000000 -0.008039 0.000000
# 3 0.004035 -0.003690 0.023912 0.000000 0.025091 0.000000
# 4 0.000000 0.000000 0.000000 0.018953 0.000000 -0.003776
# 5 0.026693 -0.008039 0.025091 0.000000 0.078682 0.000000
# 6 0.000000 0.000000 0.000000 -0.003776 0.000000 0.027107
#
#
# Mechanical properties :
#
#
# Convention : Reuss Voigt Hill
#
# Bulk Modulus (GPa) = 23.88158 64.79970 44.34064
# Shear Modulus (GPa) = 24.14101 39.95749 32.04925
#
# Velocity S-wave (km/s) = 3.43393 4.41786 3.95660
# Velocity P-wave (km/s) = 5.23332 7.59442 6.52161
#
# Compressibility (1/GPa) = 0.04187328
#
# Stress axis : x y z
#
# Youngs Moduli (GPa) = 45.18886 109.84392 41.81987
#
# Poissons Ratio (x) = 0.76672 -0.16873
# Poissons Ratio (y) = 0.31542 0.15433
# Poissons Ratio (z) = -0.18232 0.40538
#
# Static dielectric constant tensor:
#      x y z
#    x 3.884780 0.000000 -0.247360 
#    y 0.000000 3.625110 0.000000 
#    z -0.247360 0.000000 3.552630 
# 
# 
# High freq. dielectric constant tensor:
#      x y z
#    x 1.803850 0.000000 -0.016370 
#    y 0.000000 1.817070 0.000000 
#    z -0.016370 0.000000 1.804860 
# 
# From -- ./inp_files/190242.got.cif
#   From: 2010.06.25/outbox.cif.g09.slc.cpg/sg15_96_cif.got.tgz:190242.got - 2010.06.28 07:06:18.
