data_PCOD8146732
_publ_section_title
;
Structure prediction by ZEFSAII (Michael W. Deem and Ramdas Pophale) SiO2 
 PCOD8146732
Probable space group: C 2/C
;
_chemical_formula_sum "Si O2"
_cell_formula_units_Z 48
_cell_length_a 9.373455
_cell_length_b 9.639678
_cell_length_c 26.435702
_cell_angle_alpha 90.000000
_cell_angle_beta 89.485472
_cell_angle_gamma 90.000000
_cell_volume 2388.556736
_symmetry_space_group_name_H-M "C 2/C"
_symmetry_group_IT_number 15
_symmetry_cell_setting 'monoclinic'
loop_
_space_group_symop_operation_xyz
x,y,z
-x,y,1/2-z
-x,-y,-z
x,-y,1/2+z
1/2+x,1/2+y,z
1/2-x,1/2+y,1/2-z
1/2-x,1/2-y,-z
1/2+x,1/2-y,1/2+z
loop_
_atom_site_type_symbol
_atom_site_label
_atom_site_fract_x
_atom_site_fract_y
_atom_site_fract_z
Si Si1 0.058504 0.779108 0.803670
Si Si2 0.766578 0.535592 0.362976
Si Si3 0.729582 0.718132 0.139302
Si Si4 0.054325 0.465290 0.804624
Si Si5 0.661228 0.642454 0.032203
Si Si6 0.664678 0.636124 0.470271
O O1 0.934246 0.783390 0.844847
O O2 0.117379 0.621329 0.800145
O O3 0.000000 0.829347 0.750000
O O4 0.181731 0.883935 0.819616
O O5 0.713930 0.376142 0.365842
O O6 0.932149 0.543520 0.347644
O O7 0.743044 0.606998 0.417108
O O8 0.738080 0.636689 0.086351
O O9 0.821177 0.639262 0.180811
O O10 0.000000 0.417042 0.750000
O O11 0.496408 0.689139 0.038601
O O12 0.750000 0.750000 0.000000
O O13 0.668133 0.495133 0.006366
O O14 0.750000 0.750000 0.500000
#
# Coordination Sequence:
#
# PCOD8146732 Si02
#       6
#     8   8   8   8   8   8
#     4  10  22  42  63  88 125 160 204 257 303 364
#     4  11  23  40  61  94 122 157 208 248 304 370
#     4  11  23  40  64  90 126 161 201 256 307 363
#     4  10  24  41  63  93 122 160 205 248 305 366
#     4  11  24  43  61  91 126 158 205 256 305 362
#     4  11  26  41  64  92 122 162 210 251 307 371
#
# _framework density 20.095817
#
# number of rings (size 3 to 8) (size 9 to 14) (size 15 to 20)
#    0.000    1.333    3.333    1.000    4.667    2.667 
#    0.000    0.000    0.000    0.000    0.000    0.000 
#    0.000    0.000    0.000    0.000    0.000    0.000 
#
# Total GULP energy -297686.689046 kJ/mol
# GULP energy per Si atom -12403.612044 kJ/mol
# Density = 2.005008 g / cm^3
# Si number density = 20.095817 Si / 1000 Ang^3
#
#
#
# Elastic Constant Matrix: (Units=GPa)
#
#
# Indices 1 2 3 4 5 6 
#
# 1 62.8679 38.4664 10.0775 0.0000 7.2950 0.0000
# 2 38.4664 85.8990 29.9864 0.0000 19.8498 0.0000
# 3 10.0775 29.9864 110.7768 0.0000 8.1890 0.0000
# 4 0.0000 0.0000 0.0000 39.2213 0.0000 7.1745
# 5 7.2950 19.8498 8.1890 0.0000 38.3502 0.0000
# 6 0.0000 0.0000 0.0000 7.1745 0.0000 30.7802
#
#
#
# Elastic Compliance Matrix: (Units=1/GPa)
#
#
# Indices 1 2 3 4 5 6 
#
# 1 0.021998 -0.010337 0.000722 0.000000 0.001012 0.000000
# 2 -0.010337 0.019236 -0.003735 0.000000 -0.007193 0.000000
# 3 0.000722 -0.003735 0.009998 0.000000 -0.000339 0.000000
# 4 0.000000 0.000000 0.000000 0.026632 0.000000 -0.006208
# 5 0.001012 -0.007193 -0.000339 0.000000 0.029678 0.000000
# 6 0.000000 0.000000 0.000000 -0.006208 0.000000 0.033935
#
#
# Mechanical properties :
#
#
# Convention : Reuss Voigt Hill
#
# Bulk Modulus (GPa) = 40.76216 46.28937 43.52577
# Shear Modulus (GPa) = 28.35200 33.73791 31.04495
#
# Velocity S-wave (km/s) = 3.76019 4.10182 3.93472
# Velocity P-wave (km/s) = 6.25939 6.74668 6.50760
#
# Compressibility (1/GPa) = 0.02453255
#
# Stress axis : x y z
#
# Youngs Moduli (GPa) = 45.45893 51.98454 100.02415
#
# Poissons Ratio (x) = 0.53735 -0.07223
# Poissons Ratio (y) = 0.46990 0.37360
# Poissons Ratio (z) = -0.03283 0.19417
#
# Static dielectric constant tensor:
#      x y z
#    x 3.655150 0.000000 -0.042860 
#    y 0.000000 3.662730 0.000000 
#    z -0.042860 0.000000 3.793520 
# 
# 
# High freq. dielectric constant tensor:
#      x y z
#    x 1.779560 0.000000 -0.004770 
#    y 0.000000 1.786100 0.000000 
#    z -0.004770 0.000000 1.806130 
# 
# From -- ./inp_files/263575.got.cif
#   From: 2010.06.25/outbox.cif.g09.slc.cpg/sg15_132_cif.got.tgz:263575.got - 2010.06.28 07:06:18.
