data_PCOD8146774
_publ_section_title
;
Structure prediction by ZEFSAII (Michael W. Deem and Ramdas Pophale) SiO2 
 PCOD8146774
Probable space group: C 2/C
;
_chemical_formula_sum "Si O2"
_cell_formula_units_Z 64
_cell_length_a 27.794668
_cell_length_b 7.634302
_cell_length_c 20.650557
_cell_angle_alpha 90.000000
_cell_angle_beta 45.543968
_cell_angle_gamma 90.000000
_cell_volume 3127.749078
_symmetry_space_group_name_H-M "C 2/C"
_symmetry_group_IT_number 15
_symmetry_cell_setting 'monoclinic'
loop_
_space_group_symop_operation_xyz
x,y,z
-x,y,1/2-z
-x,-y,-z
x,-y,1/2+z
1/2+x,1/2+y,z
1/2-x,1/2+y,1/2-z
1/2-x,1/2-y,-z
1/2+x,1/2-y,1/2+z
loop_
_atom_site_type_symbol
_atom_site_label
_atom_site_fract_x
_atom_site_fract_y
_atom_site_fract_z
Si Si1 0.311921 0.802318 0.139320
Si Si2 0.007330 0.035734 0.391211
Si Si3 0.205781 0.293831 0.842077
Si Si4 0.193443 0.302129 0.001380
Si Si5 0.805377 0.704010 0.500539
Si Si6 0.396704 0.499720 0.594356
Si Si7 0.957171 0.667821 0.853522
Si Si8 0.455432 0.226159 0.356135
O O1 0.272920 0.714255 0.236271
O O2 0.380502 0.690527 0.077979
O O3 0.325015 0.009991 0.135286
O O4 0.279589 0.759994 0.098713
O O5 0.991390 0.852796 0.372471
O O6 0.082345 0.022410 0.350318
O O7 0.956908 0.081792 0.496739
O O8 0.005084 0.204569 0.348341
O O9 0.161396 0.143879 0.851914
O O10 0.218655 0.247677 0.905690
O O11 0.181709 0.503287 0.020588
O O12 0.116242 0.234223 0.086208
O O13 0.250000 0.250000 0.000000
O O14 0.750000 0.750000 0.500000
O O15 0.878022 0.794756 0.417353
O O16 0.951154 0.471871 0.889874
O O17 0.000000 0.638485 0.750000
O O18 0.500000 0.235918 0.250000
#
# Coordination Sequence:
#
# PCOD8146774 Si02
#       8
#     8   8   8   8   8   8   8   8
#     4  11  23  42  65  93 130 166 208 265 317 380
#     4  11  23  40  66  90 127 171 210 258 308 384
#     4  11  23  42  65  93 130 166 208 265 317 380
#     4  10  23  39  63  94 123 164 210 259 320 377
#     4  10  23  39  63  94 123 164 210 259 320 377
#     4  11  24  40  64  96 122 169 215 250 324 372
#     4  10  22  42  64  90 128 166 211 264 317 375
#     4  10  22  42  64  90 128 166 211 264 317 375
#
# _framework density 20.461998999999999
#
# number of rings (size 3 to 8) (size 9 to 14) (size 15 to 20)
#    0.000    1.500    3.750    0.375    3.500    3.000 
#    0.000    5.000    0.000    0.000    0.000    0.000 
#    0.000    0.000    0.000    0.000    0.000    0.000 
#
# Total GULP energy -396441.900216 kJ/mol
# GULP energy per Si atom -12388.809382 kJ/mol
# Density = 2.041543 g / cm^3
# Si number density = 20.461999 Si / 1000 Ang^3
#
#
#
# Elastic Constant Matrix: (Units=GPa)
#
#
# Indices 1 2 3 4 5 6 
#
# 1 154.1569 61.2372 24.1311 0.0030 17.1568 -0.0002
# 2 61.2372 111.8243 11.0265 -0.0441 8.8511 0.0091
# 3 24.1311 11.0265 85.1695 0.0060 10.3307 -0.0045
# 4 0.0030 -0.0441 0.0060 23.9549 0.0002 -1.4188
# 5 17.1568 8.8511 10.3307 0.0002 17.9794 0.0074
# 6 -0.0002 0.0091 -0.0045 -1.4188 0.0074 23.9543
#
#
#
# Elastic Compliance Matrix: (Units=1/GPa)
#
#
# Indices 1 2 3 4 5 6 
#
# 1 0.009073 -0.004385 -0.001306 -0.000009 -0.005749 0.000003
# 2 -0.004385 0.011463 -0.000070 0.000022 -0.001419 -0.000003
# 3 -0.001306 -0.000070 0.012861 -0.000003 -0.006110 0.000004
# 4 -0.000009 0.000022 -0.000003 0.041892 -0.000002 0.002481
# 5 -0.005749 -0.001419 -0.006110 -0.000002 0.065314 -0.000021
# 6 0.000003 -0.000003 0.000004 0.002481 -0.000021 0.041893
#
#
# Mechanical properties :
#
#
# Convention : Reuss Voigt Hill
#
# Bulk Modulus (GPa) = 45.70959 60.43780 53.07369
# Shear Modulus (GPa) = 24.83742 30.16144 27.49943
#
# Velocity S-wave (km/s) = 3.48779 3.84346 3.66994
# Velocity P-wave (km/s) = 6.21344 7.02118 6.62962
#
# Compressibility (1/GPa) = 0.02187725
#
# Stress axis : x y z
#
# Youngs Moduli (GPa) = 110.21856 87.23764 77.75256
#
# Poissons Ratio (x) = 0.38251 0.10152
# Poissons Ratio (y) = 0.48328 0.00541
# Poissons Ratio (z) = 0.14390 0.00607
#
# Static dielectric constant tensor:
#      x y z
#    x 3.210960 -0.000150 0.208990 
#    y -0.000150 3.874360 0.000100 
#    z 0.208990 0.000100 3.844690 
# 
# 
# High freq. dielectric constant tensor:
#      x y z
#    x 1.787520 -0.000010 0.002980 
#    y -0.000010 1.809750 0.000010 
#    z 0.002980 0.000010 1.806910 
# 
# From -- ./inp_files/256991.got.cif
#   From: 2010.06.25/outbox.cif.g09.slc.cpg/sg15_129_cif.got.tgz:256991.got - 2010.06.28 07:06:18.
