data_PCOD8146653
_publ_section_title
;
Structure prediction by ZEFSAII (Michael W. Deem and Ramdas Pophale) SiO2 
 PCOD8146653
Probable space group: C 2/C
;
_chemical_formula_sum "Si O2"
_cell_formula_units_Z 56
_cell_length_a 13.567704
_cell_length_b 17.713366
_cell_length_c 11.017853
_cell_angle_alpha 90.000000
_cell_angle_beta 71.469206
_cell_angle_gamma 90.000000
_cell_volume 2510.630757
_symmetry_space_group_name_H-M "C 2/C"
_symmetry_group_IT_number 15
_symmetry_cell_setting 'monoclinic'
loop_
_space_group_symop_operation_xyz
x,y,z
-x,y,1/2-z
-x,-y,-z
x,-y,1/2+z
1/2+x,1/2+y,z
1/2-x,1/2+y,1/2-z
1/2-x,1/2-y,-z
1/2+x,1/2-y,1/2+z
loop_
_atom_site_type_symbol
_atom_site_label
_atom_site_fract_x
_atom_site_fract_y
_atom_site_fract_z
Si Si1 0.053324 0.421223 0.101249
Si Si2 0.282420 0.326388 0.587927
Si Si3 0.387154 0.725734 0.821790
Si Si4 0.357536 0.071214 0.529787
Si Si5 0.746934 0.659754 0.990834
Si Si6 0.677932 0.417942 0.276004
Si Si7 0.385477 0.584393 0.248460
O O1 0.000000 0.438373 0.250000
O O2 0.971420 0.400839 0.026864
O O3 0.128246 0.490789 0.038453
O O4 0.130581 0.351373 0.077627
O O5 0.356145 0.272694 0.476739
O O6 0.206387 0.274787 0.703715
O O7 0.201324 0.376535 0.542754
O O8 0.364310 0.373920 0.630837
O O9 0.500000 0.761965 0.750000
O O10 0.387301 0.639319 0.781052
O O11 0.292543 0.066008 0.679647
O O12 0.701056 0.615335 0.124842
O O13 0.750000 0.750000 0.000000
O O14 0.682667 0.621821 0.905305
O O15 0.617419 0.496723 0.288390
O O16 0.500000 0.605365 0.250000
#
# Coordination Sequence:
#
# PCOD8146653 Si02
#       7
#     8   8   8   8   8   8   8
#     4  11  22  41  70 109 143 185 231 291 363 437
#     4  10  24  45  68 102 142 177 240 295 349 445
#     4  10  23  44  72 101 136 185 230 293 368 422
#     4  10  22  41  73 104 139 181 231 296 361 422
#     4  12  27  46  70 106 149 190 240 302 365 431
#     4  11  23  45  71 101 143 183 243 294 351 434
#     4  12  28  47  71 102 141 194 247 298 361 422
#
# _framework density 22.305150000000001
#
# number of rings (size 3 to 8) (size 9 to 14) (size 15 to 20)
#    0.000    1.143    2.857    2.143    4.000    4.000 
#    5.143    0.000    0.000    0.000    0.000    0.000 
#    0.000    0.000    0.000    0.000    0.000    0.000 
#
# Total GULP energy -346974.027412 kJ/mol
# GULP energy per Si atom -12391.929550 kJ/mol
# Density = 2.225438 g / cm^3
# Si number density = 22.305150 Si / 1000 Ang^3
#
#
#
# Elastic Constant Matrix: (Units=GPa)
#
#
# Indices 1 2 3 4 5 6 
#
# 1 124.4256 50.1033 32.1713 0.0000 -2.6788 0.0000
# 2 50.1033 118.1684 30.6774 0.0000 8.1647 0.0000
# 3 32.1713 30.6774 84.4606 0.0000 -4.2407 0.0000
# 4 0.0000 0.0000 0.0000 33.7724 0.0000 0.3596
# 5 -2.6788 8.1647 -4.2407 0.0000 34.0816 0.0000
# 6 0.0000 0.0000 0.0000 0.3596 0.0000 29.9252
#
#
#
# Elastic Compliance Matrix: (Units=1/GPa)
#
#
# Indices 1 2 3 4 5 6 
#
# 1 0.010230 -0.003800 -0.002446 0.000000 0.001410 0.000000
# 2 -0.003800 0.011004 -0.002714 0.000000 -0.003273 0.000000
# 3 -0.002446 -0.002714 0.013867 0.000000 0.002183 0.000000
# 4 0.000000 0.000000 0.000000 0.029614 0.000000 -0.000356
# 5 0.001410 -0.003273 0.002183 0.000000 0.030508 0.000000
# 6 0.000000 0.000000 0.000000 -0.000356 0.000000 0.033421
#
#
# Mechanical properties :
#
#
# Convention : Reuss Voigt Hill
#
# Bulk Modulus (GPa) = 58.20013 61.43983 59.81998
# Shear Modulus (GPa) = 32.83222 33.82933 33.33078
#
# Velocity S-wave (km/s) = 3.84077 3.89866 3.86982
# Velocity P-wave (km/s) = 6.76890 6.91888 6.84430
#
# Compressibility (1/GPa) = 0.01718209
#
# Stress axis : x y z
#
# Youngs Moduli (GPa) = 97.75398 90.87337 72.11530
#
# Poissons Ratio (x) = 0.34531 0.17636
# Poissons Ratio (y) = 0.37146 0.19571
# Poissons Ratio (z) = 0.23906 0.24662
#
# Static dielectric constant tensor:
#      x y z
#    x 4.004770 0.000000 -0.083070 
#    y 0.000000 4.089080 0.000000 
#    z -0.083070 0.000000 4.087690 
# 
# 
# High freq. dielectric constant tensor:
#      x y z
#    x 1.882440 0.000000 -0.004850 
#    y 0.000000 1.885680 0.000000 
#    z -0.004850 0.000000 1.876710 
# 
# From -- ./inp_files/98671.got.cif
#   From: 2010.06.25/outbox.cif.g09.slc.cpg/sg15_50_cif.got.tgz:98671.got - 2010.06.28 07:06:18.
