data_PCOD8146538
_publ_section_title
;
Structure prediction by ZEFSAII (Michael W. Deem and Ramdas Pophale) SiO2 
 PCOD8146538
Probable space group: C 2/C
;
_chemical_formula_sum "Si O2"
_cell_formula_units_Z 36
_cell_length_a 8.936902
_cell_length_b 21.589525
_cell_length_c 9.762170
_cell_angle_alpha 90.000000
_cell_angle_beta 113.041109
_cell_angle_gamma 90.000000
_cell_volume 1733.285617
_symmetry_space_group_name_H-M "C 2/C"
_symmetry_group_IT_number 15
_symmetry_cell_setting 'monoclinic'
loop_
_space_group_symop_operation_xyz
x,y,z
-x,y,1/2-z
-x,-y,-z
x,-y,1/2+z
1/2+x,1/2+y,z
1/2-x,1/2+y,1/2-z
1/2-x,1/2-y,-z
1/2+x,1/2-y,1/2+z
loop_
_atom_site_type_symbol
_atom_site_label
_atom_site_fract_x
_atom_site_fract_y
_atom_site_fract_z
Si Si1 0.886804 0.783178 0.338902
Si Si2 0.396494 0.308832 0.838937
Si Si3 0.360685 0.121831 0.796610
Si Si4 0.360227 0.116025 0.106177
Si Si5 0.000000 0.496989 0.250000
O O1 0.734191 0.737550 0.272284
O O2 0.814276 0.853493 0.316402
O O3 0.000000 0.773637 0.250000
O O4 0.987953 0.771724 0.513778
O O5 0.500000 0.336804 0.750000
O O6 0.313353 0.365502 0.891928
O O7 0.500000 0.152744 0.750000
O O8 0.376571 0.046856 0.792208
O O9 0.381967 0.142517 0.961872
O O10 0.500000 0.148140 0.250000
O O11 0.386241 0.041271 0.114953
#
# Coordination Sequence:
#
# PCOD8146538 Si02
#       5
#     8   8   8   8   4
#     4  12  25  44  66  97 136 174 213 275 329 387
#     4  12  27  42  67  99 134 172 220 270 330 389
#     4  10  22  41  67  97 129 175 220 263 326 388
#     4  10  22  41  67  96 129 172 223 266 319 390
#     4   8  22  38  74  90 132 176 222 252 338 386
#
# _framework density 20.769801000000001
#
# number of rings (size 3 to 8) (size 9 to 14) (size 15 to 20)
#    1.333    0.000    2.222    3.333    6.222    0.000 
#    0.000    2.222    0.000    0.000    0.000    0.000 
#    0.000    0.000    0.000    0.000    0.000    0.000 
#
# Total GULP energy -223048.897203 kJ/mol
# GULP energy per Si atom -12391.605400 kJ/mol
# Density = 2.072253 g / cm^3
# Si number density = 20.769801 Si / 1000 Ang^3
#
#
#
# Elastic Constant Matrix: (Units=GPa)
#
#
# Indices 1 2 3 4 5 6 
#
# 1 122.5188 40.3183 53.9600 0.0000 -21.6145 0.0000
# 2 40.3183 85.2101 1.5094 0.0000 -0.5864 0.0000
# 3 53.9600 1.5094 91.6367 0.0000 -21.6585 0.0000
# 4 0.0000 0.0000 0.0000 14.6825 0.0000 10.5744
# 5 -21.6145 -0.5864 -21.6585 0.0000 50.3806 0.0000
# 6 0.0000 0.0000 0.0000 10.5744 0.0000 21.3825
#
#
#
# Elastic Compliance Matrix: (Units=1/GPa)
#
#
# Indices 1 2 3 4 5 6 
#
# 1 0.014124 -0.006530 -0.007564 0.000000 0.002732 0.000000
# 2 -0.006530 0.014759 0.003318 0.000000 -0.001204 0.000000
# 3 -0.007564 0.003318 0.016200 0.000000 0.003758 0.000000
# 4 0.000000 0.000000 0.000000 0.105786 0.000000 -0.052315
# 5 0.002732 -0.001204 0.003758 0.000000 0.022623 0.000000
# 6 0.000000 0.000000 0.000000 -0.052315 0.000000 0.072639
#
#
# Mechanical properties :
#
#
# Convention : Reuss Voigt Hill
#
# Bulk Modulus (GPa) = 42.49825 54.54900 48.52363
# Shear Modulus (GPa) = 18.14710 30.86098 24.50404
#
# Velocity S-wave (km/s) = 2.95909 3.85886 3.43854
# Velocity P-wave (km/s) = 5.67282 6.79522 6.25923
#
# Compressibility (1/GPa) = 0.02353038
#
# Stress axis : x y z
#
# Youngs Moduli (GPa) = 70.80050 67.75744 61.72803
#
# Poissons Ratio (x) = 0.44247 0.46689
# Poissons Ratio (y) = 0.46235 -0.20480
# Poissons Ratio (z) = 0.53552 -0.22480
#
# Static dielectric constant tensor:
#      x y z
#    x 3.816350 0.000000 0.027270 
#    y 0.000000 3.573110 0.000000 
#    z 0.027270 0.000000 3.717830 
# 
# 
# High freq. dielectric constant tensor:
#      x y z
#    x 1.810310 0.000000 -0.009480 
#    y 0.000000 1.797130 0.000000 
#    z -0.009480 0.000000 1.817890 
# 
# From -- ./inp_files/24134.got.cif
#   From: 2010.06.25/outbox.cif.g09.slc.cpg/sg15_13_cif.got.tgz:24134.got - 2010.06.28 07:06:18.
