data_PCOD8146203
_publ_section_title
;
Structure prediction by ZEFSAII (Michael W. Deem and Ramdas Pophale) SiO2 
 PCOD8146203
Probable space group: C 2/C
;
_chemical_formula_sum "Si O2"
_cell_formula_units_Z 64
_cell_length_a 18.035307
_cell_length_b 13.576166
_cell_length_c 14.255701
_cell_angle_alpha 90.000000
_cell_angle_beta 52.916174
_cell_angle_gamma 90.000000
_cell_volume 2784.571304
_symmetry_space_group_name_H-M "C 2/C"
_symmetry_group_IT_number 15
_symmetry_cell_setting 'monoclinic'
loop_
_space_group_symop_operation_xyz
x,y,z
-x,y,1/2-z
-x,-y,-z
x,-y,1/2+z
1/2+x,1/2+y,z
1/2-x,1/2+y,1/2-z
1/2-x,1/2-y,-z
1/2+x,1/2-y,1/2+z
loop_
_atom_site_type_symbol
_atom_site_label
_atom_site_fract_x
_atom_site_fract_y
_atom_site_fract_z
Si Si1 0.634333 0.741937 0.489866
Si Si2 0.027006 0.377693 0.889466
Si Si3 0.023818 0.101698 0.435390
Si Si4 0.341624 0.367930 0.970845
Si Si5 0.642706 0.177907 0.659844
Si Si6 0.990152 0.403956 0.387880
Si Si7 0.658961 0.719467 0.687991
Si Si8 0.402195 0.513637 0.782941
O O1 0.580885 0.845939 0.533991
O O2 0.574608 0.667771 0.472994
O O3 0.643106 0.705255 0.589337
O O4 0.735865 0.752178 0.366659
O O5 0.033800 0.486954 0.842195
O O6 0.091780 0.301104 0.784287
O O7 0.055446 0.382605 0.976843
O O8 0.927549 0.152352 0.475286
O O9 0.088567 0.077574 0.296638
O O10 0.000000 0.000000 0.500000
O O11 0.347728 0.288008 0.883790
O O12 0.343259 0.473618 0.917007
O O13 0.245966 0.362736 0.102626
O O14 0.593236 0.107864 0.621415
O O15 0.576170 0.172894 0.802863
O O16 0.640611 0.608280 0.738871
O O17 0.500000 0.548051 0.750000
#
# Coordination Sequence:
#
# PCOD8146203 Si02
#       8
#     8   8   8   8   8   8   8   8
#     4  11  25  42  71 100 138 187 234 291 344 421
#     4  11  24  46  67 100 142 184 228 291 347 418
#     4  11  23  42  66 100 139 181 230 295 346 410
#     4  10  23  42  72  99 144 177 234 292 355 419
#     4  10  23  43  69 106 132 188 226 287 358 423
#     4  10  25  42  71 100 141 179 232 282 352 428
#     4  11  25  45  70  99 141 189 237 284 355 420
#     4  10  22  40  68  99 137 183 230 291 351 421
#
# _framework density 22.983789000000002
#
# number of rings (size 3 to 8) (size 9 to 14) (size 15 to 20)
#    0.000    1.500    0.000    4.125   12.250    3.000 
#    9.000    0.000    0.000    0.000    0.000    0.000 
#    0.000    0.000    0.000    0.000    0.000    0.000 
#
# Total GULP energy -396771.109911 kJ/mol
# GULP energy per Si atom -12399.097185 kJ/mol
# Density = 2.293148 g / cm^3
# Si number density = 22.983789 Si / 1000 Ang^3
#
#
#
# Elastic Constant Matrix: (Units=GPa)
#
#
# Indices 1 2 3 4 5 6 
#
# 1 110.1395 35.0505 47.1803 0.0000 -22.4163 0.0000
# 2 35.0505 93.2297 33.4759 0.0000 -18.4146 0.0000
# 3 47.1803 33.4759 98.8038 0.0000 -19.2330 0.0000
# 4 0.0000 0.0000 0.0000 30.1028 0.0000 5.9023
# 5 -22.4163 -18.4146 -19.2330 0.0000 31.9132 0.0000
# 6 0.0000 0.0000 0.0000 5.9023 0.0000 31.9328
#
#
#
# Elastic Compliance Matrix: (Units=1/GPa)
#
#
# Indices 1 2 3 4 5 6 
#
# 1 0.012653 -0.002218 -0.004316 0.000000 0.005007 0.000000
# 2 -0.002218 0.013399 -0.002582 0.000000 0.004618 0.000000
# 3 -0.004316 -0.002582 0.013795 0.000000 0.003793 0.000000
# 4 0.000000 0.000000 0.000000 0.034469 0.000000 -0.006371
# 5 0.005007 0.004618 0.003793 0.000000 0.039802 0.000000
# 6 0.000000 0.000000 0.000000 -0.006371 0.000000 0.032493
#
#
# Mechanical properties :
#
#
# Convention : Reuss Voigt Hill
#
# Bulk Modulus (GPa) = 46.26327 59.28738 52.77533
# Shear Modulus (GPa) = 29.06161 31.22084 30.14123
#
# Velocity S-wave (km/s) = 3.55975 3.68963 3.62527
# Velocity P-wave (km/s) = 6.08836 6.63343 6.36673
#
# Compressibility (1/GPa) = 0.02161542
#
# Stress axis : x y z
#
# Youngs Moduli (GPa) = 79.03176 74.63082 72.49065
#
# Poissons Ratio (x) = 0.16557 0.31286
# Poissons Ratio (y) = 0.17533 0.18715
# Poissons Ratio (z) = 0.34109 0.19267
#
# Static dielectric constant tensor:
#      x y z
#    x 4.008250 0.000000 0.091600 
#    y 0.000000 3.293800 0.000000 
#    z 0.091600 0.000000 4.588240 
# 
# 
# High freq. dielectric constant tensor:
#      x y z
#    x 1.898060 0.000000 0.005150 
#    y 0.000000 1.916900 0.000000 
#    z 0.005150 0.000000 1.911000 
# 
# From -- ./inp_files/162517.got.cif
#   From: 2010.06.25/outbox.cif.g09.slc.cpg/sg15_82_cif.got.tgz:162517.got - 2010.06.28 07:06:18.
