data_PCOD8146376
_publ_section_title
;
Structure prediction by ZEFSAII (Michael W. Deem and Ramdas Pophale) SiO2 
 PCOD8146376
Probable space group: C 2/C
;
_chemical_formula_sum "Si O2"
_cell_formula_units_Z 64
_cell_length_a 14.086688
_cell_length_b 18.571861
_cell_length_c 23.534338
_cell_angle_alpha 90.000000
_cell_angle_beta 31.653483
_cell_angle_gamma 90.000000
_cell_volume 3231.053749
_symmetry_space_group_name_H-M "C 2/C"
_symmetry_group_IT_number 15
_symmetry_cell_setting 'monoclinic'
loop_
_space_group_symop_operation_xyz
x,y,z
-x,y,1/2-z
-x,-y,-z
x,-y,1/2+z
1/2+x,1/2+y,z
1/2-x,1/2+y,1/2-z
1/2-x,1/2-y,-z
1/2+x,1/2-y,1/2+z
loop_
_atom_site_type_symbol
_atom_site_label
_atom_site_fract_x
_atom_site_fract_y
_atom_site_fract_z
Si Si1 0.189920 0.540167 0.399391
Si Si2 0.379054 0.942456 0.689507
Si Si3 0.216212 0.033301 0.539320
Si Si4 0.613067 0.312316 0.055191
Si Si5 0.706511 0.300994 0.661810
Si Si6 0.017110 0.193190 0.475062
Si Si7 0.795811 0.283279 0.742088
Si Si8 0.967621 0.961263 0.574195
O O1 0.238245 0.539709 0.307933
O O2 0.317134 0.497147 0.379406
O O3 0.199359 0.625450 0.409460
O O4 0.000000 0.500000 0.500000
O O5 0.575537 0.979489 0.586712
O O6 0.410760 0.857788 0.687999
O O7 0.246851 0.973411 0.805185
O O8 0.168573 0.117233 0.561879
O O9 0.088843 0.990603 0.562559
O O10 0.419702 0.287080 0.176598
O O11 0.750000 0.250000 0.000000
O O12 0.603032 0.325495 0.992641
O O13 0.500000 0.293358 0.750000
O O14 0.832349 0.237804 0.572931
O O15 0.688162 0.293622 0.738636
O O16 0.976041 0.121322 0.460872
O O17 0.167096 0.234202 0.361046
O O18 0.000000 0.000000 0.500000
#
# Coordination Sequence:
#
# PCOD8146376 Si02
#       8
#     8   8   8   8   8   8   8   8
#     4   9  21  40  62  91 124 160 206 261 316 370
#     4   9  20  41  64  85 124 168 201 257 321 367
#     4  11  22  40  65  94 125 164 206 259 317 377
#     4  11  21  40  66  92 124 156 209 256 310 376
#     4  10  22  41  64  90 124 169 211 255 309 370
#     4  10  23  43  62  87 128 164 209 254 306 373
#     4   9  20  40  64  88 124 162 201 258 309 365
#     4  11  23  42  60  91 127 167 211 256 309 378
#
# _framework density 19.807779
#
# number of rings (size 3 to 8) (size 9 to 14) (size 15 to 20)
#    0.000    2.000    2.500    0.000    7.000    1.500 
#    6.750    1.250    0.000    0.000    0.000    0.000 
#    0.000    0.000    0.000    0.000    0.000    0.000 
#
# Total GULP energy -396472.437110 kJ/mol
# GULP energy per Si atom -12389.763660 kJ/mol
# Density = 1.976270 g / cm^3
# Si number density = 19.807779 Si / 1000 Ang^3
#
#
#
# Elastic Constant Matrix: (Units=GPa)
#
#
# Indices 1 2 3 4 5 6 
#
# 1 74.5793 40.4517 23.2835 -0.0105 -7.7692 0.0014
# 2 40.4517 99.1247 38.2849 -0.0171 -1.2372 0.0006
# 3 23.2835 38.2849 104.8649 -0.0062 7.8068 -0.0011
# 4 -0.0105 -0.0171 -0.0062 25.4716 -0.0077 0.2581
# 5 -7.7692 -1.2372 7.8068 -0.0077 29.9912 0.0031
# 6 0.0014 0.0006 -0.0011 0.2581 0.0031 37.4678
#
#
#
# Elastic Compliance Matrix: (Units=1/GPa)
#
#
# Indices 1 2 3 4 5 6 
#
# 1 0.018101 -0.006555 -0.001993 0.000004 0.004937 -0.000001
# 2 -0.006555 0.014197 -0.003717 0.000006 -0.000145 0.000000
# 3 -0.001993 -0.003717 0.011611 -0.000002 -0.003692 0.000001
# 4 0.000004 0.000006 -0.000002 0.039262 0.000012 -0.000270
# 5 0.004937 -0.000145 -0.003692 0.000012 0.035577 -0.000003
# 6 -0.000001 0.000000 0.000001 -0.000270 -0.000003 0.026691
#
#
# Mechanical properties :
#
#
# Convention : Reuss Voigt Hill
#
# Bulk Modulus (GPa) = 51.60622 53.62323 52.61473
# Shear Modulus (GPa) = 28.33995 30.35605 29.34800
#
# Velocity S-wave (km/s) = 3.78663 3.91900 3.85338
# Velocity P-wave (km/s) = 6.72519 6.89991 6.81311
#
# Compressibility (1/GPa) = 0.01937751
#
# Stress axis : x y z
#
# Youngs Moduli (GPa) = 55.24637 70.43632 86.12876
#
# Poissons Ratio (x) = 0.46173 0.17168
# Poissons Ratio (y) = 0.36215 0.32014
# Poissons Ratio (z) = 0.11012 0.26181
#
# Static dielectric constant tensor:
#      x y z
#    x 3.875960 -0.000120 0.207000 
#    y -0.000120 4.203630 -0.000360 
#    z 0.207000 -0.000360 3.747820 
# 
# 
# High freq. dielectric constant tensor:
#      x y z
#    x 1.777180 0.000000 0.005410 
#    y 0.000000 1.770240 0.000000 
#    z 0.005410 0.000000 1.771810 
# 
# From -- ./inp_files/274824.got.cif
#   From: 2010.06.25/outbox.cif.g09.slc.cpg/sg15_138_cif.got.tgz:274824.got - 2010.06.28 07:06:18.
