data_PCOD8146706
_publ_section_title
;
Structure prediction by ZEFSAII (Michael W. Deem and Ramdas Pophale) SiO2 
 PCOD8146706
Probable space group: C 2/C
;
_chemical_formula_sum "Si O2"
_cell_formula_units_Z 52
_cell_length_a 17.216512
_cell_length_b 25.730274
_cell_length_c 12.761738
_cell_angle_alpha 90.000000
_cell_angle_beta 153.286703
_cell_angle_gamma 90.000000
_cell_volume 2541.291752
_symmetry_space_group_name_H-M "C 2/C"
_symmetry_group_IT_number 15
_symmetry_cell_setting 'monoclinic'
loop_
_space_group_symop_operation_xyz
x,y,z
-x,y,1/2-z
-x,-y,-z
x,-y,1/2+z
1/2+x,1/2+y,z
1/2-x,1/2+y,1/2-z
1/2-x,1/2-y,-z
1/2+x,1/2-y,1/2+z
loop_
_atom_site_type_symbol
_atom_site_label
_atom_site_fract_x
_atom_site_fract_y
_atom_site_fract_z
Si Si1 0.014902 0.197795 0.947741
Si Si2 0.613834 0.190827 0.488963
Si Si3 0.500000 0.621457 0.750000
Si Si4 0.673521 0.062914 0.898390
Si Si5 0.945589 0.852833 0.793069
Si Si6 0.206559 0.550131 0.500925
Si Si7 0.213646 0.406170 0.224808
O O1 0.810778 0.193183 0.691873
O O2 0.083385 0.157555 0.942439
O O3 0.066136 0.256551 0.988955
O O4 0.093319 0.186288 0.157991
O O5 0.593324 0.142191 0.543068
O O6 0.500000 0.180818 0.250000
O O7 0.333521 0.588936 0.590107
O O8 0.500000 0.067821 0.750000
O O9 0.625367 0.066199 0.717333
O O10 0.757019 0.006709 0.020212
O O11 0.786657 0.110259 0.075974
O O12 0.000000 0.822998 0.750000
O O13 0.098587 0.889420 0.013081
O O14 0.249260 0.552992 0.675285
O O15 0.000000 0.563354 0.250000
#
# Coordination Sequence:
#
# PCOD8146706 Si02
#       7
#     8   8   4   8   8   8   8
#     4  11  24  39  63 101 124 171 217 268 333 396
#     4  11  22  40  62  93 132 166 210 273 334 384
#     4  12  24  40  64 104 130 172 224 254 348 386
#     4  10  24  42  64  96 125 172 225 267 327 389
#     4   9  20  42  62  87 132 168 220 265 318 400
#     4  11  25  42  65  98 136 171 219 274 326 396
#     4  10  22  42  62  91 130 175 210 273 331 381
#
# _framework density 20.462036000000001
#
# number of rings (size 3 to 8) (size 9 to 14) (size 15 to 20)
#    0.000    1.538    3.846    0.923    3.231    6.769 
#    0.000    7.692    0.000    0.000    0.000    0.000 
#    0.000    0.000    0.000    0.000    0.000    0.000 
#
# Total GULP energy -322201.304096 kJ/mol
# GULP energy per Si atom -12392.357850 kJ/mol
# Density = 2.041546 g / cm^3
# Si number density = 20.462036 Si / 1000 Ang^3
#
#
#
# Elastic Constant Matrix: (Units=GPa)
#
#
# Indices 1 2 3 4 5 6 
#
# 1 132.5588 63.2953 38.4871 0.0000 -40.6903 -0.0001
# 2 63.2953 130.4591 31.7467 0.0000 -24.4971 0.0000
# 3 38.4871 31.7467 60.3632 -0.0001 -24.8333 -0.0001
# 4 0.0000 0.0000 -0.0001 15.7558 0.0000 -16.7242
# 5 -40.6903 -24.4971 -24.8333 0.0000 35.9110 -0.0001
# 6 -0.0001 0.0000 -0.0001 -16.7242 -0.0001 17.4278
#
#
#
# Elastic Compliance Matrix: (Units=1/GPa)
#
#
# Indices 1 2 3 4 5 6 
#
# 1 0.013413 -0.003948 -0.001860 -0.000008 0.011218 -0.000007
# 2 -0.003948 0.010364 -0.002607 0.000003 0.000794 0.000003
# 3 -0.001860 -0.002607 0.024493 -0.000020 0.013051 -0.000019
# 4 -0.000008 0.000003 -0.000020 -3.409417 -0.000032 -3.271777
# 5 0.011218 0.000794 0.013051 -0.000032 0.050124 -0.000031
# 6 -0.000007 0.000003 -0.000019 -3.271777 -0.000031 -3.082315
#
#
# Mechanical properties :
#
#
# Convention : Reuss Voigt Hill
#
# Bulk Modulus (GPa) = 31.80809 65.60437 48.70623
# Shear Modulus (GPa) = -0.78542 26.47572 12.84515
#
# Velocity S-wave (km/s) = -0.62022 3.60098 2.50822
# Velocity P-wave (km/s) = 3.88147 7.02997 5.67830
#
# Compressibility (1/GPa) = 0.03143854
#
# Stress axis : x y z
#
# Youngs Moduli (GPa) = 74.55646 96.48540 40.82842
#
# Poissons Ratio (x) = 0.38096 0.07595
# Poissons Ratio (y) = 0.29437 0.10644
# Poissons Ratio (z) = 0.13869 0.25154
#
# Static dielectric constant tensor:
#      x y z
#    x 4.325400 0.000000 -0.504380 
#    y 0.000000 2.076340 0.000000 
#    z -0.504380 0.000000 4.089710 
# 
# 
# High freq. dielectric constant tensor:
#      x y z
#    x 1.813910 0.000000 -0.010910 
#    y 0.000000 1.797980 0.000000 
#    z -0.010910 0.000000 1.800830 
# 
# From -- ./inp_files/108374.got.cif
#   From: 2010.06.25/outbox.cif.g09.slc.cpg/sg15_55_cif.got.tgz:108374.got - 2010.06.28 07:06:18.
