data_PCOD8146700
_publ_section_title
;
Structure prediction by ZEFSAII (Michael W. Deem and Ramdas Pophale) SiO2 
 PCOD8146700
Probable space group: C 2/C
;
_chemical_formula_sum "Si O2"
_cell_formula_units_Z 48
_cell_length_a 30.938280
_cell_length_b 10.107663
_cell_length_c 14.366552
_cell_angle_alpha 90.000000
_cell_angle_beta 146.880527
_cell_angle_gamma 90.000000
_cell_volume 2454.706330
_symmetry_space_group_name_H-M "C 2/C"
_symmetry_group_IT_number 15
_symmetry_cell_setting 'monoclinic'
loop_
_space_group_symop_operation_xyz
x,y,z
-x,y,1/2-z
-x,-y,-z
x,-y,1/2+z
1/2+x,1/2+y,z
1/2-x,1/2+y,1/2-z
1/2-x,1/2-y,-z
1/2+x,1/2-y,1/2+z
loop_
_atom_site_type_symbol
_atom_site_label
_atom_site_fract_x
_atom_site_fract_y
_atom_site_fract_z
Si Si1 0.741691 0.536035 0.989260
Si Si2 0.870154 0.733600 0.266678
Si Si3 0.080079 0.752395 0.942093
Si Si4 0.584429 0.219668 0.355354
Si Si5 0.693561 0.032314 0.077298
Si Si6 0.662250 0.504270 0.029272
O O1 0.690452 0.644614 0.841542
O O2 0.773048 0.436582 0.966325
O O3 0.816966 0.601772 0.176555
O O4 0.688756 0.465214 0.971972
O O5 0.927343 0.741356 0.459392
O O6 0.924779 0.733536 0.272993
O O7 0.000000 0.700219 0.750000
O O8 0.153366 0.665401 0.040163
O O9 0.093768 0.903782 0.936449
O O10 0.500000 0.206961 0.250000
O O11 0.629771 0.346970 0.476829
O O12 0.633167 0.089452 0.467819
O O13 0.764083 0.989172 0.270615
#
# Coordination Sequence:
#
# PCOD8146700 Si02
#       6
#     8   8   8   8   8   8
#     4   9  18  37  64  86 106 162 208 228 276 360
#     4   9  18  38  63  81 117 161 197 227 292 366
#     4  12  24  39  57  94 128 148 182 258 314 324
#     4  10  22  42  62  84 113 163 204 228 282 369
#     4  11  21  39  64  87 117 153 202 244 283 350
#     4  11  21  39  64  87 117 153 202 244 283 350
#
# _framework density 19.554273999999999
#
# number of rings (size 3 to 8) (size 9 to 14) (size 15 to 20)
#    0.000    1.667    3.333    3.000    0.000    0.667 
#    6.000    5.000    0.000    0.000    0.000    0.000 
#    0.000    0.000    0.000    0.000    0.000    0.000 
#
# Total GULP energy -297633.214066 kJ/mol
# GULP energy per Si atom -12401.383919 kJ/mol
# Density = 1.950977 g / cm^3
# Si number density = 19.554274 Si / 1000 Ang^3
#
#
#
# Elastic Constant Matrix: (Units=GPa)
#
#
# Indices 1 2 3 4 5 6 
#
# 1 477.7767 40.1001 67.2447 0.0000 55.7670 0.0000
# 2 40.1001 56.0900 10.8858 0.0000 -2.4502 0.0000
# 3 67.2447 10.8858 101.4391 0.0000 -11.7466 0.0000
# 4 0.0000 0.0000 0.0000 24.4576 0.0000 1.8902
# 5 55.7670 -2.4502 -11.7466 0.0000 45.8272 0.0000
# 6 0.0000 0.0000 0.0000 1.8902 0.0000 23.1040
#
#
#
# Elastic Compliance Matrix: (Units=1/GPa)
#
#
# Indices 1 2 3 4 5 6 
#
# 1 0.003119 -0.001965 -0.002379 0.000000 -0.004511 0.000000
# 2 -0.001965 0.019457 -0.000400 0.000000 0.003330 0.000000
# 3 -0.002379 -0.000400 0.012172 0.000000 0.005994 0.000000
# 4 0.000000 0.000000 0.000000 0.041147 0.000000 -0.003366
# 5 -0.004511 0.003330 0.005994 0.000000 0.029025 0.000000
# 6 0.000000 0.000000 0.000000 -0.003366 0.000000 0.043558
#
#
# Mechanical properties :
#
#
# Convention : Reuss Voigt Hill
#
# Bulk Modulus (GPa) = 39.58848 96.86301 68.22575
# Shear Modulus (GPa) = 30.05045 53.14944 41.59995
#
# Velocity S-wave (km/s) = 3.92442 5.21915 4.61739
# Velocity P-wave (km/s) = 6.38938 9.27159 7.96199
#
# Compressibility (1/GPa) = 0.02525987
#
# Stress axis : x y z
#
# Youngs Moduli (GPa) = 320.57588 51.39651 82.15318
#
# Poissons Ratio (x) = 0.10101 0.19547
# Poissons Ratio (y) = 0.63006 0.03282
# Poissons Ratio (z) = 0.76275 0.02053
#
# Static dielectric constant tensor:
#      x y z
#    x 3.765820 0.000000 -0.073520 
#    y 0.000000 3.410140 0.000000 
#    z -0.073520 0.000000 3.379200 
# 
# 
# High freq. dielectric constant tensor:
#      x y z
#    x 1.775420 0.000000 -0.007490 
#    y 0.000000 1.748590 0.000000 
#    z -0.007490 0.000000 1.751400 
# 
# From -- ./inp_files/181807.got.cif
#   From: 2010.06.25/outbox.cif.g09.slc.cpg/sg15_91_cif.got.tgz:181807.got - 2010.06.28 07:06:18.
