data_PCOD8146797
_publ_section_title
;
Structure prediction by ZEFSAII (Michael W. Deem and Ramdas Pophale) SiO2 
 PCOD8146797
Probable space group: C 2/C
;
_chemical_formula_sum "Si O2"
_cell_formula_units_Z 48
_cell_length_a 11.528244
_cell_length_b 9.135172
_cell_length_c 21.276028
_cell_angle_alpha 90.000000
_cell_angle_beta 107.663344
_cell_angle_gamma 90.000000
_cell_volume 2134.998737
_symmetry_space_group_name_H-M "C 2/C"
_symmetry_group_IT_number 15
_symmetry_cell_setting 'monoclinic'
loop_
_space_group_symop_operation_xyz
x,y,z
-x,y,1/2-z
-x,-y,-z
x,-y,1/2+z
1/2+x,1/2+y,z
1/2-x,1/2+y,1/2-z
1/2-x,1/2-y,-z
1/2+x,1/2-y,1/2+z
loop_
_atom_site_type_symbol
_atom_site_label
_atom_site_fract_x
_atom_site_fract_y
_atom_site_fract_z
Si Si1 0.748703 0.958762 0.793156
Si Si2 0.655545 0.822239 0.532233
Si Si3 0.476979 0.493135 0.676449
Si Si4 0.388468 0.149345 0.986064
Si Si5 0.161258 0.726693 0.391304
Si Si6 0.775265 0.220611 0.176417
O O1 0.698617 0.124624 0.785572
O O2 0.892847 0.956298 0.833805
O O3 0.668793 0.865049 0.828827
O O4 0.724109 0.892938 0.719928
O O5 0.750000 0.750000 0.500000
O O6 0.520288 0.801673 0.481370
O O7 0.677192 0.752567 0.604906
O O8 0.668558 0.995681 0.544782
O O9 0.500000 0.555028 0.750000
O O10 0.402986 0.616969 0.627570
O O11 0.399170 0.343144 0.666353
O O12 0.410149 0.142886 0.065275
O O13 0.296531 0.266990 0.943153
#
# Coordination Sequence:
#
# PCOD8146797 Si02
#       6
#     8   8   8   8   8   8
#     4  11  24  42  68  95 131 174 216 277 340 386
#     4  11  23  43  65  96 134 172 223 274 324 396
#     4  10  22  42  64  95 132 171 220 274 328 397
#     4  10  24  39  65  97 130 177 220 266 330 392
#     4  11  22  43  65  96 136 173 219 272 330 399
#     4  11  23  43  67  98 129 171 224 272 330 398
#
# _framework density 22.482448999999999
#
# number of rings (size 3 to 8) (size 9 to 14) (size 15 to 20)
#    0.000    1.333    1.667    4.000    2.333    0.000 
#    0.000   13.333    0.000    0.000    0.000    0.000 
#    0.000    0.000    0.000    0.000    0.000    0.000 
#
# Total GULP energy -297485.358737 kJ/mol
# GULP energy per Si atom -12395.223281 kJ/mol
# Density = 2.243128 g / cm^3
# Si number density = 22.482449 Si / 1000 Ang^3
#
#
#
# Elastic Constant Matrix: (Units=GPa)
#
#
# Indices 1 2 3 4 5 6 
#
# 1 86.4141 30.6935 6.8622 0.0000 -1.5018 0.0000
# 2 30.6935 94.4757 17.4972 0.0000 -3.2756 0.0000
# 3 6.8622 17.4972 93.6896 0.0000 -3.8765 0.0000
# 4 0.0000 0.0000 0.0000 29.9601 0.0000 -4.2739
# 5 -1.5018 -3.2756 -3.8765 0.0000 28.9489 0.0000
# 6 0.0000 0.0000 0.0000 -4.2739 0.0000 33.0542
#
#
#
# Elastic Compliance Matrix: (Units=1/GPa)
#
#
# Indices 1 2 3 4 5 6 
#
# 1 0.013085 -0.004215 -0.000164 0.000000 0.000180 0.000000
# 2 -0.004215 0.012349 -0.001960 0.000000 0.000916 0.000000
# 3 -0.000164 -0.001960 0.011104 0.000000 0.001257 0.000000
# 4 0.000000 0.000000 0.000000 0.034005 0.000000 0.004397
# 5 0.000180 0.000916 0.001257 0.000000 0.034825 0.000000
# 6 0.000000 0.000000 0.000000 0.004397 0.000000 0.030822
#
#
# Mechanical properties :
#
#
# Convention : Reuss Voigt Hill
#
# Bulk Modulus (GPa) = 41.90877 42.74281 42.32579
# Shear Modulus (GPa) = 31.88389 33.02775 32.45582
#
# Velocity S-wave (km/s) = 3.76994 3.83697 3.80360
# Velocity P-wave (km/s) = 6.13442 6.21954 6.17713
#
# Compressibility (1/GPa) = 0.02386135
#
# Stress axis : x y z
#
# Youngs Moduli (GPa) = 76.42158 80.98035 90.06169
#
# Poissons Ratio (x) = 0.34130 0.01476
# Poissons Ratio (y) = 0.32209 0.17648
# Poissons Ratio (z) = 0.01252 0.15869
#
# Static dielectric constant tensor:
#      x y z
#    x 4.231990 0.000000 -0.035610 
#    y 0.000000 3.872180 0.000000 
#    z -0.035610 0.000000 3.994650 
# 
# 
# High freq. dielectric constant tensor:
#      x y z
#    x 1.889980 0.000000 -0.000560 
#    y 0.000000 1.877200 0.000000 
#    z -0.000560 0.000000 1.886250 
# 
# From -- ./inp_files/268088.got.cif
#   From: 2010.06.25/outbox.cif.g09.slc.cpg/sg15_135_cif.got.tgz:268088.got - 2010.06.28 07:06:18.
