data_PCOD8146186
_publ_section_title
;
Structure prediction by ZEFSAII (Michael W. Deem and Ramdas Pophale) SiO2 
 PCOD8146186
Probable space group: C 2/C
;
_chemical_formula_sum "Si O2"
_cell_formula_units_Z 56
_cell_length_a 12.067391
_cell_length_b 16.734550
_cell_length_c 17.453637
_cell_angle_alpha 90.000000
_cell_angle_beta 49.400212
_cell_angle_gamma 90.000000
_cell_volume 2676.157862
_symmetry_space_group_name_H-M "C 2/C"
_symmetry_group_IT_number 15
_symmetry_cell_setting 'monoclinic'
loop_
_space_group_symop_operation_xyz
x,y,z
-x,y,1/2-z
-x,-y,-z
x,-y,1/2+z
1/2+x,1/2+y,z
1/2-x,1/2+y,1/2-z
1/2-x,1/2-y,-z
1/2+x,1/2-y,1/2+z
loop_
_atom_site_type_symbol
_atom_site_label
_atom_site_fract_x
_atom_site_fract_y
_atom_site_fract_z
Si Si1 0.370642 0.177010 0.369120
Si Si2 0.616688 0.203816 0.967040
Si Si3 0.805729 0.267062 0.558679
Si Si4 0.128611 0.552090 0.868771
Si Si5 0.841926 0.373922 0.304866
Si Si6 0.833313 0.933588 0.848868
Si Si7 0.821722 0.498703 0.944761
O O1 0.500000 0.167793 0.250000
O O2 0.426864 0.214439 0.423965
O O3 0.248215 0.235309 0.387865
O O4 0.304734 0.091097 0.421520
O O5 0.652601 0.110849 0.931484
O O6 0.479409 0.223228 0.975126
O O7 0.750000 0.250000 0.500000
O O8 0.778752 0.192508 0.625926
O O9 0.724163 0.343745 0.627888
O O10 0.177804 0.601316 0.773217
O O11 0.238884 0.479019 0.827550
O O12 0.964840 0.516829 0.933302
O O13 0.824083 0.450147 0.366947
O O14 0.000000 0.335114 0.250000
O O15 0.000000 0.937022 0.750000
O O16 0.814537 0.974370 0.941278
#
# Coordination Sequence:
#
# PCOD8146186 Si02
#       7
#     8   8   8   8   8   8   8
#     4  11  25  45  69 104 135 179 237 286 346 414
#     4  11  25  43  70  98 140 184 223 289 350 413
#     4  12  23  45  67  99 141 179 226 287 346 412
#     4  11  22  45  69  93 131 185 226 275 357 418
#     4  10  22  40  68  96 130 172 223 284 339 409
#     4  12  25  41  69  97 132 179 231 279 335 414
#     4  11  21  47  68  96 136 175 228 284 343 417
#
# _framework density 20.925521
#
# number of rings (size 3 to 8) (size 9 to 14) (size 15 to 20)
#    0.000    0.857    4.286    3.857    2.000    1.714 
#    5.143    1.429    0.000    0.000    0.000    0.000 
#    0.000    0.000    0.000    0.000    0.000    0.000 
#
# Total GULP energy -347267.889994 kJ/mol
# GULP energy per Si atom -12402.424643 kJ/mol
# Density = 2.087789 g / cm^3
# Si number density = 20.925521 Si / 1000 Ang^3
#
#
#
# Elastic Constant Matrix: (Units=GPa)
#
#
# Indices 1 2 3 4 5 6 
#
# 1 101.7413 42.0563 43.2161 -0.0002 -7.0191 0.0001
# 2 42.0563 126.5369 24.2729 -0.0001 -16.2600 0.0001
# 3 43.2161 24.2729 101.5881 -0.0002 -9.1519 0.0001
# 4 -0.0002 -0.0001 -0.0002 18.6317 0.0002 -13.5796
# 5 -7.0191 -16.2600 -9.1519 0.0002 30.8152 -0.0001
# 6 0.0001 0.0001 0.0001 -13.5796 -0.0001 24.0341
#
#
#
# Elastic Compliance Matrix: (Units=1/GPa)
#
#
# Indices 1 2 3 4 5 6 
#
# 1 0.013332 -0.003535 -0.004851 0.000000 -0.000269 0.000000
# 2 -0.003535 0.009699 -0.000437 0.000000 0.004183 0.000000
# 3 -0.004851 -0.000437 0.012218 0.000000 0.002293 0.000000
# 4 0.000000 0.000000 0.000000 0.091248 0.000000 0.051557
# 5 -0.000269 0.004183 0.002293 0.000000 0.035278 0.000000
# 6 0.000000 0.000000 0.000000 0.051557 0.000000 0.070738
#
#
# Mechanical properties :
#
#
# Convention : Reuss Voigt Hill
#
# Bulk Modulus (GPa) = 56.80708 60.99522 58.90115
# Shear Modulus (GPa) = 19.52910 29.38427 24.45668
#
# Velocity S-wave (km/s) = 3.05826 3.75137 3.42241
# Velocity P-wave (km/s) = 6.29895 6.92645 6.62014
#
# Compressibility (1/GPa) = 0.01760344
#
# Stress axis : x y z
#
# Youngs Moduli (GPa) = 75.00649 103.10269 81.84424
#
# Poissons Ratio (x) = 0.36449 0.39704
# Poissons Ratio (y) = 0.26516 0.03574
# Poissons Ratio (z) = 0.36387 0.04503
#
# Static dielectric constant tensor:
#      x y z
#    x 3.667370 0.000000 0.080400 
#    y 0.000000 3.946510 0.000000 
#    z 0.080400 0.000000 3.964610 
# 
# 
# High freq. dielectric constant tensor:
#      x y z
#    x 1.806940 0.000000 0.016010 
#    y 0.000000 1.836900 0.000000 
#    z 0.016010 0.000000 1.825300 
# 
# From -- ./inp_files/199458.got.cif
#   From: 2010.06.25/outbox.cif.g09.slc.cpg/sg15_100_cif.got.tgz:199458.got - 2010.06.28 07:06:18.
