data_PCOD8146891
_publ_section_title
;
Structure prediction by ZEFSAII (Michael W. Deem and Ramdas Pophale) SiO2 
 PCOD8146891
Probable space group: C 2/C
;
_chemical_formula_sum "Si O2"
_cell_formula_units_Z 60
_cell_length_a 25.008513
_cell_length_b 21.103931
_cell_length_c 9.160773
_cell_angle_alpha 90.000000
_cell_angle_beta 37.637352
_cell_angle_gamma 90.000000
_cell_volume 2952.459290
_symmetry_space_group_name_H-M "C 2/C"
_symmetry_group_IT_number 15
_symmetry_cell_setting 'monoclinic'
loop_
_space_group_symop_operation_xyz
x,y,z
-x,y,1/2-z
-x,-y,-z
x,-y,1/2+z
1/2+x,1/2+y,z
1/2-x,1/2+y,1/2-z
1/2-x,1/2-y,-z
1/2+x,1/2-y,1/2+z
loop_
_atom_site_type_symbol
_atom_site_label
_atom_site_fract_x
_atom_site_fract_y
_atom_site_fract_z
Si Si1 0.381839 0.084680 0.630955
Si Si2 0.907594 0.530411 0.884499
Si Si3 0.205504 0.157360 0.694970
Si Si4 0.602470 0.369038 0.991613
Si Si5 0.856957 0.243254 0.913595
Si Si6 0.689255 0.592765 0.022126
Si Si7 0.273239 0.554747 0.089513
Si Si8 0.500000 0.184559 0.250000
O O1 0.409229 0.039151 0.706193
O O2 0.286333 0.115961 0.854538
O O3 0.442427 0.144923 0.486446
O O4 0.394275 0.043504 0.455502
O O5 0.000000 0.556431 0.750000
O O6 0.821407 0.565881 0.131008
O O7 0.141221 0.203646 0.742419
O O8 0.286544 0.200731 0.569572
O O9 0.159635 0.124738 0.933498
O O10 0.235325 0.097454 0.535488
O O11 0.656318 0.306243 0.924138
O O12 0.615742 0.382212 0.791853
O O13 0.646221 0.427050 0.981814
O O14 0.500000 0.364496 0.250000
O O15 0.950971 0.273407 0.736085
O O16 0.702007 0.517113 0.000899
#
# Coordination Sequence:
#
# PCOD8146891 Si02
#       8
#     8   8   8   8   8   8   8   4
#     4  11  24  37  63  99 136 177 206 260 318 409
#     4  11  23  37  60  97 142 174 205 253 326 400
#     4  10  22  42  66  93 130 170 214 271 327 390
#     4  11  23  44  67  87 124 173 225 275 323 378
#     4  10  23  42  65  88 127 181 219 269 319 375
#     4  11  22  40  67 100 127 165 214 271 335 394
#     4  10  23  40  66  99 133 163 209 267 336 394
#     4  12  22  40  66  92 130 174 226 256 326 386
#
# _framework density 20.322042
#
# number of rings (size 3 to 8) (size 9 to 14) (size 15 to 20)
#    0.000    1.333    4.000    1.200    7.467    1.067 
#    0.000    2.667    2.933    0.000    0.000    0.000 
#    0.000    0.000    0.000    0.000    0.000    0.000 
#
# Total GULP energy -371752.306358 kJ/mol
# GULP energy per Si atom -12391.743545 kJ/mol
# Density = 2.027579 g / cm^3
# Si number density = 20.322042 Si / 1000 Ang^3
#
#
#
# Elastic Constant Matrix: (Units=GPa)
#
#
# Indices 1 2 3 4 5 6 
#
# 1 115.4406 57.7739 59.4819 0.0000 2.6346 0.0000
# 2 57.7739 119.9369 62.3603 0.0000 11.2650 0.0000
# 3 59.4819 62.3603 107.9712 0.0000 8.5011 0.0000
# 4 0.0000 0.0000 0.0000 19.3537 0.0000 -4.9703
# 5 2.6346 11.2650 8.5011 0.0000 32.3278 0.0000
# 6 0.0000 0.0000 0.0000 -4.9703 0.0000 40.7642
#
#
#
# Elastic Compliance Matrix: (Units=1/GPa)
#
#
# Indices 1 2 3 4 5 6 
#
# 1 0.013216 -0.003811 -0.005207 0.000000 0.001620 0.000000
# 2 -0.003811 0.013199 -0.005296 0.000000 -0.002896 0.000000
# 3 -0.005207 -0.005296 0.015328 0.000000 -0.001761 0.000000
# 4 0.000000 0.000000 0.000000 0.053340 0.000000 0.006504
# 5 0.001620 -0.002896 -0.001761 0.000000 0.032273 0.000000
# 6 0.000000 0.000000 0.000000 0.006504 0.000000 0.025324
#
#
# Mechanical properties :
#
#
# Convention : Reuss Voigt Hill
#
# Bulk Modulus (GPa) = 76.24996 78.06456 77.15726
# Shear Modulus (GPa) = 26.92818 29.40464 28.16641
#
# Velocity S-wave (km/s) = 3.64410 3.80798 3.72694
# Velocity P-wave (km/s) = 7.43695 7.60470 7.52129
#
# Compressibility (1/GPa) = 0.01311476
#
# Stress axis : x y z
#
# Youngs Moduli (GPa) = 75.66755 75.76376 65.24122
#
# Poissons Ratio (x) = 0.28872 0.33972
# Poissons Ratio (y) = 0.28835 0.34551
# Poissons Ratio (z) = 0.39402 0.40123
#
# Static dielectric constant tensor:
#      x y z
#    x 3.917500 0.000000 -0.054800 
#    y 0.000000 3.810150 0.000000 
#    z -0.054800 0.000000 3.626600 
# 
# 
# High freq. dielectric constant tensor:
#      x y z
#    x 1.805710 0.000000 0.000490 
#    y 0.000000 1.800300 0.000000 
#    z 0.000490 0.000000 1.773140 
# 
# From -- ./inp_files/63518.got.cif
#   From: 2010.06.25/outbox.cif.g09.slc.cpg/sg15_32_cif.got.tgz:63518.got - 2010.06.28 07:06:18.
