data_PCOD8146482
_publ_section_title
;
Structure prediction by ZEFSAII (Michael W. Deem and Ramdas Pophale) SiO2 
 PCOD8146482
Probable space group: C 2/C
;
_chemical_formula_sum "Si O2"
_cell_formula_units_Z 60
_cell_length_a 19.863775
_cell_length_b 10.871521
_cell_length_c 24.584922
_cell_angle_alpha 90.000000
_cell_angle_beta 145.926670
_cell_angle_gamma 90.000000
_cell_volume 2974.441972
_symmetry_space_group_name_H-M "C 2/C"
_symmetry_group_IT_number 15
_symmetry_cell_setting 'monoclinic'
loop_
_space_group_symop_operation_xyz
x,y,z
-x,y,1/2-z
-x,-y,-z
x,-y,1/2+z
1/2+x,1/2+y,z
1/2-x,1/2+y,1/2-z
1/2-x,1/2-y,-z
1/2+x,1/2-y,1/2+z
loop_
_atom_site_type_symbol
_atom_site_label
_atom_site_fract_x
_atom_site_fract_y
_atom_site_fract_z
Si Si1 0.000000 0.032100 0.250000
Si Si2 0.983637 0.707853 0.591459
Si Si3 0.222904 0.792443 0.920927
Si Si4 0.884269 0.519868 0.887249
Si Si5 0.180113 0.624620 0.255169
Si Si6 0.561370 0.552346 0.094304
Si Si7 0.369036 0.400180 0.258225
Si Si8 0.590004 0.899521 0.265120
O O1 0.961068 0.947297 0.274378
O O2 0.885915 0.111623 0.154602
O O3 0.852063 0.650896 0.488204
O O4 0.091923 0.640087 0.633236
O O5 0.979393 0.851628 0.572771
O O6 0.013363 0.693453 0.675425
O O7 0.196985 0.677332 0.864193
O O8 0.250000 0.750000 0.000000
O O9 0.869571 0.401010 0.838748
O O10 0.764124 0.544211 0.842110
O O11 0.000000 0.500000 0.000000
O O12 0.323131 0.627328 0.348544
O O13 0.129434 0.752902 0.243203
O O14 0.141443 0.517053 0.269622
O O15 0.592607 0.440198 0.155407
O O16 0.500000 0.500000 0.000000
O O17 0.500000 0.951052 0.250000
#
# Coordination Sequence:
#
# PCOD8146482 Si02
#       8
#     4   8   8   8   8   8   8   8
#     4  12  26  42  64  98 132 172 210 268 326 392
#     4  11  22  39  66  96 124 164 217 264 325 377
#     4  12  21  39  63  94 125 164 214 263 317 380
#     4  10  22  41  66  91 124 168 214 265 317 380
#     4  10  24  40  65  94 127 171 214 259 326 384
#     4  11  23  42  67  98 128 165 217 272 326 378
#     4  11  24  44  64  95 133 168 215 263 327 393
#     4  11  22  41  64  93 130 169 213 261 316 390
#
# _framework density 20.171851
#
# number of rings (size 3 to 8) (size 9 to 14) (size 15 to 20)
#    0.000    1.067    3.333    3.200    2.800    1.067 
#    0.000    0.000    0.000    4.000    0.000    0.000 
#    0.000    0.000    0.000    0.000    0.000    0.000 
#
# Total GULP energy -371976.958375 kJ/mol
# GULP energy per Si atom -12399.231946 kJ/mol
# Density = 2.012594 g / cm^3
# Si number density = 20.171851 Si / 1000 Ang^3
#
#
#
# Elastic Constant Matrix: (Units=GPa)
#
#
# Indices 1 2 3 4 5 6 
#
# 1 110.4056 49.1859 46.6333 0.0000 7.4118 0.0000
# 2 49.1859 132.4802 54.5302 0.0000 -6.7020 0.0000
# 3 46.6333 54.5302 154.5770 0.0001 -0.7343 0.0001
# 4 0.0000 0.0000 0.0001 22.5207 0.0000 0.1876
# 5 7.4118 -6.7020 -0.7343 0.0000 33.3219 0.0000
# 6 0.0000 0.0000 0.0001 0.1876 0.0000 33.1932
#
#
#
# Elastic Compliance Matrix: (Units=1/GPa)
#
#
# Indices 1 2 3 4 5 6 
#
# 1 0.011885 -0.003630 -0.002321 0.000000 -0.003425 0.000000
# 2 -0.003630 0.010038 -0.002433 0.000000 0.002773 0.000000
# 3 -0.002321 -0.002433 0.008029 0.000000 0.000204 0.000000
# 4 0.000000 0.000000 0.000000 0.044406 0.000000 -0.000251
# 5 -0.003425 0.002773 0.000204 0.000000 0.031334 0.000000
# 6 0.000000 0.000000 0.000000 -0.000251 0.000000 0.030128
#
#
# Mechanical properties :
#
#
# Convention : Reuss Voigt Hill
#
# Bulk Modulus (GPa) = 75.85413 77.57351 76.71382
# Shear Modulus (GPa) = 31.85068 34.28137 33.06603
#
# Velocity S-wave (km/s) = 3.97793 4.12693 4.05312
# Velocity P-wave (km/s) = 7.66708 7.82614 7.74702
#
# Compressibility (1/GPa) = 0.01318320
#
# Stress axis : x y z
#
# Youngs Moduli (GPa) = 84.13808 99.62397 124.55434
#
# Poissons Ratio (x) = 0.36168 0.28910
# Poissons Ratio (y) = 0.30546 0.30299
# Poissons Ratio (z) = 0.19529 0.24234
#
# Static dielectric constant tensor:
#      x y z
#    x 4.311090 0.000000 0.113470 
#    y 0.000000 3.593680 0.000000 
#    z 0.113470 0.000000 3.827250 
# 
# 
# High freq. dielectric constant tensor:
#      x y z
#    x 1.800240 0.000000 0.004020 
#    y 0.000000 1.776800 0.000000 
#    z 0.004020 0.000000 1.797680 
# 
# From -- ./inp_files/280106.got.cif
#   From: 2010.06.25/outbox.cif.g09.slc.cpg/sg15_141_cif.got.tgz:280106.got - 2010.06.28 07:06:18.
