data_PCOD8146511
_publ_section_title
;
Structure prediction by ZEFSAII (Michael W. Deem and Ramdas Pophale) SiO2 
 PCOD8146511
Probable space group: C 2/C
;
_chemical_formula_sum "Si O2"
_cell_formula_units_Z 40
_cell_length_a 5.237127
_cell_length_b 28.118386
_cell_length_c 13.267312
_cell_angle_alpha 90.000000
_cell_angle_beta 75.609856
_cell_angle_gamma 90.000000
_cell_volume 1892.441772
_symmetry_space_group_name_H-M "C 2/C"
_symmetry_group_IT_number 15
_symmetry_cell_setting 'monoclinic'
loop_
_space_group_symop_operation_xyz
x,y,z
-x,y,1/2-z
-x,-y,-z
x,-y,1/2+z
1/2+x,1/2+y,z
1/2-x,1/2+y,1/2-z
1/2-x,1/2-y,-z
1/2+x,1/2-y,1/2+z
loop_
_atom_site_type_symbol
_atom_site_label
_atom_site_fract_x
_atom_site_fract_y
_atom_site_fract_z
Si Si1 0.000000 0.484807 0.750000
Si Si2 0.000000 0.797356 0.250000
Si Si3 0.500000 0.262323 0.750000
Si Si4 0.023174 0.397581 0.880508
Si Si5 0.347012 0.373688 0.418826
Si Si6 0.471712 0.349082 0.618412
Si Si7 0.500000 0.547912 0.750000
O O1 0.986703 0.452481 0.852189
O O2 0.255815 0.516706 0.738468
O O3 0.771752 0.767278 0.217452
O O4 0.833436 0.829410 0.344361
O O5 0.494290 0.294196 0.649090
O O6 0.320653 0.379686 0.836921
O O7 0.822929 0.367985 0.827668
O O8 0.936925 0.388329 0.005797
O O9 0.534313 0.356787 0.493347
O O10 0.450577 0.420144 0.352711
#
# Coordination Sequence:
#
# PCOD8146511 Si02
#       7
#     4   4   4   8   8   8   4
#     4  12  24  40  66  97 124 155 222 258 302 354
#     4  11  26  41  64  93 128 167 202 265 300 375
#     4  12  24  40  66  97 124 155 222 258 302 354
#     4  10  22  41  67  88 125 168 203 254 311 373
#     4   9  26  44  64  86 134 168 206 239 336 362
#     4  10  22  41  67  88 125 168 203 254 311 373
#     4  11  26  41  64  93 128 167 202 265 300 375
#
# _framework density 21.136716
#
# number of rings (size 3 to 8) (size 9 to 14) (size 15 to 20)
#    1.200    0.400    0.000    3.600    5.600    4.800 
#    0.000    0.000    0.000    0.000    0.000    0.000 
#    0.000    0.000    0.000    0.000    0.000    0.000 
#
# Total GULP energy -247797.653250 kJ/mol
# GULP energy per Si atom -12389.882663 kJ/mol
# Density = 2.108861 g / cm^3
# Si number density = 21.136716 Si / 1000 Ang^3
#
#
#
# Elastic Constant Matrix: (Units=GPa)
#
#
# Indices 1 2 3 4 5 6 
#
# 1 159.4888 64.4838 31.7490 0.0000 -4.8344 0.0000
# 2 64.4838 139.2971 35.0928 0.0000 -4.3497 0.0000
# 3 31.7490 35.0928 78.2016 0.0000 -0.5645 0.0000
# 4 0.0000 0.0000 0.0000 19.2848 0.0000 -6.4223
# 5 -4.8344 -4.3497 -0.5645 0.0000 27.6505 0.0000
# 6 0.0000 0.0000 0.0000 -6.4223 0.0000 15.9555
#
#
#
# Elastic Compliance Matrix: (Units=1/GPa)
#
#
# Indices 1 2 3 4 5 6 
#
# 1 0.007945 -0.003203 -0.001782 0.000000 0.000849 0.000000
# 2 -0.003203 0.009425 -0.002923 0.000000 0.000863 0.000000
# 3 -0.001782 -0.002923 0.014819 0.000000 -0.000469 0.000000
# 4 0.000000 0.000000 0.000000 0.059881 0.000000 0.024103
# 5 0.000849 0.000863 -0.000469 0.000000 0.036440 0.000000
# 6 0.000000 0.000000 0.000000 0.024103 0.000000 0.072376
#
#
# Mechanical properties :
#
#
# Convention : Reuss Voigt Hill
#
# Bulk Modulus (GPa) = 61.07361 71.07096 66.07228
# Shear Modulus (GPa) = 22.50624 28.95564 25.73094
#
# Velocity S-wave (km/s) = 3.26666 3.70526 3.49285
# Velocity P-wave (km/s) = 6.57156 7.21129 6.89884
#
# Compressibility (1/GPa) = 0.01637368
#
# Stress axis : x y z
#
# Youngs Moduli (GPa) = 125.85819 106.10370 67.47915
#
# Poissons Ratio (x) = 0.33980 0.12028
# Poissons Ratio (y) = 0.40307 0.19723
# Poissons Ratio (z) = 0.22434 0.31013
#
# Static dielectric constant tensor:
#      x y z
#    x 3.725450 0.000000 -0.028410 
#    y 0.000000 3.763340 0.000000 
#    z -0.028410 0.000000 3.885620 
# 
# 
# High freq. dielectric constant tensor:
#      x y z
#    x 1.835920 0.000000 0.003050 
#    y 0.000000 1.825810 0.000000 
#    z 0.003050 0.000000 1.836450 
# 
# From -- ./inp_files/129102.got.cif
#   From: 2010.06.25/outbox.cif.g09.slc.cpg/sg15_65_cif.got.tgz:129102.got - 2010.06.28 07:06:18.
