data_PCOD8146471
_publ_section_title
;
Structure prediction by ZEFSAII (Michael W. Deem and Ramdas Pophale) SiO2 
 PCOD8146471
Probable space group: C 2/C
;
_chemical_formula_sum "Si O2"
_cell_formula_units_Z 32
_cell_length_a 5.102154
_cell_length_b 22.059312
_cell_length_c 11.557894
_cell_angle_alpha 90.000000
_cell_angle_beta 81.225240
_cell_angle_gamma 90.000000
_cell_volume 1285.615589
_symmetry_space_group_name_H-M "C 2/C"
_symmetry_group_IT_number 15
_symmetry_cell_setting 'monoclinic'
loop_
_space_group_symop_operation_xyz
x,y,z
-x,y,1/2-z
-x,-y,-z
x,-y,1/2+z
1/2+x,1/2+y,z
1/2-x,1/2+y,1/2-z
1/2-x,1/2-y,-z
1/2+x,1/2-y,1/2+z
loop_
_atom_site_type_symbol
_atom_site_label
_atom_site_fract_x
_atom_site_fract_y
_atom_site_fract_z
Si Si1 0.778972 0.410594 0.671197
Si Si2 0.779240 0.547503 0.671861
Si Si3 0.788903 0.235573 0.173590
Si Si4 0.898200 0.344108 0.014472
O O1 0.500000 0.402671 0.750000
O O2 0.828589 0.479090 0.623472
O O3 0.000000 0.391517 0.750000
O O4 0.818159 0.363657 0.561302
O O5 0.500000 0.551467 0.750000
O O6 0.767861 0.592700 0.563804
O O7 0.000000 0.567339 0.750000
O O8 0.500000 0.247338 0.250000
O O9 0.783948 0.188080 0.069155
O O10 0.000000 0.208242 0.250000
O O11 0.921672 0.298616 0.120946
#
# Coordination Sequence:
#
# PCOD8146471 Si02
#       4
#     8   8   8   8
#     4  10  23  41  65 100 135 169 215 270 327 393
#     4  10  22  41  66 101 137 169 215 270 327 395
#     4  11  27  46  65  98 133 171 227 278 325 384
#     4  11  24  43  72  94 131 181 219 268 334 394
#
# _framework density 24.890798
#
# number of rings (size 3 to 8) (size 9 to 14) (size 15 to 20)
#    0.000    1.500    0.000    3.000    0.000   14.000 
#    0.000    7.500    0.000    1.500    0.000    1.750 
#    0.000    0.000    0.000    0.000    0.000    0.000 
#
# Total GULP energy -198362.286504 kJ/mol
# GULP energy per Si atom -12397.642907 kJ/mol
# Density = 2.483415 g / cm^3
# Si number density = 24.890798 Si / 1000 Ang^3
#
#
#
# Elastic Constant Matrix: (Units=GPa)
#
#
# Indices 1 2 3 4 5 6 
#
# 1 124.4455 8.2988 30.5108 0.0000 6.6682 0.0000
# 2 8.2988 149.4946 70.5633 0.0000 -2.8556 0.0000
# 3 30.5108 70.5633 109.2187 0.0000 -3.4077 0.0000
# 4 0.0000 0.0000 0.0000 32.6347 0.0000 2.1699
# 5 6.6682 -2.8556 -3.4077 0.0000 24.0894 0.0000
# 6 0.0000 0.0000 0.0000 2.1699 0.0000 24.6936
#
#
#
# Elastic Compliance Matrix: (Units=1/GPa)
#
#
# Indices 1 2 3 4 5 6 
#
# 1 0.008905 0.000961 -0.003196 0.000000 -0.002803 0.000000
# 2 0.000961 0.009729 -0.006555 0.000000 -0.000040 0.000000
# 3 -0.003196 -0.006555 0.014351 0.000000 0.002138 0.000000
# 4 0.000000 0.000000 0.000000 0.030822 0.000000 -0.002709
# 5 -0.002803 -0.000040 0.002138 0.000000 0.042586 0.000000
# 6 0.000000 0.000000 0.000000 -0.002709 0.000000 0.040734
#
#
# Mechanical properties :
#
#
# Convention : Reuss Voigt Hill
#
# Bulk Modulus (GPa) = 64.91827 66.87829 65.89828
# Shear Modulus (GPa) = 29.43881 34.53593 31.98737
#
# Velocity S-wave (km/s) = 3.44280 3.72895 3.58873
# Velocity P-wave (km/s) = 6.47624 6.74293 6.61093
#
# Compressibility (1/GPa) = 0.01540398
#
# Stress axis : x y z
#
# Youngs Moduli (GPa) = 112.29226 102.78136 69.68292
#
# Poissons Ratio (x) = -0.09873 0.22269
# Poissons Ratio (y) = -0.10786 0.45681
# Poissons Ratio (z) = 0.35886 0.67378
#
# Static dielectric constant tensor:
#      x y z
#    x 4.078060 0.000000 -0.167640 
#    y 0.000000 5.181410 0.000000 
#    z -0.167640 0.000000 4.623830 
# 
# 
# High freq. dielectric constant tensor:
#      x y z
#    x 1.972730 0.000000 -0.017170 
#    y 0.000000 2.023590 0.000000 
#    z -0.017170 0.000000 1.998640 
# 
# From -- ./inp_files/72362.got.cif
#   From: 2010.06.25/outbox.cif.g09.slc.cpg/sg15_37_cif.got.tgz:72362.got - 2010.06.28 07:06:18.
