data_PCOD8146427
_publ_section_title
;
Structure prediction by ZEFSAII (Michael W. Deem and Ramdas Pophale) SiO2 
 PCOD8146427
Probable space group: C 2/C
;
_chemical_formula_sum "Si O2"
_cell_formula_units_Z 48
_cell_length_a 12.199950
_cell_length_b 8.535422
_cell_length_c 23.658397
_cell_angle_alpha 90.000000
_cell_angle_beta 122.111278
_cell_angle_gamma 90.000000
_cell_volume 2086.703034
_symmetry_space_group_name_H-M "C 2/C"
_symmetry_group_IT_number 15
_symmetry_cell_setting 'monoclinic'
loop_
_space_group_symop_operation_xyz
x,y,z
-x,y,1/2-z
-x,-y,-z
x,-y,1/2+z
1/2+x,1/2+y,z
1/2-x,1/2+y,1/2-z
1/2-x,1/2-y,-z
1/2+x,1/2-y,1/2+z
loop_
_atom_site_type_symbol
_atom_site_label
_atom_site_fract_x
_atom_site_fract_y
_atom_site_fract_z
Si Si1 0.191001 0.226285 0.309409
Si Si2 0.938862 0.665669 0.996911
Si Si3 0.973381 0.298514 0.856777
Si Si4 0.894517 0.812998 0.542956
Si Si5 0.990626 0.639111 0.828678
Si Si6 0.333655 0.436575 0.115463
O O1 0.336842 0.276379 0.336846
O O2 0.108400 0.239838 0.228899
O O3 0.130060 0.352617 0.335729
O O4 0.186527 0.054419 0.337452
O O5 0.934771 0.682091 0.063346
O O6 0.794430 0.664829 0.932046
O O7 0.000000 0.500000 0.000000
O O8 0.030835 0.807035 0.997008
O O9 0.942559 0.460574 0.815769
O O10 0.051528 0.183340 0.836220
O O11 0.750000 0.750000 0.500000
O O12 0.989015 0.694876 0.602325
O O13 0.884009 0.979144 0.571475
#
# Coordination Sequence:
#
# PCOD8146427 Si02
#       6
#     8   8   8   8   8   8
#     4  10  23  44  63  90 132 175 217 270 327 385
#     4  12  20  39  69 100 136 168 208 276 332 388
#     4  12  24  42  69  99 130 172 224 270 330 398
#     4  11  20  38  66  94 130 171 207 264 333 386
#     4  10  22  41  65  90 127 173 217 267 328 388
#     4  11  24  40  66 100 131 172 222 267 326 400
#
# _framework density 23.002794999999999
#
# number of rings (size 3 to 8) (size 9 to 14) (size 15 to 20)
#    0.000    1.000    5.000    1.500    0.000    6.000 
#    0.000   11.667    0.000    0.000    0.000    0.000 
#    0.000    0.000    0.000    0.000    0.000    0.000 
#
# Total GULP energy -297484.476857 kJ/mol
# GULP energy per Si atom -12395.186536 kJ/mol
# Density = 2.295044 g / cm^3
# Si number density = 23.002795 Si / 1000 Ang^3
#
#
#
# Elastic Constant Matrix: (Units=GPa)
#
#
# Indices 1 2 3 4 5 6 
#
# 1 133.6444 37.9189 29.5837 0.0000 30.5342 0.0000
# 2 37.9189 65.3879 27.7518 0.0000 14.7828 0.0000
# 3 29.5837 27.7518 99.4701 0.0000 11.3140 0.0000
# 4 0.0000 0.0000 0.0000 27.5202 0.0000 1.1498
# 5 30.5342 14.7828 11.3140 0.0000 34.5854 0.0000
# 6 0.0000 0.0000 0.0000 1.1498 0.0000 43.1976
#
#
#
# Elastic Compliance Matrix: (Units=1/GPa)
#
#
# Indices 1 2 3 4 5 6 
#
# 1 0.010518 -0.003961 -0.001204 0.000000 -0.007199 0.000000
# 2 -0.003961 0.020153 -0.004012 0.000000 -0.003805 0.000000
# 3 -0.001204 -0.004012 0.011648 0.000000 -0.001032 0.000000
# 4 0.000000 0.000000 0.000000 0.036377 0.000000 -0.000968
# 5 -0.007199 -0.003805 -0.001032 0.000000 0.037234 0.000000
# 6 0.000000 0.000000 0.000000 -0.000968 0.000000 0.023175
#
#
# Mechanical properties :
#
#
# Convention : Reuss Voigt Hill
#
# Bulk Modulus (GPa) = 41.72713 54.33458 48.03086
# Shear Modulus (GPa) = 30.22115 34.61050 32.41583
#
# Velocity S-wave (km/s) = 3.62857 3.88315 3.75802
# Velocity P-wave (km/s) = 5.97786 6.61644 6.30524
#
# Compressibility (1/GPa) = 0.02396522
#
# Stress axis : x y z
#
# Youngs Moduli (GPa) = 95.07870 49.62019 85.85026
#
# Poissons Ratio (x) = 0.19653 0.10339
# Poissons Ratio (y) = 0.37657 0.34443
# Poissons Ratio (z) = 0.11450 0.19907
#
# Static dielectric constant tensor:
#      x y z
#    x 4.363600 0.000000 -0.005830 
#    y 0.000000 4.221390 0.000000 
#    z -0.005830 0.000000 4.256290 
# 
# 
# High freq. dielectric constant tensor:
#      x y z
#    x 1.917130 0.000000 0.004860 
#    y 0.000000 1.886710 0.000000 
#    z 0.004860 0.000000 1.904470 
# 
# From -- ./inp_files/291299.got.cif
#   From: 2010.06.25/outbox.cif.g09.slc.cpg/sg15_146_cif.got.tgz:291299.got - 2010.06.28 07:06:18.
