data_PCOD8146765
_publ_section_title
;
Structure prediction by ZEFSAII (Michael W. Deem and Ramdas Pophale) SiO2 
 PCOD8146765
Probable space group: C 2/C
;
_chemical_formula_sum "Si O2"
_cell_formula_units_Z 40
_cell_length_a 10.418904
_cell_length_b 9.358178
_cell_length_c 20.194612
_cell_angle_alpha 90.000000
_cell_angle_beta 100.555759
_cell_angle_gamma 90.000000
_cell_volume 1935.692773
_symmetry_space_group_name_H-M "C 2/C"
_symmetry_group_IT_number 15
_symmetry_cell_setting 'monoclinic'
loop_
_space_group_symop_operation_xyz
x,y,z
-x,y,1/2-z
-x,-y,-z
x,-y,1/2+z
1/2+x,1/2+y,z
1/2-x,1/2+y,1/2-z
1/2-x,1/2-y,-z
1/2+x,1/2-y,1/2+z
loop_
_atom_site_type_symbol
_atom_site_label
_atom_site_fract_x
_atom_site_fract_y
_atom_site_fract_z
Si Si1 0.111854 0.027118 0.712486
Si Si2 0.389716 0.119349 0.420271
Si Si3 0.313856 0.902276 0.519326
Si Si4 0.399556 0.438148 0.437045
Si Si5 0.360474 0.851819 0.766242
O O1 0.238508 0.926387 0.718486
O O2 0.000000 0.961163 0.750000
O O3 0.048185 0.044160 0.633130
O O4 0.153907 0.181711 0.744595
O O5 0.543987 0.103472 0.437533
O O6 0.361898 0.274482 0.448834
O O7 0.345238 0.104299 0.340966
O O8 0.311816 0.997243 0.452413
O O9 0.250000 0.750000 0.500000
O O10 0.233390 0.975224 0.569936
O O11 0.500000 0.500000 0.500000
O O12 0.500000 0.904101 0.750000
#
# Coordination Sequence:
#
# PCOD8146765 Si02
#       5
#     8   8   8   8   8
#     4  10  24  42  63  92 126 167 209 256 316 375
#     4  10  23  39  61  93 123 165 206 258 311 375
#     4  11  22  39  62  92 123 160 207 257 318 368
#     4  11  22  40  63  91 127 162 205 259 311 371
#     4  10  22  42  64  88 128 165 209 258 312 375
#
# _framework density 20.664435000000001
#
# number of rings (size 3 to 8) (size 9 to 14) (size 15 to 20)
#    0.000    1.600    2.000    1.800    2.800    4.000 
#    0.000    0.000    0.000    0.000    0.000    0.000 
#    0.000    0.000    0.000    0.000    0.000    0.000 
#
# Total GULP energy -247997.465635 kJ/mol
# GULP energy per Si atom -12399.873282 kJ/mol
# Density = 2.061740 g / cm^3
# Si number density = 20.664435 Si / 1000 Ang^3
#
#
#
# Elastic Constant Matrix: (Units=GPa)
#
#
# Indices 1 2 3 4 5 6 
#
# 1 103.4994 49.6940 31.3985 0.0000 -15.8640 0.0000
# 2 49.6940 124.7644 42.1381 0.0000 -7.0118 0.0000
# 3 31.3985 42.1381 85.2566 0.0000 2.9786 0.0000
# 4 0.0000 0.0000 0.0000 28.4171 0.0000 -4.9025
# 5 -15.8640 -7.0118 2.9786 0.0000 30.9042 0.0000
# 6 0.0000 0.0000 0.0000 -4.9025 0.0000 40.7086
#
#
#
# Elastic Compliance Matrix: (Units=1/GPa)
#
#
# Indices 1 2 3 4 5 6 
#
# 1 0.013508 -0.003923 -0.003258 0.000000 0.006358 0.000000
# 2 -0.003923 0.010982 -0.004013 0.000000 0.000865 0.000000
# 3 -0.003258 -0.004013 0.015054 0.000000 -0.004034 0.000000
# 4 0.000000 0.000000 0.000000 0.035937 0.000000 0.004328
# 5 0.006358 0.000865 -0.004034 0.000000 0.036207 0.000000
# 6 0.000000 0.000000 0.000000 0.004328 0.000000 0.025086
#
#
# Mechanical properties :
#
#
# Convention : Reuss Voigt Hill
#
# Bulk Modulus (GPa) = 58.29067 62.22018 60.25542
# Shear Modulus (GPa) = 30.32512 32.69198 31.50855
#
# Velocity S-wave (km/s) = 3.83496 3.98180 3.90907
# Velocity P-wave (km/s) = 6.91944 7.16344 7.04249
#
# Compressibility (1/GPa) = 0.01715540
#
# Stress axis : x y z
#
# Youngs Moduli (GPa) = 74.02856 91.06205 66.42877
#
# Poissons Ratio (x) = 0.35720 0.21644
# Poissons Ratio (y) = 0.29039 0.26659
# Poissons Ratio (z) = 0.24120 0.36545
#
# Static dielectric constant tensor:
#      x y z
#    x 3.759870 0.000000 -0.200300 
#    y 0.000000 3.847760 0.000000 
#    z -0.200300 0.000000 3.692350 
# 
# 
# High freq. dielectric constant tensor:
#      x y z
#    x 1.811020 0.000000 -0.007760 
#    y 0.000000 1.811610 0.000000 
#    z -0.007760 0.000000 1.813970 
# 
# From -- ./inp_files/195173.got.cif
#   From: 2010.06.25/outbox.cif.g09.slc.cpg/sg15_98_cif.got.tgz:195173.got - 2010.06.28 07:06:18.
