data_PCOD8146168
_publ_section_title
;
Structure prediction by ZEFSAII (Michael W. Deem and Ramdas Pophale) SiO2 
 PCOD8146168
Probable space group: C 2/C
;
_chemical_formula_sum "Si O2"
_cell_formula_units_Z 32
_cell_length_a 9.069650
_cell_length_b 34.041820
_cell_length_c 5.176002
_cell_angle_alpha 90.000000
_cell_angle_beta 119.174479
_cell_angle_gamma 90.000000
_cell_volume 1395.343933
_symmetry_space_group_name_H-M "C 2/C"
_symmetry_group_IT_number 15
_symmetry_cell_setting 'monoclinic'
loop_
_space_group_symop_operation_xyz
x,y,z
-x,y,1/2-z
-x,-y,-z
x,-y,1/2+z
1/2+x,1/2+y,z
1/2-x,1/2+y,1/2-z
1/2-x,1/2-y,-z
1/2+x,1/2-y,1/2+z
loop_
_atom_site_type_symbol
_atom_site_label
_atom_site_fract_x
_atom_site_fract_y
_atom_site_fract_z
Si Si1 0.193702 0.635029 0.910316
Si Si2 0.204733 0.214082 0.289192
Si Si3 0.500000 0.526606 0.750000
Si Si4 0.000000 0.256701 0.750000
Si Si5 0.696745 0.085706 0.413564
O O1 0.234210 0.618981 0.660162
O O2 0.000000 0.648567 0.750000
O O3 0.306499 0.673035 0.069339
O O4 0.234858 0.602066 0.160409
O O5 0.250000 0.250000 0.500000
O O6 0.344744 0.213767 0.176512
O O7 0.026576 0.226015 0.010193
O O8 0.500000 0.500000 0.500000
O O9 0.326461 0.551143 0.589149
O O10 0.500000 0.071294 0.250000
#
# Coordination Sequence:
#
# PCOD8146168 Si02
#       5
#     8   8   4   4   8
#     4  10  22  40  68  89 135 181 223 285 338 396
#     4  11  23  40  59  88 128 178 238 289 345 400
#     4  12  26  47  76 106 142 174 214 282 340 422
#     4  10  24  37  58  86 124 168 246 290 346 404
#     4  10  24  45  68 105 135 178 226 268 344 416
#
# _framework density 22.933413000000002
#
# number of rings (size 3 to 8) (size 9 to 14) (size 15 to 20)
#    0.000    1.500    0.000    3.750   12.250    2.000 
#    4.500    0.000    0.000    0.000    0.000    0.000 
#    0.000    0.000    0.000    0.000    0.000    0.000 
#
# Total GULP energy -198330.475113 kJ/mol
# GULP energy per Si atom -12395.654695 kJ/mol
# Density = 2.288122 g / cm^3
# Si number density = 22.933413 Si / 1000 Ang^3
#
#
#
# Elastic Constant Matrix: (Units=GPa)
#
#
# Indices 1 2 3 4 5 6 
#
# 1 74.9389 37.8200 25.7109 0.0000 16.3414 0.0000
# 2 37.8200 117.0839 56.6823 0.0000 19.5460 0.0000
# 3 25.7109 56.6823 159.3166 0.0000 7.1678 0.0000
# 4 0.0000 0.0000 0.0000 53.3822 0.0000 -0.1659
# 5 16.3414 19.5460 7.1678 0.0000 39.8645 0.0000
# 6 0.0000 0.0000 0.0000 -0.1659 0.0000 27.9957
#
#
#
# Elastic Compliance Matrix: (Units=1/GPa)
#
#
# Indices 1 2 3 4 5 6 
#
# 1 0.016811 -0.004154 -0.001025 0.000000 -0.004670 0.000000
# 2 -0.004154 0.012186 -0.003501 0.000000 -0.003642 0.000000
# 3 -0.001025 -0.003501 0.007654 0.000000 0.000761 0.000000
# 4 0.000000 0.000000 0.000000 0.018733 0.000000 0.000111
# 5 -0.004670 -0.003642 0.000761 0.000000 0.028648 0.000000
# 6 0.000000 0.000000 0.000000 0.000111 0.000000 0.035720
#
#
# Mechanical properties :
#
#
# Convention : Reuss Voigt Hill
#
# Bulk Modulus (GPa) = 51.84186 65.75175 58.79681
# Shear Modulus (GPa) = 34.83275 39.65688 37.24482
#
# Velocity S-wave (km/s) = 3.90149 4.16290 4.03431
# Velocity P-wave (km/s) = 6.55362 7.19995 6.88437
#
# Compressibility (1/GPa) = 0.01928943
#
# Stress axis : x y z
#
# Youngs Moduli (GPa) = 59.48566 82.06207 130.65661
#
# Poissons Ratio (x) = 0.34092 0.13389
# Poissons Ratio (y) = 0.24713 0.45746
# Poissons Ratio (z) = 0.06096 0.28732
#
# Static dielectric constant tensor:
#      x y z
#    x 4.986450 0.000000 0.074280 
#    y 0.000000 4.811150 0.000000 
#    z 0.074280 0.000000 4.518760 
# 
# 
# High freq. dielectric constant tensor:
#      x y z
#    x 1.916270 0.000000 -0.005090 
#    y 0.000000 1.879290 0.000000 
#    z -0.005090 0.000000 1.936660 
# 
# From -- ./inp_files/5678.got.cif
#   From: 2010.06.25/outbox.cif.g09.slc.cpg/sg15_3_cif.got.tgz:5678.got - 2010.06.28 07:06:18.
