data_PCOD8146631
_publ_section_title
;
Structure prediction by ZEFSAII (Michael W. Deem and Ramdas Pophale) SiO2 
 PCOD8146631
Probable space group: C 2/C
;
_chemical_formula_sum "Si O2"
_cell_formula_units_Z 36
_cell_length_a 14.153057
_cell_length_b 17.662861
_cell_length_c 11.085170
_cell_angle_alpha 90.000000
_cell_angle_beta 143.384543
_cell_angle_gamma 90.000000
_cell_volume 1652.804438
_symmetry_space_group_name_H-M "C 2/C"
_symmetry_group_IT_number 15
_symmetry_cell_setting 'monoclinic'
loop_
_space_group_symop_operation_xyz
x,y,z
-x,y,1/2-z
-x,-y,-z
x,-y,1/2+z
1/2+x,1/2+y,z
1/2-x,1/2+y,1/2-z
1/2-x,1/2-y,-z
1/2+x,1/2-y,1/2+z
loop_
_atom_site_type_symbol
_atom_site_label
_atom_site_fract_x
_atom_site_fract_y
_atom_site_fract_z
Si Si1 0.091840 0.990795 0.721108
Si Si2 0.124590 0.693659 0.723509
Si Si3 0.790431 0.154037 0.664496
Si Si4 0.500000 0.236282 0.250000
Si Si5 0.784734 0.655157 0.417536
O O1 0.223911 0.928270 0.825658
O O2 0.000000 0.965028 0.750000
O O3 0.172938 0.069492 0.840556
O O4 0.000000 0.000000 0.500000
O O5 0.247033 0.653045 0.760104
O O6 0.147579 0.784555 0.744305
O O7 0.943129 0.673863 0.502426
O O8 0.169550 0.659621 0.896983
O O9 0.641593 0.183214 0.436253
O O10 0.941362 0.208746 0.797827
#
# Coordination Sequence:
#
# PCOD8146631 Si02
#       5
#     8   8   8   4   8
#     4  12  28  44  68 101 142 181 221 284 344 400
#     4  10  22  41  70  96 132 173 224 282 325 408
#     4  11  23  44  66  97 133 177 224 276 337 396
#     4  10  24  40  68  96 128 176 230 270 324 412
#     4  10  24  41  66 103 131 173 227 271 344 396
#
# _framework density 21.781161000000001
#
# number of rings (size 3 to 8) (size 9 to 14) (size 15 to 20)
#    0.000    1.333    1.111    2.667   12.444    4.444 
#    0.000    0.000    0.000    0.000    0.000    0.000 
#    0.000    0.000    0.000    0.000    0.000    0.000 
#
# Total GULP energy -223190.918963 kJ/mol
# GULP energy per Si atom -12399.495498 kJ/mol
# Density = 2.173159 g / cm^3
# Si number density = 21.781161 Si / 1000 Ang^3
#
#
#
# Elastic Constant Matrix: (Units=GPa)
#
#
# Indices 1 2 3 4 5 6 
#
# 1 128.6455 23.2094 35.0488 0.0000 13.2436 0.0000
# 2 23.2094 151.2136 59.5983 0.0000 30.0347 0.0000
# 3 35.0488 59.5983 87.4480 0.0000 20.1669 0.0000
# 4 0.0000 0.0000 0.0000 27.6841 0.0000 19.0375
# 5 13.2436 30.0347 20.1669 0.0000 33.2514 0.0000
# 6 0.0000 0.0000 0.0000 19.0375 0.0000 23.0281
#
#
#
# Elastic Compliance Matrix: (Units=1/GPa)
#
#
# Indices 1 2 3 4 5 6 
#
# 1 0.008808 0.000314 -0.003337 0.000000 -0.001768 0.000000
# 2 0.000314 0.009881 -0.005549 0.000000 -0.005685 0.000000
# 3 -0.003337 -0.005549 0.017546 0.000000 -0.004300 0.000000
# 4 0.000000 0.000000 0.000000 0.083713 0.000000 -0.069206
# 5 -0.001768 -0.005685 -0.004300 0.000000 0.038521 0.000000
# 6 0.000000 0.000000 0.000000 -0.069206 0.000000 0.100638
#
#
# Mechanical properties :
#
#
# Convention : Reuss Voigt Hill
#
# Bulk Modulus (GPa) = 52.37685 67.00224 59.68955
# Shear Modulus (GPa) = 17.69194 33.42275 25.55734
#
# Velocity S-wave (km/s) = 2.85311 3.92149 3.42916
# Velocity P-wave (km/s) = 5.91208 7.16467 6.56830
#
# Compressibility (1/GPa) = 0.01909240
#
# Stress axis : x y z
#
# Youngs Moduli (GPa) = 113.53770 101.20189 56.99162
#
# Poissons Ratio (x) = -0.03182 0.19015
# Poissons Ratio (y) = -0.03570 0.31627
# Poissons Ratio (z) = 0.37882 0.56160
#
# Static dielectric constant tensor:
#      x y z
#    x 4.440000 0.000000 0.182450 
#    y 0.000000 3.893460 0.000000 
#    z 0.182450 0.000000 3.871170 
# 
# 
# High freq. dielectric constant tensor:
#      x y z
#    x 1.872560 0.000000 0.001760 
#    y 0.000000 1.853740 0.000000 
#    z 0.001760 0.000000 1.852740 
# 
# From -- ./inp_files/38891.got.cif
#   From: 2010.06.25/outbox.cif.g09.slc.cpg/sg15_20_cif.got.tgz:38891.got - 2010.06.28 07:06:18.
