data_PCOD8146807
_publ_section_title
;
Structure prediction by ZEFSAII (Michael W. Deem and Ramdas Pophale) SiO2 
 PCOD8146807
Probable space group: C 2/C
;
_chemical_formula_sum "Si O2"
_cell_formula_units_Z 56
_cell_length_a 19.373375
_cell_length_b 19.811263
_cell_length_c 16.629494
_cell_angle_alpha 90.000000
_cell_angle_beta 157.153598
_cell_angle_gamma 90.000000
_cell_volume 2478.114806
_symmetry_space_group_name_H-M "C 2/C"
_symmetry_group_IT_number 15
_symmetry_cell_setting 'monoclinic'
loop_
_space_group_symop_operation_xyz
x,y,z
-x,y,1/2-z
-x,-y,-z
x,-y,1/2+z
1/2+x,1/2+y,z
1/2-x,1/2+y,1/2-z
1/2-x,1/2-y,-z
1/2+x,1/2-y,1/2+z
loop_
_atom_site_type_symbol
_atom_site_label
_atom_site_fract_x
_atom_site_fract_y
_atom_site_fract_z
Si Si1 0.832778 0.424640 0.170631
Si Si2 0.269534 0.438504 0.894580
Si Si3 0.016670 0.121756 0.446075
Si Si4 0.821551 0.178206 0.102746
Si Si5 0.188431 0.536060 0.130319
Si Si6 0.857478 0.907753 0.256654
Si Si7 0.299186 0.827847 0.555037
O O1 0.785769 0.503033 0.100905
O O2 0.034531 0.421748 0.419977
O O3 0.692397 0.395722 0.084254
O O4 0.820188 0.379973 0.075116
O O5 0.154187 0.453039 0.689362
O O6 0.238837 0.364267 0.899968
O O7 0.473189 0.450552 0.090524
O O8 0.084986 0.142464 0.608019
O O9 0.885217 0.178388 0.264551
O O10 0.885384 0.058678 0.315889
O O11 0.000000 0.157864 0.250000
O O12 0.750000 0.250000 0.000000
O O13 0.195975 0.456687 0.112668
O O14 0.813257 0.861306 0.135075
O O15 0.500000 0.839056 0.750000
O O16 0.250000 0.750000 0.500000
#
# Coordination Sequence:
#
# PCOD8146807 Si02
#       7
#     8   8   8   8   8   8   8
#     4  11  22  39  68  99 134 176 225 285 350 411
#     4  11  22  43  69 102 137 175 225 289 347 413
#     4  10  22  42  64  98 133 173 222 283 342 407
#     4  10  25  44  63  93 136 179 227 283 342 417
#     4  11  22  39  72 104 135 172 225 287 344 410
#     4  11  22  44  71 101 141 174 227 291 349 415
#     4  12  28  47  67 100 138 190 237 288 356 426
#
# _framework density 22.597823000000002
#
# number of rings (size 3 to 8) (size 9 to 14) (size 15 to 20)
#    0.000    1.143    2.857    3.429    6.000    1.143 
#    2.571    1.429    0.000    0.000    0.000    0.000 
#    0.000    0.000    0.000    0.000    0.000    0.000 
#
# Total GULP energy -346900.703058 kJ/mol
# GULP energy per Si atom -12389.310823 kJ/mol
# Density = 2.254639 g / cm^3
# Si number density = 22.597823 Si / 1000 Ang^3
#
#
#
# Elastic Constant Matrix: (Units=GPa)
#
#
# Indices 1 2 3 4 5 6 
#
# 1 84.9665 31.5177 35.7631 0.0000 -15.3980 0.0000
# 2 31.5177 113.0695 34.3269 0.0000 -22.5252 0.0000
# 3 35.7631 34.3269 125.4679 0.0000 -18.6229 0.0000
# 4 0.0000 0.0000 0.0000 47.2488 0.0000 -9.3583
# 5 -15.3980 -22.5252 -18.6229 0.0000 42.9619 0.0000
# 6 0.0000 0.0000 0.0000 -9.3583 0.0000 31.8771
#
#
#
# Elastic Compliance Matrix: (Units=1/GPa)
#
#
# Indices 1 2 3 4 5 6 
#
# 1 0.014471 -0.002613 -0.003039 0.000000 0.002499 0.000000
# 2 -0.002613 0.010876 -0.001628 0.000000 0.004060 0.000000
# 3 -0.003039 -0.001628 0.009612 0.000000 0.002224 0.000000
# 4 0.000000 0.000000 0.000000 0.022471 0.000000 0.006597
# 5 0.002499 0.004060 0.002224 0.000000 0.027265 0.000000
# 6 0.000000 0.000000 0.000000 0.006597 0.000000 0.033307
#
#
# Mechanical properties :
#
#
# Convention : Reuss Voigt Hill
#
# Bulk Modulus (GPa) = 49.02447 58.52436 53.77442
# Shear Modulus (GPa) = 35.87817 39.21063 37.54440
#
# Velocity S-wave (km/s) = 3.98890 4.17003 4.08047
# Velocity P-wave (km/s) = 6.55412 7.00999 6.78589
#
# Compressibility (1/GPa) = 0.02039798
#
# Stress axis : x y z
#
# Youngs Moduli (GPa) = 69.10536 91.94921 104.03867
#
# Poissons Ratio (x) = 0.24029 0.31615
# Poissons Ratio (y) = 0.18059 0.16937
# Poissons Ratio (z) = 0.21000 0.14969
#
# Static dielectric constant tensor:
#      x y z
#    x 4.231740 0.000000 -0.274950 
#    y 0.000000 3.772050 0.000000 
#    z -0.274950 0.000000 5.794470 
# 
# 
# High freq. dielectric constant tensor:
#      x y z
#    x 1.893820 0.000000 0.003490 
#    y 0.000000 1.855650 0.000000 
#    z 0.003490 0.000000 1.916540 
# 
# From -- ./inp_files/216674.got.cif
#   From: 2010.06.25/outbox.cif.g09.slc.cpg/sg15_109_cif.got.tgz:216674.got - 2010.06.28 07:06:18.
