data_PCOD8146743
_publ_section_title
;
Structure prediction by ZEFSAII (Michael W. Deem and Ramdas Pophale) SiO2 
 PCOD8146743
Probable space group: C 2/C
;
_chemical_formula_sum "Si O2"
_cell_formula_units_Z 60
_cell_length_a 22.329330
_cell_length_b 8.840014
_cell_length_c 18.448451
_cell_angle_alpha 90.000000
_cell_angle_beta 123.497170
_cell_angle_gamma 90.000000
_cell_volume 3036.752091
_symmetry_space_group_name_H-M "C 2/C"
_symmetry_group_IT_number 15
_symmetry_cell_setting 'monoclinic'
loop_
_space_group_symop_operation_xyz
x,y,z
-x,y,1/2-z
-x,-y,-z
x,-y,1/2+z
1/2+x,1/2+y,z
1/2-x,1/2+y,1/2-z
1/2-x,1/2-y,-z
1/2+x,1/2-y,1/2+z
loop_
_atom_site_type_symbol
_atom_site_label
_atom_site_fract_x
_atom_site_fract_y
_atom_site_fract_z
Si Si1 0.244826 0.336058 0.319914
Si Si2 0.399386 0.584001 0.956127
Si Si3 0.915392 0.581931 0.527846
Si Si4 0.822447 0.462068 0.839298
Si Si5 0.453481 0.086631 0.331307
Si Si6 0.500000 0.623403 0.250000
Si Si7 0.889291 0.618088 0.669843
Si Si8 0.495441 0.413549 0.382283
O O1 0.313796 0.431971 0.391648
O O2 0.215159 0.395197 0.223076
O O3 0.262825 0.160472 0.321507
O O4 0.186668 0.354691 0.343734
O O5 0.432837 0.563123 0.899031
O O6 0.420656 0.746482 0.003267
O O7 0.428230 0.452356 0.028733
O O8 0.866390 0.484264 0.439746
O O9 0.876948 0.561331 0.579906
O O10 0.997033 0.522401 0.586267
O O11 0.878420 0.383051 0.821600
O O12 0.495405 0.244395 0.349552
O O13 0.437770 0.005523 0.244328
O O14 0.569852 0.723838 0.309969
O O15 0.481003 0.524808 0.306741
#
# Coordination Sequence:
#
# PCOD8146743 Si02
#       8
#     8   8   8   8   8   4   8   8
#     4  10  23  41  61  91 124 168 203 257 308 376
#     4  10  22  42  63  93 126 159 210 256 316 368
#     4  11  20  41  62  93 117 165 213 248 307 368
#     4  10  23  38  63  89 120 162 208 253 309 365
#     4  11  21  39  64  93 123 161 209 260 297 365
#     4  12  24  40  60 100 122 168 202 252 332 354
#     4  11  23  40  65  87 131 167 209 248 305 386
#     4  11  23  38  64  95 127 157 203 268 304 366
#
# _framework density 19.757950999999998
#
# number of rings (size 3 to 8) (size 9 to 14) (size 15 to 20)
#    0.000    1.333    5.333    0.400    3.733    3.200 
#    0.000    0.000    0.000    2.400    0.000    0.000 
#    0.000    0.000    0.000    0.000    0.000    0.000 
#
# Total GULP energy -372007.755016 kJ/mol
# GULP energy per Si atom -12400.258501 kJ/mol
# Density = 1.971298 g / cm^3
# Si number density = 19.757951 Si / 1000 Ang^3
#
#
#
# Elastic Constant Matrix: (Units=GPa)
#
#
# Indices 1 2 3 4 5 6 
#
# 1 93.2158 27.6016 28.5465 0.0000 9.0974 0.0000
# 2 27.6016 66.0713 28.9639 0.0000 -2.7026 0.0000
# 3 28.5465 28.9639 96.9843 0.0000 -5.8800 0.0000
# 4 0.0000 0.0000 0.0000 28.6695 0.0000 -5.4242
# 5 9.0974 -2.7026 -5.8800 0.0000 33.4036 0.0000
# 6 0.0000 0.0000 0.0000 -5.4242 0.0000 25.2018
#
#
#
# Elastic Compliance Matrix: (Units=1/GPa)
#
#
# Indices 1 2 3 4 5 6 
#
# 1 0.013384 -0.004521 -0.002863 0.000000 -0.004515 0.000000
# 2 -0.004521 0.018950 -0.004206 0.000000 0.002024 0.000000
# 3 -0.002863 -0.004206 0.012571 0.000000 0.002652 0.000000
# 4 0.000000 0.000000 0.000000 0.036361 0.000000 0.007826
# 5 -0.004515 0.002024 0.002652 0.000000 0.031797 0.000000
# 6 0.000000 0.000000 0.000000 0.007826 0.000000 0.041364
#
#
# Mechanical properties :
#
#
# Convention : Reuss Voigt Hill
#
# Bulk Modulus (GPa) = 46.02988 47.38840 46.70914
# Shear Modulus (GPa) = 27.04919 28.86559 27.95739
#
# Velocity S-wave (km/s) = 3.70405 3.82640 3.76572
# Velocity P-wave (km/s) = 6.45297 6.59987 6.52683
#
# Compressibility (1/GPa) = 0.02172502
#
# Stress axis : x y z
#
# Youngs Moduli (GPa) = 74.71720 52.76947 79.55072
#
# Poissons Ratio (x) = 0.23856 0.22776
# Poissons Ratio (y) = 0.33778 0.33460
# Poissons Ratio (z) = 0.21392 0.22195
#
# Static dielectric constant tensor:
#      x y z
#    x 3.538170 0.000000 -0.005070 
#    y 0.000000 3.519000 0.000000 
#    z -0.005070 0.000000 3.922290 
# 
# 
# High freq. dielectric constant tensor:
#      x y z
#    x 1.767420 0.000000 -0.005030 
#    y 0.000000 1.757560 0.000000 
#    z -0.005030 0.000000 1.784850 
# 
# From -- ./inp_files/218620.got.cif
#   From: 2010.06.25/outbox.cif.g09.slc.cpg/sg15_110_cif.got.tgz:218620.got - 2010.06.28 07:06:18.
