data_PCOD8146609
_publ_section_title
;
Structure prediction by ZEFSAII (Michael W. Deem and Ramdas Pophale) SiO2 
 PCOD8146609
Probable space group: C 2/C
;
_chemical_formula_sum "Si O2"
_cell_formula_units_Z 40
_cell_length_a 16.861717
_cell_length_b 10.060948
_cell_length_c 10.538492
_cell_angle_alpha 90.000000
_cell_angle_beta 83.808209
_cell_angle_gamma 90.000000
_cell_volume 1777.371711
_symmetry_space_group_name_H-M "C 2/C"
_symmetry_group_IT_number 15
_symmetry_cell_setting 'monoclinic'
loop_
_space_group_symop_operation_xyz
x,y,z
-x,y,1/2-z
-x,-y,-z
x,-y,1/2+z
1/2+x,1/2+y,z
1/2-x,1/2+y,1/2-z
1/2-x,1/2-y,-z
1/2+x,1/2-y,1/2+z
loop_
_atom_site_type_symbol
_atom_site_label
_atom_site_fract_x
_atom_site_fract_y
_atom_site_fract_z
Si Si1 0.213090 0.984100 0.682145
Si Si2 0.992988 0.343032 0.887341
Si Si3 0.955603 0.042689 0.880985
Si Si4 0.629244 0.956830 0.998439
Si Si5 0.228945 0.303859 0.146223
O O1 0.136272 0.996513 0.604497
O O2 0.292776 0.010382 0.587577
O O3 0.208379 0.095549 0.795283
O O4 0.214736 0.829539 0.732925
O O5 0.081899 0.339709 0.932246
O O6 0.000000 0.414949 0.750000
O O7 0.956286 0.199851 0.873586
O O8 0.930423 0.420205 0.985380
O O9 0.000000 0.981011 0.750000
O O10 0.000000 0.000000 0.000000
O O11 0.651445 0.896578 0.133545
O O12 0.250000 0.250000 0.000000
#
# Coordination Sequence:
#
# PCOD8146609 Si02
#       5
#     8   8   8   8   8
#     4  11  25  42  72 100 140 188 240 299 361 429
#     4  10  22  41  69  97 137 181 232 290 370 424
#     4  11  27  44  69 101 146 190 238 297 371 432
#     4  10  22  41  69  99 138 176 241 293 354 434
#     4  10  24  42  68  98 142 181 238 297 363 427
#
# _framework density 22.505139
#
# number of rings (size 3 to 8) (size 9 to 14) (size 15 to 20)
#    0.000    1.600    0.000    2.400   19.600    2.400 
#    0.000    5.000    0.000    0.000    0.000    0.000 
#    0.000    0.000    0.000    0.000    0.000    0.000 
#
# Total GULP energy -247799.028130 kJ/mol
# GULP energy per Si atom -12389.951406 kJ/mol
# Density = 2.245392 g / cm^3
# Si number density = 22.505139 Si / 1000 Ang^3
#
#
#
# Elastic Constant Matrix: (Units=GPa)
#
#
# Indices 1 2 3 4 5 6 
#
# 1 153.5943 33.9813 48.5265 0.0000 14.6223 0.0000
# 2 33.9813 116.5338 43.2312 0.0000 10.9244 0.0000
# 3 48.5265 43.2312 109.2922 0.0000 22.0653 0.0000
# 4 0.0000 0.0000 0.0000 42.4371 0.0000 11.7373
# 5 14.6223 10.9244 22.0653 0.0000 45.2441 0.0000
# 6 0.0000 0.0000 0.0000 11.7373 0.0000 27.4970
#
#
#
# Elastic Compliance Matrix: (Units=1/GPa)
#
#
# Indices 1 2 3 4 5 6 
#
# 1 0.007731 -0.001131 -0.002813 0.000000 -0.000854 0.000000
# 2 -0.001131 0.010234 -0.003462 0.000000 -0.000417 0.000000
# 3 -0.002813 -0.003462 0.012663 0.000000 -0.004430 0.000000
# 4 0.000000 0.000000 0.000000 0.026719 0.000000 -0.011405
# 5 -0.000854 -0.000417 -0.004430 0.000000 0.024640 0.000000
# 6 0.000000 0.000000 0.000000 -0.011405 0.000000 0.041236
#
#
# Mechanical properties :
#
#
# Convention : Reuss Voigt Hill
#
# Bulk Modulus (GPa) = 63.22497 70.09984 66.66241
# Shear Modulus (GPa) = 34.89047 39.94771 37.41909
#
# Velocity S-wave (km/s) = 3.94170 4.21770 4.08203
# Velocity P-wave (km/s) = 6.99075 7.41179 7.20435
#
# Compressibility (1/GPa) = 0.01581653
#
# Stress axis : x y z
#
# Youngs Moduli (GPa) = 129.35264 97.71022 78.97262
#
# Poissons Ratio (x) = 0.11049 0.22214
# Poissons Ratio (y) = 0.14627 0.27340
# Poissons Ratio (z) = 0.36386 0.33827
#
# Static dielectric constant tensor:
#      x y z
#    x 4.164990 0.000000 0.166740 
#    y 0.000000 4.445260 0.000000 
#    z 0.166740 0.000000 4.501100 
# 
# 
# High freq. dielectric constant tensor:
#      x y z
#    x 1.893190 0.000000 0.024330 
#    y 0.000000 1.893230 0.000000 
#    z 0.024330 0.000000 1.876260 
# 
# From -- ./inp_files/46271.got.cif
#   From: 2010.06.25/outbox.cif.g09.slc.cpg/sg15_24_cif.got.tgz:46271.got - 2010.06.28 07:06:18.
