data_PCOD8146288
_publ_section_title
;
Structure prediction by ZEFSAII (Michael W. Deem and Ramdas Pophale) SiO2 
 PCOD8146288
Probable space group: C 2/C
;
_chemical_formula_sum "Si O2"
_cell_formula_units_Z 52
_cell_length_a 11.757635
_cell_length_b 22.566194
_cell_length_c 13.425188
_cell_angle_alpha 90.000000
_cell_angle_beta 49.400464
_cell_angle_gamma 90.000000
_cell_volume 2704.572764
_symmetry_space_group_name_H-M "C 2/C"
_symmetry_group_IT_number 15
_symmetry_cell_setting 'monoclinic'
loop_
_space_group_symop_operation_xyz
x,y,z
-x,y,1/2-z
-x,-y,-z
x,-y,1/2+z
1/2+x,1/2+y,z
1/2-x,1/2+y,1/2-z
1/2-x,1/2-y,-z
1/2+x,1/2-y,1/2+z
loop_
_atom_site_type_symbol
_atom_site_label
_atom_site_fract_x
_atom_site_fract_y
_atom_site_fract_z
Si Si1 0.190387 0.077855 0.533700
Si Si2 0.603166 0.290003 0.102097
Si Si3 0.943570 0.270744 0.534705
Si Si4 0.609232 0.713004 0.272967
Si Si5 0.500000 0.515945 0.250000
Si Si6 0.007469 0.382101 0.858170
Si Si7 0.667556 0.410893 0.822570
O O1 0.144568 0.142278 0.600623
O O2 0.368954 0.072840 0.444473
O O3 0.129026 0.068458 0.456341
O O4 0.130624 0.025275 0.635021
O O5 0.500000 0.264926 0.250000
O O6 0.499712 0.286436 0.063470
O O7 0.750000 0.250000 0.000000
O O8 0.763470 0.266225 0.632602
O O9 0.003087 0.329683 0.555178
O O10 0.023573 0.266298 0.380551
O O11 0.500000 0.689133 0.250000
O O12 0.642275 0.659588 0.329670
O O13 0.432961 0.555392 0.200004
O O14 0.155165 0.421245 0.795493
O O15 0.000000 0.354721 0.750000
#
# Coordination Sequence:
#
# PCOD8146288 Si02
#       7
#     8   8   8   8   4   8   8
#     4  11  22  38  61  90 115 149 196 244 298 349
#     4  12  22  34  58  95 128 147 180 238 307 369
#     4  11  21  34  60  87 123 156 188 240 296 363
#     4  11  22  38  57  84 119 166 201 236 288 356
#     4  12  24  40  62  80 118 154 202 250 282 338
#     4   9  20  38  61  89 119 150 190 238 302 363
#     4  10  22  41  59  82 112 160 201 239 291 344
#
# _framework density 19.226696
#
# number of rings (size 3 to 8) (size 9 to 14) (size 15 to 20)
#    0.000    1.231    4.615    2.308    2.154    0.615 
#    0.000    0.000    0.000    0.000    0.000    0.000 
#    0.000    0.000    0.000    0.000    0.000    0.000 
#
# Total GULP energy -322278.399487 kJ/mol
# GULP energy per Si atom -12395.323057 kJ/mol
# Density = 1.918293 g / cm^3
# Si number density = 19.226696 Si / 1000 Ang^3
#
#
#
# Elastic Constant Matrix: (Units=GPa)
#
#
# Indices 1 2 3 4 5 6 
#
# 1 112.6645 18.6131 40.0995 0.0000 -18.1943 0.0000
# 2 18.6131 63.8547 29.4862 0.0000 -11.9266 0.0000
# 3 40.0995 29.4862 114.6047 0.0000 -17.5353 0.0000
# 4 0.0000 0.0000 0.0000 26.7884 0.0000 1.1236
# 5 -18.1943 -11.9266 -17.5353 0.0000 29.9958 0.0000
# 6 0.0000 0.0000 0.0000 1.1236 0.0000 21.2636
#
#
#
# Elastic Compliance Matrix: (Units=1/GPa)
#
#
# Indices 1 2 3 4 5 6 
#
# 1 0.010771 -0.000997 -0.002826 0.000000 0.004485 0.000000
# 2 -0.000997 0.018524 -0.003715 0.000000 0.004589 0.000000
# 3 -0.002826 -0.003715 0.011182 0.000000 0.003346 0.000000
# 4 0.000000 0.000000 0.000000 0.037412 0.000000 -0.001977
# 5 0.004485 0.004589 0.003346 0.000000 0.039839 0.000000
# 6 0.000000 0.000000 0.000000 -0.001977 0.000000 0.047133
#
#
# Mechanical properties :
#
#
# Convention : Reuss Voigt Hill
#
# Bulk Modulus (GPa) = 39.36879 51.94682 45.65781
# Shear Modulus (GPa) = 26.53878 29.13789 27.83833
#
# Velocity S-wave (km/s) = 3.71928 3.89715 3.80926
# Velocity P-wave (km/s) = 6.24217 6.87947 6.56855
#
# Compressibility (1/GPa) = 0.02540083
#
# Stress axis : x y z
#
# Youngs Moduli (GPa) = 92.84500 53.98489 89.42828
#
# Poissons Ratio (x) = 0.05382 0.25271
# Poissons Ratio (y) = 0.09257 0.33222
# Poissons Ratio (z) = 0.26237 0.20055
#
# Static dielectric constant tensor:
#      x y z
#    x 3.680970 0.000000 -0.153760 
#    y 0.000000 3.168120 0.000000 
#    z -0.153760 0.000000 3.651430 
# 
# 
# High freq. dielectric constant tensor:
#      x y z
#    x 1.761490 0.000000 -0.007810 
#    y 0.000000 1.714740 0.000000 
#    z -0.007810 0.000000 1.752860 
# 
# From -- ./inp_files/89495.got.cif
#   From: 2010.06.25/outbox.cif.g09.slc.cpg/sg15_45_cif.got.tgz:89495.got - 2010.06.28 07:06:18.
