data_PCOD8146341
_publ_section_title
;
Structure prediction by ZEFSAII (Michael W. Deem and Ramdas Pophale) SiO2 
 PCOD8146341
Probable space group: C 2/C
;
_chemical_formula_sum "Si O2"
_cell_formula_units_Z 64
_cell_length_a 11.160149
_cell_length_b 8.904232
_cell_length_c 29.322420
_cell_angle_alpha 90.000000
_cell_angle_beta 87.200988
_cell_angle_gamma 90.000000
_cell_volume 2910.367544
_symmetry_space_group_name_H-M "C 2/C"
_symmetry_group_IT_number 15
_symmetry_cell_setting 'monoclinic'
loop_
_space_group_symop_operation_xyz
x,y,z
-x,y,1/2-z
-x,-y,-z
x,-y,1/2+z
1/2+x,1/2+y,z
1/2-x,1/2+y,1/2-z
1/2-x,1/2-y,-z
1/2+x,1/2-y,1/2+z
loop_
_atom_site_type_symbol
_atom_site_label
_atom_site_fract_x
_atom_site_fract_y
_atom_site_fract_z
Si Si1 0.406645 0.759177 0.388097
Si Si2 0.849156 0.748300 0.082270
Si Si3 0.073123 0.508980 0.357787
Si Si4 0.892903 0.184334 0.488189
Si Si5 0.596710 0.518208 0.365274
Si Si6 0.013143 0.777060 0.303039
Si Si7 0.218324 0.779127 0.131362
Si Si8 0.149709 0.843869 0.029349
O O1 0.265939 0.738726 0.381575
O O2 0.423612 0.778104 0.442455
O O3 0.475362 0.614319 0.368143
O O4 0.454206 0.906972 0.361769
O O5 0.934752 0.613666 0.096748
O O6 0.908837 0.911875 0.089716
O O7 0.807828 0.736330 0.029482
O O8 0.072302 0.614698 0.313016
O O9 0.190920 0.409310 0.356162
O O10 0.016187 0.194526 0.515279
O O11 0.836951 0.022371 0.477799
O O12 0.596132 0.413274 0.320224
O O13 0.714805 0.619523 0.366023
O O14 0.000000 0.798070 0.250000
O O15 0.885425 0.782700 0.329820
O O16 0.166094 0.804182 0.082097
O O17 0.250000 0.750000 0.000000
#
# Coordination Sequence:
#
# PCOD8146341 Si02
#       8
#     8   8   8   8   8   8   8   8
#     4  11  22  39  59  85 124 165 203 251 302 353
#     4  11  21  36  58  85 122 163 205 254 296 348
#     4  10  23  40  61  88 118 158 203 244 305 374
#     4  11  22  33  53  89 124 163 219 255 289 354
#     4  10  22  41  63  87 116 157 203 243 305 375
#     4  11  24  43  67  93 120 151 195 255 315 372
#     4  11  22  41  64  87 124 164 199 250 305 357
#     4  11  21  36  60  89 126 170 210 254 300 347
#
# _framework density 21.990348999999998
#
# number of rings (size 3 to 8) (size 9 to 14) (size 15 to 20)
#    0.000    1.250    0.000    8.625    0.000    2.500 
#    0.000    2.500    0.000    0.000    0.000    0.000 
#    0.000    0.000    0.000    0.000    0.000    0.000 
#
# Total GULP energy -396712.249954 kJ/mol
# GULP energy per Si atom -12397.257811 kJ/mol
# Density = 2.194030 g / cm^3
# Si number density = 21.990349 Si / 1000 Ang^3
#
#
#
# Elastic Constant Matrix: (Units=GPa)
#
#
# Indices 1 2 3 4 5 6 
#
# 1 68.2584 40.6941 23.7539 0.0000 -4.5270 0.0000
# 2 40.6941 128.6667 38.8588 0.0000 6.5550 0.0000
# 3 23.7539 38.8588 147.5092 0.0000 8.4585 0.0000
# 4 0.0000 0.0000 0.0000 21.2170 0.0000 3.5547
# 5 -4.5270 6.5550 8.4585 0.0000 28.9797 0.0000
# 6 0.0000 0.0000 0.0000 3.5547 0.0000 29.7632
#
#
#
# Elastic Compliance Matrix: (Units=1/GPa)
#
#
# Indices 1 2 3 4 5 6 
#
# 1 0.019005 -0.005701 -0.001833 0.000000 0.004794 0.000000
# 2 -0.005701 0.010201 -0.001613 0.000000 -0.002727 0.000000
# 3 -0.001833 -0.001613 0.007622 0.000000 -0.002146 0.000000
# 4 0.000000 0.000000 0.000000 0.048094 0.000000 -0.005744
# 5 0.004794 -0.002727 -0.002146 0.000000 0.036499 0.000000
# 6 0.000000 0.000000 0.000000 -0.005744 0.000000 0.034285
#
#
# Mechanical properties :
#
#
# Convention : Reuss Voigt Hill
#
# Bulk Modulus (GPa) = 53.95600 61.22755 57.59177
# Shear Modulus (GPa) = 27.75003 32.06717 29.90860
#
# Velocity S-wave (km/s) = 3.55620 3.82283 3.69192
# Velocity P-wave (km/s) = 6.43829 6.88395 6.66485
#
# Compressibility (1/GPa) = 0.01853362
#
# Stress axis : x y z
#
# Youngs Moduli (GPa) = 52.61716 98.02699 131.19169
#
# Poissons Ratio (x) = 0.55889 0.24053
# Poissons Ratio (y) = 0.29999 0.21159
# Poissons Ratio (z) = 0.09647 0.15810
#
# Static dielectric constant tensor:
#      x y z
#    x 4.341610 0.000000 0.055750 
#    y 0.000000 4.311430 0.000000 
#    z 0.055750 0.000000 3.720270 
# 
# 
# High freq. dielectric constant tensor:
#      x y z
#    x 1.893430 0.000000 0.008260 
#    y 0.000000 1.879470 0.000000 
#    z 0.008260 0.000000 1.831820 
# 
# From -- ./inp_files/310309.got.cif
#   From: 2010.06.25/outbox.cif.g09.slc.cpg/sg15_156_cif.got.tgz:310309.got - 2010.06.28 07:06:18.
