data_PCOD8146914
_publ_section_title
;
Structure prediction by ZEFSAII (Michael W. Deem and Ramdas Pophale) SiO2 
 PCOD8146914
Probable space group: C 2/C
;
_chemical_formula_sum "Si O2"
_cell_formula_units_Z 48
_cell_length_a 22.511734
_cell_length_b 12.371058
_cell_length_c 22.528119
_cell_angle_alpha 90.000000
_cell_angle_beta 160.909005
_cell_angle_gamma 90.000000
_cell_volume 2052.015378
_symmetry_space_group_name_H-M "C 2/C"
_symmetry_group_IT_number 15
_symmetry_cell_setting 'monoclinic'
loop_
_space_group_symop_operation_xyz
x,y,z
-x,y,1/2-z
-x,-y,-z
x,-y,1/2+z
1/2+x,1/2+y,z
1/2-x,1/2+y,1/2-z
1/2-x,1/2-y,-z
1/2+x,1/2-y,1/2+z
loop_
_atom_site_type_symbol
_atom_site_label
_atom_site_fract_x
_atom_site_fract_y
_atom_site_fract_z
Si Si1 0.223990 0.295114 0.338043
Si Si2 0.177659 0.418454 0.098645
Si Si3 0.502971 0.615037 0.318431
Si Si4 0.530929 0.377645 0.376482
Si Si5 0.953645 0.357797 0.772227
Si Si6 0.544191 0.141987 0.004326
O O1 0.304838 0.362742 0.468648
O O2 0.150247 0.179555 0.290993
O O3 0.361746 0.258230 0.416179
O O4 0.083452 0.375074 0.174209
O O5 0.088614 0.408812 0.948700
O O6 0.061453 0.343970 0.033469
O O7 0.388417 0.378579 0.297499
O O8 0.175458 0.538137 0.125692
O O9 0.500000 0.663198 0.250000
O O10 0.469983 0.486523 0.284276
O O11 0.744640 0.380598 0.594778
O O12 0.488157 0.270775 0.298498
O O13 0.000000 0.405965 0.750000
#
# Coordination Sequence:
#
# PCOD8146914 Si02
#       6
#     8   8   8   8   8   8
#     4  10  22  42  66  96 127 172 226 273 332 393
#     4  11  25  46  66  97 136 179 224 273 338 391
#     4  11  23  41  67  96 132 171 217 275 335 392
#     4  12  25  43  67 102 134 178 221 269 339 399
#     4  12  27  43  69 101 137 176 225 274 334 406
#     4  10  23  44  65  95 135 174 223 281 324 400
#
# _framework density 23.391636999999999
#
# number of rings (size 3 to 8) (size 9 to 14) (size 15 to 20)
#    0.000    1.000    3.333    2.500    4.667    0.000 
#    3.000    4.167    0.000    0.000    0.000    0.000 
#    0.000    0.000    0.000    0.000    0.000    0.000 
#
# Total GULP energy -297375.894474 kJ/mol
# GULP energy per Si atom -12390.662270 kJ/mol
# Density = 2.333840 g / cm^3
# Si number density = 23.391637 Si / 1000 Ang^3
#
#
#
# Elastic Constant Matrix: (Units=GPa)
#
#
# Indices 1 2 3 4 5 6 
#
# 1 85.1885 12.6419 38.1652 0.0424 9.8419 0.0118
# 2 12.6419 71.2602 4.5876 -0.1332 3.1021 -0.0625
# 3 38.1652 4.5876 73.6670 -0.1719 19.2133 -0.0722
# 4 0.0424 -0.1332 -0.1719 28.8823 -0.0495 2.2743
# 5 9.8419 3.1021 19.2133 -0.0495 37.3443 -0.0126
# 6 0.0118 -0.0625 -0.0722 2.2743 -0.0126 11.8644
#
#
#
# Elastic Compliance Matrix: (Units=1/GPa)
#
#
# Indices 1 2 3 4 5 6 
#
# 1 0.015643 -0.002268 -0.008012 -0.000076 0.000188 -0.000062
# 2 -0.002268 0.014441 0.000500 0.000066 -0.000859 0.000068
# 3 -0.008012 0.000500 0.019814 0.000110 -0.008124 0.000101
# 4 -0.000076 0.000066 0.000110 0.035155 0.000002 -0.006738
# 5 0.000188 -0.000859 -0.008124 0.000002 0.030979 -0.000022
# 6 -0.000062 0.000068 0.000101 -0.006738 -0.000022 0.085578
#
#
# Mechanical properties :
#
#
# Convention : Reuss Voigt Hill
#
# Bulk Modulus (GPa) = 32.96309 37.87836 35.42073
# Shear Modulus (GPa) = 21.61856 27.26628 24.44242
#
# Velocity S-wave (km/s) = 3.04336 3.41785 3.23603
# Velocity P-wave (km/s) = 5.14508 5.63950 5.39795
#
# Compressibility (1/GPa) = 0.03033696
#
# Stress axis : x y z
#
# Youngs Moduli (GPa) = 63.92569 69.24835 50.47033
#
# Poissons Ratio (x) = 0.15704 0.40439
# Poissons Ratio (y) = 0.14497 -0.02523
# Poissons Ratio (z) = 0.51220 -0.03461
#
# Static dielectric constant tensor:
#      x y z
#    x 4.283350 -0.000020 0.316410 
#    y -0.000020 4.003110 0.000000 
#    z 0.316410 0.000000 4.150200 
# 
# 
# High freq. dielectric constant tensor:
#      x y z
#    x 1.929880 0.000000 0.015230 
#    y 0.000000 1.923710 0.000000 
#    z 0.015230 0.000000 1.912800 
# 
# From -- ./inp_files/255736.got.cif
#   From: 2010.06.25/outbox.cif.g09.slc.cpg/sg15_128_cif.got.tgz:255736.got - 2010.06.28 07:06:18.
