data_PCOD8146648
_publ_section_title
;
Structure prediction by ZEFSAII (Michael W. Deem and Ramdas Pophale) SiO2 
 PCOD8146648
Probable space group: C 2/C
;
_chemical_formula_sum "Si O2"
_cell_formula_units_Z 52
_cell_length_a 15.135918
_cell_length_b 11.067367
_cell_length_c 24.489514
_cell_angle_alpha 90.000000
_cell_angle_beta 145.612242
_cell_angle_gamma 90.000000
_cell_volume 2316.971954
_symmetry_space_group_name_H-M "C 2/C"
_symmetry_group_IT_number 15
_symmetry_cell_setting 'monoclinic'
loop_
_space_group_symop_operation_xyz
x,y,z
-x,y,1/2-z
-x,-y,-z
x,-y,1/2+z
1/2+x,1/2+y,z
1/2-x,1/2+y,1/2-z
1/2-x,1/2-y,-z
1/2+x,1/2-y,1/2+z
loop_
_atom_site_type_symbol
_atom_site_label
_atom_site_fract_x
_atom_site_fract_y
_atom_site_fract_z
Si Si1 0.949576 0.401346 0.123702
Si Si2 0.576883 0.758362 0.971593
Si Si3 0.148547 0.685790 0.623539
Si Si4 0.675217 0.560017 0.946331
Si Si5 0.636301 0.530573 0.258450
Si Si6 0.338093 0.119103 0.273212
Si Si7 0.000000 0.236170 0.250000
O O1 0.926458 0.315566 0.163866
O O2 0.038761 0.331328 0.120406
O O3 0.049202 0.517490 0.194967
O O4 0.779743 0.444242 0.016131
O O5 0.546113 0.765571 0.020809
O O6 0.728725 0.838201 0.036259
O O7 0.603999 0.621029 0.964975
O O8 0.424017 0.811769 0.865883
O O9 0.235788 0.561514 0.651825
O O10 0.285517 0.784483 0.701711
O O11 0.540165 0.520691 0.835065
O O12 0.683922 0.558839 0.220327
O O13 0.637581 0.650979 0.296197
#
# Coordination Sequence:
#
# PCOD8146648 Si02
#       7
#     8   8   8   8   8   8   4
#     4  10  25  42  64  93 143 168 224 266 343 382
#     4  10  22  41  72  96 135 165 229 278 330 382
#     4  11  22  45  69  99 125 185 219 273 325 406
#     4  10  22  44  63 106 128 173 218 287 323 394
#     4  11  23  41  69  93 139 171 224 261 337 396
#     4  10  22  45  65  97 131 175 222 272 321 409
#     4  12  24  42  60 102 130 184 204 288 324 398
#
# _framework density 22.443083999999999
#
# number of rings (size 3 to 8) (size 9 to 14) (size 15 to 20)
#    0.000    1.538    3.077    0.923    2.154    7.385 
#    2.769    0.769    0.000    0.000    0.000    0.000 
#    0.000    0.000    0.000    0.000    0.000    0.000 
#
# Total GULP energy -322418.241591 kJ/mol
# GULP energy per Si atom -12400.701600 kJ/mol
# Density = 2.239200 g / cm^3
# Si number density = 22.443084 Si / 1000 Ang^3
#
#
#
# Elastic Constant Matrix: (Units=GPa)
#
#
# Indices 1 2 3 4 5 6 
#
# 1 60.9764 23.4095 17.5922 0.0000 -10.6133 0.0000
# 2 23.4095 80.3429 24.0049 0.0000 -17.2448 0.0000
# 3 17.5922 24.0049 83.9480 0.0001 -15.1084 0.0000
# 4 0.0000 0.0000 0.0001 30.8166 0.0000 -8.3674
# 5 -10.6133 -17.2448 -15.1084 0.0000 36.7691 0.0000
# 6 0.0000 0.0000 0.0000 -8.3674 0.0000 38.1881
#
#
#
# Elastic Compliance Matrix: (Units=1/GPa)
#
#
# Indices 1 2 3 4 5 6 
#
# 1 0.019181 -0.004350 -0.002318 0.000000 0.002544 0.000000
# 2 -0.004350 0.015570 -0.002648 0.000000 0.004958 0.000000
# 3 -0.002318 -0.002648 0.013834 0.000000 0.003773 0.000000
# 4 0.000000 0.000000 0.000000 0.034503 0.000000 0.007560
# 5 0.002544 0.004958 0.003773 0.000000 0.031807 0.000000
# 6 0.000000 0.000000 0.000000 0.007560 0.000000 0.027843
#
#
# Mechanical properties :
#
#
# Convention : Reuss Voigt Hill
#
# Bulk Modulus (GPa) = 33.38592 39.47562 36.43077
# Shear Modulus (GPa) = 29.17927 31.83881 30.50904
#
# Velocity S-wave (km/s) = 3.60966 3.77058 3.69100
# Velocity P-wave (km/s) = 5.68164 6.04845 5.86791
#
# Compressibility (1/GPa) = 0.02995275
#
# Stress axis : x y z
#
# Youngs Moduli (GPa) = 52.13374 64.22738 72.28452
#
# Poissons Ratio (x) = 0.27941 0.16755
# Poissons Ratio (y) = 0.22680 0.19142
# Poissons Ratio (z) = 0.12084 0.17008
#
# Static dielectric constant tensor:
#      x y z
#    x 3.969580 0.000000 0.026250 
#    y 0.000000 4.259430 0.000000 
#    z 0.026250 0.000000 3.761370 
# 
# 
# High freq. dielectric constant tensor:
#      x y z
#    x 1.877130 0.000000 0.003390 
#    y 0.000000 1.890190 0.000000 
#    z 0.003390 0.000000 1.873240 
# 
# From -- ./inp_files/273885.got.cif
#   From: 2010.06.25/outbox.cif.g09.slc.cpg/sg15_137_cif.got.tgz:273885.got - 2010.06.28 07:06:18.
