data_PCOD8146462
_publ_section_title
;
Structure prediction by ZEFSAII (Michael W. Deem and Ramdas Pophale) SiO2 
 PCOD8146462
Probable space group: C 2/C
;
_chemical_formula_sum "Si O2"
_cell_formula_units_Z 44
_cell_length_a 13.099556
_cell_length_b 19.543484
_cell_length_c 8.629545
_cell_angle_alpha 90.000000
_cell_angle_beta 108.034359
_cell_angle_gamma 90.000000
_cell_volume 2100.719561
_symmetry_space_group_name_H-M "C 2/C"
_symmetry_group_IT_number 15
_symmetry_cell_setting 'monoclinic'
loop_
_space_group_symop_operation_xyz
x,y,z
-x,y,1/2-z
-x,-y,-z
x,-y,1/2+z
1/2+x,1/2+y,z
1/2-x,1/2+y,1/2-z
1/2-x,1/2-y,-z
1/2+x,1/2-y,1/2+z
loop_
_atom_site_type_symbol
_atom_site_label
_atom_site_fract_x
_atom_site_fract_y
_atom_site_fract_z
Si Si1 0.164681 0.830122 0.101074
Si Si2 0.022143 0.074271 0.079356
Si Si3 0.307735 0.068280 0.839928
Si Si4 0.500000 0.879164 0.250000
Si Si5 0.736557 0.929096 0.831695
Si Si6 0.338725 0.822410 0.933308
O O1 0.238349 0.864800 0.266625
O O2 0.145833 0.751312 0.139955
O O3 0.223489 0.830664 0.962130
O O4 0.052937 0.869750 0.037446
O O5 0.142579 0.099466 0.097012
O O6 0.000000 0.071845 0.250000
O O7 0.000000 0.000000 0.000000
O O8 0.424828 0.072213 0.817846
O O9 0.249351 0.001615 0.746318
O O10 0.319138 0.061468 0.028815
O O11 0.567079 0.831264 0.397104
O O12 0.658138 0.879388 0.698840
#
# Coordination Sequence:
#
# PCOD8146462 Si02
#       6
#     8   8   8   4   8   8
#     4  10  22  41  65  96 135 170 218 265 331 395
#     4  12  23  38  67  99 129 174 210 266 328 394
#     4  11  24  42  66  95 128 170 220 279 326 394
#     4  10  24  44  68  90 124 176 226 270 334 392
#     4  12  24  41  66  97 131 166 220 276 331 392
#     4  10  23  42  65  95 130 176 220 269 327 395
#
# _framework density 20.945205000000001
#
# number of rings (size 3 to 8) (size 9 to 14) (size 15 to 20)
#    0.000    1.091    3.636    3.273    1.273    5.818 
#    0.000    1.818    0.000    0.000    0.000    0.000 
#    0.000    0.000    0.000    0.000    0.000    0.000 
#
# Total GULP energy -272929.554702 kJ/mol
# GULP energy per Si atom -12405.888850 kJ/mol
# Density = 2.089753 g / cm^3
# Si number density = 20.945205 Si / 1000 Ang^3
#
#
#
# Elastic Constant Matrix: (Units=GPa)
#
#
# Indices 1 2 3 4 5 6 
#
# 1 109.3510 30.4933 40.9956 0.0000 8.3811 0.0000
# 2 30.4933 132.2199 52.3358 0.0000 8.6448 0.0000
# 3 40.9956 52.3358 122.0783 0.0000 -6.7156 0.0000
# 4 0.0000 0.0000 0.0000 33.9038 0.0000 2.9099
# 5 8.3811 8.6448 -6.7156 0.0000 37.5921 0.0000
# 6 0.0000 0.0000 0.0000 2.9099 0.0000 30.1011
#
#
#
# Elastic Compliance Matrix: (Units=1/GPa)
#
#
# Indices 1 2 3 4 5 6 
#
# 1 0.010908 -0.000989 -0.003394 0.000000 -0.002811 0.000000
# 2 -0.000989 0.009504 -0.003889 0.000000 -0.002660 0.000000
# 3 -0.003394 -0.003889 0.011199 0.000000 0.003652 0.000000
# 4 0.000000 0.000000 0.000000 0.029742 0.000000 -0.002875
# 5 -0.002811 -0.002660 0.003652 0.000000 0.028492 0.000000
# 6 0.000000 0.000000 0.000000 -0.002875 0.000000 0.033499
#
#
# Mechanical properties :
#
#
# Convention : Reuss Voigt Hill
#
# Bulk Modulus (GPa) = 66.36108 67.92205 67.14157
# Shear Modulus (GPa) = 34.50379 36.30770 35.40574
#
# Velocity S-wave (km/s) = 4.06314 4.16800 4.11591
# Velocity P-wave (km/s) = 7.33240 7.46069 7.39682
#
# Compressibility (1/GPa) = 0.01506907
#
# Stress axis : x y z
#
# Youngs Moduli (GPa) = 91.67254 105.21443 89.29106
#
# Poissons Ratio (x) = 0.10401 0.30306
# Poissons Ratio (y) = 0.09062 0.34725
# Poissons Ratio (z) = 0.31114 0.40918
#
# Static dielectric constant tensor:
#      x y z
#    x 3.833140 0.000000 0.074410 
#    y 0.000000 3.748330 0.000000 
#    z 0.074410 0.000000 3.710910 
# 
# 
# High freq. dielectric constant tensor:
#      x y z
#    x 1.818530 0.000000 0.007910 
#    y 0.000000 1.819790 0.000000 
#    z 0.007910 0.000000 1.821070 
# 
# From -- ./inp_files/31020.got.cif
#   From: 2010.06.25/outbox.cif.g09.slc.cpg/sg15_16_cif.got.tgz:31020.got - 2010.06.28 07:06:18.
