data_PCOD8146529
_publ_section_title
;
Structure prediction by ZEFSAII (Michael W. Deem and Ramdas Pophale) SiO2 
 PCOD8146529
Probable space group: C 2/C
;
_chemical_formula_sum "Si O2"
_cell_formula_units_Z 36
_cell_length_a 12.192290
_cell_length_b 14.306805
_cell_length_c 20.754572
_cell_angle_alpha 90.000000
_cell_angle_beta 151.313262
_cell_angle_gamma 90.000000
_cell_volume 1737.806704
_symmetry_space_group_name_H-M "C 2/C"
_symmetry_group_IT_number 15
_symmetry_cell_setting 'monoclinic'
loop_
_space_group_symop_operation_xyz
x,y,z
-x,y,1/2-z
-x,-y,-z
x,-y,1/2+z
1/2+x,1/2+y,z
1/2-x,1/2+y,1/2-z
1/2-x,1/2-y,-z
1/2+x,1/2-y,1/2+z
loop_
_atom_site_type_symbol
_atom_site_label
_atom_site_fract_x
_atom_site_fract_y
_atom_site_fract_z
Si Si1 0.834393 0.181345 0.335954
Si Si2 0.443496 0.113140 0.900810
Si Si3 0.788289 0.070533 0.186838
Si Si4 0.811765 0.395397 0.105160
Si Si5 0.500000 0.926941 0.750000
O O1 0.797283 0.292076 0.322770
O O2 0.851737 0.150091 0.270747
O O3 0.612983 0.136281 0.253907
O O4 0.067381 0.151298 0.492504
O O5 0.624524 0.117643 0.936375
O O6 0.273409 0.024964 0.806460
O O7 0.573217 0.106707 0.035481
O O8 0.000000 0.048641 0.250000
O O9 0.805824 0.506779 0.117360
O O10 0.000000 0.347281 0.250000
#
# Coordination Sequence:
#
# PCOD8146529 Si02
#       5
#     8   8   8   8   4
#     4  12  24  43  68  94 130 174 217 263 324 392
#     4  11  25  41  65 102 126 169 219 264 327 379
#     4  11  24  44  66  94 136 166 211 274 321 380
#     4  10  22  41  67  94 129 169 221 264 317 383
#     4  10  24  42  64  96 130 170 216 262 328 380
#
# _framework density 20.715767
#
# number of rings (size 3 to 8) (size 9 to 14) (size 15 to 20)
#    0.667    0.444    4.444    1.333    4.667    0.000 
#    0.000    1.111    0.000    0.000    0.000    0.000 
#    0.000    0.000    0.000    0.000    0.000    0.000 
#
# Total GULP energy -223225.282677 kJ/mol
# GULP energy per Si atom -12401.404593 kJ/mol
# Density = 2.066862 g / cm^3
# Si number density = 20.715767 Si / 1000 Ang^3
#
#
#
# Elastic Constant Matrix: (Units=GPa)
#
#
# Indices 1 2 3 4 5 6 
#
# 1 83.4370 23.2863 10.5552 -0.0003 -0.2766 0.0001
# 2 23.2863 134.3559 22.5411 0.0013 -9.0607 0.0002
# 3 10.5552 22.5411 72.3000 0.0007 -16.6252 0.0020
# 4 -0.0003 0.0013 0.0007 23.6735 -0.0007 -1.6960
# 5 -0.2766 -9.0607 -16.6252 -0.0007 29.2425 0.0000
# 6 0.0001 0.0002 0.0020 -1.6960 0.0000 20.9546
#
#
#
# Elastic Compliance Matrix: (Units=1/GPa)
#
#
# Indices 1 2 3 4 5 6 
#
# 1 0.012746 -0.002044 -0.001543 0.000000 -0.001390 0.000000
# 2 -0.002044 0.008218 -0.001936 0.000000 0.001427 0.000000
# 3 -0.001543 -0.001936 0.016702 0.000000 0.008881 -0.000002
# 4 0.000000 0.000000 0.000000 0.042488 0.000001 0.003439
# 5 -0.001390 0.001427 0.008881 0.000001 0.039675 -0.000001
# 6 0.000000 0.000000 -0.000002 0.003439 -0.000001 0.048001
#
#
# Mechanical properties :
#
#
# Convention : Reuss Voigt Hill
#
# Bulk Modulus (GPa) = 37.56480 44.76202 41.16341
# Shear Modulus (GPa) = 26.63124 30.35480 28.49302
#
# Velocity S-wave (km/s) = 3.58935 3.83208 3.71270
# Velocity P-wave (km/s) = 5.94565 6.42140 6.18810
#
# Compressibility (1/GPa) = 0.02662067
#
# Stress axis : x y z
#
# Youngs Moduli (GPa) = 78.45506 121.68200 59.87194
#
# Poissons Ratio (x) = 0.24872 0.09240
# Poissons Ratio (y) = 0.16036 0.11590
# Poissons Ratio (z) = 0.12107 0.23555
#
# Static dielectric constant tensor:
#      x y z
#    x 3.649470 0.000000 -0.110020 
#    y 0.000000 3.829120 0.000000 
#    z -0.110020 0.000000 3.571450 
# 
# 
# High freq. dielectric constant tensor:
#      x y z
#    x 1.812630 0.000000 -0.008210 
#    y 0.000000 1.812500 0.000000 
#    z -0.008210 0.000000 1.797940 
# 
# From -- ./inp_files/85854.got.cif
#   From: 2010.06.25/outbox.cif.g09.slc.cpg/sg15_43_cif.got.tgz:85854.got - 2010.06.28 07:06:18.
