data_PCOD8146896
_publ_section_title
;
Structure prediction by ZEFSAII (Michael W. Deem and Ramdas Pophale) SiO2 
 PCOD8146896
Probable space group: C 2/C
;
_chemical_formula_sum "Si O2"
_cell_formula_units_Z 52
_cell_length_a 11.712273
_cell_length_b 24.354107
_cell_length_c 9.570741
_cell_angle_alpha 90.000000
_cell_angle_beta 105.203499
_cell_angle_gamma 90.000000
_cell_volume 2634.428949
_symmetry_space_group_name_H-M "C 2/C"
_symmetry_group_IT_number 15
_symmetry_cell_setting 'monoclinic'
loop_
_space_group_symop_operation_xyz
x,y,z
-x,y,1/2-z
-x,-y,-z
x,-y,1/2+z
1/2+x,1/2+y,z
1/2-x,1/2+y,1/2-z
1/2-x,1/2-y,-z
1/2+x,1/2-y,1/2+z
loop_
_atom_site_type_symbol
_atom_site_label
_atom_site_fract_x
_atom_site_fract_y
_atom_site_fract_z
Si Si1 0.238146 0.582913 0.943755
Si Si2 0.999184 0.435178 0.486093
Si Si3 0.872995 0.026779 0.475920
Si Si4 0.762681 0.690654 0.071239
Si Si5 0.500000 0.136505 0.250000
Si Si6 0.734952 0.600707 0.847294
Si Si7 0.866969 0.876184 0.754647
O O1 0.273565 0.519426 0.939403
O O2 0.289729 0.613286 0.823009
O O3 0.095571 0.583693 0.902009
O O4 0.290957 0.614389 0.092270
O O5 0.040915 0.404411 0.640801
O O6 0.000000 0.500000 0.500000
O O7 0.869105 0.419022 0.400427
O O8 0.857514 0.055706 0.622076
O O9 0.850501 0.070214 0.345621
O O10 0.000000 0.000000 0.500000
O O11 0.895481 0.676165 0.162322
O O12 0.677731 0.678205 0.177229
O O13 0.750000 0.750000 0.000000
O O14 0.716462 0.655244 0.927726
O O15 0.000000 0.866120 0.750000
#
# Coordination Sequence:
#
# PCOD8146896 Si02
#       7
#     8   8   8   8   4   8   8
#     4  12  22  36  59  92 133 167 207 259 316 385
#     4  11  22  34  60  93 133 169 205 246 321 394
#     4  11  22  37  56  86 138 178 208 243 314 394
#     4  10  23  49  68  87 121 165 222 274 332 373
#     4  10  22  42  66  94 126 172 214 272 322 392
#     4  10  24  38  59  93 123 166 213 264 313 387
#     4  11  23  42  62  93 127 172 215 264 317 394
#
# _framework density 19.738621999999999
#
# number of rings (size 3 to 8) (size 9 to 14) (size 15 to 20)
#    0.000    1.231    4.615    1.385    2.154    0.000 
#    2.769    3.846    0.000    0.000    0.000    0.000 
#    0.000    0.000    0.000    0.000    0.000    0.000 
#
# Total GULP energy -322288.773797 kJ/mol
# GULP energy per Si atom -12395.722069 kJ/mol
# Density = 1.969370 g / cm^3
# Si number density = 19.738622 Si / 1000 Ang^3
#
#
#
# Elastic Constant Matrix: (Units=GPa)
#
#
# Indices 1 2 3 4 5 6 
#
# 1 125.8707 46.2541 42.4987 0.0000 -22.4578 0.0000
# 2 46.2541 108.5603 56.0161 0.0000 -7.3219 0.0000
# 3 42.4987 56.0161 142.8750 0.0000 -24.6596 0.0000
# 4 0.0000 0.0000 0.0000 27.5650 0.0000 -2.1774
# 5 -22.4578 -7.3219 -24.6596 0.0000 33.2329 0.0000
# 6 0.0000 0.0000 0.0000 -2.1774 0.0000 23.6027
#
#
#
# Elastic Compliance Matrix: (Units=1/GPa)
#
#
# Indices 1 2 3 4 5 6 
#
# 1 0.010599 -0.003780 -0.000663 0.000000 0.005838 0.000000
# 2 -0.003780 0.012921 -0.004463 0.000000 -0.003019 0.000000
# 3 -0.000663 -0.004463 0.009977 0.000000 0.005972 0.000000
# 4 0.000000 0.000000 0.000000 0.036544 0.000000 0.003371
# 5 0.005838 -0.003019 0.005972 0.000000 0.037801 0.000000
# 6 0.000000 0.000000 0.000000 0.003371 0.000000 0.042679
#
#
# Mechanical properties :
#
#
# Convention : Reuss Voigt Hill
#
# Bulk Modulus (GPa) = 63.75387 74.09377 68.92382
# Shear Modulus (GPa) = 28.80822 32.38260 30.59541
#
# Velocity S-wave (km/s) = 3.82446 4.05479 3.94131
# Velocity P-wave (km/s) = 7.20217 7.71626 7.46364
#
# Compressibility (1/GPa) = 0.01568532
#
# Stress axis : x y z
#
# Youngs Moduli (GPa) = 94.34665 77.39302 100.23383
#
# Poissons Ratio (x) = 0.29255 0.06647
# Poissons Ratio (y) = 0.35664 0.44730
# Poissons Ratio (z) = 0.06257 0.34537
#
# Static dielectric constant tensor:
#      x y z
#    x 3.905040 0.000000 -0.308720 
#    y 0.000000 3.464460 0.000000 
#    z -0.308720 0.000000 3.984960 
# 
# 
# High freq. dielectric constant tensor:
#      x y z
#    x 1.787760 0.000000 -0.014120 
#    y 0.000000 1.733910 0.000000 
#    z -0.014120 0.000000 1.782380 
# 
# From -- ./inp_files/33645.got.cif
#   From: 2010.06.25/outbox.cif.g09.slc.cpg/sg15_17_cif.got.tgz:33645.got - 2010.06.28 07:06:18.
