data_PCOD8146884
_publ_section_title
;
Structure prediction by ZEFSAII (Michael W. Deem and Ramdas Pophale) SiO2 
 PCOD8146884
Probable space group: C 2/C
;
_chemical_formula_sum "Si O2"
_cell_formula_units_Z 24
_cell_length_a 8.871068
_cell_length_b 12.306382
_cell_length_c 8.120818
_cell_angle_alpha 90.000000
_cell_angle_beta 89.956220
_cell_angle_gamma 90.000000
_cell_volume 886.555545
_symmetry_space_group_name_H-M "C 2/C"
_symmetry_group_IT_number 15
_symmetry_cell_setting 'monoclinic'
loop_
_space_group_symop_operation_xyz
x,y,z
-x,y,1/2-z
-x,-y,-z
x,-y,1/2+z
1/2+x,1/2+y,z
1/2-x,1/2+y,1/2-z
1/2-x,1/2-y,-z
1/2+x,1/2-y,1/2+z
loop_
_atom_site_type_symbol
_atom_site_label
_atom_site_fract_x
_atom_site_fract_y
_atom_site_fract_z
Si Si1 0.749785 0.426712 0.956831
Si Si2 0.500000 0.309270 0.750000
Si Si3 0.500000 0.809432 0.750000
Si Si4 0.250200 0.343713 0.171625
O O1 0.598940 0.384450 0.869562
O O2 0.900791 0.384620 0.869444
O O3 0.749655 0.557778 0.958399
O O4 0.749770 0.388816 0.143266
O O5 0.394344 0.231539 0.859858
O O6 0.605394 0.731700 0.859987
#
# Coordination Sequence:
#
# PCOD8146884 Si02
#       4
#     8   4   4   8
#     4  11  25  43  66  98 131 169 217 267 324 386
#     4  10  22  42  66  92 128 168 214 266 314 376
#     4  10  22  42  66  92 128 168 214 266 314 376
#     4  11  25  43  66  98 131 169 217 267 324 386
#
# _framework density 27.071064
#
# number of rings (size 3 to 8) (size 9 to 14) (size 15 to 20)
#    0.000    1.333    0.000    6.000    0.000   16.000 
#    0.000   16.667    0.000    0.000    0.000    0.000 
#    0.000    0.000    0.000    0.000    0.000    0.000 
#
# Total GULP energy -148870.856211 kJ/mol
# GULP energy per Si atom -12405.904684 kJ/mol
# Density = 2.700945 g / cm^3
# Si number density = 27.071064 Si / 1000 Ang^3
#
#
#
# Elastic Constant Matrix: (Units=GPa)
#
#
# Indices 1 2 3 4 5 6 
#
# 1 153.6644 36.1056 -10.1476 0.0000 0.1629 0.0000
# 2 36.1056 166.8965 -1.1812 0.0000 0.2545 0.0000
# 3 -10.1476 -1.1812 104.5798 0.0000 0.1504 0.0000
# 4 0.0000 0.0000 0.0000 36.3691 0.0000 0.1088
# 5 0.1629 0.2545 0.1504 0.0000 4.7558 0.0000
# 6 0.0000 0.0000 0.0000 0.1088 0.0000 17.2515
#
#
#
# Elastic Compliance Matrix: (Units=1/GPa)
#
#
# Indices 1 2 3 4 5 6 
#
# 1 0.006901 -0.001488 0.000653 0.000000 -0.000177 0.000000
# 2 -0.001488 0.006314 -0.000073 0.000000 -0.000285 0.000000
# 3 0.000653 -0.000073 0.009625 0.000000 -0.000323 0.000000
# 4 0.000000 0.000000 0.000000 0.027496 0.000000 -0.000173
# 5 -0.000177 -0.000285 -0.000323 0.000000 0.210302 0.000000
# 6 0.000000 0.000000 0.000000 -0.000173 0.000000 0.057967
#
#
# Mechanical properties :
#
#
# Convention : Reuss Voigt Hill
#
# Bulk Modulus (GPa) = 47.56449 52.74380 50.15415
# Shear Modulus (GPa) = 15.27055 38.36620 26.81838
#
# Velocity S-wave (km/s) = 2.37764 3.76871 3.15090
# Velocity P-wave (km/s) = 5.01457 6.20188 5.63956
#
# Compressibility (1/GPa) = 0.02102409
#
# Stress axis : x y z
#
# Youngs Moduli (GPa) = 144.91456 158.38946 103.89522
#
# Poissons Ratio (x) = 0.23568 -0.06785
# Poissons Ratio (y) = 0.21563 0.00755
# Poissons Ratio (z) = -0.09463 0.01151
#
# Static dielectric constant tensor:
#      x y z
#    x 5.333050 0.000000 0.000330 
#    y 0.000000 5.417780 0.000000 
#    z 0.000330 0.000000 4.609070 
# 
# 
# High freq. dielectric constant tensor:
#      x y z
#    x 2.107040 0.000000 0.000030 
#    y 0.000000 2.103610 0.000000 
#    z 0.000030 0.000000 2.102140 
# 
# From -- ./inp_files/20917.got.cif
#   From: 2010.06.25/outbox.cif.g09.slc.cpg/sg15_11_cif.got.tgz:20917.got - 2010.06.28 07:06:18.
