data_PCOD8146909
_publ_section_title
;
Structure prediction by ZEFSAII (Michael W. Deem and Ramdas Pophale) SiO2 
 PCOD8146909
Probable space group: C 2/C
;
_chemical_formula_sum "Si O2"
_cell_formula_units_Z 60
_cell_length_a 7.819883
_cell_length_b 13.037792
_cell_length_c 27.579926
_cell_angle_alpha 90.000000
_cell_angle_beta 87.267316
_cell_angle_gamma 90.000000
_cell_volume 2808.686437
_symmetry_space_group_name_H-M "C 2/C"
_symmetry_group_IT_number 15
_symmetry_cell_setting 'monoclinic'
loop_
_space_group_symop_operation_xyz
x,y,z
-x,y,1/2-z
-x,-y,-z
x,-y,1/2+z
1/2+x,1/2+y,z
1/2-x,1/2+y,1/2-z
1/2-x,1/2-y,-z
1/2+x,1/2-y,1/2+z
loop_
_atom_site_type_symbol
_atom_site_label
_atom_site_fract_x
_atom_site_fract_y
_atom_site_fract_z
Si Si1 0.847401 0.637055 0.217482
Si Si2 0.374196 0.252631 0.851156
Si Si3 0.500000 0.548430 0.250000
Si Si4 0.081424 0.051611 0.348055
Si Si5 0.414251 0.517200 0.552235
Si Si6 0.543222 0.053512 0.049770
Si Si7 0.825765 0.751838 0.051891
Si Si8 0.964418 0.520550 0.849304
O O1 0.796934 0.722942 0.178216
O O2 0.676235 0.614386 0.250470
O O3 0.000000 0.678342 0.250000
O O4 0.907372 0.531503 0.190441
O O5 0.528175 0.330861 0.837229
O O6 0.325446 0.268205 0.908027
O O7 0.441185 0.139731 0.837194
O O8 0.507563 0.487485 0.301751
O O9 0.987901 0.018955 0.399934
O O10 0.283920 0.038725 0.349306
O O11 0.500000 0.500000 0.500000
O O12 0.246150 0.447795 0.551844
O O13 0.394260 0.636365 0.562533
O O14 0.478376 0.169987 0.052758
O O15 0.463241 0.991422 0.096612
O O16 0.500000 0.000000 0.000000
O O17 0.750000 0.750000 0.000000
#
# Coordination Sequence:
#
# PCOD8146909 Si02
#       8
#     8   8   4   8   8   8   8   8
#     4  11  23  45  73  97 145 181 231 296 346 408
#     4  11  23  43  69  99 134 181 228 280 350 411
#     4  10  22  42  70 102 136 186 226 284 350 410
#     4  10  22  42  66  95 140 170 230 285 334 410
#     4  11  24  41  65  96 137 173 227 290 336 417
#     4  11  22  38  66  96 129 179 224 272 346 409
#     4  12  21  39  67  94 133 179 222 278 349 407
#     4  11  22  45  68  98 137 178 232 284 343 417
#
# _framework density 21.362300000000001
#
# number of rings (size 3 to 8) (size 9 to 14) (size 15 to 20)
#    0.000    1.067    6.667    0.800    0.000    0.533 
#    6.000    9.333    0.000    0.000    0.000    0.000 
#    0.000    0.000    0.000    0.000    0.000    0.000 
#
# Total GULP energy -371673.316385 kJ/mol
# GULP energy per Si atom -12389.110546 kJ/mol
# Density = 2.131368 g / cm^3
# Si number density = 21.362300 Si / 1000 Ang^3
#
#
#
# Elastic Constant Matrix: (Units=GPa)
#
#
# Indices 1 2 3 4 5 6 
#
# 1 87.5964 52.2564 38.7146 0.0000 0.2293 0.0000
# 2 52.2564 137.6366 36.2597 0.0000 9.3676 0.0000
# 3 38.7146 36.2597 186.8446 0.0000 17.1233 0.0000
# 4 0.0000 0.0000 0.0000 26.9401 0.0000 -0.4550
# 5 0.2293 9.3676 17.1233 0.0000 41.4817 0.0000
# 6 0.0000 0.0000 0.0000 -0.4550 0.0000 39.6320
#
#
#
# Elastic Compliance Matrix: (Units=1/GPa)
#
#
# Indices 1 2 3 4 5 6 
#
# 1 0.015745 -0.005493 -0.002393 0.000000 0.002141 0.000000
# 2 -0.005493 0.009628 -0.000555 0.000000 -0.001915 0.000000
# 3 -0.002393 -0.000555 0.006176 0.000000 -0.002411 0.000000
# 4 0.000000 0.000000 0.000000 0.037127 0.000000 0.000426
# 5 0.002141 -0.001915 -0.002411 0.000000 0.025523 0.000000
# 6 0.000000 0.000000 0.000000 0.000426 0.000000 0.025237
#
#
# Mechanical properties :
#
#
# Convention : Reuss Voigt Hill
#
# Bulk Modulus (GPa) = 68.17616 74.05989 71.11803
# Shear Modulus (GPa) = 35.40938 40.60056 38.00497
#
# Velocity S-wave (km/s) = 4.07574 4.36428 4.22248
# Velocity P-wave (km/s) = 7.35747 7.75498 7.55884
#
# Compressibility (1/GPa) = 0.01466788
#
# Stress axis : x y z
#
# Youngs Moduli (GPa) = 63.51274 103.86830 161.90701
#
# Poissons Ratio (x) = 0.57058 0.38737
# Poissons Ratio (y) = 0.34889 0.08980
# Poissons Ratio (z) = 0.15196 0.05761
#
# Static dielectric constant tensor:
#      x y z
#    x 3.854560 0.000000 0.189200 
#    y 0.000000 3.217970 0.000000 
#    z 0.189200 0.000000 5.014640 
# 
# 
# High freq. dielectric constant tensor:
#      x y z
#    x 1.825350 0.000000 0.001050 
#    y 0.000000 1.811780 0.000000 
#    z 0.001050 0.000000 1.880910 
# 
# From -- ./inp_files/307164.got.cif
#   From: 2010.06.25/outbox.cif.g09.slc.cpg/sg15_154_cif.got.tgz:307164.got - 2010.06.28 07:06:18.
