data_PCOD8146344
_publ_section_title
;
Structure prediction by ZEFSAII (Michael W. Deem and Ramdas Pophale) SiO2 
 PCOD8146344
Probable space group: C 2/C
;
_chemical_formula_sum "Si O2"
_cell_formula_units_Z 48
_cell_length_a 17.463040
_cell_length_b 29.583084
_cell_length_c 9.020724
_cell_angle_alpha 90.000000
_cell_angle_beta 28.693348
_cell_angle_gamma 90.000000
_cell_volume 2237.463648
_symmetry_space_group_name_H-M "C 2/C"
_symmetry_group_IT_number 15
_symmetry_cell_setting 'monoclinic'
loop_
_space_group_symop_operation_xyz
x,y,z
-x,y,1/2-z
-x,-y,-z
x,-y,1/2+z
1/2+x,1/2+y,z
1/2-x,1/2+y,1/2-z
1/2-x,1/2-y,-z
1/2+x,1/2-y,1/2+z
loop_
_atom_site_type_symbol
_atom_site_label
_atom_site_fract_x
_atom_site_fract_y
_atom_site_fract_z
Si Si1 0.036188 0.322414 0.523285
Si Si2 0.740176 0.052049 0.488939
Si Si3 0.626098 0.643982 0.155547
Si Si4 0.444774 0.080648 0.172798
Si Si5 0.177659 0.030418 0.471961
Si Si6 0.932711 0.238107 0.201354
O O1 0.974511 0.277444 0.543754
O O2 0.000000 0.309024 0.750000
O O3 0.934218 0.366368 0.648678
O O4 0.221932 0.334852 0.188087
O O5 0.823517 0.101149 0.331736
O O6 0.729052 0.031004 0.343339
O O7 0.839527 0.019878 0.431156
O O8 0.564641 0.055585 0.857009
O O9 0.500000 0.626080 0.250000
O O10 0.549878 0.685437 0.382906
O O11 0.500000 0.074392 0.250000
O O12 0.270778 0.059886 0.437998
O O13 0.000000 0.050024 0.750000
O O14 0.750000 0.250000 0.500000
O O15 0.000000 0.239989 0.250000
#
# Coordination Sequence:
#
# PCOD8146344 Si02
#       6
#     8   8   8   8   8   8
#     4   9  19  35  60  89 120 157 197 244 300 359
#     4  11  23  40  62  86 121 166 207 253 308 367
#     4   9  19  37  59  84 118 160 201 244 302 362
#     4  10  22  41  63  89 124 167 208 247 301 372
#     4  12  25  40  61  91 122 159 209 262 307 356
#     4   9  18  35  58  83 113 151 194 238 291 356
#
# _framework density 21.452864000000002
#
# number of rings (size 3 to 8) (size 9 to 14) (size 15 to 20)
#    0.000    2.000    0.000    3.000    0.000    8.000 
#    0.000    8.333    0.000    0.000    0.000    0.000 
#    0.000    0.000    0.000    0.000    0.000    0.000 
#
# Total GULP energy -297370.864892 kJ/mol
# GULP energy per Si atom -12390.452704 kJ/mol
# Density = 2.140404 g / cm^3
# Si number density = 21.452864 Si / 1000 Ang^3
#
#
#
# Elastic Constant Matrix: (Units=GPa)
#
#
# Indices 1 2 3 4 5 6 
#
# 1 117.3717 72.4782 36.8428 0.0000 -6.3844 -0.0001
# 2 72.4782 161.7443 43.0702 0.0001 4.5813 0.0001
# 3 36.8428 43.0702 59.0914 0.0000 5.8399 -0.0002
# 4 0.0000 0.0001 0.0000 -22.1553 0.0000 -67.7491
# 5 -6.3844 4.5813 5.8399 0.0000 41.4808 0.0000
# 6 -0.0001 0.0001 -0.0002 -67.7491 0.0000 -100.0912
#
#
#
# Elastic Compliance Matrix: (Units=1/GPa)
#
#
# Indices 1 2 3 4 5 6 
#
# 1 0.013172 -0.004619 -0.005169 0.000000 0.003265 0.000000
# 2 -0.004619 0.009291 -0.003773 0.000000 -0.001206 0.000000
# 3 -0.005169 -0.003773 0.023257 0.000000 -0.003653 0.000000
# 4 0.000000 0.000000 0.000000 0.042190 0.000000 -0.028557
# 5 0.003265 -0.001206 -0.003653 0.000000 0.025258 0.000000
# 6 0.000000 0.000000 0.000000 -0.028557 0.000000 0.009339
#
#
# Mechanical properties :
#
#
# Convention : Reuss Voigt Hill
#
# Bulk Modulus (GPa) = 53.76754 71.44331 62.60542
# Shear Modulus (GPa) = 32.08677 -3.76538 14.16069
#
# Velocity S-wave (km/s) = 3.87161 -1.32627 2.57200
# Velocity P-wave (km/s) = 6.71590 5.57041 6.16979
#
# Compressibility (1/GPa) = 0.01859858
#
# Stress axis : x y z
#
# Youngs Moduli (GPa) = 75.91825 107.62992 42.99779
#
# Poissons Ratio (x) = 0.49709 0.22226
# Poissons Ratio (y) = 0.35063 0.16224
# Poissons Ratio (z) = 0.39242 0.40612
#
# Static dielectric constant tensor:
#      x y z
#    x 3.770350 0.000000 0.007400 
#    y 0.000000 4.680780 0.000000 
#    z 0.007400 0.000000 3.783300 
# 
# 
# High freq. dielectric constant tensor:
#      x y z
#    x 1.832300 0.000000 -0.008930 
#    y 0.000000 1.864880 0.000000 
#    z -0.008930 0.000000 1.818680 
# 
# From -- ./inp_files/52734.got.cif
#   From: 2010.06.25/outbox.cif.g09.slc.cpg/sg15_27_cif.got.tgz:52734.got - 2010.06.28 07:06:18.
