data_PCOD8146801
_publ_section_title
;
Structure prediction by ZEFSAII (Michael W. Deem and Ramdas Pophale) SiO2 
 PCOD8146801
Probable space group: C 2/C
;
_chemical_formula_sum "Si O2"
_cell_formula_units_Z 52
_cell_length_a 20.832239
_cell_length_b 9.606156
_cell_length_c 17.966398
_cell_angle_alpha 90.000000
_cell_angle_beta 136.080998
_cell_angle_gamma 90.000000
_cell_volume 2493.912463
_symmetry_space_group_name_H-M "C 2/C"
_symmetry_group_IT_number 15
_symmetry_cell_setting 'monoclinic'
loop_
_space_group_symop_operation_xyz
x,y,z
-x,y,1/2-z
-x,-y,-z
x,-y,1/2+z
1/2+x,1/2+y,z
1/2-x,1/2+y,1/2-z
1/2-x,1/2-y,-z
1/2+x,1/2-y,1/2+z
loop_
_atom_site_type_symbol
_atom_site_label
_atom_site_fract_x
_atom_site_fract_y
_atom_site_fract_z
Si Si1 0.500000 0.153746 0.250000
Si Si2 0.402364 0.586449 0.686524
Si Si3 0.356193 0.345813 0.314994
Si Si4 0.945175 0.501859 0.068574
Si Si5 0.470279 0.220051 0.964096
Si Si6 0.252771 0.119022 0.446961
Si Si7 0.288698 0.365601 0.759776
O O1 0.589619 0.255273 0.339654
O O2 0.514484 0.060147 0.189292
O O3 0.500000 0.508332 0.750000
O O4 0.390624 0.604719 0.764215
O O5 0.320402 0.495071 0.583173
O O6 0.447249 0.320521 0.440144
O O7 0.289485 0.472453 0.286195
O O8 0.293905 0.206528 0.263029
O O9 0.992229 0.368400 0.073003
O O10 0.928926 0.620777 0.993565
O O11 0.851025 0.457153 0.030294
O O12 0.389105 0.312495 0.864931
O O13 0.250000 0.250000 0.500000
O O14 0.228665 0.162710 0.342374
#
# Coordination Sequence:
#
# PCOD8146801 Si02
#       7
#     4   8   8   8   8   8   8
#     4  10  22  42  64  96 126 180 216 266 342 400
#     4   9  21  44  68  91 131 176 219 267 330 407
#     4  11  22  45  68 100 136 170 230 273 338 403
#     4  11  24  42  68 100 131 175 226 278 340 405
#     4  11  22  43  70  97 136 173 226 283 333 408
#     4  11  25  44  63  99 138 171 224 281 338 403
#     4  11  25  42  69 100 133 182 220 285 337 400
#
# _framework density 20.850771000000002
#
# number of rings (size 3 to 8) (size 9 to 14) (size 15 to 20)
#    0.462    0.923    3.077    2.308    4.308    3.077 
#    5.538    0.000    0.000    0.000    0.000    0.000 
#    0.000    0.000    0.000    0.000    0.000    0.000 
#
# Total GULP energy -322255.590357 kJ/mol
# GULP energy per Si atom -12394.445783 kJ/mol
# Density = 2.080331 g / cm^3
# Si number density = 20.850771 Si / 1000 Ang^3
#
#
#
# Elastic Constant Matrix: (Units=GPa)
#
#
# Indices 1 2 3 4 5 6 
#
# 1 100.3344 46.1889 26.8729 0.0000 16.0117 0.0000
# 2 46.1889 97.6647 36.1226 0.0000 1.9763 0.0000
# 3 26.8729 36.1226 79.0517 0.0000 10.4889 0.0000
# 4 0.0000 0.0000 0.0000 40.4367 0.0000 -1.8104
# 5 16.0117 1.9763 10.4889 0.0000 32.0969 0.0000
# 6 0.0000 0.0000 0.0000 -1.8104 0.0000 28.1076
#
#
#
# Elastic Compliance Matrix: (Units=1/GPa)
#
#
# Indices 1 2 3 4 5 6 
#
# 1 0.014091 -0.006105 -0.001168 0.000000 -0.006272 0.000000
# 2 -0.006105 0.015006 -0.005293 0.000000 0.003851 0.000000
# 3 -0.001168 -0.005293 0.016040 0.000000 -0.004333 0.000000
# 4 0.000000 0.000000 0.000000 0.024802 0.000000 0.001597
# 5 -0.006272 0.003851 -0.004333 0.000000 0.035463 0.000000
# 6 0.000000 0.000000 0.000000 0.001597 0.000000 0.035680
#
#
# Mechanical properties :
#
#
# Convention : Reuss Voigt Hill
#
# Bulk Modulus (GPa) = 49.98602 55.04662 52.51632
# Shear Modulus (GPa) = 28.92132 31.31933 30.12032
#
# Velocity S-wave (km/s) = 3.72837 3.87986 3.80487
# Velocity P-wave (km/s) = 6.52377 6.82119 6.67414
#
# Compressibility (1/GPa) = 0.02000559
#
# Stress axis : x y z
#
# Youngs Moduli (GPa) = 70.96794 66.64003 62.34233
#
# Poissons Ratio (x) = 0.40684 0.07283
# Poissons Ratio (y) = 0.43326 0.32995
# Poissons Ratio (z) = 0.08291 0.35270
#
# Static dielectric constant tensor:
#      x y z
#    x 3.871770 0.000000 0.118710 
#    y 0.000000 4.202970 0.000000 
#    z 0.118710 0.000000 3.672550 
# 
# 
# High freq. dielectric constant tensor:
#      x y z
#    x 1.819580 0.000000 0.007860 
#    y 0.000000 1.825630 0.000000 
#    z 0.007860 0.000000 1.806490 
# 
# From -- ./inp_files/255077.got.cif
#   From: 2010.06.25/outbox.cif.g09.slc.cpg/sg15_128_cif.got.tgz:255077.got - 2010.06.28 07:06:18.
