data_PCOD8146292
_publ_section_title
;
Structure prediction by ZEFSAII (Michael W. Deem and Ramdas Pophale) SiO2 
 PCOD8146292
Probable space group: C 2/C
;
_chemical_formula_sum "Si O2"
_cell_formula_units_Z 48
_cell_length_a 19.008522
_cell_length_b 29.419123
_cell_length_c 11.684734
_cell_angle_alpha 90.000000
_cell_angle_beta 157.593444
_cell_angle_gamma 90.000000
_cell_volume 2490.706976
_symmetry_space_group_name_H-M "C 2/C"
_symmetry_group_IT_number 15
_symmetry_cell_setting 'monoclinic'
loop_
_space_group_symop_operation_xyz
x,y,z
-x,y,1/2-z
-x,-y,-z
x,-y,1/2+z
1/2+x,1/2+y,z
1/2-x,1/2+y,1/2-z
1/2-x,1/2-y,-z
1/2+x,1/2-y,1/2+z
loop_
_atom_site_type_symbol
_atom_site_label
_atom_site_fract_x
_atom_site_fract_y
_atom_site_fract_z
Si Si1 0.986685 0.537521 0.573762
Si Si2 0.955226 0.875124 0.811471
Si Si3 0.331179 0.534993 0.246259
Si Si4 0.058136 0.361635 0.205646
Si Si5 0.966166 0.710190 0.389810
Si Si6 0.789608 0.200871 0.707624
O O1 0.768692 0.539423 0.281030
O O2 0.000000 0.500000 0.500000
O O3 0.038826 0.589050 0.615862
O O4 0.148340 0.520393 0.901634
O O5 0.919816 0.918237 0.838076
O O6 0.769976 0.845236 0.523716
O O7 0.000000 0.891190 0.750000
O O8 0.110823 0.845616 0.107790
O O9 0.500000 0.500000 0.500000
O O10 0.000000 0.365540 0.250000
O O11 0.945759 0.325732 0.961998
O O12 0.163901 0.714076 0.626771
O O13 0.931112 0.758664 0.395292
O O14 0.821552 0.693644 0.076879
#
# Coordination Sequence:
#
# PCOD8146292 Si02
#       6
#     8   8   8   8   8   8
#     4  10  22  41  60  86 121 156 200 250 301 359
#     4  11  22  40  62  91 123 158 204 252 299 359
#     4  10  23  39  60  89 118 157 201 247 303 361
#     4  11  22  42  62  88 124 161 203 252 302 357
#     4  10  23  41  62  88 124 162 199 252 302 359
#     4  10  23  41  61  91 122 160 205 246 304 363
#
# _framework density 19.271636999999998
#
# number of rings (size 3 to 8) (size 9 to 14) (size 15 to 20)
#    0.000    1.667    5.000    0.000    7.000    2.667 
#    0.000    3.333    0.000    0.000    0.000    0.000 
#    0.000    0.000    0.000    0.000    0.000    0.000 
#
# Total GULP energy -297322.082992 kJ/mol
# GULP energy per Si atom -12388.420125 kJ/mol
# Density = 1.922777 g / cm^3
# Si number density = 19.271637 Si / 1000 Ang^3
#
#
#
# Elastic Constant Matrix: (Units=GPa)
#
#
# Indices 1 2 3 4 5 6 
#
# 1 122.1923 78.3624 43.9888 0.0000 8.7316 0.0000
# 2 78.3624 121.2424 59.7433 0.0000 -1.1746 0.0000
# 3 43.9888 59.7433 83.7608 0.0001 23.5151 -0.0002
# 4 0.0000 0.0000 0.0001 37.5275 0.0000 3.6791
# 5 8.7316 -1.1746 23.5151 0.0000 33.7399 -0.0001
# 6 0.0000 0.0000 -0.0002 3.6791 -0.0001 29.3427
#
#
#
# Elastic Compliance Matrix: (Units=1/GPa)
#
#
# Indices 1 2 3 4 5 6 
#
# 1 0.014530 -0.009706 0.000550 0.000000 -0.004482 0.000000
# 2 -0.009706 0.021462 -0.013832 0.000000 0.012899 0.000000
# 3 0.000550 -0.013832 0.026968 0.000000 -0.019419 0.000000
# 4 0.000000 0.000000 0.000000 0.026979 0.000000 -0.003383
# 5 -0.004482 0.012899 -0.019419 0.000000 0.044781 0.000000
# 6 0.000000 0.000000 0.000000 -0.003383 0.000000 0.034504
#
#
# Mechanical properties :
#
#
# Convention : Reuss Voigt Hill
#
# Bulk Modulus (GPa) = 58.87896 76.82052 67.84974
# Shear Modulus (GPa) = 22.63860 29.79544 26.21702
#
# Velocity S-wave (km/s) = 3.43112 3.93628 3.69235
# Velocity P-wave (km/s) = 6.80553 7.78509 7.31173
#
# Compressibility (1/GPa) = 0.01698400
#
# Stress axis : x y z
#
# Youngs Moduli (GPa) = 68.82077 46.59395 37.08165
#
# Poissons Ratio (x) = 0.45224 -0.02040
# Poissons Ratio (y) = 0.66797 0.51292
# Poissons Ratio (z) = -0.03785 0.64449
#
# Static dielectric constant tensor:
#      x y z
#    x 3.849650 0.000000 0.120940 
#    y 0.000000 3.414660 0.000000 
#    z 0.120940 0.000000 3.532340 
# 
# 
# High freq. dielectric constant tensor:
#      x y z
#    x 1.761910 0.000000 0.013790 
#    y 0.000000 1.744100 0.000000 
#    z 0.013790 0.000000 1.750580 
# 
# From -- ./inp_files/115068.got.cif
#   From: 2010.06.25/outbox.cif.g09.slc.cpg/sg15_58_cif.got.tgz:115068.got - 2010.06.28 07:06:18.
