data_PCOD8146622
_publ_section_title
;
Structure prediction by ZEFSAII (Michael W. Deem and Ramdas Pophale) SiO2 
 PCOD8146622
Probable space group: C 2/C
;
_chemical_formula_sum "Si O2"
_cell_formula_units_Z 40
_cell_length_a 9.259533
_cell_length_b 11.164382
_cell_length_c 14.030665
_cell_angle_alpha 90.000000
_cell_angle_beta 87.778231
_cell_angle_gamma 90.000000
_cell_volume 1449.357184
_symmetry_space_group_name_H-M "C 2/C"
_symmetry_group_IT_number 15
_symmetry_cell_setting 'monoclinic'
loop_
_space_group_symop_operation_xyz
x,y,z
-x,y,1/2-z
-x,-y,-z
x,-y,1/2+z
1/2+x,1/2+y,z
1/2-x,1/2+y,1/2-z
1/2-x,1/2-y,-z
1/2+x,1/2-y,1/2+z
loop_
_atom_site_type_symbol
_atom_site_label
_atom_site_fract_x
_atom_site_fract_y
_atom_site_fract_z
Si Si1 0.158904 0.497119 0.597202
Si Si2 0.746279 0.637302 0.568006
Si Si3 0.512144 0.517017 0.363370
Si Si4 0.844285 0.241396 0.403468
Si Si5 0.655625 0.221364 0.231641
O O1 0.140131 0.456046 0.484766
O O2 0.328485 0.519125 0.610372
O O3 0.086019 0.626474 0.617975
O O4 0.107852 0.396953 0.673241
O O5 0.750000 0.750000 0.500000
O O6 0.590478 0.574288 0.577779
O O7 0.769166 0.690171 0.673910
O O8 0.500000 0.517195 0.250000
O O9 0.478393 0.651167 0.403889
O O10 0.750000 0.250000 0.500000
O O11 0.734941 0.188436 0.326574
O O12 0.500000 0.288191 0.250000
#
# Coordination Sequence:
#
# PCOD8146622 Si02
#       5
#     8   8   8   8   8
#     4  11  24  45  70 104 143 186 245 296 363 441
#     4  10  22  41  70 100 134 187 234 290 368 431
#     4  12  23  44  74 105 144 190 238 303 363 436
#     4  12  26  43  73 106 139 189 244 296 362 441
#     4  11  25  45  68  99 144 188 235 303 369 434
#
# _framework density 27.598441999999999
#
# number of rings (size 3 to 8) (size 9 to 14) (size 15 to 20)
#    0.000    0.800    4.000    3.600    2.800    0.800 
#    0.000    1.000    0.000    0.000    0.000    0.000 
#    0.000    0.000    0.000    0.000    0.000    0.000 
#
# Total GULP energy -247789.586936 kJ/mol
# GULP energy per Si atom -12389.479347 kJ/mol
# Density = 2.753563 g / cm^3
# Si number density = 27.598442 Si / 1000 Ang^3
#
#
#
# Elastic Constant Matrix: (Units=GPa)
#
#
# Indices 1 2 3 4 5 6 
#
# 1 26.5509 1.7183 4.0241 0.0000 -14.9640 0.0000
# 2 1.7183 172.8509 38.8194 0.0000 -20.9419 0.0000
# 3 4.0241 38.8194 148.9053 0.0000 -15.3007 0.0000
# 4 0.0000 0.0000 0.0000 37.0288 0.0000 -11.2969
# 5 -14.9640 -20.9419 -15.3007 0.0000 35.1232 0.0000
# 6 0.0000 0.0000 0.0000 -11.2969 0.0000 30.9874
#
#
#
# Elastic Compliance Matrix: (Units=1/GPa)
#
#
# Indices 1 2 3 4 5 6 
#
# 1 0.050398 0.002185 0.000428 0.000000 0.022961 0.000000
# 2 0.002185 0.006581 -0.001336 0.000000 0.004273 0.000000
# 3 0.000428 -0.001336 0.007317 0.000000 0.002573 0.000000
# 4 0.000000 0.000000 0.000000 0.030386 0.000000 0.011078
# 5 0.022961 0.004273 0.002573 0.000000 0.041922 0.000000
# 6 0.000000 0.000000 0.000000 0.011078 0.000000 0.036310
#
#
# Mechanical properties :
#
#
# Convention : Reuss Voigt Hill
#
# Bulk Modulus (GPa) = 14.95902 48.60344 31.78123
# Shear Modulus (GPa) = 25.95482 40.87759 33.41620
#
# Velocity S-wave (km/s) = 3.06999 3.85275 3.48343
# Velocity P-wave (km/s) = 4.24246 6.11889 5.26494
#
# Compressibility (1/GPa) = 0.06684929
#
# Stress axis : x y z
#
# Youngs Moduli (GPa) = 19.84218 151.94597 136.67283
#
# Poissons Ratio (x) = -0.33196 -0.05846
# Poissons Ratio (y) = -0.04335 0.18256
# Poissons Ratio (z) = -0.00849 0.20296
#
# Static dielectric constant tensor:
#      x y z
#    x 4.666190 0.000000 -0.274320 
#    y 0.000000 5.844630 0.000000 
#    z -0.274320 0.000000 5.932920 
# 
# 
# High freq. dielectric constant tensor:
#      x y z
#    x 2.082540 0.000000 -0.018220 
#    y 0.000000 2.135240 0.000000 
#    z -0.018220 0.000000 2.137440 
# 
# From -- ./inp_files/141730.got.cif
#   From: 2010.06.25/outbox.cif.g09.slc.cpg/sg15_71_cif.got.tgz:141730.got - 2010.06.28 07:06:18.
