data_PCOD8146858
_publ_section_title
;
Structure prediction by ZEFSAII (Michael W. Deem and Ramdas Pophale) SiO2 
 PCOD8146858
Probable space group: C 2/C
;
_chemical_formula_sum "Si O2"
_cell_formula_units_Z 40
_cell_length_a 21.772646
_cell_length_b 8.695830
_cell_length_c 10.532584
_cell_angle_alpha 90.000000
_cell_angle_beta 75.766334
_cell_angle_gamma 90.000000
_cell_volume 1932.928833
_symmetry_space_group_name_H-M "C 2/C"
_symmetry_group_IT_number 15
_symmetry_cell_setting 'monoclinic'
loop_
_space_group_symop_operation_xyz
x,y,z
-x,y,1/2-z
-x,-y,-z
x,-y,1/2+z
1/2+x,1/2+y,z
1/2-x,1/2+y,1/2-z
1/2-x,1/2-y,-z
1/2+x,1/2-y,1/2+z
loop_
_atom_site_type_symbol
_atom_site_label
_atom_site_fract_x
_atom_site_fract_y
_atom_site_fract_z
Si Si1 0.915364 0.745614 0.404069
Si Si2 0.910509 0.749733 0.690447
Si Si3 0.500000 0.000903 0.750000
Si Si4 0.214869 0.316789 0.639808
Si Si5 0.221928 0.683086 0.643074
Si Si6 0.000000 0.000288 0.750000
O O1 0.885202 0.749049 0.559401
O O2 0.962129 0.601501 0.369866
O O3 0.859069 0.728369 0.331197
O O4 0.955986 0.899104 0.363614
O O5 0.849769 0.746394 0.812883
O O6 0.952399 0.600088 0.690849
O O7 0.953219 0.899246 0.688707
O O8 0.250000 0.250000 0.500000
O O9 0.223918 0.499379 0.639781
O O10 0.238164 0.241455 0.757822
O O11 0.250000 0.750000 0.500000
#
# Coordination Sequence:
#
# PCOD8146858 Si02
#       6
#     8   8   4   8   8   4
#     4  11  23  44  71  97 134 174 228 278 346 404
#     4  11  23  45  69  96 139 171 229 277 344 406
#     4  10  22  42  66 100 126 176 222 278 338 406
#     4  12  26  47  72  99 142 184 238 289 348 411
#     4  12  28  45  72 103 140 188 232 290 349 410
#     4  10  26  42  66 108 132 178 216 288 340 418
#
# _framework density 20.693984
#
# number of rings (size 3 to 8) (size 9 to 14) (size 15 to 20)
#    0.000    0.800    4.000    2.400    5.600    0.000 
#   14.400    0.000    0.000    0.000    0.000    0.000 
#    0.000    0.000    0.000    0.000    0.000    0.000 
#
# Total GULP energy -248087.191097 kJ/mol
# GULP energy per Si atom -12404.359555 kJ/mol
# Density = 2.064688 g / cm^3
# Si number density = 20.693984 Si / 1000 Ang^3
#
#
#
# Elastic Constant Matrix: (Units=GPa)
#
#
# Indices 1 2 3 4 5 6 
#
# 1 159.0911 74.0140 68.2656 0.0000 0.2100 0.0000
# 2 74.0140 165.2609 63.9090 0.0000 -0.6474 0.0000
# 3 68.2656 63.9090 153.3092 0.0000 -0.7144 0.0000
# 4 0.0000 0.0000 0.0000 29.5836 0.0000 -17.3592
# 5 0.2100 -0.6474 -0.7144 0.0000 40.8233 0.0000
# 6 0.0000 0.0000 0.0000 -17.3592 0.0000 101.9789
#
#
#
# Elastic Compliance Matrix: (Units=1/GPa)
#
#
# Indices 1 2 3 4 5 6 
#
# 1 0.008794 -0.002891 -0.002712 0.000000 -0.000139 0.000000
# 2 -0.002891 0.008164 -0.002116 0.000000 0.000107 0.000000
# 3 -0.002712 -0.002116 0.008613 0.000000 0.000131 0.000000
# 4 0.000000 0.000000 0.000000 0.037554 0.000000 0.006392
# 5 -0.000139 0.000107 0.000131 0.000000 0.024501 0.000000
# 6 0.000000 0.000000 0.000000 0.006392 0.000000 0.010894
#
#
# Mechanical properties :
#
#
# Convention : Reuss Voigt Hill
#
# Bulk Modulus (GPa) = 98.66356 98.89313 98.77835
# Shear Modulus (GPa) = 42.61358 52.57535 47.59446
#
# Velocity S-wave (km/s) = 4.54279 5.04591 4.80095
# Velocity P-wave (km/s) = 8.67738 9.04657 8.86390
#
# Compressibility (1/GPa) = 0.01013545
#
# Stress axis : x y z
#
# Youngs Moduli (GPa) = 113.71171 122.48586 116.10659
#
# Poissons Ratio (x) = 0.35405 0.31483
# Poissons Ratio (y) = 0.32868 0.24566
# Poissons Ratio (z) = 0.30834 0.25915
#
# Static dielectric constant tensor:
#      x y z
#    x 4.095000 0.000000 -0.040800 
#    y 0.000000 4.084850 0.000000 
#    z -0.040800 0.000000 3.620630 
# 
# 
# High freq. dielectric constant tensor:
#      x y z
#    x 1.829460 0.000000 -0.003120 
#    y 0.000000 1.825810 0.000000 
#    z -0.003120 0.000000 1.808540 
# 
# From -- ./inp_files/59969.got.cif
#   From: 2010.06.25/outbox.cif.g09.slc.cpg/sg15_30_cif.got.tgz:59969.got - 2010.06.28 07:06:18.
