data_PCOD8146138
_publ_section_title
;
Structure prediction by ZEFSAII (Michael W. Deem and Ramdas Pophale) SiO2 
 PCOD8146138
Probable space group: C 2/C
;
_chemical_formula_sum "Si O2"
_cell_formula_units_Z 52
_cell_length_a 8.718081
_cell_length_b 15.713970
_cell_length_c 30.126663
_cell_angle_alpha 90.000000
_cell_angle_beta 35.521365
_cell_angle_gamma 90.000000
_cell_volume 2397.942875
_symmetry_space_group_name_H-M "C 2/C"
_symmetry_group_IT_number 15
_symmetry_cell_setting 'monoclinic'
loop_
_space_group_symop_operation_xyz
x,y,z
-x,y,1/2-z
-x,-y,-z
x,-y,1/2+z
1/2+x,1/2+y,z
1/2-x,1/2+y,1/2-z
1/2-x,1/2-y,-z
1/2+x,1/2-y,1/2+z
loop_
_atom_site_type_symbol
_atom_site_label
_atom_site_fract_x
_atom_site_fract_y
_atom_site_fract_z
Si Si1 0.363140 0.049509 0.327289
Si Si2 0.847936 0.265759 0.549142
Si Si3 0.500000 0.671724 0.750000
Si Si4 0.426976 0.595814 0.569469
Si Si5 0.349423 0.727028 0.107510
Si Si6 0.935842 0.537624 0.643881
Si Si7 0.988230 0.445770 0.547119
O O1 0.500000 0.076895 0.250000
O O2 0.170268 0.124970 0.388427
O O3 0.198087 0.960065 0.360307
O O4 0.584264 0.035963 0.313603
O O5 0.895246 0.198520 0.578327
O O6 0.577475 0.244483 0.587723
O O7 0.087880 0.260313 0.456866
O O8 0.833722 0.358913 0.573984
O O9 0.422262 0.730159 0.810878
O O10 0.749974 0.614022 0.703763
O O11 0.733463 0.574518 0.495160
O O12 0.248252 0.567385 0.568495
O O13 0.837257 0.502369 0.619573
O O14 0.000000 0.500000 0.500000
#
# Coordination Sequence:
#
# PCOD8146138 Si02
#       7
#     8   8   4   8   8   8   8
#     4  10  22  40  67  96 130 182 221 267 336 410
#     4  11  24  40  69 102 134 176 225 290 329 396
#     4  12  22  44  66  96 134 182 226 272 334 410
#     4  10  23  44  68  96 140 173 222 280 346 392
#     4  11  22  40  69 100 134 176 232 269 339 408
#     4  10  25  43  66  94 140 174 215 279 342 399
#     4  12  24  41  69 105 130 173 229 281 339 403
#
# _framework density 21.685254
#
# number of rings (size 3 to 8) (size 9 to 14) (size 15 to 20)
#    0.923    0.308    2.308    3.692    4.308    3.692 
#    0.000    0.000    1.692    0.000    0.000    0.000 
#    0.000    0.000    0.000    0.000    0.000    0.000 
#
# Total GULP energy -322122.034537 kJ/mol
# GULP energy per Si atom -12389.309021 kJ/mol
# Density = 2.163590 g / cm^3
# Si number density = 21.685254 Si / 1000 Ang^3
#
#
#
# Elastic Constant Matrix: (Units=GPa)
#
#
# Indices 1 2 3 4 5 6 
#
# 1 70.6772 27.9406 21.5420 -0.0022 1.3666 -0.0049
# 2 27.9406 128.4364 31.1052 -0.0153 6.4516 -0.0078
# 3 21.5420 31.1052 74.5879 -0.0556 6.1390 -0.0044
# 4 -0.0022 -0.0153 -0.0556 41.9840 -0.0054 -1.9259
# 5 1.3666 6.4516 6.1390 -0.0054 28.4138 0.0081
# 6 -0.0049 -0.0078 -0.0044 -1.9259 0.0081 41.7584
#
#
#
# Elastic Compliance Matrix: (Units=1/GPa)
#
#
# Indices 1 2 3 4 5 6 
#
# 1 0.016312 -0.002699 -0.003636 -0.000005 0.000614 0.000001
# 2 -0.002699 0.009148 -0.002927 -0.000001 -0.001315 0.000001
# 3 -0.003636 -0.002927 0.015891 0.000020 -0.002594 0.000002
# 4 -0.000005 -0.000001 0.000020 0.023869 0.000000 0.001101
# 5 0.000614 -0.001315 -0.002594 0.000000 0.036024 -0.000007
# 6 0.000001 0.000001 0.000002 0.001101 -0.000007 0.023998
#
#
# Mechanical properties :
#
#
# Convention : Reuss Voigt Hill
#
# Bulk Modulus (GPa) = 43.80778 48.31968 46.06373
# Shear Modulus (GPa) = 33.03029 35.30549 34.16789
#
# Velocity S-wave (km/s) = 3.90701 4.03933 3.97372
# Velocity P-wave (km/s) = 6.37169 6.63970 6.50708
#
# Compressibility (1/GPa) = 0.02282700
#
# Stress axis : x y z
#
# Youngs Moduli (GPa) = 61.30389 109.31269 62.92679
#
# Poissons Ratio (x) = 0.29502 0.22882
# Poissons Ratio (y) = 0.16545 0.18421
# Poissons Ratio (z) = 0.22291 0.31999
#
# Static dielectric constant tensor:
#      x y z
#    x 3.687200 0.000000 -0.065790 
#    y 0.000000 4.067330 0.000010 
#    z -0.065790 0.000010 3.673690 
# 
# 
# High freq. dielectric constant tensor:
#      x y z
#    x 1.831830 0.000000 -0.006910 
#    y 0.000000 1.871180 0.000000 
#    z -0.006910 0.000000 1.827350 
# 
# From -- ./inp_files/308502.got.cif
#   From: 2010.06.25/outbox.cif.g09.slc.cpg/sg15_155_cif.got.tgz:308502.got - 2010.06.28 07:06:18.
