data_PCOD8146626
_publ_section_title
;
Structure prediction by ZEFSAII (Michael W. Deem and Ramdas Pophale) SiO2 
 PCOD8146626
Probable space group: C 2/C
;
_chemical_formula_sum "Si O2"
_cell_formula_units_Z 28
_cell_length_a 7.723011
_cell_length_b 28.405796
_cell_length_c 7.111292
_cell_angle_alpha 90.000000
_cell_angle_beta 42.680632
_cell_angle_gamma 90.000000
_cell_volume 1057.584168
_symmetry_space_group_name_H-M "C 2/C"
_symmetry_group_IT_number 15
_symmetry_cell_setting 'monoclinic'
loop_
_space_group_symop_operation_xyz
x,y,z
-x,y,1/2-z
-x,-y,-z
x,-y,1/2+z
1/2+x,1/2+y,z
1/2-x,1/2+y,1/2-z
1/2-x,1/2-y,-z
1/2+x,1/2-y,1/2+z
loop_
_atom_site_type_symbol
_atom_site_label
_atom_site_fract_x
_atom_site_fract_y
_atom_site_fract_z
Si Si1 0.765885 0.137893 0.803142
Si Si2 0.500000 0.393342 0.750000
Si Si3 0.547189 0.054322 0.498364
Si Si4 0.976742 0.730829 0.056239
O O1 0.652740 0.086774 0.958001
O O2 0.000000 0.151978 0.750000
O O3 0.845540 0.139295 0.519208
O O4 0.533470 0.174989 0.007691
O O5 0.663352 0.427819 0.760100
O O6 0.500000 0.066270 0.750000
O O7 0.500000 0.000000 0.500000
O O8 0.000000 0.751599 0.250000
O O9 0.676340 0.742732 0.253126
#
# Coordination Sequence:
#
# PCOD8146626 Si02
#       4
#     8   4   8   8
#     4  11  25  42  73 100 136 192 230 295 361 421
#     4  10  26  46  62 102 148 170 244 298 342 436
#     4  10  25  42  67  99 138 180 236 294 351 428
#     4  10  22  41  70 109 143 182 244 298 353 429
#
# _framework density 26.475435999999998
#
# number of rings (size 3 to 8) (size 9 to 14) (size 15 to 20)
#    0.000    1.714    0.000    2.571   14.000    2.286 
#    0.000    1.429    0.000    0.000    0.000    0.000 
#    0.000    0.000    0.000    0.000    0.000    0.000 
#
# Total GULP energy -173458.136318 kJ/mol
# GULP energy per Si atom -12389.866880 kJ/mol
# Density = 2.641518 g / cm^3
# Si number density = 26.475436 Si / 1000 Ang^3
#
#
#
# Elastic Constant Matrix: (Units=GPa)
#
#
# Indices 1 2 3 4 5 6 
#
# 1 73.1559 23.6918 32.1203 0.0000 -15.3505 0.0000
# 2 23.6918 195.5081 54.7306 0.0000 -26.4603 0.0000
# 3 32.1203 54.7306 157.5957 0.0000 -26.1610 0.0000
# 4 0.0000 0.0000 0.0000 43.4189 0.0000 -5.4349
# 5 -15.3505 -26.4603 -26.1610 0.0000 36.3946 0.0000
# 6 0.0000 0.0000 0.0000 -5.4349 0.0000 -8.7874
#
#
#
# Elastic Compliance Matrix: (Units=1/GPa)
#
#
# Indices 1 2 3 4 5 6 
#
# 1 0.015829 -0.000673 -0.002232 0.000000 0.004583 0.000000
# 2 -0.000673 0.006014 -0.001445 0.000000 0.003050 0.000000
# 3 -0.002232 -0.001445 0.007916 0.000000 0.003698 0.000000
# 4 0.000000 0.000000 0.000000 0.021377 0.000000 -0.013221
# 5 0.004583 0.003050 0.003698 0.000000 0.034285 0.000000
# 6 0.000000 0.000000 0.000000 -0.013221 0.000000 -0.105622
#
#
# Mechanical properties :
#
#
# Convention : Reuss Voigt Hill
#
# Bulk Modulus (GPa) = 47.48604 71.92723 59.70664
# Shear Modulus (GPa) = -1115.42678 35.25301 -540.08689
#
# Velocity S-wave (km/s) = -20.54801 3.65298 -14.29819
# Velocity P-wave (km/s) = 23.34494 6.70961 15.81087
#
# Compressibility (1/GPa) = 0.02105882
#
# Stress axis : x y z
#
# Youngs Moduli (GPa) = 63.17561 166.28669 126.32735
#
# Poissons Ratio (x) = 0.11194 0.28192
# Poissons Ratio (y) = 0.04253 0.18255
# Poissons Ratio (z) = 0.14098 0.24029
#
# Static dielectric constant tensor:
#      x y z
#    x 5.920750 0.000000 -1.051980 
#    y 0.000000 6.247800 0.000000 
#    z -1.051980 0.000000 5.892210 
# 
# 
# High freq. dielectric constant tensor:
#      x y z
#    x 2.045900 0.000000 -0.010070 
#    y 0.000000 2.058090 0.000000 
#    z -0.010070 0.000000 2.078950 
# 
# From -- ./inp_files/2517.got.cif
#   From: 2010.06.25/outbox.cif.g09.slc.cpg/sg15_2_cif.got.tgz:2517.got - 2010.06.28 07:06:18.
