data_PCOD8146374
_publ_section_title
;
Structure prediction by ZEFSAII (Michael W. Deem and Ramdas Pophale) SiO2 
 PCOD8146374
Probable space group: C 2/C
;
_chemical_formula_sum "Si O2"
_cell_formula_units_Z 44
_cell_length_a 11.594024
_cell_length_b 16.060836
_cell_length_c 14.306743
_cell_angle_alpha 90.000000
_cell_angle_beta 124.366109
_cell_angle_gamma 90.000000
_cell_volume 2199.037292
_symmetry_space_group_name_H-M "C 2/C"
_symmetry_group_IT_number 15
_symmetry_cell_setting 'monoclinic'
loop_
_space_group_symop_operation_xyz
x,y,z
-x,y,1/2-z
-x,-y,-z
x,-y,1/2+z
1/2+x,1/2+y,z
1/2-x,1/2+y,1/2-z
1/2-x,1/2-y,-z
1/2+x,1/2-y,1/2+z
loop_
_atom_site_type_symbol
_atom_site_label
_atom_site_fract_x
_atom_site_fract_y
_atom_site_fract_z
Si Si1 0.234196 0.334706 0.749395
Si Si2 0.781932 0.165764 0.065988
Si Si3 0.529480 0.448911 0.604916
Si Si4 0.522165 0.096270 0.023125
Si Si5 0.740015 0.696428 0.901373
Si Si6 0.500000 0.426245 0.250000
O O1 0.319262 0.314122 0.691973
O O2 0.333094 0.394976 0.854887
O O3 0.087427 0.379646 0.655099
O O4 0.202283 0.253014 0.794855
O O5 0.900542 0.111189 0.071013
O O6 0.634643 0.117054 0.994117
O O7 0.750000 0.250000 0.000000
O O8 0.500000 0.500000 0.500000
O O9 0.568487 0.513585 0.704418
O O10 0.383044 0.149173 0.945349
O O11 0.500000 0.000000 0.000000
O O12 0.617679 0.628743 0.854511
O O13 0.750000 0.750000 0.000000
#
# Coordination Sequence:
#
# PCOD8146374 Si02
#       6
#     8   8   8   8   8   4
#     4  10  23  41  65  91 130 167 211 265 325 382
#     4  10  22  41  64  91 128 167 213 263 319 390
#     4  12  23  41  69  95 126 171 217 266 323 393
#     4  10  22  41  64  89 133 164 210 271 324 375
#     4  12  24  41  66  94 127 174 220 263 321 394
#     4  12  24  42  64  96 132 162 218 276 318 382
#
# _framework density 20.008756000000002
#
# number of rings (size 3 to 8) (size 9 to 14) (size 15 to 20)
#    1.091    0.000    1.818    5.455    2.545    0.000 
#    0.000    0.000    0.000    0.000    0.000    0.000 
#    0.000    0.000    0.000    0.000    0.000    0.000 
#
# Total GULP energy -272708.522936 kJ/mol
# GULP energy per Si atom -12395.841952 kJ/mol
# Density = 1.996321 g / cm^3
# Si number density = 20.008756 Si / 1000 Ang^3
#
#
#
# Elastic Constant Matrix: (Units=GPa)
#
#
# Indices 1 2 3 4 5 6 
#
# 1 58.2765 35.3619 19.5944 0.0000 16.5891 0.0000
# 2 35.3619 140.6991 48.6805 0.0000 5.9952 0.0000
# 3 19.5944 48.6805 89.5563 0.0000 3.1497 0.0000
# 4 0.0000 0.0000 0.0000 53.8839 0.0000 2.6486
# 5 16.5891 5.9952 3.1497 0.0000 45.0630 0.0000
# 6 0.0000 0.0000 0.0000 2.6486 0.0000 35.6745
#
#
#
# Elastic Compliance Matrix: (Units=1/GPa)
#
#
# Indices 1 2 3 4 5 6 
#
# 1 0.022916 -0.004670 -0.002206 0.000000 -0.007660 0.000000
# 2 -0.004670 0.009737 -0.004296 0.000000 0.000724 0.000000
# 3 -0.002206 -0.004296 0.013970 0.000000 0.000407 0.000000
# 4 0.000000 0.000000 0.000000 0.018626 0.000000 -0.001383
# 5 -0.007660 0.000724 0.000407 0.000000 0.024886 0.000000
# 6 0.000000 0.000000 0.000000 -0.001383 0.000000 0.028134
#
#
# Mechanical properties :
#
#
# Convention : Reuss Voigt Hill
#
# Bulk Modulus (GPa) = 41.18971 55.08949 48.13960
# Shear Modulus (GPa) = 33.62347 39.25060 36.43704
#
# Velocity S-wave (km/s) = 4.10376 4.43388 4.27201
# Velocity P-wave (km/s) = 6.56392 7.33518 6.96024
#
# Compressibility (1/GPa) = 0.02427791
#
# Stress axis : x y z
#
# Youngs Moduli (GPa) = 43.63853 102.70479 71.58254
#
# Poissons Ratio (x) = 0.47960 0.15791
# Poissons Ratio (y) = 0.20378 0.30754
# Poissons Ratio (z) = 0.09627 0.44126
#
# Static dielectric constant tensor:
#      x y z
#    x 3.526590 0.000000 0.088020 
#    y 0.000000 3.818830 0.000000 
#    z 0.088020 0.000000 3.617340 
# 
# 
# High freq. dielectric constant tensor:
#      x y z
#    x 1.777880 0.000000 0.010930 
#    y 0.000000 1.794590 0.000000 
#    z 0.010930 0.000000 1.781830 
# 
# From -- ./inp_files/143906.got.cif
#   From: 2010.06.25/outbox.cif.g09.slc.cpg/sg15_72_cif.got.tgz:143906.got - 2010.06.28 07:06:18.
