data_PCOD8146015
_publ_section_title
;
Structure prediction by ZEFSAII (Michael W. Deem and Ramdas Pophale) SiO2 
 PCOD8146015
Probable space group: C 2/C
;
_chemical_formula_sum "Si O2"
_cell_formula_units_Z 56
_cell_length_a 27.011845
_cell_length_b 15.425237
_cell_length_c 11.904032
_cell_angle_alpha 90.000000
_cell_angle_beta 31.546302
_cell_angle_gamma 90.000000
_cell_volume 2595.000719
_symmetry_space_group_name_H-M "C 2/C"
_symmetry_group_IT_number 15
_symmetry_cell_setting 'monoclinic'
loop_
_space_group_symop_operation_xyz
x,y,z
-x,y,1/2-z
-x,-y,-z
x,-y,1/2+z
1/2+x,1/2+y,z
1/2-x,1/2+y,1/2-z
1/2-x,1/2-y,-z
1/2+x,1/2-y,1/2+z
loop_
_atom_site_type_symbol
_atom_site_label
_atom_site_fract_x
_atom_site_fract_y
_atom_site_fract_z
Si Si1 0.000000 0.165320 0.750000
Si Si2 0.391700 0.382592 0.931748
Si Si3 0.261883 0.613652 0.895867
Si Si4 0.328645 0.432808 0.503683
Si Si5 0.941006 0.307731 0.696012
Si Si6 0.828449 0.447883 0.526180
Si Si7 0.055429 0.293182 0.256659
Si Si8 0.500000 0.945675 0.750000
O O1 0.090443 0.103313 0.570150
O O2 0.016315 0.222989 0.828000
O O3 0.500000 0.405672 0.750000
O O4 0.343848 0.463559 0.960512
O O5 0.390126 0.299371 0.851667
O O6 0.332472 0.359235 0.159155
O O7 0.322135 0.613927 0.894964
O O8 0.225332 0.515452 0.950283
O O9 0.173363 0.681248 0.072564
O O10 0.234761 0.409449 0.752600
O O11 0.992649 0.389638 0.651387
O O12 0.972690 0.299228 0.507469
O O13 0.867942 0.369492 0.373296
O O14 0.909132 0.495411 0.441060
O O15 0.000000 0.308214 0.250000
#
# Coordination Sequence:
#
# PCOD8146015 Si02
#       8
#     4   8   8   8   8   8   8   4
#     4  11  26  44  69  94 130 186 231 270 328 407
#     4  10  24  44  61  98 137 175 221 281 326 389
#     4  10  24  42  72  95 134 176 225 280 336 400
#     4  11  24  44  68  95 133 183 235 264 330 409
#     4  10  24  44  68 102 132 177 219 285 346 393
#     4  10  22  40  65 106 130 178 223 276 336 404
#     4  11  23  39  66 100 138 172 221 275 340 393
#     4   9  20  42  69  92 148 166 221 278 344 405
#
# _framework density 21.579955999999999
#
# number of rings (size 3 to 8) (size 9 to 14) (size 15 to 20)
#    0.000    1.714    1.429    0.857    8.000    4.571 
#    0.000    1.429    0.000    0.000    0.000    0.000 
#    0.000    0.000    0.000    0.000    0.000    0.000 
#
# Total GULP energy -347139.874399 kJ/mol
# GULP energy per Si atom -12397.852657 kJ/mol
# Density = 2.153084 g / cm^3
# Si number density = 21.579956 Si / 1000 Ang^3
#
#
#
# Elastic Constant Matrix: (Units=GPa)
#
#
# Indices 1 2 3 4 5 6 
#
# 1 103.8404 26.9311 50.8147 0.0000 -3.3721 0.0000
# 2 26.9311 97.2302 43.7898 0.0000 -5.7475 0.0000
# 3 50.8147 43.7898 168.9525 0.0000 3.4430 0.0000
# 4 0.0000 0.0000 0.0000 17.7770 0.0000 -5.5722
# 5 -3.3721 -5.7475 3.4430 0.0000 35.6905 0.0000
# 6 0.0000 0.0000 0.0000 -5.5722 0.0000 21.3556
#
#
#
# Elastic Compliance Matrix: (Units=1/GPa)
#
#
# Indices 1 2 3 4 5 6 
#
# 1 0.011623 -0.001777 -0.003058 0.000000 0.001107 0.000000
# 2 -0.001777 0.012086 -0.002640 0.000000 0.002033 0.000000
# 3 -0.003058 -0.002640 0.007552 0.000000 -0.001443 0.000000
# 4 0.000000 0.000000 0.000000 0.061263 0.000000 0.015985
# 5 0.001107 0.002033 -0.001443 0.000000 0.028590 0.000000
# 6 0.000000 0.000000 0.000000 0.015985 0.000000 0.050997
#
#
# Mechanical properties :
#
#
# Convention : Reuss Voigt Hill
#
# Bulk Modulus (GPa) = 61.30138 68.12160 64.71149
# Shear Modulus (GPa) = 25.97438 31.53044 28.75241
#
# Velocity S-wave (km/s) = 3.47311 3.82658 3.65412
# Velocity P-wave (km/s) = 6.67470 7.15257 6.91776
#
# Compressibility (1/GPa) = 0.01631285
#
# Stress axis : x y z
#
# Youngs Moduli (GPa) = 86.03385 82.74059 132.41441
#
# Poissons Ratio (x) = 0.14702 0.40491
# Poissons Ratio (y) = 0.15287 0.34951
# Poissons Ratio (z) = 0.26308 0.21840
#
# Static dielectric constant tensor:
#      x y z
#    x 4.483520 0.000000 -0.305170 
#    y 0.000000 4.236580 0.000000 
#    z -0.305170 0.000000 3.906910 
# 
# 
# High freq. dielectric constant tensor:
#      x y z
#    x 1.834150 0.000000 -0.011590 
#    y 0.000000 1.862740 0.000000 
#    z -0.011590 0.000000 1.849750 
# 
# From -- ./inp_files/127021.got.cif
#   From: 2010.06.25/outbox.cif.g09.slc.cpg/sg15_64_cif.got.tgz:127021.got - 2010.06.28 07:06:18.
