data_PCOD8146624
_publ_section_title
;
Structure prediction by ZEFSAII (Michael W. Deem and Ramdas Pophale) SiO2 
 PCOD8146624
Probable space group: C 2/C
;
_chemical_formula_sum "Si O2"
_cell_formula_units_Z 52
_cell_length_a 27.880924
_cell_length_b 10.516155
_cell_length_c 11.764631
_cell_angle_alpha 90.000000
_cell_angle_beta 40.475305
_cell_angle_gamma 90.000000
_cell_volume 2239.069666
_symmetry_space_group_name_H-M "C 2/C"
_symmetry_group_IT_number 15
_symmetry_cell_setting 'monoclinic'
loop_
_space_group_symop_operation_xyz
x,y,z
-x,y,1/2-z
-x,-y,-z
x,-y,1/2+z
1/2+x,1/2+y,z
1/2-x,1/2+y,1/2-z
1/2-x,1/2-y,-z
1/2+x,1/2-y,1/2+z
loop_
_atom_site_type_symbol
_atom_site_label
_atom_site_fract_x
_atom_site_fract_y
_atom_site_fract_z
Si Si1 0.209569 0.633217 0.244044
Si Si2 0.643551 0.475120 0.097100
Si Si3 0.500000 0.538120 0.250000
Si Si4 0.890588 0.542392 0.706422
Si Si5 0.412048 0.663437 0.609060
Si Si6 0.812808 0.741372 0.977874
Si Si7 0.520656 0.152539 0.340308
O O1 0.178279 0.500925 0.249136
O O2 0.156995 0.746815 0.297263
O O3 0.211850 0.647643 0.375882
O O4 0.295655 0.631142 0.049006
O O5 0.566076 0.446964 0.172939
O O6 0.626605 0.460175 0.262641
O O7 0.665027 0.617985 0.021659
O O8 0.465333 0.629953 0.409010
O O9 0.906545 0.435780 0.774720
O O10 0.955992 0.561044 0.500272
O O11 0.879775 0.674318 0.791758
O O12 0.466191 0.724060 0.606041
O O13 0.750000 0.750000 0.000000
O O14 0.500000 0.192391 0.250000
#
# Coordination Sequence:
#
# PCOD8146624 Si02
#       7
#     8   8   4   8   8   8   8
#     4  11  25  48  74 106 147 194 249 314 368 441
#     4  12  27  48  74 111 149 196 254 308 375 462
#     4  12  26  48  76 108 156 200 240 310 384 462
#     4  10  22  43  70 104 139 188 243 304 372 436
#     4  11  26  48  75 106 150 203 244 308 382 446
#     4  12  25  44  74 102 142 192 244 308 370 442
#     4  10  22  41  70 105 142 184 244 306 367 448
#
# _framework density 23.223932999999999
#
# number of rings (size 3 to 8) (size 9 to 14) (size 15 to 20)
#    0.000    0.923    3.077    2.769    3.231    1.231 
#    9.692    0.000    0.000    0.000    0.000    0.000 
#    0.000    0.000    0.000    0.000    0.000    0.000 
#
# Total GULP energy -322136.137486 kJ/mol
# GULP energy per Si atom -12389.851442 kJ/mol
# Density = 2.317107 g / cm^3
# Si number density = 23.223933 Si / 1000 Ang^3
#
#
#
# Elastic Constant Matrix: (Units=GPa)
#
#
# Indices 1 2 3 4 5 6 
#
# 1 156.7957 27.2525 71.4913 0.0000 2.1157 0.0000
# 2 27.2525 61.2623 49.9882 0.0000 4.6612 0.0000
# 3 71.4913 49.9882 147.9073 0.0000 5.5565 0.0000
# 4 0.0000 0.0000 0.0000 34.7209 0.0000 2.0961
# 5 2.1157 4.6612 5.5565 0.0000 45.0352 0.0000
# 6 0.0000 0.0000 0.0000 2.0961 0.0000 16.3263
#
#
#
# Elastic Compliance Matrix: (Units=1/GPa)
#
#
# Indices 1 2 3 4 5 6 
#
# 1 0.008196 -0.000580 -0.003771 0.000000 0.000140 0.000000
# 2 -0.000580 0.022668 -0.007328 0.000000 -0.001415 0.000000
# 3 -0.003771 -0.007328 0.011076 0.000000 -0.000431 0.000000
# 4 0.000000 0.000000 0.000000 0.029026 0.000000 -0.003727
# 5 0.000140 -0.001415 -0.000431 0.000000 0.022398 0.000000
# 6 0.000000 0.000000 0.000000 -0.003727 0.000000 0.061729
#
#
# Mechanical properties :
#
#
# Convention : Reuss Voigt Hill
#
# Bulk Modulus (GPa) = 53.81061 73.71434 63.76248
# Shear Modulus (GPa) = 27.07903 33.69870 30.38887
#
# Velocity S-wave (km/s) = 3.41837 3.81338 3.62126
# Velocity P-wave (km/s) = 6.22904 7.15533 6.70819
#
# Compressibility (1/GPa) = 0.01858369
#
# Stress axis : x y z
#
# Youngs Moduli (GPa) = 122.01186 44.11504 90.28214
#
# Poissons Ratio (x) = 0.02557 0.34044
# Poissons Ratio (y) = 0.07073 0.66156
# Poissons Ratio (z) = 0.46009 0.32326
#
# Static dielectric constant tensor:
#      x y z
#    x 5.173960 0.000000 0.112330 
#    y 0.000000 3.891200 0.000000 
#    z 0.112330 0.000000 4.281620 
# 
# 
# High freq. dielectric constant tensor:
#      x y z
#    x 1.936610 0.000000 -0.004750 
#    y 0.000000 1.909850 0.000000 
#    z -0.004750 0.000000 1.914890 
# 
# From -- ./inp_files/126420.got.cif
#   From: 2010.06.25/outbox.cif.g09.slc.cpg/sg15_64_cif.got.tgz:126420.got - 2010.06.28 07:06:18.
