data_PCOD8146652
_publ_section_title
;
Structure prediction by ZEFSAII (Michael W. Deem and Ramdas Pophale) SiO2 
 PCOD8146652
Probable space group: C 2/C
;
_chemical_formula_sum "Si O2"
_cell_formula_units_Z 40
_cell_length_a 21.081243
_cell_length_b 9.031765
_cell_length_c 8.649942
_cell_angle_alpha 90.000000
_cell_angle_beta 80.902518
_cell_angle_gamma 90.000000
_cell_volume 1626.238697
_symmetry_space_group_name_H-M "C 2/C"
_symmetry_group_IT_number 15
_symmetry_cell_setting 'monoclinic'
loop_
_space_group_symop_operation_xyz
x,y,z
-x,y,1/2-z
-x,-y,-z
x,-y,1/2+z
1/2+x,1/2+y,z
1/2-x,1/2+y,1/2-z
1/2-x,1/2-y,-z
1/2+x,1/2-y,1/2+z
loop_
_atom_site_type_symbol
_atom_site_label
_atom_site_fract_x
_atom_site_fract_y
_atom_site_fract_z
Si Si1 0.302375 0.341736 0.890047
Si Si2 0.082745 0.659268 0.543439
Si Si3 0.533623 0.344640 0.995112
Si Si4 0.395492 0.155250 0.319733
Si Si5 0.674085 0.356138 0.950793
O O1 0.371888 0.267728 0.879478
O O2 0.303834 0.507654 0.953327
O O3 0.250000 0.250000 0.000000
O O4 0.280746 0.339711 0.717252
O O5 0.081339 0.500188 0.622235
O O6 0.010130 0.723492 0.576706
O O7 0.112286 0.647072 0.359855
O O8 0.549520 0.278372 0.160784
O O9 0.603819 0.374871 0.894605
O O10 0.500000 0.500000 0.000000
O O11 0.329370 0.210921 0.433581
#
# Coordination Sequence:
#
# PCOD8146652 Si02
#       5
#     8   8   8   8   8
#     4  12  27  47  74  97 136 188 241 288 340 420
#     4  12  22  45  66 106 143 184 228 286 358 417
#     4  10  22  41  73 101 145 176 229 288 364 425
#     4  10  24  40  69 104 142 178 224 285 353 423
#     4  10  25  46  68 103 134 180 236 285 357 412
#
# _framework density 24.596634000000002
#
# number of rings (size 3 to 8) (size 9 to 14) (size 15 to 20)
#    1.200    0.000    2.000    3.600    0.000    4.000 
#    0.000    3.000    0.000    0.000    0.000    0.000 
#    0.000    0.000    0.000    0.000    0.000    0.000 
#
# Total GULP energy -247766.695036 kJ/mol
# GULP energy per Si atom -12388.334752 kJ/mol
# Density = 2.454065 g / cm^3
# Si number density = 24.596634 Si / 1000 Ang^3
#
#
#
# Elastic Constant Matrix: (Units=GPa)
#
#
# Indices 1 2 3 4 5 6 
#
# 1 22.7506 -2.2175 6.7805 0.0000 2.3867 0.0000
# 2 -2.2175 139.5502 44.1724 0.0000 9.1029 0.0000
# 3 6.7805 44.1724 128.1324 0.0000 5.0416 0.0000
# 4 0.0000 0.0000 0.0000 30.0208 0.0000 -0.6803
# 5 2.3867 9.1029 5.0416 0.0000 29.7317 0.0000
# 6 0.0000 0.0000 0.0000 -0.6803 0.0000 44.5533
#
#
#
# Elastic Compliance Matrix: (Units=1/GPa)
#
#
# Indices 1 2 3 4 5 6 
#
# 1 0.045395 0.001884 -0.002905 0.000000 -0.003728 0.000000
# 2 0.001884 0.008242 -0.002855 0.000000 -0.002191 0.000000
# 3 -0.002905 -0.002855 0.008959 0.000000 -0.000412 0.000000
# 4 0.000000 0.000000 0.000000 0.033322 0.000000 0.000509
# 5 -0.003728 -0.002191 -0.000412 0.000000 0.034674 0.000000
# 6 0.000000 0.000000 0.000000 0.000509 0.000000 0.022453
#
#
# Mechanical properties :
#
#
# Convention : Reuss Voigt Hill
#
# Bulk Modulus (GPa) = 18.23335 43.10044 30.66690
# Shear Modulus (GPa) = 27.92072 36.97433 32.44753
#
# Velocity S-wave (km/s) = 3.37284 3.88135 3.63600
# Velocity P-wave (km/s) = 4.75365 6.13575 5.48838
#
# Compressibility (1/GPa) = 0.05484456
#
# Stress axis : x y z
#
# Youngs Moduli (GPa) = 22.02864 121.32354 111.62466
#
# Poissons Ratio (x) = -0.22859 0.32428
# Poissons Ratio (y) = -0.04150 0.31869
# Poissons Ratio (z) = 0.06399 0.34638
#
# Static dielectric constant tensor:
#      x y z
#    x 4.547160 0.000000 -0.164110 
#    y 0.000000 4.821300 0.000000 
#    z -0.164110 0.000000 4.608390 
# 
# 
# High freq. dielectric constant tensor:
#      x y z
#    x 1.972590 0.000000 0.001090 
#    y 0.000000 1.982330 0.000000 
#    z 0.001090 0.000000 1.984370 
# 
# From -- ./inp_files/64520.got.cif
#   From: 2010.06.25/outbox.cif.g09.slc.cpg/sg15_33_cif.got.tgz:64520.got - 2010.06.28 07:06:18.
