data_PCOD8146859
_publ_section_title
;
Structure prediction by ZEFSAII (Michael W. Deem and Ramdas Pophale) SiO2 
 PCOD8146859
Probable space group: C 2/C
;
_chemical_formula_sum "Si O2"
_cell_formula_units_Z 40
_cell_length_a 29.295991
_cell_length_b 9.287831
_cell_length_c 8.635555
_cell_angle_alpha 90.000000
_cell_angle_beta 135.390940
_cell_angle_gamma 90.000000
_cell_volume 1650.114837
_symmetry_space_group_name_H-M "C 2/C"
_symmetry_group_IT_number 15
_symmetry_cell_setting 'monoclinic'
loop_
_space_group_symop_operation_xyz
x,y,z
-x,y,1/2-z
-x,-y,-z
x,-y,1/2+z
1/2+x,1/2+y,z
1/2-x,1/2+y,1/2-z
1/2-x,1/2-y,-z
1/2+x,1/2-y,1/2+z
loop_
_atom_site_type_symbol
_atom_site_label
_atom_site_fract_x
_atom_site_fract_y
_atom_site_fract_z
Si Si1 0.747606 0.069797 0.550373
Si Si2 0.786744 0.309418 0.835848
Si Si3 0.892637 0.859221 0.292089
Si Si4 0.984304 0.653362 0.390655
Si Si5 0.918395 0.152728 0.192934
O O1 0.736516 0.179643 0.669172
O O2 0.699281 0.095430 0.287939
O O3 0.817906 0.119832 0.657119
O O4 0.745224 0.906847 0.606068
O O5 0.853229 0.246514 0.063073
O O6 0.935538 0.854247 0.552683
O O7 0.909853 0.708688 0.242252
O O8 0.911312 0.989475 0.227620
O O9 0.026472 0.776327 0.572160
O O10 0.000000 0.643697 0.250000
O O11 0.000000 0.500000 0.500000
#
# Coordination Sequence:
#
# PCOD8146859 Si02
#       5
#     8   8   8   8   8
#     4  10  22  42  66 100 143 184 232 286 345 419
#     4  10  23  40  64  98 136 182 232 286 346 410
#     4  11  23  44  69  98 138 185 235 284 345 415
#     4  12  27  47  71 101 136 175 228 292 355 417
#     4  11  24  43  69  99 136 183 234 288 344 415
#
# _framework density 24.240738
#
# number of rings (size 3 to 8) (size 9 to 14) (size 15 to 20)
#    0.000    1.200    0.000    6.000    0.000    9.600 
#    0.000    0.000    0.000    0.000    0.000    0.000 
#    0.000    0.000    0.000    0.000    0.000    0.000 
#
# Total GULP energy -247840.216681 kJ/mol
# GULP energy per Si atom -12392.010834 kJ/mol
# Density = 2.418557 g / cm^3
# Si number density = 24.240738 Si / 1000 Ang^3
#
#
#
# Elastic Constant Matrix: (Units=GPa)
#
#
# Indices 1 2 3 4 5 6 
#
# 1 106.4333 71.3419 33.1785 0.0000 -23.5801 0.0000
# 2 71.3419 171.2205 24.6979 0.0000 -13.5554 0.0000
# 3 33.1785 24.6979 80.4200 0.0000 -15.6030 0.0000
# 4 0.0000 0.0000 0.0000 47.6437 0.0000 -14.3474
# 5 -23.5801 -13.5554 -15.6030 0.0000 35.2511 0.0000
# 6 0.0000 0.0000 0.0000 -14.3474 0.0000 36.8925
#
#
#
# Elastic Compliance Matrix: (Units=1/GPa)
#
#
# Indices 1 2 3 4 5 6 
#
# 1 0.015665 -0.005488 -0.003450 0.000000 0.006841 0.000000
# 2 -0.005488 0.008124 -0.000369 0.000000 -0.000710 0.000000
# 3 -0.003450 -0.000369 0.014764 0.000000 0.004085 0.000000
# 4 0.000000 0.000000 0.000000 0.023773 0.000000 0.009245
# 5 0.006841 -0.000710 0.004085 0.000000 0.034479 0.000000
# 6 0.000000 0.000000 0.000000 0.009245 0.000000 0.030701
#
#
# Mechanical properties :
#
#
# Convention : Reuss Voigt Hill
#
# Bulk Modulus (GPa) = 50.15099 68.50116 59.32607
# Shear Modulus (GPa) = 32.72950 39.21448 35.97199
#
# Velocity S-wave (km/s) = 3.67847 4.02644 3.85638
# Velocity P-wave (km/s) = 6.22697 7.06656 6.66001
#
# Compressibility (1/GPa) = 0.01993979
#
# Stress axis : x y z
#
# Youngs Moduli (GPa) = 63.83528 123.09191 67.73236
#
# Poissons Ratio (x) = 0.67552 0.23369
# Poissons Ratio (y) = 0.35032 0.02497
# Poissons Ratio (z) = 0.22025 0.04538
#
# Static dielectric constant tensor:
#      x y z
#    x 4.466880 0.000000 -0.067580 
#    y 0.000000 4.671530 0.000000 
#    z -0.067580 0.000000 5.089870 
# 
# 
# High freq. dielectric constant tensor:
#      x y z
#    x 1.952550 0.000000 -0.009350 
#    y 0.000000 1.974950 0.000000 
#    z -0.009350 0.000000 1.972930 
# 
# From -- ./inp_files/68443.got.cif
#   From: 2010.06.25/outbox.cif.g09.slc.cpg/sg15_35_cif.got.tgz:68443.got - 2010.06.28 07:06:18.
