data_PCOD8146387
_publ_section_title
;
Structure prediction by ZEFSAII (Michael W. Deem and Ramdas Pophale) SiO2 
 PCOD8146387
Probable space group: C 2/C
;
_chemical_formula_sum "Si O2"
_cell_formula_units_Z 60
_cell_length_a 11.465894
_cell_length_b 28.908793
_cell_length_c 8.918570
_cell_angle_alpha 90.000000
_cell_angle_beta 75.239766
_cell_angle_gamma 90.000000
_cell_volume 2858.642079
_symmetry_space_group_name_H-M "C 2/C"
_symmetry_group_IT_number 15
_symmetry_cell_setting 'monoclinic'
loop_
_space_group_symop_operation_xyz
x,y,z
-x,y,1/2-z
-x,-y,-z
x,-y,1/2+z
1/2+x,1/2+y,z
1/2-x,1/2+y,1/2-z
1/2-x,1/2-y,-z
1/2+x,1/2-y,1/2+z
loop_
_atom_site_type_symbol
_atom_site_label
_atom_site_fract_x
_atom_site_fract_y
_atom_site_fract_z
Si Si1 0.310872 0.640719 0.261963
Si Si2 0.500000 0.605121 0.750000
Si Si3 0.888953 0.389499 0.885275
Si Si4 0.846915 0.167005 0.588884
Si Si5 0.600622 0.822008 0.345732
Si Si6 0.464399 0.725393 0.099513
Si Si7 0.701828 0.539642 0.559505
Si Si8 0.125033 0.964895 0.773399
O O1 0.188384 0.640611 0.207790
O O2 0.296431 0.652018 0.442304
O O3 0.392179 0.677619 0.145685
O O4 0.368311 0.590060 0.240773
O O5 0.451144 0.634609 0.624900
O O6 0.617145 0.576454 0.668338
O O7 0.000000 0.407083 0.750000
O O8 0.925663 0.359448 0.017122
O O9 0.823953 0.435615 0.966605
O O10 0.734995 0.171940 0.736292
O O11 0.917642 0.215791 0.541655
O O12 0.500000 0.829564 0.250000
O O13 0.602488 0.772084 0.433274
O O14 0.500000 0.743912 0.250000
O O15 0.729142 0.494390 0.652522
O O16 0.630909 0.519273 0.441545
O O17 0.000000 0.983676 0.750000
#
# Coordination Sequence:
#
# PCOD8146387 Si02
#       8
#     8   4   8   8   8   8   8   8
#     4  10  22  41  64  92 130 173 203 260 332 377
#     4  12  22  40  64  98 134 156 208 270 322 372
#     4  11  24  45  62  90 131 170 218 265 311 376
#     4  11  22  40  66  91 129 168 210 261 320 380
#     4  11  24  41  66  95 122 169 221 262 314 377
#     4   9  21  40  62  94 131 164 207 263 323 380
#     4  11  24  38  62  96 127 162 205 264 319 379
#     4  11  21  36  62  96 127 160 205 255 324 385
#
# _framework density 20.988987000000002
#
# number of rings (size 3 to 8) (size 9 to 14) (size 15 to 20)
#    0.000    1.333    2.000    4.800    1.867    6.400 
#    1.200    2.667    0.000    1.600    0.000    0.000 
#    0.000    0.000    0.000    0.000    0.000    0.000 
#
# Total GULP energy -371654.137136 kJ/mol
# GULP energy per Si atom -12388.471238 kJ/mol
# Density = 2.094121 g / cm^3
# Si number density = 20.988987 Si / 1000 Ang^3
#
#
#
# Elastic Constant Matrix: (Units=GPa)
#
#
# Indices 1 2 3 4 5 6 
#
# 1 78.8826 27.7873 32.5640 0.0000 -6.3380 0.0000
# 2 27.7873 94.4410 36.1973 0.0000 1.4953 0.0000
# 3 32.5640 36.1973 105.7898 0.0000 -3.2238 0.0000
# 4 0.0000 0.0000 0.0000 -377.5089 0.0000 -73.1082
# 5 -6.3380 1.4953 -3.2238 0.0000 48.0032 0.0000
# 6 0.0000 0.0000 0.0000 -73.1082 0.0000 -16.3050
#
#
#
# Elastic Compliance Matrix: (Units=1/GPa)
#
#
# Indices 1 2 3 4 5 6 
#
# 1 0.015441 -0.003192 -0.003603 0.000000 0.001896 0.000000
# 2 -0.003192 0.012868 -0.003452 0.000000 -0.001054 0.000000
# 3 -0.003603 -0.003452 0.011756 0.000000 0.000421 0.000000
# 4 0.000000 0.000000 0.000000 -0.020118 0.000000 0.090203
# 5 0.001896 -0.001054 0.000421 0.000000 0.021143 0.000000
# 6 0.000000 0.000000 0.000000 0.090203 0.000000 -0.465782
#
#
# Mechanical properties :
#
#
# Convention : Reuss Voigt Hill
#
# Bulk Modulus (GPa) = 51.09971 52.46786 51.78378
# Shear Modulus (GPa) = -12.57316 -56.99117 -34.78216
#
# Velocity S-wave (km/s) = -2.45018 -5.21650 -4.07524
# Velocity P-wave (km/s) = 4.04899 3.35118 1.60685
#
# Compressibility (1/GPa) = 0.01956958
#
# Stress axis : x y z
#
# Youngs Moduli (GPa) = 64.76114 77.71333 85.06370
#
# Poissons Ratio (x) = 0.24809 0.30649
# Poissons Ratio (y) = 0.20674 0.29367
# Poissons Ratio (z) = 0.23334 0.26829
#
# Static dielectric constant tensor:
#      x y z
#    x 4.386050 0.000000 0.028220 
#    y 0.000000 3.798400 0.000000 
#    z 0.028220 0.000000 4.033370 
# 
# 
# High freq. dielectric constant tensor:
#      x y z
#    x 1.806040 0.000000 0.002180 
#    y 0.000000 1.826350 0.000000 
#    z 0.002180 0.000000 1.835940 
# 
# From -- ./inp_files/35215.got.cif
#   From: 2010.06.25/outbox.cif.g09.slc.cpg/sg15_18_cif.got.tgz:35215.got - 2010.06.28 07:06:18.
