data_PCOD8146438
_publ_section_title
;
Structure prediction by ZEFSAII (Michael W. Deem and Ramdas Pophale) SiO2 
 PCOD8146438
Probable space group: C 2/C
;
_chemical_formula_sum "Si O2"
_cell_formula_units_Z 36
_cell_length_a 15.077271
_cell_length_b 7.569276
_cell_length_c 18.714095
_cell_angle_alpha 90.000000
_cell_angle_beta 129.790421
_cell_angle_gamma 90.000000
_cell_volume 1641.073058
_symmetry_space_group_name_H-M "C 2/C"
_symmetry_group_IT_number 15
_symmetry_cell_setting 'monoclinic'
loop_
_space_group_symop_operation_xyz
x,y,z
-x,y,1/2-z
-x,-y,-z
x,-y,1/2+z
1/2+x,1/2+y,z
1/2-x,1/2+y,1/2-z
1/2-x,1/2-y,-z
1/2+x,1/2-y,1/2+z
loop_
_atom_site_type_symbol
_atom_site_label
_atom_site_fract_x
_atom_site_fract_y
_atom_site_fract_z
Si Si1 0.102561 0.128564 0.197939
Si Si2 0.129937 0.289523 0.476336
Si Si3 0.152606 0.368509 0.915916
Si Si4 0.500000 0.621465 0.750000
Si Si5 0.734308 0.405777 0.150674
O O1 0.172816 0.303907 0.253417
O O2 0.971185 0.175440 0.111036
O O3 0.160651 0.035922 0.160925
O O4 0.099197 0.999271 0.264979
O O5 0.250000 0.250000 0.500000
O O6 0.103888 0.498005 0.451864
O O7 0.146579 0.234019 0.567754
O O8 0.049954 0.241634 0.838873
O O9 0.198406 0.477177 0.872027
O O10 0.250000 0.250000 0.000000
#
# Coordination Sequence:
#
# PCOD8146438 Si02
#       5
#     8   8   8   4   8
#     4  12  24  43  67  96 132 171 216 269 321 382
#     4  10  22  41  65  93 128 169 212 262 317 379
#     4  11  22  40  64  94 128 169 212 258 318 385
#     4  12  22  38  64  94 126 170 214 262 318 382
#     4  11  24  43  64  96 131 170 214 267 324 382
#
# _framework density 21.936865999999998
#
# number of rings (size 3 to 8) (size 9 to 14) (size 15 to 20)
#    0.000    0.889    0.000   10.000    0.000    0.000 
#    0.000    3.333    0.000    0.000    0.000    0.000 
#    0.000    0.000    0.000    0.000    0.000    0.000 
#
# Total GULP energy -223251.039890 kJ/mol
# GULP energy per Si atom -12402.835549 kJ/mol
# Density = 2.188694 g / cm^3
# Si number density = 21.936866 Si / 1000 Ang^3
#
#
#
# Elastic Constant Matrix: (Units=GPa)
#
#
# Indices 1 2 3 4 5 6 
#
# 1 79.8682 52.1487 37.0131 0.0000 -2.3100 0.0000
# 2 52.1487 127.0977 51.3346 0.0000 3.0303 0.0000
# 3 37.0131 51.3346 131.7025 0.0000 16.1132 0.0000
# 4 0.0000 0.0000 0.0000 44.3800 0.0000 -19.0421
# 5 -2.3100 3.0303 16.1132 0.0000 36.5224 0.0000
# 6 0.0000 0.0000 0.0000 -19.0421 0.0000 43.8826
#
#
#
# Elastic Compliance Matrix: (Units=1/GPa)
#
#
# Indices 1 2 3 4 5 6 
#
# 1 0.018104 -0.006286 -0.003004 0.000000 0.002992 0.000000
# 2 -0.006286 0.011548 -0.002715 0.000000 -0.000158 0.000000
# 3 -0.003004 -0.002715 0.010032 0.000000 -0.004391 0.000000
# 4 0.000000 0.000000 0.000000 0.027688 0.000000 0.012015
# 5 0.002992 -0.000158 -0.004391 0.000000 0.029520 0.000000
# 6 0.000000 0.000000 0.000000 0.012015 0.000000 0.028002
#
#
# Mechanical properties :
#
#
# Convention : Reuss Voigt Hill
#
# Bulk Modulus (GPa) = 63.79973 68.85126 66.32549
# Shear Modulus (GPa) = 32.44077 38.16848 35.30462
#
# Velocity S-wave (km/s) = 3.84972 4.17576 4.01605
# Velocity P-wave (km/s) = 6.99335 7.39619 7.19759
#
# Compressibility (1/GPa) = 0.01567405
#
# Stress axis : x y z
#
# Youngs Moduli (GPa) = 55.23782 86.59846 99.67667
#
# Poissons Ratio (x) = 0.54437 0.29939
# Poissons Ratio (y) = 0.34723 0.27062
# Poissons Ratio (z) = 0.16591 0.23512
#
# Static dielectric constant tensor:
#      x y z
#    x 3.715110 0.000000 -0.139770 
#    y 0.000000 4.641550 0.000000 
#    z -0.139770 0.000000 4.409940 
# 
# 
# High freq. dielectric constant tensor:
#      x y z
#    x 1.843900 0.000000 0.001220 
#    y 0.000000 1.882990 0.000000 
#    z 0.001220 0.000000 1.877920 
# 
# From -- ./inp_files/150356.got.cif
#   From: 2010.06.25/outbox.cif.g09.slc.cpg/sg15_76_cif.got.tgz:150356.got - 2010.06.28 07:06:18.
