data_PCOD8146201
_publ_section_title
;
Structure prediction by ZEFSAII (Michael W. Deem and Ramdas Pophale) SiO2 
 PCOD8146201
Probable space group: C 2/C
;
_chemical_formula_sum "Si O2"
_cell_formula_units_Z 56
_cell_length_a 9.235307
_cell_length_b 13.053415
_cell_length_c 24.206981
_cell_angle_alpha 90.000000
_cell_angle_beta 61.952167
_cell_angle_gamma 90.000000
_cell_volume 2575.479300
_symmetry_space_group_name_H-M "C 2/C"
_symmetry_group_IT_number 15
_symmetry_cell_setting 'monoclinic'
loop_
_space_group_symop_operation_xyz
x,y,z
-x,y,1/2-z
-x,-y,-z
x,-y,1/2+z
1/2+x,1/2+y,z
1/2-x,1/2+y,1/2-z
1/2-x,1/2-y,-z
1/2+x,1/2-y,1/2+z
loop_
_atom_site_type_symbol
_atom_site_label
_atom_site_fract_x
_atom_site_fract_y
_atom_site_fract_z
Si Si1 0.178271 0.148668 0.072369
Si Si2 0.519704 0.845825 0.053499
Si Si3 0.469623 0.476787 0.069325
Si Si4 0.900771 0.454478 0.348791
Si Si5 0.979263 0.327073 0.691240
Si Si6 0.819750 0.204312 0.931669
Si Si7 0.342327 0.742897 0.306617
O O1 0.075518 0.229217 0.054296
O O2 0.208396 0.189452 0.127725
O O3 0.069521 0.047852 0.093045
O O4 0.355008 0.116151 0.016112
O O5 0.533960 0.915242 0.104596
O O6 0.331925 0.856956 0.068080
O O7 0.280818 0.498149 0.113226
O O8 0.523622 0.362936 0.077638
O O9 0.500000 0.500000 0.000000
O O10 0.891557 0.361970 0.306569
O O11 0.018924 0.548259 0.309342
O O12 0.807269 0.275412 0.707312
O O13 0.000000 0.288045 0.750000
O O14 0.119577 0.287398 0.624006
O O15 0.750000 0.250000 0.000000
O O16 0.500000 0.689577 0.250000
#
# Coordination Sequence:
#
# PCOD8146201 Si02
#       7
#     8   8   8   8   8   8   8
#     4  10  22  40  68  98 143 178 239 291 363 421
#     4  10  22  40  71 102 134 185 231 298 353 426
#     4  12  23  42  67 106 141 185 233 301 361 430
#     4  11  24  46  73 101 142 185 237 290 366 428
#     4  12  28  49  73 107 144 188 241 301 366 433
#     4  12  26  44  71 105 145 186 246 295 359 436
#     4  11  26  48  70 100 142 191 241 292 360 438
#
# _framework density 21.743525000000002
#
# number of rings (size 3 to 8) (size 9 to 14) (size 15 to 20)
#    0.000    0.857    2.857    3.857   10.000    0.571 
#    0.000    0.714    0.000    0.000    0.000    0.000 
#    0.000    0.000    0.000    0.000    0.000    0.000 
#
# Total GULP energy -347189.204084 kJ/mol
# GULP energy per Si atom -12399.614432 kJ/mol
# Density = 2.169404 g / cm^3
# Si number density = 21.743525 Si / 1000 Ang^3
#
#
#
# Elastic Constant Matrix: (Units=GPa)
#
#
# Indices 1 2 3 4 5 6 
#
# 1 139.4881 32.2904 58.8676 0.0000 9.3891 0.0000
# 2 32.2904 91.6764 33.7092 0.0000 15.9136 0.0000
# 3 58.8676 33.7092 109.6921 0.0000 8.0103 0.0000
# 4 0.0000 0.0000 0.0000 24.1766 0.0000 -5.8810
# 5 9.3891 15.9136 8.0103 0.0000 34.3392 0.0000
# 6 0.0000 0.0000 0.0000 -5.8810 0.0000 28.7370
#
#
#
# Elastic Compliance Matrix: (Units=1/GPa)
#
#
# Indices 1 2 3 4 5 6 
#
# 1 0.009508 -0.001524 -0.004574 0.000000 -0.000827 0.000000
# 2 -0.001524 0.013410 -0.002930 0.000000 -0.005114 0.000000
# 3 -0.004574 -0.002930 0.012494 0.000000 -0.000306 0.000000
# 4 0.000000 0.000000 0.000000 0.043529 0.000000 0.008908
# 5 -0.000827 -0.005114 -0.000306 0.000000 0.031789 0.000000
# 6 0.000000 0.000000 0.000000 0.008908 0.000000 0.036621
#
#
# Mechanical properties :
#
#
# Convention : Reuss Voigt Hill
#
# Bulk Modulus (GPa) = 57.61465 65.62122 61.61794
# Shear Modulus (GPa) = 29.20723 31.84982 30.52853
#
# Velocity S-wave (km/s) = 3.66903 3.83142 3.75110
# Velocity P-wave (km/s) = 6.67113 7.05820 6.86739
#
# Compressibility (1/GPa) = 0.01735670
#
# Stress axis : x y z
#
# Youngs Moduli (GPa) = 105.17803 74.57347 80.04004
#
# Poissons Ratio (x) = 0.11361 0.36609
# Poissons Ratio (y) = 0.16024 0.23450
# Poissons Ratio (z) = 0.48107 0.21848
#
# Static dielectric constant tensor:
#      x y z
#    x 4.039380 0.000000 0.045410 
#    y 0.000000 3.954660 0.000000 
#    z 0.045410 0.000000 4.075090 
# 
# 
# High freq. dielectric constant tensor:
#      x y z
#    x 1.865600 0.000000 0.000350 
#    y 0.000000 1.848370 0.000000 
#    z 0.000350 0.000000 1.859210 
# 
# From -- ./inp_files/264568.got.cif
#   From: 2010.06.25/outbox.cif.g09.slc.cpg/sg15_133_cif.got.tgz:264568.got - 2010.06.28 07:06:18.
