data_PCOD8146640
_publ_section_title
;
Structure prediction by ZEFSAII (Michael W. Deem and Ramdas Pophale) SiO2 
 PCOD8146640
Probable space group: C 2/C
;
_chemical_formula_sum "Si O2"
_cell_formula_units_Z 40
_cell_length_a 10.218841
_cell_length_b 10.972555
_cell_length_c 15.664083
_cell_angle_alpha 90.000000
_cell_angle_beta 93.060840
_cell_angle_gamma 90.000000
_cell_volume 1753.857791
_symmetry_space_group_name_H-M "C 2/C"
_symmetry_group_IT_number 15
_symmetry_cell_setting 'monoclinic'
loop_
_space_group_symop_operation_xyz
x,y,z
-x,y,1/2-z
-x,-y,-z
x,-y,1/2+z
1/2+x,1/2+y,z
1/2-x,1/2+y,1/2-z
1/2-x,1/2-y,-z
1/2+x,1/2-y,1/2+z
loop_
_atom_site_type_symbol
_atom_site_label
_atom_site_fract_x
_atom_site_fract_y
_atom_site_fract_z
Si Si1 0.786107 0.948407 0.988852
Si Si2 0.672358 0.122217 0.114872
Si Si3 0.751444 0.879128 0.334586
Si Si4 0.500000 0.660980 0.750000
Si Si5 0.437478 0.759539 0.564024
Si Si6 0.500000 0.995457 0.250000
O O1 0.677533 0.854859 0.952983
O O2 0.806269 0.052547 0.920216
O O3 0.915385 0.866572 0.011507
O O4 0.752937 0.011057 0.078149
O O5 0.761118 0.233643 0.151276
O O6 0.573235 0.177022 0.038140
O O7 0.585380 0.075532 0.189827
O O8 0.866183 0.912961 0.269408
O O9 0.604615 0.914111 0.304794
O O10 0.457715 0.739579 0.666137
#
# Coordination Sequence:
#
# PCOD8146640 Si02
#       6
#     8   8   8   4   8   4
#     4  11  23  42  71 102 138 182 235 285 345 414
#     4  11  23  44  68 100 140 181 230 293 341 417
#     4  11  25  43  74 103 139 187 236 288 348 413
#     4  10  23  46  67  98 144 181 230 285 346 412
#     4  10  22  41  71  96 137 186 224 278 359 407
#     4  12  25  46  73 102 144 189 230 289 356 410
#
# _framework density 22.806864999999998
#
# number of rings (size 3 to 8) (size 9 to 14) (size 15 to 20)
#    0.000    1.200    2.000    4.800    0.000    3.200 
#    0.000    8.000    0.000    0.000    0.000    0.000 
#    0.000    0.000    0.000    0.000    0.000    0.000 
#
# Total GULP energy -247771.353991 kJ/mol
# GULP energy per Si atom -12388.567700 kJ/mol
# Density = 2.275496 g / cm^3
# Si number density = 22.806865 Si / 1000 Ang^3
#
#
#
# Elastic Constant Matrix: (Units=GPa)
#
#
# Indices 1 2 3 4 5 6 
#
# 1 42.9006 40.5612 15.2954 0.0000 12.1228 0.0000
# 2 40.5612 115.2679 45.7233 0.0000 10.1603 0.0000
# 3 15.2954 45.7233 83.9079 0.0000 5.9283 0.0000
# 4 0.0000 0.0000 0.0000 12.7370 0.0000 -7.0669
# 5 12.1228 10.1603 5.9283 0.0000 39.2254 0.0000
# 6 0.0000 0.0000 0.0000 -7.0669 0.0000 30.2836
#
#
#
# Elastic Compliance Matrix: (Units=1/GPa)
#
#
# Indices 1 2 3 4 5 6 
#
# 1 0.037455 -0.012716 0.000694 0.000000 -0.008387 0.000000
# 2 -0.012716 0.015539 -0.006209 0.000000 0.000843 0.000000
# 3 0.000694 -0.006209 0.015239 0.000000 -0.000909 0.000000
# 4 0.000000 0.000000 0.000000 0.090188 0.000000 0.021046
# 5 -0.008387 0.000843 -0.000909 0.000000 0.028005 0.000000
# 6 0.000000 0.000000 0.000000 0.021046 0.000000 0.037932
#
#
# Mechanical properties :
#
#
# Convention : Reuss Voigt Hill
#
# Bulk Modulus (GPa) = 31.47544 49.47068 40.47306
# Shear Modulus (GPa) = 18.42239 25.81563 22.11901
#
# Velocity S-wave (km/s) = 2.84519 3.36806 3.11760
# Velocity P-wave (km/s) = 4.96229 6.07152 5.54471
#
# Compressibility (1/GPa) = 0.03177080
#
# Stress axis : x y z
#
# Youngs Moduli (GPa) = 26.69903 64.35624 65.62142
#
# Poissons Ratio (x) = 0.81834 -0.04555
# Poissons Ratio (y) = 0.33950 0.40744
# Poissons Ratio (z) = -0.01853 0.39958
#
# Static dielectric constant tensor:
#      x y z
#    x 4.603380 0.000000 0.191550 
#    y 0.000000 4.360200 0.000000 
#    z 0.191550 0.000000 4.136890 
# 
# 
# High freq. dielectric constant tensor:
#      x y z
#    x 1.899660 0.000000 0.012640 
#    y 0.000000 1.913280 0.000000 
#    z 0.012640 0.000000 1.896420 
# 
# From -- ./inp_files/195264.got.cif
#   From: 2010.06.25/outbox.cif.g09.slc.cpg/sg15_98_cif.got.tgz:195264.got - 2010.06.28 07:06:18.
