data_PCOD8146633
_publ_section_title
;
Structure prediction by ZEFSAII (Michael W. Deem and Ramdas Pophale) SiO2 
 PCOD8146633
Probable space group: C 2/C
;
_chemical_formula_sum "Si O2"
_cell_formula_units_Z 56
_cell_length_a 9.583377
_cell_length_b 13.739687
_cell_length_c 18.597277
_cell_angle_alpha 90.000000
_cell_angle_beta 96.798664
_cell_angle_gamma 90.000000
_cell_volume 2431.532858
_symmetry_space_group_name_H-M "C 2/C"
_symmetry_group_IT_number 15
_symmetry_cell_setting 'monoclinic'
loop_
_space_group_symop_operation_xyz
x,y,z
-x,y,1/2-z
-x,-y,-z
x,-y,1/2+z
1/2+x,1/2+y,z
1/2-x,1/2+y,1/2-z
1/2-x,1/2-y,-z
1/2+x,1/2-y,1/2+z
loop_
_atom_site_type_symbol
_atom_site_label
_atom_site_fract_x
_atom_site_fract_y
_atom_site_fract_z
Si Si1 0.986657 0.548524 0.921715
Si Si2 0.129473 0.195063 0.302695
Si Si3 0.479611 0.617919 0.418683
Si Si4 0.504033 0.389173 0.411780
Si Si5 0.219916 0.602272 0.831121
Si Si6 0.357315 0.052546 0.282324
Si Si7 0.718801 0.221450 0.578092
O O1 0.886059 0.485197 0.864525
O O2 0.917599 0.653725 0.926796
O O3 0.141333 0.556624 0.895887
O O4 0.000000 0.500000 0.000000
O O5 0.128051 0.310845 0.292350
O O6 0.000000 0.150362 0.250000
O O7 0.109330 0.167251 0.385169
O O8 0.274097 0.152513 0.282032
O O9 0.485311 0.504936 0.397213
O O10 0.501842 0.633261 0.504444
O O11 0.332691 0.676221 0.386812
O O12 0.366676 0.348031 0.363866
O O13 0.641993 0.336800 0.384236
O O14 0.235661 0.524888 0.768042
O O15 0.500000 0.074769 0.250000
O O16 0.750000 0.250000 0.500000
#
# Coordination Sequence:
#
# PCOD8146633 Si02
#       7
#     8   8   8   8   8   8   8
#     4  11  24  42  71  99 141 181 223 290 356 415
#     4  12  24  45  72  93 136 189 233 283 354 420
#     4  10  22  41  70  99 137 185 232 288 349 421
#     4  10  23  42  67 102 144 176 231 291 351 417
#     4  11  25  46  68 102 140 182 231 292 356 428
#     4  10  25  48  66 102 140 181 237 289 358 430
#     4  10  22  42  63 102 141 181 228 285 350 424
#
# _framework density 23.030739000000001
#
# number of rings (size 3 to 8) (size 9 to 14) (size 15 to 20)
#    0.000    1.429    1.429    3.000    8.000    2.857 
#    5.143    0.714    0.000    0.000    0.000    0.000 
#    0.000    0.000    0.000    0.000    0.000    0.000 
#
# Total GULP energy -347007.942374 kJ/mol
# GULP energy per Si atom -12393.140799 kJ/mol
# Density = 2.297832 g / cm^3
# Si number density = 23.030739 Si / 1000 Ang^3
#
#
#
# Elastic Constant Matrix: (Units=GPa)
#
#
# Indices 1 2 3 4 5 6 
#
# 1 123.2957 49.2662 36.2575 0.0000 12.5610 0.0000
# 2 49.2662 120.0953 37.6904 0.0000 -6.4544 0.0000
# 3 36.2575 37.6904 96.5234 0.0000 2.0070 0.0000
# 4 0.0000 0.0000 0.0000 29.2306 0.0000 -8.7004
# 5 12.5610 -6.4544 2.0070 0.0000 30.1835 0.0000
# 6 0.0000 0.0000 0.0000 -8.7004 0.0000 50.1288
#
#
#
# Elastic Compliance Matrix: (Units=1/GPa)
#
#
# Indices 1 2 3 4 5 6 
#
# 1 0.010970 -0.004016 -0.002443 0.000000 -0.005261 0.000000
# 2 -0.004016 0.011119 -0.002921 0.000000 0.004243 0.000000
# 3 -0.002443 -0.002921 0.012428 0.000000 -0.000434 0.000000
# 4 0.000000 0.000000 0.000000 0.036074 0.000000 0.006261
# 5 -0.005261 0.004243 -0.000434 0.000000 0.036257 0.000000
# 6 0.000000 0.000000 0.000000 0.006261 0.000000 0.021035
#
#
# Mechanical properties :
#
#
# Convention : Reuss Voigt Hill
#
# Bulk Modulus (GPa) = 63.47024 65.14921 64.30972
# Shear Modulus (GPa) = 32.91733 36.35528 34.63630
#
# Velocity S-wave (km/s) = 3.78468 3.97741 3.88224
# Velocity P-wave (km/s) = 6.83500 7.03153 6.93396
#
# Compressibility (1/GPa) = 0.01575542
#
# Stress axis : x y z
#
# Youngs Moduli (GPa) = 91.15942 89.93480 80.46578
#
# Poissons Ratio (x) = 0.36119 0.19658
# Poissons Ratio (y) = 0.36611 0.23508
# Poissons Ratio (z) = 0.22270 0.26274
#
# Static dielectric constant tensor:
#      x y z
#    x 4.398430 0.000000 -0.152980 
#    y 0.000000 4.371730 0.000000 
#    z -0.152980 0.000000 4.044410 
# 
# 
# High freq. dielectric constant tensor:
#      x y z
#    x 1.909500 0.000000 -0.012870 
#    y 0.000000 1.916340 0.000000 
#    z -0.012870 0.000000 1.905370 
# 
# From -- ./inp_files/231582.got.cif
#   From: 2010.06.25/outbox.cif.g09.slc.cpg/sg15_116_cif.got.tgz:231582.got - 2010.06.28 07:06:18.
