data_PCOD8146949
_publ_section_title
;
Structure prediction by ZEFSAII (Michael W. Deem and Ramdas Pophale) SiO2 
 PCOD8146949
Probable space group: C 2/C
;
_chemical_formula_sum "Si O2"
_cell_formula_units_Z 56
_cell_length_a 8.289444
_cell_length_b 20.676225
_cell_length_c 17.311504
_cell_angle_alpha 90.000000
_cell_angle_beta 65.083715
_cell_angle_gamma 90.000000
_cell_volume 2690.930581
_symmetry_space_group_name_H-M "C 2/C"
_symmetry_group_IT_number 15
_symmetry_cell_setting 'monoclinic'
loop_
_space_group_symop_operation_xyz
x,y,z
-x,y,1/2-z
-x,-y,-z
x,-y,1/2+z
1/2+x,1/2+y,z
1/2-x,1/2+y,1/2-z
1/2-x,1/2-y,-z
1/2+x,1/2-y,1/2+z
loop_
_atom_site_type_symbol
_atom_site_label
_atom_site_fract_x
_atom_site_fract_y
_atom_site_fract_z
Si Si1 0.702684 0.795988 0.939452
Si Si2 0.703696 0.602317 0.732711
Si Si3 0.672487 0.253244 0.271717
Si Si4 0.557628 0.643472 0.321856
Si Si5 0.238606 0.001177 0.507296
Si Si6 0.371826 0.491561 0.641170
Si Si7 0.046479 0.401067 0.463894
O O1 0.651830 0.765334 0.866367
O O2 0.873788 0.842965 0.903358
O O3 0.750000 0.750000 0.000000
O O4 0.519209 0.830085 0.001615
O O5 0.500000 0.598578 0.750000
O O6 0.737139 0.672561 0.763803
O O7 0.736043 0.541560 0.783254
O O8 0.848038 0.595870 0.637079
O O9 0.500000 0.246281 0.250000
O O10 0.824109 0.208389 0.203422
O O11 0.500000 0.619270 0.250000
O O12 0.672890 0.584034 0.333918
O O13 0.173125 0.987554 0.435548
O O14 0.323287 0.072882 0.495230
O O15 0.376713 0.946315 0.499277
O O16 0.085462 0.998376 0.604058
#
# Coordination Sequence:
#
# PCOD8146949 Si02
#       7
#     8   8   8   8   8   8   8
#     4  11  24  43  69  96 135 185 221 287 341 413
#     4  11  23  43  67  97 133 178 216 286 343 406
#     4  10  25  45  67  99 135 175 237 279 339 417
#     4  10  22  42  67  93 131 177 220 273 339 411
#     4  10  24  39  65  99 134 169 219 284 333 409
#     4  11  22  42  68  96 133 174 223 275 350 403
#     4  11  23  43  65  99 134 172 231 278 341 410
#
# _framework density 20.810645000000001
#
# number of rings (size 3 to 8) (size 9 to 14) (size 15 to 20)
#    0.000    1.429    2.857    1.286    4.000    1.714 
#    0.000    3.571    0.000    0.000    0.000    0.000 
#    0.000    0.000    0.000    0.000    0.000    0.000 
#
# Total GULP energy -346938.226069 kJ/mol
# GULP energy per Si atom -12390.650931 kJ/mol
# Density = 2.076328 g / cm^3
# Si number density = 20.810645 Si / 1000 Ang^3
#
#
#
# Elastic Constant Matrix: (Units=GPa)
#
#
# Indices 1 2 3 4 5 6 
#
# 1 61.5852 26.1445 37.3974 0.0000 -0.8819 0.0000
# 2 26.1445 130.4309 49.3879 0.0000 -2.6851 0.0000
# 3 37.3974 49.3879 132.3316 0.0000 -11.3658 0.0000
# 4 0.0000 0.0000 0.0000 33.2348 0.0000 -5.7557
# 5 -0.8819 -2.6851 -11.3658 0.0000 32.2838 0.0000
# 6 0.0000 0.0000 0.0000 -5.7557 0.0000 53.9433
#
#
#
# Elastic Compliance Matrix: (Units=1/GPa)
#
#
# Indices 1 2 3 4 5 6 
#
# 1 0.020185 -0.002177 -0.005012 0.000000 -0.001394 0.000000
# 2 -0.002177 0.009170 -0.002832 0.000000 -0.000294 0.000000
# 3 -0.005012 -0.002832 0.010310 0.000000 0.003257 0.000000
# 4 0.000000 0.000000 0.000000 0.030655 0.000000 0.003271
# 5 -0.001394 -0.000294 0.003257 0.000000 0.032059 0.000000
# 6 0.000000 0.000000 0.000000 0.003271 0.000000 0.018887
#
#
# Mechanical properties :
#
#
# Convention : Reuss Voigt Hill
#
# Bulk Modulus (GPa) = 50.96101 61.13412 56.04756
# Shear Modulus (GPa) = 33.81817 37.98692 35.90255
#
# Velocity S-wave (km/s) = 4.03555 4.27706 4.15806
# Velocity P-wave (km/s) = 6.80113 7.33697 7.07413
#
# Compressibility (1/GPa) = 0.01962285
#
# Stress axis : x y z
#
# Youngs Moduli (GPa) = 49.54112 109.05528 96.99451
#
# Poissons Ratio (x) = 0.23743 0.48610
# Poissons Ratio (y) = 0.10786 0.27471
# Poissons Ratio (z) = 0.24828 0.30887
#
# Static dielectric constant tensor:
#      x y z
#    x 4.308570 0.000000 -0.734520 
#    y 0.000000 3.989320 0.000000 
#    z -0.734520 0.000000 4.606210 
# 
# 
# High freq. dielectric constant tensor:
#      x y z
#    x 1.810210 0.000000 -0.005910 
#    y 0.000000 1.824550 0.000000 
#    z -0.005910 0.000000 1.822290 
# 
# From -- ./inp_files/192033.got.cif
#   From: 2010.06.25/outbox.cif.g09.slc.cpg/sg15_97_cif.got.tgz:192033.got - 2010.06.28 07:06:18.
