data_PCOD8146571
_publ_section_title
;
Structure prediction by ZEFSAII (Michael W. Deem and Ramdas Pophale) SiO2 
 PCOD8146571
Probable space group: C 2/C
;
_chemical_formula_sum "Si O2"
_cell_formula_units_Z 64
_cell_length_a 14.724134
_cell_length_b 11.882271
_cell_length_c 18.492699
_cell_angle_alpha 90.000000
_cell_angle_beta 104.891544
_cell_angle_gamma 90.000000
_cell_volume 3126.746957
_symmetry_space_group_name_H-M "C 2/C"
_symmetry_group_IT_number 15
_symmetry_cell_setting 'monoclinic'
loop_
_space_group_symop_operation_xyz
x,y,z
-x,y,1/2-z
-x,-y,-z
x,-y,1/2+z
1/2+x,1/2+y,z
1/2-x,1/2+y,1/2-z
1/2-x,1/2-y,-z
1/2+x,1/2-y,1/2+z
loop_
_atom_site_type_symbol
_atom_site_label
_atom_site_fract_x
_atom_site_fract_y
_atom_site_fract_z
Si Si1 0.726930 0.108884 0.420045
Si Si2 0.644447 0.343228 0.422463
Si Si3 0.188955 0.961840 0.833315
Si Si4 0.924328 0.439528 0.078572
Si Si5 0.427194 0.681628 0.088901
Si Si6 0.101671 0.578299 0.096351
Si Si7 0.380889 0.554369 0.341270
Si Si8 0.564121 0.669175 0.575571
O O1 0.659480 0.216336 0.399616
O O2 0.774517 0.110985 0.508457
O O3 0.803186 0.118121 0.372631
O O4 0.663733 0.997051 0.398819
O O5 0.644655 0.420927 0.351599
O O6 0.547260 0.351259 0.445767
O O7 0.160429 0.862461 0.882552
O O8 0.301347 0.967847 0.851386
O O9 0.146218 0.936586 0.747137
O O10 0.939087 0.313020 0.109016
O O11 0.018644 0.507917 0.117043
O O12 0.902533 0.442602 0.989557
O O13 0.520307 0.615395 0.129479
O O14 0.402183 0.659110 0.000230
O O15 0.090292 0.709661 0.113479
O O16 0.383890 0.424634 0.366551
#
# Coordination Sequence:
#
# PCOD8146571 Si02
#       8
#     8   8   8   8   8   8   8   8
#     4  11  23  41  69 101 122 167 219 266 320 378
#     4  11  22  41  71  96 127 164 218 273 314 377
#     4  12  26  43  61  93 135 174 209 260 330 388
#     4  10  22  41  68  96 125 162 212 266 320 373
#     4  11  24  41  66  97 130 167 213 267 316 382
#     4  10  23  41  66  96 128 162 209 264 323 381
#     4  12  26  42  63  93 132 172 214 263 326 381
#     4  11  22  42  69  96 124 165 220 272 308 374
#
# _framework density 20.468557000000001
#
# number of rings (size 3 to 8) (size 9 to 14) (size 15 to 20)
#    0.000    1.000    5.000    1.500    3.500    2.000 
#    0.000    1.875    0.000    0.000    0.000    0.000 
#    0.000    0.000    0.000    0.000    0.000    0.000 
#
# Total GULP energy -397005.713657 kJ/mol
# GULP energy per Si atom -12406.428552 kJ/mol
# Density = 2.042197 g / cm^3
# Si number density = 20.468557 Si / 1000 Ang^3
#
#
#
# Elastic Constant Matrix: (Units=GPa)
#
#
# Indices 1 2 3 4 5 6 
#
# 1 83.8807 21.6538 6.4116 0.0000 1.4411 0.0000
# 2 21.6538 113.7878 23.5824 0.0000 -1.0787 0.0000
# 3 6.4116 23.5824 41.6322 0.0000 -2.2417 0.0000
# 4 0.0000 0.0000 0.0000 6.8390 0.0000 3.8059
# 5 1.4411 -1.0787 -2.2417 0.0000 12.9124 0.0000
# 6 0.0000 0.0000 0.0000 3.8059 0.0000 35.3692
#
#
#
# Elastic Compliance Matrix: (Units=1/GPa)
#
#
# Indices 1 2 3 4 5 6 
#
# 1 0.012591 -0.002256 -0.000754 0.000000 -0.001725 0.000000
# 2 -0.002256 0.010362 -0.005513 0.000000 0.000160 0.000000
# 3 -0.000754 -0.005513 0.027496 0.000000 0.004397 0.000000
# 4 0.000000 0.000000 0.000000 0.155534 0.000000 -0.016736
# 5 -0.001725 0.000160 0.004397 0.000000 0.078414 0.000000
# 6 0.000000 0.000000 0.000000 -0.016736 0.000000 0.030074
#
#
# Mechanical properties :
#
#
# Convention : Reuss Voigt Hill
#
# Bulk Modulus (GPa) = 29.93842 38.06627 34.00234
# Shear Modulus (GPa) = 14.59205 23.53431 19.06318
#
# Velocity S-wave (km/s) = 2.67292 3.39452 3.05510
# Velocity P-wave (km/s) = 4.91775 5.83108 5.39378
#
# Compressibility (1/GPa) = 0.03340190
#
# Stress axis : x y z
#
# Youngs Moduli (GPa) = 79.41924 96.50840 36.36929
#
# Poissons Ratio (x) = 0.21775 0.02742
# Poissons Ratio (y) = 0.17919 0.20051
# Poissons Ratio (z) = 0.05988 0.53208
#
# Static dielectric constant tensor:
#      x y z
#    x 3.809180 0.000000 -0.010540 
#    y 0.000000 3.909100 0.000000 
#    z -0.010540 0.000000 3.371990 
# 
# 
# High freq. dielectric constant tensor:
#      x y z
#    x 1.814740 0.000000 0.002360 
#    y 0.000000 1.814110 0.000000 
#    z 0.002360 0.000000 1.767890 
# 
# From -- ./inp_files/243745.got.cif
#   From: 2010.06.25/outbox.cif.g09.slc.cpg/sg15_122_cif.got.tgz:243745.got - 2010.06.28 07:06:18.
