data_PCOD8146998
_publ_section_title
;
Structure prediction by ZEFSAII (Michael W. Deem and Ramdas Pophale) SiO2 
 PCOD8146998
Probable space group: C 2/C
;
_chemical_formula_sum "Si O2"
_cell_formula_units_Z 48
_cell_length_a 20.067388
_cell_length_b 12.451855
_cell_length_c 13.833357
_cell_angle_alpha 90.000000
_cell_angle_beta 40.993062
_cell_angle_gamma 90.000000
_cell_volume 2267.435282
_symmetry_space_group_name_H-M "C 2/C"
_symmetry_group_IT_number 15
_symmetry_cell_setting 'monoclinic'
loop_
_space_group_symop_operation_xyz
x,y,z
-x,y,1/2-z
-x,-y,-z
x,-y,1/2+z
1/2+x,1/2+y,z
1/2-x,1/2+y,1/2-z
1/2-x,1/2-y,-z
1/2+x,1/2-y,1/2+z
loop_
_atom_site_type_symbol
_atom_site_label
_atom_site_fract_x
_atom_site_fract_y
_atom_site_fract_z
Si Si1 0.017627 0.178313 0.555828
Si Si2 0.725087 0.588514 0.287141
Si Si3 0.190202 0.693432 0.479540
Si Si4 0.500000 0.462143 0.250000
Si Si5 0.892027 0.898147 0.021642
Si Si6 0.055199 0.581765 0.368576
Si Si7 0.500000 0.947004 0.250000
O O1 0.987491 0.119864 0.488291
O O2 0.001301 0.304771 0.573484
O O3 0.138797 0.160927 0.433149
O O4 0.959731 0.117698 0.708568
O O5 0.694222 0.464217 0.327613
O O6 0.829988 0.606283 0.228019
O O7 0.735057 0.616066 0.162303
O O8 0.250000 0.750000 0.500000
O O9 0.155426 0.783316 0.443398
O O10 0.090285 0.629550 0.618049
O O11 0.580437 0.541977 0.109664
O O12 0.051042 0.525318 0.270618
O O13 0.000000 0.500000 0.500000
#
# Coordination Sequence:
#
# PCOD8146998 Si02
#       7
#     8   8   8   4   8   8   4
#     4  11  25  46  69 101 140 184 234 294 349 420
#     4  11  25  44  70 104 136 184 231 292 349 418
#     4  12  27  41  72 105 136 185 239 283 354 420
#     4  10  22  42  68  94 132 176 228 280 348 408
#     4  11  24  45  70  99 140 182 231 295 350 416
#     4  12  25  47  69 101 143 184 231 289 360 411
#     4  12  26  48  70 102 146 184 232 300 344 426
#
# _framework density 21.169294000000001
#
# number of rings (size 3 to 8) (size 9 to 14) (size 15 to 20)
#    0.000    0.667    3.333    4.000   11.667    0.000 
#    0.000    4.167    0.000    0.000    0.000    0.000 
#    0.000    0.000    0.000    0.000    0.000    0.000 
#
# Total GULP energy -297498.480342 kJ/mol
# GULP energy per Si atom -12395.770014 kJ/mol
# Density = 2.112111 g / cm^3
# Si number density = 21.169294 Si / 1000 Ang^3
#
#
#
# Elastic Constant Matrix: (Units=GPa)
#
#
# Indices 1 2 3 4 5 6 
#
# 1 126.1844 49.5950 53.1084 0.0000 1.5755 0.0000
# 2 49.5950 150.9290 69.9438 0.0000 3.2305 0.0000
# 3 53.1084 69.9438 130.9718 0.0000 6.9377 0.0000
# 4 0.0000 0.0000 0.0000 38.8913 0.0000 9.9537
# 5 1.5755 3.2305 6.9377 0.0000 41.7180 0.0000
# 6 0.0000 0.0000 0.0000 9.9537 0.0000 49.4176
#
#
#
# Elastic Compliance Matrix: (Units=1/GPa)
#
#
# Indices 1 2 3 4 5 6 
#
# 1 0.009936 -0.001856 -0.003052 0.000000 0.000276 0.000000
# 2 -0.001856 0.009152 -0.004137 0.000000 0.000049 0.000000
# 3 -0.003052 -0.004137 0.011158 0.000000 -0.001420 0.000000
# 4 0.000000 0.000000 0.000000 0.027110 0.000000 -0.005461
# 5 0.000276 0.000049 -0.001420 0.000000 0.024192 0.000000
# 6 0.000000 0.000000 0.000000 -0.005461 0.000000 0.021336
#
#
# Mechanical properties :
#
#
# Convention : Reuss Voigt Hill
#
# Bulk Modulus (GPa) = 82.28078 83.70884 82.99481
# Shear Modulus (GPa) = 39.99171 41.70127 40.84649
#
# Velocity S-wave (km/s) = 4.35114 4.44316 4.39739
# Velocity P-wave (km/s) = 8.01221 8.12100 8.06679
#
# Compressibility (1/GPa) = 0.01215351
#
# Stress axis : x y z
#
# Youngs Moduli (GPa) = 100.64782 109.26711 89.62538
#
# Poissons Ratio (x) = 0.20283 0.27355
# Poissons Ratio (y) = 0.18683 0.37081
# Poissons Ratio (z) = 0.30719 0.45207
#
# Static dielectric constant tensor:
#      x y z
#    x 3.951410 0.000000 0.119260 
#    y 0.000000 4.117600 0.000000 
#    z 0.119260 0.000000 3.954020 
# 
# 
# High freq. dielectric constant tensor:
#      x y z
#    x 1.833220 0.000000 0.008190 
#    y 0.000000 1.854430 0.000000 
#    z 0.008190 0.000000 1.828350 
# 
# From -- ./inp_files/167866.got.cif
#   From: 2010.06.25/outbox.cif.g09.slc.cpg/sg15_84_cif.got.tgz:167866.got - 2010.06.28 07:06:18.
