data_PCOD8146552
_publ_section_title
;
Structure prediction by ZEFSAII (Michael W. Deem and Ramdas Pophale) SiO2 
 PCOD8146552
Probable space group: C 2/C
;
_chemical_formula_sum "Si O2"
_cell_formula_units_Z 48
_cell_length_a 26.160513
_cell_length_b 9.480646
_cell_length_c 13.762470
_cell_angle_alpha 90.000000
_cell_angle_beta 137.267974
_cell_angle_gamma 90.000000
_cell_volume 2316.196772
_symmetry_space_group_name_H-M "C 2/C"
_symmetry_group_IT_number 15
_symmetry_cell_setting 'monoclinic'
loop_
_space_group_symop_operation_xyz
x,y,z
-x,y,1/2-z
-x,-y,-z
x,-y,1/2+z
1/2+x,1/2+y,z
1/2-x,1/2+y,1/2-z
1/2-x,1/2-y,-z
1/2+x,1/2-y,1/2+z
loop_
_atom_site_type_symbol
_atom_site_label
_atom_site_fract_x
_atom_site_fract_y
_atom_site_fract_z
Si Si1 0.314599 0.914981 0.893413
Si Si2 0.969885 0.123284 0.313857
Si Si3 0.454417 0.141585 0.454139
Si Si4 0.987312 0.816977 0.119106
Si Si5 0.834214 0.707861 0.622587
Si Si6 0.826457 0.293147 0.325825
O O1 0.374283 0.874680 0.893245
O O2 0.238857 0.824705 0.772267
O O3 0.297709 0.081362 0.856090
O O4 0.350912 0.892738 0.052270
O O5 0.879774 0.143981 0.180715
O O6 0.000000 0.142274 0.250000
O O7 0.995149 0.254938 0.411927
O O8 0.995329 0.975024 0.394512
O O9 0.450169 0.215424 0.342491
O O10 0.500000 0.000000 0.500000
O O11 0.000000 0.804663 0.250000
O O12 0.901542 0.778546 0.973054
O O13 0.750000 0.750000 0.500000
O O14 0.846001 0.638975 0.746464
#
# Coordination Sequence:
#
# PCOD8146552 Si02
#       6
#     8   8   8   8   8   8
#     4  11  25  43  71  99 138 181 228 286 351 415
#     4  11  22  40  68  97 131 180 229 276 339 413
#     4  12  23  41  65  99 134 180 223 280 346 401
#     4  11  26  42  66 101 137 177 233 289 334 418
#     4  10  22  41  68 101 134 174 228 280 345 412
#     4  11  25  45  67 101 137 179 228 289 346 412
#
# _framework density 20.723628000000001
#
# number of rings (size 3 to 8) (size 9 to 14) (size 15 to 20)
#    0.000    1.000    5.000    0.500    2.333    6.000 
#    0.000    1.667    0.000    0.000    0.000    0.000 
#    0.000    0.000    0.000    0.000    0.000    0.000 
#
# Total GULP energy -297345.451324 kJ/mol
# GULP energy per Si atom -12389.393805 kJ/mol
# Density = 2.067646 g / cm^3
# Si number density = 20.723628 Si / 1000 Ang^3
#
#
#
# Elastic Constant Matrix: (Units=GPa)
#
#
# Indices 1 2 3 4 5 6 
#
# 1 122.2816 51.4115 49.4254 0.0000 -2.8171 0.0000
# 2 51.4115 157.4556 56.7904 0.0000 -9.6018 0.0000
# 3 49.4254 56.7904 117.5183 0.0000 -1.1627 0.0000
# 4 0.0000 0.0000 0.0000 41.9056 0.0000 -3.4942
# 5 -2.8171 -9.6018 -1.1627 0.0000 42.9769 0.0000
# 6 0.0000 0.0000 0.0000 -3.4942 0.0000 37.5598
#
#
#
# Elastic Compliance Matrix: (Units=1/GPa)
#
#
# Indices 1 2 3 4 5 6 
#
# 1 0.010453 -0.002206 -0.003329 0.000000 0.000102 0.000000
# 2 -0.002206 0.008271 -0.003053 0.000000 0.001621 0.000000
# 3 -0.003329 -0.003053 0.011379 0.000000 -0.000593 0.000000
# 4 0.000000 0.000000 0.000000 0.024050 0.000000 0.002237
# 5 0.000102 0.001621 -0.000593 0.000000 0.023621 0.000000
# 6 0.000000 0.000000 0.000000 0.002237 0.000000 0.026832
#
#
# Mechanical properties :
#
#
# Convention : Reuss Voigt Hill
#
# Bulk Modulus (GPa) = 77.36024 79.16781 78.26402
# Shear Modulus (GPa) = 39.65313 40.46368 40.05840
#
# Velocity S-wave (km/s) = 4.37902 4.42355 4.40134
# Velocity P-wave (km/s) = 7.93588 8.02340 7.97976
#
# Compressibility (1/GPa) = 0.01292654
#
# Stress axis : x y z
#
# Youngs Moduli (GPa) = 95.66234 120.89847 87.87999
#
# Poissons Ratio (x) = 0.26672 0.29258
# Poissons Ratio (y) = 0.21105 0.26832
# Poissons Ratio (z) = 0.31849 0.36913
#
# Static dielectric constant tensor:
#      x y z
#    x 4.649010 0.000000 -0.820400 
#    y 0.000000 4.046740 0.000000 
#    z -0.820400 0.000000 5.352730 
# 
# 
# High freq. dielectric constant tensor:
#      x y z
#    x 1.835760 0.000000 -0.007560 
#    y 0.000000 1.806120 0.000000 
#    z -0.007560 0.000000 1.814180 
# 
# From -- ./inp_files/176989.got.cif
#   From: 2010.06.25/outbox.cif.g09.slc.cpg/sg15_89_cif.got.tgz:176989.got - 2010.06.28 07:06:18.
