data_PCOD8146716
_publ_section_title
;
Structure prediction by ZEFSAII (Michael W. Deem and Ramdas Pophale) SiO2 
 PCOD8146716
Probable space group: C 2/C
;
_chemical_formula_sum "Si O2"
_cell_formula_units_Z 56
_cell_length_a 7.953844
_cell_length_b 14.541819
_cell_length_c 24.097662
_cell_angle_alpha 90.000000
_cell_angle_beta 98.519678
_cell_angle_gamma 90.000000
_cell_volume 2756.459729
_symmetry_space_group_name_H-M "C 2/C"
_symmetry_group_IT_number 15
_symmetry_cell_setting 'monoclinic'
loop_
_space_group_symop_operation_xyz
x,y,z
-x,y,1/2-z
-x,-y,-z
x,-y,1/2+z
1/2+x,1/2+y,z
1/2-x,1/2+y,1/2-z
1/2-x,1/2-y,-z
1/2+x,1/2-y,1/2+z
loop_
_atom_site_type_symbol
_atom_site_label
_atom_site_fract_x
_atom_site_fract_y
_atom_site_fract_z
Si Si1 0.744195 0.424695 0.862376
Si Si2 0.128499 0.584447 0.009292
Si Si3 0.600730 0.375199 0.624694
Si Si4 0.458760 0.808411 0.684244
Si Si5 0.888322 0.270023 0.461646
Si Si6 0.346126 0.373046 0.126076
Si Si7 0.410689 0.454006 0.444216
O O1 0.565432 0.370867 0.842795
O O2 0.901998 0.371663 0.841662
O O3 0.709652 0.532712 0.843954
O O4 0.763540 0.426778 0.929766
O O5 0.239201 0.590323 0.958846
O O6 0.034791 0.681926 0.004402
O O7 0.000000 0.500000 0.000000
O O8 0.553427 0.323706 0.564723
O O9 0.638531 0.478939 0.608602
O O10 0.768185 0.342777 0.664405
O O11 0.500000 0.820928 0.750000
O O12 0.453085 0.699686 0.669183
O O13 0.750000 0.250000 0.500000
O O14 0.827991 0.331578 0.406392
O O15 0.462727 0.381270 0.076959
O O16 0.500000 0.500000 0.500000
#
# Coordination Sequence:
#
# PCOD8146716 Si02
#       7
#     8   8   8   8   8   8   8
#     4  11  23  42  68  97 132 171 222 269 334 403
#     4  12  20  32  60  92 135 176 204 247 324 404
#     4  10  23  40  61  97 128 168 222 276 319 406
#     4  11  26  49  69  89 129 172 231 298 350 378
#     4  11  21  33  56  89 136 172 208 252 313 391
#     4  10  22  42  62  94 130 169 221 270 322 409
#     4  11  19  36  61  95 136 170 204 252 326 410
#
# _framework density 20.315912999999998
#
# number of rings (size 3 to 8) (size 9 to 14) (size 15 to 20)
#    0.000    1.143    4.286    4.286    2.000    1.143 
#    5.143    0.000    0.000    0.000    0.000    0.000 
#    0.000    0.000    0.000    0.000    0.000    0.000 
#
# Total GULP energy -346910.969345 kJ/mol
# GULP energy per Si atom -12389.677477 kJ/mol
# Density = 2.026967 g / cm^3
# Si number density = 20.315913 Si / 1000 Ang^3
#
#
#
# Elastic Constant Matrix: (Units=GPa)
#
#
# Indices 1 2 3 4 5 6 
#
# 1 120.9794 48.7354 23.1250 0.0000 5.4420 0.0000
# 2 48.7354 94.0775 24.4235 0.0000 2.5975 0.0000
# 3 23.1250 24.4235 71.5964 0.0000 4.2682 0.0000
# 4 0.0000 0.0000 0.0000 22.6077 0.0000 3.9489
# 5 5.4420 2.5975 4.2682 0.0000 19.7851 0.0000
# 6 0.0000 0.0000 0.0000 3.9489 0.0000 37.2726
#
#
#
# Elastic Compliance Matrix: (Units=1/GPa)
#
#
# Indices 1 2 3 4 5 6 
#
# 1 0.010705 -0.005074 -0.001612 0.000000 -0.001931 0.000000
# 2 -0.005074 0.014076 -0.003177 0.000000 0.000233 0.000000
# 3 -0.001612 -0.003177 0.015722 0.000000 -0.002531 0.000000
# 4 0.000000 0.000000 0.000000 0.045067 0.000000 -0.004775
# 5 -0.001931 0.000233 -0.002531 0.000000 0.051590 0.000000
# 6 0.000000 0.000000 0.000000 -0.004775 0.000000 0.027335
#
#
# Mechanical properties :
#
#
# Convention : Reuss Voigt Hill
#
# Bulk Modulus (GPa) = 48.12606 53.24679 50.68643
# Shear Modulus (GPa) = 26.15809 28.62439 27.39124
#
# Velocity S-wave (km/s) = 3.59216 3.75769 3.67586
# Velocity P-wave (km/s) = 6.39884 6.71515 6.55890
#
# Compressibility (1/GPa) = 0.02077876
#
# Stress axis : x y z
#
# Youngs Moduli (GPa) = 93.41728 71.04190 63.60365
#
# Poissons Ratio (x) = 0.36044 0.10251
# Poissons Ratio (y) = 0.47397 0.20206
# Poissons Ratio (z) = 0.15056 0.22569
#
# Static dielectric constant tensor:
#      x y z
#    x 2.891650 0.000000 0.305990 
#    y 0.000000 3.971670 0.000000 
#    z 0.305990 0.000000 3.331270 
# 
# 
# High freq. dielectric constant tensor:
#      x y z
#    x 1.806810 0.000000 0.007510 
#    y 0.000000 1.806180 0.000000 
#    z 0.007510 0.000000 1.755250 
# 
# From -- ./inp_files/264386.got.cif
#   From: 2010.06.25/outbox.cif.g09.slc.cpg/sg15_133_cif.got.tgz:264386.got - 2010.06.28 07:06:18.
