data_PCOD8146776
_publ_section_title
;
Structure prediction by ZEFSAII (Michael W. Deem and Ramdas Pophale) SiO2 
 PCOD8146776
Probable space group: C 2/C
;
_chemical_formula_sum "Si O2"
_cell_formula_units_Z 44
_cell_length_a 27.320916
_cell_length_b 6.395965
_cell_length_c 13.394916
_cell_angle_alpha 90.000000
_cell_angle_beta 117.120838
_cell_angle_gamma 90.000000
_cell_volume 2083.311940
_symmetry_space_group_name_H-M "C 2/C"
_symmetry_group_IT_number 15
_symmetry_cell_setting 'monoclinic'
loop_
_space_group_symop_operation_xyz
x,y,z
-x,y,1/2-z
-x,-y,-z
x,-y,1/2+z
1/2+x,1/2+y,z
1/2-x,1/2+y,1/2-z
1/2-x,1/2-y,-z
1/2+x,1/2-y,1/2+z
loop_
_atom_site_type_symbol
_atom_site_label
_atom_site_fract_x
_atom_site_fract_y
_atom_site_fract_z
Si Si1 0.637839 0.379658 0.684341
Si Si2 0.000000 0.113678 0.250000
Si Si3 0.964643 0.583084 0.875954
Si Si4 0.414042 0.292367 0.225143
Si Si5 0.825906 0.247566 0.492076
Si Si6 0.265516 0.438268 0.582499
O O1 0.594260 0.189065 0.653875
O O2 0.615036 0.601529 0.704567
O O3 0.653157 0.388475 0.582142
O O4 0.695022 0.341863 0.795911
O O5 0.997751 0.252255 0.148038
O O6 0.054748 0.975595 0.304950
O O7 0.956022 0.380513 0.800754
O O8 0.000000 0.500000 0.000000
O O9 0.376055 0.174863 0.108464
O O10 0.788435 0.444518 0.421711
O O11 0.794663 0.098261 0.537597
O O12 0.250000 0.250000 0.500000
#
# Coordination Sequence:
#
# PCOD8146776 Si02
#       6
#     8   4   8   8   8   8
#     4  10  24  40  63  99 123 167 217 256 327 385
#     4  10  24  40  66  92 130 170 214 266 324 378
#     4  11  25  41  67  97 127 172 219 260 324 387
#     4  10  23  43  63  92 134 164 217 267 319 391
#     4  10  23  40  66  91 126 167 208 263 323 379
#     4  10  22  42  64  91 127 159 211 265 317 378
#
# _framework density 21.120217
#
# number of rings (size 3 to 8) (size 9 to 14) (size 15 to 20)
#    0.000    1.818    0.000    1.636   10.182    2.909 
#    0.000    0.000    0.000    0.000    0.000    0.000 
#    0.000    0.000    0.000    0.000    0.000    0.000 
#
# Total GULP energy -272671.718939 kJ/mol
# GULP energy per Si atom -12394.169043 kJ/mol
# Density = 2.107215 g / cm^3
# Si number density = 21.120217 Si / 1000 Ang^3
#
#
#
# Elastic Constant Matrix: (Units=GPa)
#
#
# Indices 1 2 3 4 5 6 
#
# 1 93.9511 29.4620 61.7592 0.0000 -2.0189 0.0000
# 2 29.4620 79.9938 59.8433 0.0000 12.9316 0.0000
# 3 61.7592 59.8433 162.7534 0.0000 19.8757 0.0000
# 4 0.0000 0.0000 0.0000 38.8082 0.0000 7.2414
# 5 -2.0189 12.9316 19.8757 0.0000 35.8684 0.0000
# 6 0.0000 0.0000 0.0000 7.2414 0.0000 14.4306
#
#
#
# Elastic Compliance Matrix: (Units=1/GPa)
#
#
# Indices 1 2 3 4 5 6 
#
# 1 0.015025 -0.002202 -0.005461 0.000000 0.004666 0.000000
# 2 -0.002202 0.017853 -0.005285 0.000000 -0.003632 0.000000
# 3 -0.005461 -0.005285 0.010688 0.000000 -0.004325 0.000000
# 4 0.000000 0.000000 0.000000 0.028430 0.000000 -0.014266
# 5 0.004666 -0.003632 -0.004325 0.000000 0.031848 0.000000
# 6 0.000000 0.000000 0.000000 -0.014266 0.000000 0.076456
#
#
# Mechanical properties :
#
#
# Convention : Reuss Voigt Hill
#
# Bulk Modulus (GPa) = 56.59915 70.98081 63.78998
# Shear Modulus (GPa) = 23.57518 30.19703 26.88611
#
# Velocity S-wave (km/s) = 3.34464 3.78533 3.57179
# Velocity P-wave (km/s) = 6.46314 7.26539 6.87598
#
# Compressibility (1/GPa) = 0.01766811
#
# Stress axis : x y z
#
# Youngs Moduli (GPa) = 66.55654 56.01274 93.56143
#
# Poissons Ratio (x) = 0.12336 0.51098
# Poissons Ratio (y) = 0.14658 0.49450
# Poissons Ratio (z) = 0.36350 0.29604
#
# Static dielectric constant tensor:
#      x y z
#    x 4.364400 0.000000 0.415760 
#    y 0.000000 3.807790 0.000000 
#    z 0.415760 0.000000 4.052650 
# 
# 
# High freq. dielectric constant tensor:
#      x y z
#    x 1.834860 0.000000 0.006650 
#    y 0.000000 1.825720 0.000000 
#    z 0.006650 0.000000 1.832300 
# 
# From -- ./inp_files/175778.got.cif
#   From: 2010.06.25/outbox.cif.g09.slc.cpg/sg15_88_cif.got.tgz:175778.got - 2010.06.28 07:06:18.
