data_PCOD8146412
_publ_section_title
;
Structure prediction by ZEFSAII (Michael W. Deem and Ramdas Pophale) SiO2 
 PCOD8146412
Probable space group: C 2/C
;
_chemical_formula_sum "Si O2"
_cell_formula_units_Z 56
_cell_length_a 14.140792
_cell_length_b 26.347452
_cell_length_c 14.039628
_cell_angle_alpha 90.000000
_cell_angle_beta 29.574917
_cell_angle_gamma 90.000000
_cell_volume 2581.718833
_symmetry_space_group_name_H-M "C 2/C"
_symmetry_group_IT_number 15
_symmetry_cell_setting 'monoclinic'
loop_
_space_group_symop_operation_xyz
x,y,z
-x,y,1/2-z
-x,-y,-z
x,-y,1/2+z
1/2+x,1/2+y,z
1/2-x,1/2+y,1/2-z
1/2-x,1/2-y,-z
1/2+x,1/2-y,1/2+z
loop_
_atom_site_type_symbol
_atom_site_label
_atom_site_fract_x
_atom_site_fract_y
_atom_site_fract_z
Si Si1 0.517381 0.297326 0.520439
Si Si2 0.313791 0.953178 0.351512
Si Si3 0.107409 0.590174 0.919632
Si Si4 0.310074 0.648484 0.469714
Si Si5 0.386412 0.817100 0.537208
Si Si6 0.837974 0.434336 0.817403
Si Si7 0.983428 0.136668 0.656236
O O1 0.695577 0.320715 0.425342
O O2 0.516322 0.237387 0.535226
O O3 0.318510 0.319955 0.732432
O O4 0.542592 0.314138 0.388540
O O5 0.500000 0.945236 0.250000
O O6 0.352698 0.943711 0.206971
O O7 0.170745 0.911307 0.521046
O O8 0.241126 0.011026 0.426986
O O9 0.304916 0.597988 0.804700
O O10 0.030496 0.645495 0.962183
O O11 0.947116 0.560872 0.121066
O O12 0.500000 0.666024 0.250000
O O13 0.132466 0.664997 0.557477
O O14 0.000000 0.417541 0.750000
O O15 0.673511 0.392735 0.957544
O O16 0.000000 0.156157 0.750000
#
# Coordination Sequence:
#
# PCOD8146412 Si02
#       7
#     8   8   8   8   8   8   8
#     4  11  23  42  65 101 135 178 223 272 341 402
#     4  11  23  41  68  99 136 177 223 277 339 405
#     4  12  23  44  69  96 137 178 221 282 335 395
#     4  10  22  41  65 101 142 173 217 277 334 413
#     4  11  23  41  70  98 137 173 218 277 339 408
#     4  11  25  46  66  97 134 181 233 281 335 387
#     4  12  25  44  69  95 133 181 230 280 330 394
#
# _framework density 21.690975999999999
#
# number of rings (size 3 to 8) (size 9 to 14) (size 15 to 20)
#    0.000    0.857    5.714    1.714    0.000    1.143 
#    0.000    3.571    0.000    0.000    0.000    0.000 
#    0.000    0.000    0.000    0.000    0.000    0.000 
#
# Total GULP energy -347212.624976 kJ/mol
# GULP energy per Si atom -12400.450892 kJ/mol
# Density = 2.164161 g / cm^3
# Si number density = 21.690976 Si / 1000 Ang^3
#
#
#
# Elastic Constant Matrix: (Units=GPa)
#
#
# Indices 1 2 3 4 5 6 
#
# 1 140.4889 33.9465 30.5668 -0.0006 13.8261 0.0113
# 2 33.9465 102.8927 9.3056 -0.0033 -4.2695 -0.0022
# 3 30.5668 9.3056 53.3066 -0.0003 8.3341 0.0016
# 4 -0.0006 -0.0033 -0.0003 32.1374 0.0030 -0.8527
# 5 13.8261 -4.2695 8.3341 0.0030 35.0520 -0.0111
# 6 0.0113 -0.0022 0.0016 -0.8527 -0.0111 32.2042
#
#
#
# Elastic Compliance Matrix: (Units=1/GPa)
#
#
# Indices 1 2 3 4 5 6 
#
# 1 0.008971 -0.002696 -0.004226 0.000000 -0.002862 -0.000004
# 2 -0.002696 0.010781 -0.000735 0.000001 0.002551 0.000003
# 3 -0.004226 -0.000735 0.021877 0.000000 -0.003624 -0.000001
# 4 0.000000 0.000001 0.000000 0.031138 -0.000002 0.000824
# 5 -0.002862 0.002551 -0.003624 -0.000002 0.030830 0.000012
# 6 -0.000004 0.000003 -0.000001 0.000824 0.000012 0.031074
#
#
# Mechanical properties :
#
#
# Convention : Reuss Voigt Hill
#
# Bulk Modulus (GPa) = 38.00078 49.36957 43.68517
# Shear Modulus (GPa) = 31.49483 34.73670 33.11577
#
# Velocity S-wave (km/s) = 3.81462 4.00614 3.91155
# Velocity P-wave (km/s) = 6.07939 6.64896 6.37054
#
# Compressibility (1/GPa) = 0.02631525
#
# Stress axis : x y z
#
# Youngs Moduli (GPa) = 111.47578 92.75828 45.70923
#
# Poissons Ratio (x) = 0.25009 0.19315
# Poissons Ratio (y) = 0.30056 0.03359
# Poissons Ratio (z) = 0.47107 0.06816
#
# Static dielectric constant tensor:
#      x y z
#    x 4.126920 0.000000 0.067950 
#    y 0.000000 3.925930 0.000010 
#    z 0.067950 0.000010 3.897470 
# 
# 
# High freq. dielectric constant tensor:
#      x y z
#    x 1.863550 0.000000 0.001920 
#    y 0.000000 1.844530 0.000000 
#    z 0.001920 0.000000 1.854060 
# 
# From -- ./inp_files/156904.got.cif
#   From: 2010.06.25/outbox.cif.g09.slc.cpg/sg15_79_cif.got.tgz:156904.got - 2010.06.28 07:06:18.
