data_PCOD8146346
_publ_section_title
;
Structure prediction by ZEFSAII (Michael W. Deem and Ramdas Pophale) SiO2 
 PCOD8146346
Probable space group: C 2/C
;
_chemical_formula_sum "Si O2"
_cell_formula_units_Z 56
_cell_length_a 28.973700
_cell_length_b 8.691739
_cell_length_c 11.715411
_cell_angle_alpha 90.000000
_cell_angle_beta 64.217077
_cell_angle_gamma 90.000000
_cell_volume 2656.605213
_symmetry_space_group_name_H-M "C 2/C"
_symmetry_group_IT_number 15
_symmetry_cell_setting 'monoclinic'
loop_
_space_group_symop_operation_xyz
x,y,z
-x,y,1/2-z
-x,-y,-z
x,-y,1/2+z
1/2+x,1/2+y,z
1/2-x,1/2+y,1/2-z
1/2-x,1/2-y,-z
1/2+x,1/2-y,1/2+z
loop_
_atom_site_type_symbol
_atom_site_label
_atom_site_fract_x
_atom_site_fract_y
_atom_site_fract_z
Si Si1 0.624171 0.890378 0.744600
Si Si2 0.799699 0.141452 0.772233
Si Si3 0.306564 0.909570 0.047548
Si Si4 0.371563 0.584628 0.318623
Si Si5 0.394567 0.194757 0.601834
Si Si6 0.705999 0.249449 0.453643
Si Si7 0.058215 0.815169 0.169391
O O1 0.656762 0.771882 0.784191
O O2 0.664283 0.936927 0.602733
O O3 0.573976 0.810105 0.746427
O O4 0.600719 0.026885 0.845890
O O5 0.748635 0.176094 0.902487
O O6 0.781875 0.124320 0.658836
O O7 0.824681 0.992598 0.801716
O O8 0.339343 0.803810 0.098659
O O9 0.296885 0.082091 0.103952
O O10 0.403178 0.677516 0.189624
O O11 0.348400 0.706945 0.431805
O O12 0.406403 0.466102 0.352480
O O13 0.436631 0.236306 0.460851
O O14 0.750000 0.250000 0.500000
O O15 0.000000 0.865846 0.250000
#
# Coordination Sequence:
#
# PCOD8146346 Si02
#       7
#     8   8   8   8   8   8   8
#     4  10  22  41  63  89 126 169 215 263 320 382
#     4  11  23  36  58  91 131 177 208 256 309 376
#     4  11  22  36  60  91 132 169 215 256 303 378
#     4  11  23  42  65  92 130 171 217 263 323 387
#     4  11  22  41  67  93 125 173 209 268 333 380
#     4  12  22  37  58  93 130 173 217 255 300 379
#     4  10  25  46  66  97 127 159 219 280 332 394
#
# _framework density 21.079533999999999
#
# number of rings (size 3 to 8) (size 9 to 14) (size 15 to 20)
#    0.000    1.143    4.286    2.143    0.000    1.143 
#    0.000    0.714    0.000    0.000    0.000    0.000 
#    0.000    0.000    0.000    0.000    0.000    0.000 
#
# Total GULP energy -346983.967768 kJ/mol
# GULP energy per Si atom -12392.284563 kJ/mol
# Density = 2.103156 g / cm^3
# Si number density = 21.079534 Si / 1000 Ang^3
#
#
#
# Elastic Constant Matrix: (Units=GPa)
#
#
# Indices 1 2 3 4 5 6 
#
# 1 65.0697 20.2386 49.4118 0.0000 -13.0504 0.0000
# 2 20.2386 75.2134 38.3018 0.0000 1.4568 0.0000
# 3 49.4118 38.3018 99.7278 0.0000 3.8833 0.0000
# 4 0.0000 0.0000 0.0000 36.8611 0.0000 7.7656
# 5 -13.0504 1.4568 3.8833 0.0000 29.5499 0.0000
# 6 0.0000 0.0000 0.0000 7.7656 0.0000 18.5684
#
#
#
# Elastic Compliance Matrix: (Units=1/GPa)
#
#
# Indices 1 2 3 4 5 6 
#
# 1 0.030363 -0.000624 -0.015406 0.000000 0.015465 0.000000
# 2 -0.000624 0.016541 -0.006032 0.000000 -0.000298 0.000000
# 3 -0.015406 -0.006032 0.020335 0.000000 -0.009179 0.000000
# 4 0.000000 0.000000 0.000000 0.029750 0.000000 -0.012442
# 5 0.015465 -0.000298 -0.009179 0.000000 0.041892 0.000000
# 6 0.000000 0.000000 0.000000 -0.012442 0.000000 0.059058
#
#
# Mechanical properties :
#
#
# Convention : Reuss Voigt Hill
#
# Bulk Modulus (GPa) = 43.26413 50.65726 46.96070
# Shear Modulus (GPa) = 20.01859 25.79980 22.90919
#
# Velocity S-wave (km/s) = 3.08501 3.50226 3.30024
# Velocity P-wave (km/s) = 5.76702 6.35910 6.07028
#
# Compressibility (1/GPa) = 0.02311384
#
# Stress axis : x y z
#
# Youngs Moduli (GPa) = 32.93491 60.45608 49.17717
#
# Poissons Ratio (x) = 0.03773 0.75764
# Poissons Ratio (y) = 0.02056 0.29663
# Poissons Ratio (z) = 0.50740 0.36467
#
# Static dielectric constant tensor:
#      x y z
#    x 3.575340 0.000000 0.227840 
#    y 0.000000 3.848950 0.000000 
#    z 0.227840 0.000000 3.868850 
# 
# 
# High freq. dielectric constant tensor:
#      x y z
#    x 1.804060 0.000000 0.019560 
#    y 0.000000 1.826780 0.000000 
#    z 0.019560 0.000000 1.829330 
# 
# From -- ./inp_files/125827.got.cif
#   From: 2010.06.25/outbox.cif.g09.slc.cpg/sg15_63_cif.got.tgz:125827.got - 2010.06.28 07:06:18.
