data_PCOD8146056
_publ_section_title
;
Structure prediction by ZEFSAII (Michael W. Deem and Ramdas Pophale) SiO2 
 PCOD8146056
Probable space group: C 2/C
;
_chemical_formula_sum "Si O2"
_cell_formula_units_Z 44
_cell_length_a 17.291713
_cell_length_b 9.262744
_cell_length_c 16.330755
_cell_angle_alpha 90.000000
_cell_angle_beta 129.826296
_cell_angle_gamma 90.000000
_cell_volume 2008.812111
_symmetry_space_group_name_H-M "C 2/C"
_symmetry_group_IT_number 15
_symmetry_cell_setting 'monoclinic'
loop_
_space_group_symop_operation_xyz
x,y,z
-x,y,1/2-z
-x,-y,-z
x,-y,1/2+z
1/2+x,1/2+y,z
1/2-x,1/2+y,1/2-z
1/2-x,1/2-y,-z
1/2+x,1/2-y,1/2+z
loop_
_atom_site_type_symbol
_atom_site_label
_atom_site_fract_x
_atom_site_fract_y
_atom_site_fract_z
Si Si1 0.361177 0.397688 0.450944
Si Si2 0.110828 0.052833 0.342251
Si Si3 0.500000 0.991354 0.250000
Si Si4 0.939671 0.204011 0.466609
Si Si5 0.149814 0.700948 0.754656
Si Si6 0.131866 0.259526 0.905761
O O1 0.349232 0.405012 0.540915
O O2 0.406477 0.539579 0.441921
O O3 0.443362 0.275551 0.482121
O O4 0.253316 0.382615 0.336774
O O5 0.170889 0.143928 0.314416
O O6 0.000000 0.110680 0.250000
O O7 0.109958 0.878555 0.332260
O O8 0.448014 0.887361 0.280777
O O9 0.405816 0.092117 0.159419
O O10 0.866839 0.284310 0.353443
O O11 0.927628 0.262704 0.549415
O O12 0.250000 0.250000 0.000000
#
# Coordination Sequence:
#
# PCOD8146056 Si02
#       6
#     8   8   4   8   8   8
#     4  10  22  40  65  98 130 172 220 272 325 407
#     4  11  20  43  70  92 133 180 214 265 339 397
#     4  12  24  42  66 100 136 168 232 284 320 404
#     4  10  23  42  62  93 135 172 219 269 336 393
#     4  12  24  41  71 101 131 172 225 279 336 388
#     4  11  26  44  67  96 135 182 224 273 339 401
#
# _framework density 21.903493000000001
#
# number of rings (size 3 to 8) (size 9 to 14) (size 15 to 20)
#    0.000    1.091    3.636    2.727    0.000    6.545 
#    0.000    0.000    0.000    0.000    0.000    0.000 
#    0.000    0.000    0.000    0.000    0.000    0.000 
#
# Total GULP energy -272598.151928 kJ/mol
# GULP energy per Si atom -12390.825088 kJ/mol
# Density = 2.185364 g / cm^3
# Si number density = 21.903493 Si / 1000 Ang^3
#
#
#
# Elastic Constant Matrix: (Units=GPa)
#
#
# Indices 1 2 3 4 5 6 
#
# 1 51.4170 13.7787 6.4303 0.0000 7.5157 0.0000
# 2 13.7787 79.6077 20.2391 0.0000 -17.0221 0.0000
# 3 6.4303 20.2391 83.7284 0.0000 15.0473 0.0000
# 4 0.0000 0.0000 0.0000 38.1467 0.0000 4.1906
# 5 7.5157 -17.0221 15.0473 0.0000 33.1364 0.0000
# 6 0.0000 0.0000 0.0000 4.1906 0.0000 14.9948
#
#
#
# Elastic Compliance Matrix: (Units=1/GPa)
#
#
# Indices 1 2 3 4 5 6 
#
# 1 0.022180 -0.006045 0.001329 0.000000 -0.008740 0.000000
# 2 -0.006045 0.018125 -0.006355 0.000000 0.013568 0.000000
# 3 0.001329 -0.006355 0.015264 0.000000 -0.010497 0.000000
# 4 0.000000 0.000000 0.000000 0.027045 0.000000 -0.007558
# 5 -0.008740 0.013568 -0.010497 0.000000 0.043897 0.000000
# 6 0.000000 0.000000 0.000000 -0.007558 0.000000 0.068802
#
#
# Mechanical properties :
#
#
# Convention : Reuss Voigt Hill
#
# Bulk Modulus (GPa) = 29.91797 32.84993 31.38395
# Shear Modulus (GPa) = 21.87236 28.87593 25.37414
#
# Velocity S-wave (km/s) = 3.16346 3.63481 3.40730
# Velocity P-wave (km/s) = 5.19922 5.71366 5.46250
#
# Compressibility (1/GPa) = 0.03342473
#
# Stress axis : x y z
#
# Youngs Moduli (GPa) = 45.08527 55.17296 65.51314
#
# Poissons Ratio (x) = 0.33355 -0.08704
# Poissons Ratio (y) = 0.27256 0.41635
# Poissons Ratio (z) = -0.05990 0.35064
#
# Static dielectric constant tensor:
#      x y z
#    x 1.687290 0.000000 -1.192860 
#    y 0.000000 4.069550 0.000000 
#    z -1.192860 0.000000 3.274390 
# 
# 
# High freq. dielectric constant tensor:
#      x y z
#    x 1.857350 0.000000 0.008620 
#    y 0.000000 1.856810 0.000000 
#    z 0.008620 0.000000 1.867300 
# 
# From -- ./inp_files/159795.got.cif
#   From: 2010.06.25/outbox.cif.g09.slc.cpg/sg15_80_cif.got.tgz:159795.got - 2010.06.28 07:06:18.
