data_PCOD8146228
_publ_section_title
;
Structure prediction by ZEFSAII (Michael W. Deem and Ramdas Pophale) SiO2 
 PCOD8146228
Probable space group: C 2/C
;
_chemical_formula_sum "Si O2"
_cell_formula_units_Z 52
_cell_length_a 9.325128
_cell_length_b 22.017131
_cell_length_c 16.541735
_cell_angle_alpha 90.000000
_cell_angle_beta 135.417231
_cell_angle_gamma 90.000000
_cell_volume 2383.943130
_symmetry_space_group_name_H-M "C 2/C"
_symmetry_group_IT_number 15
_symmetry_cell_setting 'monoclinic'
loop_
_space_group_symop_operation_xyz
x,y,z
-x,y,1/2-z
-x,-y,-z
x,-y,1/2+z
1/2+x,1/2+y,z
1/2-x,1/2+y,1/2-z
1/2-x,1/2-y,-z
1/2+x,1/2-y,1/2+z
loop_
_atom_site_type_symbol
_atom_site_label
_atom_site_fract_x
_atom_site_fract_y
_atom_site_fract_z
Si Si1 0.503217 0.134503 0.025035
Si Si2 0.780744 0.795019 0.193075
Si Si3 0.500000 0.004244 0.750000
Si Si4 0.249861 0.462630 0.993690
Si Si5 0.819267 0.898401 0.523383
Si Si6 0.641113 0.319260 0.730641
Si Si7 0.186017 0.901686 0.163494
O O1 0.403379 0.068869 0.004243
O O2 0.641868 0.133437 0.001671
O O3 0.633887 0.158453 0.153271
O O4 0.328750 0.182720 0.932852
O O5 0.658407 0.738837 0.180591
O O6 0.789736 0.848004 0.263409
O O7 0.000000 0.773474 0.250000
O O8 0.645885 0.045868 0.750661
O O9 0.642915 0.962217 0.862846
O O10 0.310574 0.530603 0.041831
O O11 0.456288 0.425029 0.074448
O O12 0.774159 0.881068 0.412702
O O13 0.039627 0.873941 0.639365
O O14 0.500000 0.301775 0.750000
#
# Coordination Sequence:
#
# PCOD8146228 Si02
#       7
#     8   8   4   8   8   8   8
#     4  11  25  45  66 106 132 181 224 278 352 389
#     4  12  26  46  65  99 138 179 232 283 337 402
#     4  10  22  40  70 102 136 186 220 274 346 404
#     4  11  23  42  70 101 145 171 226 278 343 410
#     4  10  23  45  70 102 132 181 225 282 337 406
#     4  10  27  45  71  98 132 182 233 278 338 403
#     4  11  24  42  68 101 134 181 227 273 344 405
#
# _framework density 21.812601999999998
#
# number of rings (size 3 to 8) (size 9 to 14) (size 15 to 20)
#    0.000    1.231    1.538    4.154    9.692    3.077 
#    5.538    0.000    0.000    0.000    0.000    0.000 
#    0.000    0.000    0.000    0.000    0.000    0.000 
#
# Total GULP energy -322433.523095 kJ/mol
# GULP energy per Si atom -12401.289350 kJ/mol
# Density = 2.176296 g / cm^3
# Si number density = 21.812602 Si / 1000 Ang^3
#
#
#
# Elastic Constant Matrix: (Units=GPa)
#
#
# Indices 1 2 3 4 5 6 
#
# 1 65.9448 22.8180 19.7589 -0.0001 10.4974 0.0000
# 2 22.8180 109.2772 54.3718 0.0000 8.6339 0.0000
# 3 19.7589 54.3718 124.4711 -0.0011 18.9820 -0.0006
# 4 -0.0001 0.0000 -0.0011 24.4824 -0.0004 0.2056
# 5 10.4974 8.6339 18.9820 -0.0004 31.4956 -0.0002
# 6 0.0000 0.0000 -0.0006 0.2056 -0.0002 34.4779
#
#
#
# Elastic Compliance Matrix: (Units=1/GPa)
#
#
# Indices 1 2 3 4 5 6 
#
# 1 0.017086 -0.002816 -0.000805 0.000000 -0.004437 0.000000
# 2 -0.002816 0.012157 -0.004954 0.000000 0.000592 0.000000
# 3 -0.000805 -0.004954 0.011098 0.000000 -0.005062 0.000000
# 4 0.000000 0.000000 0.000000 0.040848 0.000000 -0.000244
# 5 -0.004437 0.000592 -0.005062 0.000000 0.036118 0.000000
# 6 0.000000 0.000000 0.000000 -0.000244 0.000000 0.029006
#
#
# Mechanical properties :
#
#
# Convention : Reuss Voigt Hill
#
# Bulk Modulus (GPa) = 43.12146 54.84340 48.98243
# Shear Modulus (GPa) = 29.20671 31.60748 30.40710
#
# Velocity S-wave (km/s) = 3.66318 3.81076 3.73770
# Velocity P-wave (km/s) = 6.14035 6.67534 6.41342
#
# Compressibility (1/GPa) = 0.02319031
#
# Stress axis : x y z
#
# Youngs Moduli (GPa) = 58.52605 82.25626 90.10907
#
# Poissons Ratio (x) = 0.23167 0.07257
# Poissons Ratio (y) = 0.16484 0.44637
# Poissons Ratio (z) = 0.04713 0.40747
#
# Static dielectric constant tensor:
#      x y z
#    x 4.061180 0.000000 0.146590 
#    y 0.000000 3.771200 0.000000 
#    z 0.146590 0.000000 4.187420 
# 
# 
# High freq. dielectric constant tensor:
#      x y z
#    x 1.863130 0.000000 0.014110 
#    y 0.000000 1.844990 0.000000 
#    z 0.014110 0.000000 1.874370 
# 
# From -- ./inp_files/192590.got.cif
#   From: 2010.06.25/outbox.cif.g09.slc.cpg/sg15_97_cif.got.tgz:192590.got - 2010.06.28 07:06:18.
