data_PCOD8146113
_publ_section_title
;
Structure prediction by ZEFSAII (Michael W. Deem and Ramdas Pophale) SiO2 
 PCOD8146113
Probable space group: C 2/C
;
_chemical_formula_sum "Si O2"
_cell_formula_units_Z 28
_cell_length_a 11.276444
_cell_length_b 19.903383
_cell_length_c 5.145236
_cell_angle_alpha 90.000000
_cell_angle_beta 79.303577
_cell_angle_gamma 90.000000
_cell_volume 1134.728349
_symmetry_space_group_name_H-M "C 2/C"
_symmetry_group_IT_number 15
_symmetry_cell_setting 'monoclinic'
loop_
_space_group_symop_operation_xyz
x,y,z
-x,y,1/2-z
-x,-y,-z
x,-y,1/2+z
1/2+x,1/2+y,z
1/2-x,1/2+y,1/2-z
1/2-x,1/2-y,-z
1/2+x,1/2-y,1/2+z
loop_
_atom_site_type_symbol
_atom_site_label
_atom_site_fract_x
_atom_site_fract_y
_atom_site_fract_z
Si Si1 0.802444 0.642058 0.497606
Si Si2 0.625206 0.455828 0.285382
Si Si3 0.577446 0.274988 0.957959
Si Si4 0.000000 0.453361 0.750000
O O1 0.736642 0.595104 0.734881
O O2 0.699325 0.681643 0.383101
O O3 0.888851 0.696586 0.599061
O O4 0.881441 0.593613 0.281626
O O5 0.500000 0.417958 0.250000
O O6 0.630876 0.483279 0.574993
O O7 0.500000 0.300817 0.750000
O O8 0.500000 0.284108 0.250000
O O9 0.000000 0.500000 0.500000
#
# Coordination Sequence:
#
# PCOD8146113 Si02
#       4
#     8   8   8   4
#     4  11  25  47  73 103 145 187 238 293 361 425
#     4  10  22  40  66  98 133 178 232 289 347 415
#     4  11  27  47  73 106 140 188 243 301 349 421
#     4  12  28  46  74 108 148 192 232 292 362 434
#
# _framework density 24.675508000000001
#
# number of rings (size 3 to 8) (size 9 to 14) (size 15 to 20)
#    0.000    1.143    1.429    2.571    2.000   14.857 
#    0.000    0.000    0.000    0.000    0.000    0.000 
#    0.000    0.000    0.000    0.000    0.000    0.000 
#
# Total GULP energy -173552.521235 kJ/mol
# GULP energy per Si atom -12396.608660 kJ/mol
# Density = 2.461935 g / cm^3
# Si number density = 24.675508 Si / 1000 Ang^3
#
#
#
# Elastic Constant Matrix: (Units=GPa)
#
#
# Indices 1 2 3 4 5 6 
#
# 1 130.1477 58.1252 59.3401 0.0000 -20.0638 0.0000
# 2 58.1252 115.1076 42.4126 0.0000 -22.2859 0.0000
# 3 59.3401 42.4126 129.0439 0.0000 -8.7131 0.0000
# 4 0.0000 0.0000 0.0000 -81.2830 0.0000 68.1295
# 5 -20.0638 -22.2859 -8.7131 0.0000 49.2224 0.0000
# 6 0.0000 0.0000 0.0000 68.1295 0.0000 -32.3296
#
#
#
# Elastic Compliance Matrix: (Units=1/GPa)
#
#
# Indices 1 2 3 4 5 6 
#
# 1 0.011567 -0.003988 -0.003858 0.000000 0.002226 0.000000
# 2 -0.003988 0.012081 -0.001900 0.000000 0.003508 0.000000
# 3 -0.003858 -0.001900 0.010104 0.000000 -0.000644 0.000000
# 4 0.000000 0.000000 0.000000 0.016054 0.000000 0.033832
# 5 0.002226 0.003508 -0.000644 0.000000 0.022697 0.000000
# 6 0.000000 0.000000 0.000000 0.033832 0.000000 0.040363
#
#
# Mechanical properties :
#
#
# Convention : Reuss Voigt Hill
#
# Bulk Modulus (GPa) = 70.12634 77.11720 73.62177
# Shear Modulus (GPa) = 36.46653 1.41670 18.94162
#
# Velocity S-wave (km/s) = 3.84844 0.75854 2.77362
# Velocity P-wave (km/s) = 6.94467 5.66459 6.33703
#
# Compressibility (1/GPa) = 0.01425998
#
# Stress axis : x y z
#
# Youngs Moduli (GPa) = 86.45276 82.77749 98.96912
#
# Poissons Ratio (x) = 0.33015 0.38181
# Poissons Ratio (y) = 0.34481 0.18800
# Poissons Ratio (z) = 0.33352 0.15724
#
# Static dielectric constant tensor:
#      x y z
#    x 4.792300 0.000000 -0.565500 
#    y 0.000000 4.790830 0.000000 
#    z -0.565500 0.000000 4.833000 
# 
# 
# High freq. dielectric constant tensor:
#      x y z
#    x 1.996820 0.000000 -0.027270 
#    y 0.000000 2.002060 0.000000 
#    z -0.027270 0.000000 1.962630 
# 
# From -- ./inp_files/3446.got.cif
#   From: 2010.06.25/outbox.cif.g09.slc.cpg/sg15_2_cif.got.tgz:3446.got - 2010.06.28 07:06:18.
