data_PCOD8146436
_publ_section_title
;
Structure prediction by ZEFSAII (Michael W. Deem and Ramdas Pophale) SiO2 
 PCOD8146436
Probable space group: C 2/C
;
_chemical_formula_sum "Si O2"
_cell_formula_units_Z 64
_cell_length_a 17.020174
_cell_length_b 19.487572
_cell_length_c 19.137309
_cell_angle_alpha 90.000000
_cell_angle_beta 151.090870
_cell_angle_gamma 90.000000
_cell_volume 3068.519600
_symmetry_space_group_name_H-M "C 2/C"
_symmetry_group_IT_number 15
_symmetry_cell_setting 'monoclinic'
loop_
_space_group_symop_operation_xyz
x,y,z
-x,y,1/2-z
-x,-y,-z
x,-y,1/2+z
1/2+x,1/2+y,z
1/2-x,1/2+y,1/2-z
1/2-x,1/2-y,-z
1/2+x,1/2-y,1/2+z
loop_
_atom_site_type_symbol
_atom_site_label
_atom_site_fract_x
_atom_site_fract_y
_atom_site_fract_z
Si Si1 0.321494 0.556681 0.082246
Si Si2 0.503916 0.931234 0.420573
Si Si3 0.394250 0.697972 0.599243
Si Si4 0.105102 0.799673 0.900763
Si Si5 0.574484 0.775284 0.620141
Si Si6 0.401091 0.214879 0.845012
Si Si7 0.828060 0.422851 0.576215
Si Si8 0.982778 0.579373 0.406344
O O1 0.500000 0.536354 0.250000
O O2 0.331520 0.622776 0.039264
O O3 0.195643 0.569249 0.049055
O O4 0.248711 0.498171 0.975344
O O5 0.425438 0.860935 0.329125
O O6 0.473709 0.929595 0.479490
O O7 0.418797 0.003643 0.328604
O O8 0.500000 0.682417 0.750000
O O9 0.250000 0.750000 0.500000
O O10 0.515862 0.728047 0.636953
O O11 0.308682 0.629482 0.502599
O O12 0.000000 0.800609 0.750000
O O13 0.008498 0.773215 0.892371
O O14 0.250000 0.750000 0.000000
O O15 0.433758 0.786401 0.453412
O O16 0.717279 0.737352 0.690488
O O17 0.629878 0.852286 0.690225
O O18 0.000000 0.415598 0.750000
O O19 0.857597 0.405658 0.516856
#
# Coordination Sequence:
#
# PCOD8146436 Si02
#       8
#     8   8   8   8   8   8   8   8
#     4  10  22  41  65  93 122 165 212 259 315 382
#     4   9  19  40  64  89 120 164 211 253 313 377
#     4  12  24  41  65  95 128 168 213 261 318 377
#     4  11  22  39  64  92 129 168 208 260 317 373
#     4  11  24  39  65  90 128 165 209 259 314 376
#     4  11  23  41  61  95 126 168 211 259 315 376
#     4  11  24  43  65  93 126 164 210 266 321 375
#     4   9  20  38  64  84 119 162 207 250 312 368
#
# _framework density 20.856964000000001
#
# number of rings (size 3 to 8) (size 9 to 14) (size 15 to 20)
#    0.000    1.500    2.500    2.250    8.750    0.500 
#    6.750    0.000    0.000    2.250    0.000    0.000 
#    0.000    0.000    0.000    0.000    0.000    0.000 
#
# Total GULP energy -396422.802028 kJ/mol
# GULP energy per Si atom -12388.212563 kJ/mol
# Density = 2.080949 g / cm^3
# Si number density = 20.856964 Si / 1000 Ang^3
#
#
#
# Elastic Constant Matrix: (Units=GPa)
#
#
# Indices 1 2 3 4 5 6 
#
# 1 97.5282 49.0330 13.2610 0.0022 13.3104 0.0002
# 2 49.0330 201.5606 58.6243 0.0027 13.1975 0.0025
# 3 13.2610 58.6243 82.9373 0.0016 12.5217 0.0017
# 4 0.0022 0.0027 0.0016 30.3999 0.0001 5.4049
# 5 13.3104 13.1975 12.5217 0.0001 30.1558 0.0005
# 6 0.0002 0.0025 0.0017 5.4049 0.0005 34.5189
#
#
#
# Elastic Compliance Matrix: (Units=1/GPa)
#
#
# Indices 1 2 3 4 5 6 
#
# 1 0.012215 -0.002905 0.000771 -0.000001 -0.004440 0.000000
# 2 -0.002905 0.006962 -0.004471 0.000000 0.000092 0.000000
# 3 0.000771 -0.004471 0.015843 0.000000 -0.004962 0.000000
# 4 -0.000001 0.000000 0.000000 0.033837 0.000001 -0.005298
# 5 -0.004440 0.000092 -0.004962 0.000001 0.037141 0.000000
# 6 0.000000 0.000000 0.000000 -0.005298 0.000000 0.029799
#
#
# Mechanical properties :
#
#
# Convention : Reuss Voigt Hill
#
# Bulk Modulus (GPa) = 45.84868 69.31808 57.58338
# Shear Modulus (GPa) = 31.99421 36.42211 34.20816
#
# Velocity S-wave (km/s) = 3.92086 4.18339 4.05425
# Velocity P-wave (km/s) = 6.52132 7.52605 7.04163
#
# Compressibility (1/GPa) = 0.02181088
#
# Stress axis : x y z
#
# Youngs Moduli (GPa) = 81.86559 143.63155 63.11801
#
# Poissons Ratio (x) = 0.41724 -0.04864
# Poissons Ratio (y) = 0.23782 0.28218
# Poissons Ratio (z) = -0.06309 0.64212
#
# Static dielectric constant tensor:
#      x y z
#    x 3.000970 -0.000230 -0.039280 
#    y -0.000230 4.483860 -0.000120 
#    z -0.039280 -0.000120 3.442490 
# 
# 
# High freq. dielectric constant tensor:
#      x y z
#    x 1.819270 0.000000 0.008360 
#    y 0.000000 1.848820 0.000000 
#    z 0.008360 0.000000 1.775860 
# 
# From -- ./inp_files/249653.got.cif
#   From: 2010.06.25/outbox.cif.g09.slc.cpg/sg15_125_cif.got.tgz:249653.got - 2010.06.28 07:06:18.
