data_PCOD8146271
_publ_section_title
;
Structure prediction by ZEFSAII (Michael W. Deem and Ramdas Pophale) SiO2 
 PCOD8146271
Probable space group: C 2/C
;
_chemical_formula_sum "Si O2"
_cell_formula_units_Z 44
_cell_length_a 8.763877
_cell_length_b 21.259935
_cell_length_c 11.781700
_cell_angle_alpha 90.000000
_cell_angle_beta 110.617027
_cell_angle_gamma 90.000000
_cell_volume 2054.570767
_symmetry_space_group_name_H-M "C 2/C"
_symmetry_group_IT_number 15
_symmetry_cell_setting 'monoclinic'
loop_
_space_group_symop_operation_xyz
x,y,z
-x,y,1/2-z
-x,-y,-z
x,-y,1/2+z
1/2+x,1/2+y,z
1/2-x,1/2+y,1/2-z
1/2-x,1/2-y,-z
1/2+x,1/2-y,1/2+z
loop_
_atom_site_type_symbol
_atom_site_label
_atom_site_fract_x
_atom_site_fract_y
_atom_site_fract_z
Si Si1 0.500000 0.154160 0.750000
Si Si2 0.193425 0.422175 0.913660
Si Si3 0.710407 0.260576 0.121996
Si Si4 0.835144 0.379042 0.836729
Si Si5 0.793909 0.567831 0.557756
Si Si6 0.492281 0.626937 0.881854
O O1 0.654833 0.199470 0.772566
O O2 0.456544 0.107990 0.633330
O O3 0.235831 0.413485 0.792302
O O4 0.164044 0.494996 0.932743
O O5 0.028181 0.386622 0.900910
O O6 0.334056 0.392889 0.025568
O O7 0.698203 0.194932 0.182634
O O8 0.544374 0.301043 0.089784
O O9 0.750000 0.250000 0.000000
O O10 0.741111 0.409372 0.918821
O O11 0.646850 0.580557 0.606072
O O12 0.500000 0.619507 0.750000
#
# Coordination Sequence:
#
# PCOD8146271 Si02
#       6
#     4   8   8   8   8   8
#     4  10  22  40  74  96 136 178 232 280 326 426
#     4  11  27  44  70 105 143 181 233 299 342 421
#     4  11  24  45  67 105 132 188 238 275 357 409
#     4  11  25  44  70 102 137 186 236 286 350 414
#     4  11  24  47  71 101 135 193 232 276 358 418
#     4  11  27  44  70 105 143 182 231 292 355 409
#
# _framework density 21.415666999999999
#
# number of rings (size 3 to 8) (size 9 to 14) (size 15 to 20)
#    0.000    1.091    3.636    2.182   12.727    1.455 
#    0.000    0.000    0.000    0.000    0.000    0.000 
#    0.000    0.000    0.000    0.000    0.000    0.000 
#
# Total GULP energy -272813.713991 kJ/mol
# GULP energy per Si atom -12400.623363 kJ/mol
# Density = 2.136692 g / cm^3
# Si number density = 21.415667 Si / 1000 Ang^3
#
#
#
# Elastic Constant Matrix: (Units=GPa)
#
#
# Indices 1 2 3 4 5 6 
#
# 1 88.1369 39.4323 62.6170 0.0000 -1.3238 0.0000
# 2 39.4323 176.4267 52.7455 0.0000 13.3456 0.0000
# 3 62.6170 52.7455 154.3349 0.0000 -1.8577 0.0000
# 4 0.0000 0.0000 0.0000 24.7203 0.0000 -1.2182
# 5 -1.3238 13.3456 -1.8577 0.0000 41.9930 0.0000
# 6 0.0000 0.0000 0.0000 -1.2182 0.0000 33.2045
#
#
#
# Elastic Compliance Matrix: (Units=1/GPa)
#
#
# Indices 1 2 3 4 5 6 
#
# 1 0.016511 -0.001957 -0.006020 0.000000 0.000876 0.000000
# 2 -0.001957 0.006736 -0.001536 0.000000 -0.002270 0.000000
# 3 -0.006020 -0.001536 0.009455 0.000000 0.000717 0.000000
# 4 0.000000 0.000000 0.000000 0.040526 0.000000 0.001487
# 5 0.000876 -0.002270 0.000717 0.000000 0.024594 0.000000
# 6 0.000000 0.000000 0.000000 0.001487 0.000000 0.030171
#
#
# Mechanical properties :
#
#
# Convention : Reuss Voigt Hill
#
# Bulk Modulus (GPa) = 73.10774 80.94314 77.02544
# Shear Modulus (GPa) = 32.98635 37.59046 35.28841
#
# Velocity S-wave (km/s) = 3.92891 4.19415 4.06370
# Velocity P-wave (km/s) = 7.40226 7.83153 7.61991
#
# Compressibility (1/GPa) = 0.01367844
#
# Stress axis : x y z
#
# Youngs Moduli (GPa) = 60.56431 148.44965 105.76271
#
# Poissons Ratio (x) = 0.29051 0.63666
# Poissons Ratio (y) = 0.11852 0.16240
# Poissons Ratio (z) = 0.36458 0.22795
#
# Static dielectric constant tensor:
#      x y z
#    x 3.818220 0.000000 -0.000270 
#    y 0.000000 4.091290 0.000000 
#    z -0.000270 0.000000 3.980350 
# 
# 
# High freq. dielectric constant tensor:
#      x y z
#    x 1.832090 0.000000 -0.003390 
#    y 0.000000 1.856990 0.000000 
#    z -0.003390 0.000000 1.846720 
# 
# From -- ./inp_files/78385.got.cif
#   From: 2010.06.25/outbox.cif.g09.slc.cpg/sg15_40_cif.got.tgz:78385.got - 2010.06.28 07:06:18.
