data_PCOD8146881
_publ_section_title
;
Structure prediction by ZEFSAII (Michael W. Deem and Ramdas Pophale) SiO2 
 PCOD8146881
Probable space group: C 2/C
;
_chemical_formula_sum "Si O2"
_cell_formula_units_Z 56
_cell_length_a 9.566233
_cell_length_b 13.527128
_cell_length_c 24.872416
_cell_angle_alpha 90.000000
_cell_angle_beta 121.665600
_cell_angle_gamma 90.000000
_cell_volume 2739.419935
_symmetry_space_group_name_H-M "C 2/C"
_symmetry_group_IT_number 15
_symmetry_cell_setting 'monoclinic'
loop_
_space_group_symop_operation_xyz
x,y,z
-x,y,1/2-z
-x,-y,-z
x,-y,1/2+z
1/2+x,1/2+y,z
1/2-x,1/2+y,1/2-z
1/2-x,1/2-y,-z
1/2+x,1/2-y,1/2+z
loop_
_atom_site_type_symbol
_atom_site_label
_atom_site_fract_x
_atom_site_fract_y
_atom_site_fract_z
Si Si1 0.557650 0.515956 0.952854
Si Si2 0.008810 0.379486 0.366511
Si Si3 0.322554 0.163586 0.356957
Si Si4 0.648845 0.695035 0.432883
Si Si5 0.086210 0.536079 0.462796
Si Si6 0.277132 0.616704 0.832634
Si Si7 0.185515 0.978172 0.272501
O O1 0.565526 0.408063 0.928719
O O2 0.427346 0.586664 0.899716
O O3 0.500000 0.500000 0.000000
O O4 0.732184 0.573112 0.984830
O O5 0.819422 0.412306 0.330437
O O6 0.002560 0.266066 0.383592
O O7 0.112821 0.438694 0.431968
O O8 0.101009 0.391838 0.327400
O O9 0.263011 0.177341 0.405210
O O10 0.500930 0.116344 0.405985
O O11 0.317028 0.268861 0.324832
O O12 0.214677 0.091294 0.297054
O O13 0.750000 0.750000 0.500000
O O14 0.000000 0.500000 0.500000
O O15 0.278347 0.541805 0.782743
O O16 0.000000 0.946127 0.250000
#
# Coordination Sequence:
#
# PCOD8146881 Si02
#       7
#     8   8   8   8   8   8   8
#     4  12  22  37  63  99 135 162 212 270 326 389
#     4  10  22  42  66  91 127 171 219 263 317 395
#     4  10  23  42  66  91 128 174 222 261 326 400
#     4  11  19  39  68  98 127 177 218 254 324 411
#     4  11  20  38  65  95 131 171 204 267 330 388
#     4  11  24  43  64  94 126 172 220 265 323 397
#     4  11  25  44  65  92 125 168 222 275 325 379
#
# _framework density 20.442283
#
# number of rings (size 3 to 8) (size 9 to 14) (size 15 to 20)
#    0.000    1.143    4.286    2.143    2.000    4.000 
#    2.571    2.857    0.000    0.000    0.000    0.000 
#    0.000    0.000    0.000    0.000    0.000    0.000 
#
# Total GULP energy -346940.210246 kJ/mol
# GULP energy per Si atom -12390.721794 kJ/mol
# Density = 2.039576 g / cm^3
# Si number density = 20.442283 Si / 1000 Ang^3
#
#
#
# Elastic Constant Matrix: (Units=GPa)
#
#
# Indices 1 2 3 4 5 6 
#
# 1 92.3909 40.0368 36.7789 0.0000 14.9071 0.0000
# 2 40.0368 112.5520 36.1387 0.0000 5.7118 0.0000
# 3 36.7789 36.1387 89.5969 0.0000 -1.5913 0.0000
# 4 0.0000 0.0000 0.0000 37.2184 0.0000 -4.6471
# 5 14.9071 5.7118 -1.5913 0.0000 44.0261 0.0000
# 6 0.0000 0.0000 0.0000 -4.6471 0.0000 23.9722
#
#
#
# Elastic Compliance Matrix: (Units=1/GPa)
#
#
# Indices 1 2 3 4 5 6 
#
# 1 0.015069 -0.003564 -0.004834 0.000000 -0.004815 0.000000
# 2 -0.003564 0.011146 -0.003039 0.000000 -0.000349 0.000000
# 3 -0.004834 -0.003039 0.014416 0.000000 0.002552 0.000000
# 4 0.000000 0.000000 0.000000 0.027535 0.000000 0.005338
# 5 -0.004815 -0.000349 0.002552 0.000000 0.024482 0.000000
# 6 0.000000 0.000000 0.000000 0.005338 0.000000 0.042750
#
#
# Mechanical properties :
#
#
# Convention : Reuss Voigt Hill
#
# Bulk Modulus (GPa) = 56.31206 57.82761 57.06984
# Shear Modulus (GPa) = 30.45247 33.14904 31.80076
#
# Velocity S-wave (km/s) = 3.86383 4.03127 3.94843
# Velocity P-wave (km/s) = 6.89291 7.07233 6.98319
#
# Compressibility (1/GPa) = 0.01775818
#
# Stress axis : x y z
#
# Youngs Moduli (GPa) = 66.36129 89.71806 69.36545
#
# Poissons Ratio (x) = 0.31975 0.33529
# Poissons Ratio (y) = 0.23651 0.21080
# Poissons Ratio (z) = 0.32077 0.27265
#
# Static dielectric constant tensor:
#      x y z
#    x 3.657680 0.000000 -0.060750 
#    y 0.000000 3.979680 0.000000 
#    z -0.060750 0.000000 3.870780 
# 
# 
# High freq. dielectric constant tensor:
#      x y z
#    x 1.792320 0.000000 0.000890 
#    y 0.000000 1.800450 0.000000 
#    z 0.000890 0.000000 1.812390 
# 
# From -- ./inp_files/264790.got.cif
#   From: 2010.06.25/outbox.cif.g09.slc.cpg/sg15_133_cif.got.tgz:264790.got - 2010.06.28 07:06:18.
