data_PCOD8146755
_publ_section_title
;
Structure prediction by ZEFSAII (Michael W. Deem and Ramdas Pophale) SiO2 
 PCOD8146755
Probable space group: C 2/C
;
_chemical_formula_sum "Si O2"
_cell_formula_units_Z 52
_cell_length_a 16.728931
_cell_length_b 27.894282
_cell_length_c 5.310507
_cell_angle_alpha 90.000000
_cell_angle_beta 64.850208
_cell_angle_gamma 90.000000
_cell_volume 2243.178420
_symmetry_space_group_name_H-M "C 2/C"
_symmetry_group_IT_number 15
_symmetry_cell_setting 'monoclinic'
loop_
_space_group_symop_operation_xyz
x,y,z
-x,y,1/2-z
-x,-y,-z
x,-y,1/2+z
1/2+x,1/2+y,z
1/2-x,1/2+y,1/2-z
1/2-x,1/2-y,-z
1/2+x,1/2-y,1/2+z
loop_
_atom_site_type_symbol
_atom_site_label
_atom_site_fract_x
_atom_site_fract_y
_atom_site_fract_z
Si Si1 0.643612 0.478979 0.965501
Si Si2 0.103578 0.821685 0.656963
Si Si3 0.401936 0.784585 0.272821
Si Si4 0.168507 0.871821 0.069873
Si Si5 0.500000 0.169083 0.250000
Si Si6 0.644331 0.871665 0.873766
Si Si7 0.345583 0.021370 0.080072
O O1 0.599270 0.511402 0.248997
O O2 0.631289 0.424966 0.078311
O O3 0.744392 0.493977 0.768708
O O4 0.140548 0.766951 0.610538
O O5 0.145647 0.852130 0.376194
O O6 0.000000 0.820977 0.750000
O O7 0.125824 0.841456 0.902211
O O8 0.500000 0.788713 0.250000
O O9 0.338882 0.826984 0.459869
O O10 0.420293 0.796250 0.954518
O O11 0.274552 0.871486 0.929259
O O12 0.452459 0.133876 0.117697
O O13 0.644680 0.922948 0.011690
O O14 0.390434 0.008634 0.290737
#
# Coordination Sequence:
#
# PCOD8146755 Si02
#       7
#     8   8   8   8   4   8   8
#     4   9  17  34  59  87 123 162 200 242 308 376
#     4  11  25  43  65  91 129 166 205 258 324 376
#     4   9  22  40  63  86 123 177 207 247 317 383
#     4  11  24  39  67 100 124 160 213 267 302 364
#     4  10  22  42  64  84 128 176 206 252 314 374
#     4  10  23  39  64  93 127 163 217 257 308 370
#     4   9  19  34  57  87 121 162 204 255 305 358
#
# _framework density 23.181393
#
# number of rings (size 3 to 8) (size 9 to 14) (size 15 to 20)
#    0.000    2.154    0.000    1.385   10.769    3.692 
#    0.000    0.769    0.000    9.231    0.000    0.000 
#    0.000    0.000    0.000    0.000    0.000    0.000 
#
# Total GULP energy -322110.993533 kJ/mol
# GULP energy per Si atom -12388.884367 kJ/mol
# Density = 2.312863 g / cm^3
# Si number density = 23.181393 Si / 1000 Ang^3
#
#
#
# Elastic Constant Matrix: (Units=GPa)
#
#
# Indices 1 2 3 4 5 6 
#
# 1 34.5345 -2.3576 0.1185 0.0000 10.3958 0.0000
# 2 -2.3576 147.8972 50.2767 0.0000 -1.5484 0.0000
# 3 0.1185 50.2767 105.8293 0.0000 22.2914 0.0000
# 4 0.0000 0.0000 0.0000 3.5190 0.0000 12.6602
# 5 10.3958 -1.5484 22.2914 0.0000 28.8600 0.0000
# 6 0.0000 0.0000 0.0000 12.6602 0.0000 19.9732
#
#
#
# Elastic Compliance Matrix: (Units=1/GPa)
#
#
# Indices 1 2 3 4 5 6 
#
# 1 0.033314 -0.000790 0.003433 0.000000 -0.014694 0.000000
# 2 -0.000790 0.008499 -0.005008 0.000000 0.004608 0.000000
# 3 0.003433 -0.005008 0.014501 0.000000 -0.012706 0.000000
# 4 0.000000 0.000000 0.000000 -0.221940 0.000000 0.140678
# 5 -0.014694 0.004608 -0.012706 0.000000 0.050004 0.000000
# 6 0.000000 0.000000 0.000000 0.140678 0.000000 -0.039103
#
#
# Mechanical properties :
#
#
# Convention : Reuss Voigt Hill
#
# Bulk Modulus (GPa) = 19.38529 42.70401 31.04465
# Shear Modulus (GPa) = -37.65055 26.48534 -5.58261
#
# Velocity S-wave (km/s) = -4.03447 3.38379 -1.55353
# Velocity P-wave (km/s) = 3.64994 5.80762 3.19424
#
# Compressibility (1/GPa) = 0.05158551
#
# Stress axis : x y z
#
# Youngs Moduli (GPa) = 30.01713 117.65489 68.96280
#
# Poissons Ratio (x) = 0.09293 -0.23676
# Poissons Ratio (y) = 0.02371 0.34534
# Poissons Ratio (z) = -0.10305 0.58918
#
# Static dielectric constant tensor:
#      x y z
#    x 4.006800 0.000000 0.500020 
#    y 0.000000 4.261630 0.000000 
#    z 0.500020 0.000000 5.076500 
# 
# 
# High freq. dielectric constant tensor:
#      x y z
#    x 1.888260 0.000000 0.014300 
#    y 0.000000 1.922490 0.000000 
#    z 0.014300 0.000000 1.921980 
# 
# From -- ./inp_files/11459.got.cif
#   From: 2010.06.25/outbox.cif.g09.slc.cpg/sg15_6_cif.got.tgz:11459.got - 2010.06.28 07:06:18.
