data_PCOD8146775
_publ_section_title
;
Structure prediction by ZEFSAII (Michael W. Deem and Ramdas Pophale) SiO2 
 PCOD8146775
Probable space group: C 2/C
;
_chemical_formula_sum "Si O2"
_cell_formula_units_Z 52
_cell_length_a 16.949001
_cell_length_b 18.626896
_cell_length_c 15.618514
_cell_angle_alpha 90.000000
_cell_angle_beta 149.413985
_cell_angle_gamma 90.000000
_cell_volume 2508.985380
_symmetry_space_group_name_H-M "C 2/C"
_symmetry_group_IT_number 15
_symmetry_cell_setting 'monoclinic'
loop_
_space_group_symop_operation_xyz
x,y,z
-x,y,1/2-z
-x,-y,-z
x,-y,1/2+z
1/2+x,1/2+y,z
1/2-x,1/2+y,1/2-z
1/2-x,1/2-y,-z
1/2+x,1/2-y,1/2+z
loop_
_atom_site_type_symbol
_atom_site_label
_atom_site_fract_x
_atom_site_fract_y
_atom_site_fract_z
Si Si1 0.811251 0.545120 0.485056
Si Si2 0.000000 0.570089 0.250000
Si Si3 0.091125 0.826930 0.248258
Si Si4 0.450139 0.821126 0.564867
Si Si5 0.103896 0.610131 0.662171
Si Si6 0.679346 0.177162 0.899626
Si Si7 0.372640 0.464780 0.322533
O O1 0.743949 0.611268 0.476834
O O2 0.673986 0.520665 0.294913
O O3 0.853346 0.479834 0.588598
O O4 0.965702 0.567773 0.578564
O O5 0.957313 0.620525 0.291337
O O6 0.274529 0.819053 0.436689
O O7 0.058708 0.892014 0.153248
O O8 0.000000 0.842292 0.250000
O O9 0.029804 0.755342 0.146684
O O10 0.461086 0.841909 0.475803
O O11 0.197397 0.663044 0.814757
O O12 0.220185 0.550323 0.735759
O O13 0.500000 0.179665 0.750000
O O14 0.750000 0.250000 0.000000
O O15 0.500000 0.500000 0.500000
#
# Coordination Sequence:
#
# PCOD8146775 Si02
#       7
#     8   4   8   8   8   8   8
#     4  11  22  42  67  93 125 174 219 256 315 389
#     4  12  20  40  70  94 122 166 228 246 316 386
#     4  11  24  43  59  91 128 166 209 258 323 380
#     4  11  25  38  67  94 127 169 216 262 318 383
#     4  10  22  42  64  91 126 169 220 257 311 382
#     4  10  23  40  66  93 127 170 215 261 319 381
#     4  11  26  40  62  99 129 160 211 273 324 371
#
# _framework density 20.725508999999999
#
# number of rings (size 3 to 8) (size 9 to 14) (size 15 to 20)
#    0.000    1.231    6.154    0.923    0.000   11.077 
#    0.000    0.000    0.000    0.000    0.000    0.000 
#    0.000    0.000    0.000    0.000    0.000    0.000 
#
# Total GULP energy -322437.826177 kJ/mol
# GULP energy per Si atom -12401.454853 kJ/mol
# Density = 2.067834 g / cm^3
# Si number density = 20.725509 Si / 1000 Ang^3
#
#
#
# Elastic Constant Matrix: (Units=GPa)
#
#
# Indices 1 2 3 4 5 6 
#
# 1 91.1455 46.0250 35.5322 0.0005 -24.3250 0.0001
# 2 46.0250 178.7897 83.4304 0.0002 -30.0654 0.0000
# 3 35.5322 83.4304 140.8171 0.0007 -35.2106 0.0002
# 4 0.0005 0.0002 0.0007 55.1903 0.0004 -5.3332
# 5 -24.3250 -30.0654 -35.2106 0.0004 38.9616 -0.0001
# 6 0.0001 0.0000 0.0002 -5.3332 -0.0001 26.3441
#
#
#
# Elastic Compliance Matrix: (Units=1/GPa)
#
#
# Indices 1 2 3 4 5 6 
#
# 1 0.014078 -0.002254 -0.000587 0.000000 0.006520 0.000000
# 2 -0.002254 0.008263 -0.003985 0.000000 0.001368 0.000000
# 3 -0.000587 -0.003985 0.011304 0.000000 0.006775 0.000000
# 4 0.000000 0.000000 0.000000 0.018481 0.000000 0.003741
# 5 0.006520 0.001368 0.006775 0.000000 0.036915 0.000000
# 6 0.000000 0.000000 0.000000 0.003741 0.000000 0.038717
#
#
# Mechanical properties :
#
#
# Convention : Reuss Voigt Hill
#
# Bulk Modulus (GPa) = 50.01286 82.30307 66.15796
# Shear Modulus (GPa) = 33.76696 40.48350 37.12523
#
# Velocity S-wave (km/s) = 4.04077 4.42443 4.23695
# Velocity P-wave (km/s) = 6.77893 8.11776 7.47836
#
# Compressibility (1/GPa) = 0.01999486
#
# Stress axis : x y z
#
# Youngs Moduli (GPa) = 71.03061 121.02357 88.46168
#
# Poissons Ratio (x) = 0.27278 0.05190
# Poissons Ratio (y) = 0.16010 0.35250
# Poissons Ratio (z) = 0.04167 0.48225
#
# Static dielectric constant tensor:
#      x y z
#    x 3.869410 0.000000 -0.475820 
#    y 0.000000 3.773450 0.000010 
#    z -0.475820 0.000010 4.112090 
# 
# 
# High freq. dielectric constant tensor:
#      x y z
#    x 1.803060 0.000000 -0.022720 
#    y 0.000000 1.825570 0.000000 
#    z -0.022720 0.000000 1.812880 
# 
# From -- ./inp_files/163640.got.cif
#   From: 2010.06.25/outbox.cif.g09.slc.cpg/sg15_82_cif.got.tgz:163640.got - 2010.06.28 07:06:18.
