data_PCOD8146813
_publ_section_title
;
Structure prediction by ZEFSAII (Michael W. Deem and Ramdas Pophale) SiO2 
 PCOD8146813
Probable space group: C 2/C
;
_chemical_formula_sum "Si O2"
_cell_formula_units_Z 44
_cell_length_a 17.493316
_cell_length_b 6.158684
_cell_length_c 18.633924
_cell_angle_alpha 90.000000
_cell_angle_beta 69.946540
_cell_angle_gamma 90.000000
_cell_volume 1885.829811
_symmetry_space_group_name_H-M "C 2/C"
_symmetry_group_IT_number 15
_symmetry_cell_setting 'monoclinic'
loop_
_space_group_symop_operation_xyz
x,y,z
-x,y,1/2-z
-x,-y,-z
x,-y,1/2+z
1/2+x,1/2+y,z
1/2-x,1/2+y,1/2-z
1/2-x,1/2-y,-z
1/2+x,1/2-y,1/2+z
loop_
_atom_site_type_symbol
_atom_site_label
_atom_site_fract_x
_atom_site_fract_y
_atom_site_fract_z
Si Si1 0.000000 0.053763 0.750000
Si Si2 0.814712 0.924148 0.635478
Si Si3 0.630395 0.896574 0.663742
Si Si4 0.423866 0.813729 0.203082
Si Si5 0.572841 0.176261 0.408110
Si Si6 0.396220 0.179153 0.489039
O O1 0.081330 0.186264 0.706270
O O2 0.019313 0.900567 0.813051
O O3 0.718254 0.915701 0.672366
O O4 0.842162 0.751674 0.686863
O O5 0.840704 0.856501 0.546383
O O6 0.856219 0.158151 0.637907
O O7 0.640687 0.890327 0.575343
O O8 0.586848 0.112793 0.709728
O O9 0.457418 0.022980 0.149004
O O10 0.486544 0.286119 0.456148
O O11 0.605229 0.040763 0.464601
#
# Coordination Sequence:
#
# PCOD8146813 Si02
#       6
#     4   8   8   8   8   8
#     4  12  26  46  70 100 138 184 244 286 346 412
#     4  11  25  41  69  99 141 179 227 290 356 410
#     4  12  26  42  69 101 140 179 237 291 347 415
#     4  11  25  42  68  99 133 188 230 293 340 414
#     4  10  22  44  69  97 137 182 236 279 347 418
#     4  10  22  42  65 100 136 183 229 282 344 418
#
# _framework density 23.331904000000002
#
# number of rings (size 3 to 8) (size 9 to 14) (size 15 to 20)
#    0.000    1.091    0.000    6.000    5.091    6.545 
#    0.000    0.000    0.000    0.000    0.000    0.000 
#    0.000    0.000    0.000    0.000    0.000    0.000 
#
# Total GULP energy -272682.119485 kJ/mol
# GULP energy per Si atom -12394.641795 kJ/mol
# Density = 2.327880 g / cm^3
# Si number density = 23.331904 Si / 1000 Ang^3
#
#
#
# Elastic Constant Matrix: (Units=GPa)
#
#
# Indices 1 2 3 4 5 6 
#
# 1 82.7745 47.1511 23.4468 -0.0051 -14.1219 -0.0003
# 2 47.1511 103.1863 47.8761 -0.0104 -6.0246 -0.0002
# 3 23.4468 47.8761 102.4464 -0.0040 21.6784 0.0006
# 4 -0.0051 -0.0104 -0.0040 39.7973 -0.0020 8.0862
# 5 -14.1219 -6.0246 21.6784 -0.0020 47.9750 0.0003
# 6 -0.0003 -0.0002 0.0006 8.0862 0.0003 28.0132
#
#
#
# Elastic Compliance Matrix: (Units=1/GPa)
#
#
# Indices 1 2 3 4 5 6 
#
# 1 0.017330 -0.006740 -0.001899 0.000001 0.005113 0.000000
# 2 -0.006740 0.015991 -0.006563 0.000003 0.002990 -0.000001
# 3 -0.001899 -0.006563 0.014989 -0.000001 -0.008156 0.000000
# 4 0.000001 0.000003 -0.000001 0.026693 0.000002 -0.007705
# 5 0.005113 0.002990 -0.008156 0.000002 0.026410 -0.000001
# 6 0.000000 -0.000001 0.000000 -0.007705 -0.000001 0.037922
#
#
# Mechanical properties :
#
#
# Convention : Reuss Voigt Hill
#
# Bulk Modulus (GPa) = 55.84447 58.37281 57.10864
# Shear Modulus (GPa) = 28.45668 34.48596 31.47132
#
# Velocity S-wave (km/s) = 3.49613 3.84873 3.67666
# Velocity P-wave (km/s) = 6.34697 6.69500 6.52331
#
# Compressibility (1/GPa) = 0.01790688
#
# Stress axis : x y z
#
# Youngs Moduli (GPa) = 57.70261 62.53698 66.71689
#
# Poissons Ratio (x) = 0.42147 0.12667
# Poissons Ratio (y) = 0.38889 0.43786
# Poissons Ratio (z) = 0.10956 0.41043
#
# Static dielectric constant tensor:
#      x y z
#    x 4.170640 0.000000 0.173060 
#    y 0.000000 4.177700 0.000000 
#    z 0.173060 0.000000 4.309060 
# 
# 
# High freq. dielectric constant tensor:
#      x y z
#    x 1.930850 0.000000 0.017450 
#    y 0.000000 1.919560 0.000000 
#    z 0.017450 0.000000 1.923080 
# 
# From -- ./inp_files/246386.got.cif
#   From: 2010.06.25/outbox.cif.g09.slc.cpg/sg15_124_cif.got.tgz:246386.got - 2010.06.28 07:06:18.
