data_PCOD8146782
_publ_section_title
;
Structure prediction by ZEFSAII (Michael W. Deem and Ramdas Pophale) SiO2 
 PCOD8146782
Probable space group: C 2/C
;
_chemical_formula_sum "Si O2"
_cell_formula_units_Z 52
_cell_length_a 17.325202
_cell_length_b 14.595485
_cell_length_c 28.476208
_cell_angle_alpha 90.000000
_cell_angle_beta 159.134149
_cell_angle_gamma 90.000000
_cell_volume 2564.778781
_symmetry_space_group_name_H-M "C 2/C"
_symmetry_group_IT_number 15
_symmetry_cell_setting 'monoclinic'
loop_
_space_group_symop_operation_xyz
x,y,z
-x,y,1/2-z
-x,-y,-z
x,-y,1/2+z
1/2+x,1/2+y,z
1/2-x,1/2+y,1/2-z
1/2-x,1/2-y,-z
1/2+x,1/2-y,1/2+z
loop_
_atom_site_type_symbol
_atom_site_label
_atom_site_fract_x
_atom_site_fract_y
_atom_site_fract_z
Si Si1 0.193414 0.941355 0.283315
Si Si2 0.407343 0.824712 0.957821
Si Si3 0.055032 0.128263 0.073919
Si Si4 0.873688 0.391728 0.837424
Si Si5 0.500000 0.430673 0.750000
Si Si6 0.220268 0.143502 0.986550
Si Si7 0.736589 0.032235 0.396503
O O1 0.375682 0.885576 0.414865
O O2 0.306524 0.003781 0.308572
O O3 0.044697 0.005109 0.231210
O O4 0.032691 0.871827 0.166767
O O5 0.346071 0.827573 0.867710
O O6 0.212604 0.867091 0.878372
O O7 0.438990 0.721734 0.992886
O O8 0.224610 0.150773 0.211626
O O9 0.173348 0.085588 0.096852
O O10 0.878514 0.055454 0.992256
O O11 0.122672 0.400250 0.963105
O O12 0.280567 0.105342 0.071678
O O13 0.250000 0.250000 0.000000
O O14 0.500000 0.993703 0.250000
#
# Coordination Sequence:
#
# PCOD8146782 Si02
#       7
#     8   8   8   8   4   8   8
#     4  11  22  41  65  95 128 168 209 271 329 377
#     4  11  24  42  68  94 130 169 216 273 321 389
#     4  11  24  44  63  96 134 171 221 266 325 394
#     4  11  22  42  64  95 130 168 219 267 326 382
#     4  10  22  42  64  92 126 164 210 266 340 382
#     4  12  23  39  68  99 123 170 224 262 320 392
#     4  11  24  43  66  92 137 178 208 271 332 386
#
# _framework density 20.274653000000001
#
# number of rings (size 3 to 8) (size 9 to 14) (size 15 to 20)
#    0.000    0.923    3.077    5.538    1.077    0.000 
#    0.000    3.077    0.000    0.000    0.000    0.000 
#    0.000    0.000    0.000    0.000    0.000    0.000 
#
# Total GULP energy -322469.354073 kJ/mol
# GULP energy per Si atom -12402.667464 kJ/mol
# Density = 2.022851 g / cm^3
# Si number density = 20.274653 Si / 1000 Ang^3
#
#
#
# Elastic Constant Matrix: (Units=GPa)
#
#
# Indices 1 2 3 4 5 6 
#
# 1 98.4359 46.6948 39.4701 -0.0158 6.2642 -0.0004
# 2 46.6948 134.4555 52.4247 -0.0209 1.1120 -0.0107
# 3 39.4701 52.4247 122.3669 0.0056 5.6165 0.0028
# 4 -0.0158 -0.0209 0.0056 2.8822 0.0234 -37.3980
# 5 6.2642 1.1120 5.6165 0.0234 38.4513 0.0225
# 6 -0.0004 -0.0107 0.0028 -37.3980 0.0225 -10.5601
#
#
#
# Elastic Compliance Matrix: (Units=1/GPa)
#
#
# Indices 1 2 3 4 5 6 
#
# 1 0.012957 -0.003465 -0.002620 0.000001 -0.001628 -0.000005
# 2 -0.003465 0.009859 -0.003140 -0.000001 0.000738 -0.000004
# 3 -0.002620 -0.003140 0.010409 0.000000 -0.001003 0.000004
# 4 0.000001 -0.000001 0.000000 0.007390 0.000011 -0.026170
# 5 -0.001628 0.000738 -0.001003 0.000011 0.026397 0.000017
# 6 -0.000005 -0.000004 0.000004 -0.026170 0.000017 -0.002017
#
#
# Mechanical properties :
#
#
# Convention : Reuss Voigt Hill
#
# Bulk Modulus (GPa) = 67.68510 70.27082 68.97796
# Shear Modulus (GPa) = 56.58118 20.59925 38.59022
#
# Velocity S-wave (km/s) = 5.28847 3.19095 4.36750
# Velocity P-wave (km/s) = 8.41113 6.95060 7.71551
#
# Compressibility (1/GPa) = 0.01477430
#
# Stress axis : x y z
#
# Youngs Moduli (GPa) = 77.18070 101.43169 96.07420
#
# Poissons Ratio (x) = 0.35142 0.25173
# Poissons Ratio (y) = 0.26740 0.30168
# Poissons Ratio (z) = 0.20223 0.31851
#
# Static dielectric constant tensor:
#      x y z
#    x 3.630370 0.000000 0.045190 
#    y 0.000000 3.633690 -0.000050 
#    z 0.045190 -0.000050 3.753160 
# 
# 
# High freq. dielectric constant tensor:
#      x y z
#    x 1.795130 0.000000 0.006060 
#    y 0.000000 1.791290 0.000000 
#    z 0.006060 0.000000 1.808140 
# 
# From -- ./inp_files/316465.got.cif
#   From: 2010.06.25/outbox.cif.g09.slc.cpg/sg15_159_cif.got.tgz:316465.got - 2010.06.28 07:06:18.
