data_PCOD8146476
_publ_section_title
;
Structure prediction by ZEFSAII (Michael W. Deem and Ramdas Pophale) SiO2 
 PCOD8146476
Probable space group: C 2/C
;
_chemical_formula_sum "Si O2"
_cell_formula_units_Z 56
_cell_length_a 9.443705
_cell_length_b 14.810850
_cell_length_c 23.297679
_cell_angle_alpha 90.000000
_cell_angle_beta 59.105250
_cell_angle_gamma 90.000000
_cell_volume 2796.269379
_symmetry_space_group_name_H-M "C 2/C"
_symmetry_group_IT_number 15
_symmetry_cell_setting 'monoclinic'
loop_
_space_group_symop_operation_xyz
x,y,z
-x,y,1/2-z
-x,-y,-z
x,-y,1/2+z
1/2+x,1/2+y,z
1/2-x,1/2+y,1/2-z
1/2-x,1/2-y,-z
1/2+x,1/2-y,1/2+z
loop_
_atom_site_type_symbol
_atom_site_label
_atom_site_fract_x
_atom_site_fract_y
_atom_site_fract_z
Si Si1 0.228423 0.192204 0.947000
Si Si2 0.652088 0.301377 0.972498
Si Si3 0.000000 0.631302 0.250000
Si Si4 0.172827 0.957898 0.806473
Si Si5 0.500000 0.574531 0.750000
Si Si6 0.507771 0.722978 0.316448
Si Si7 0.822242 0.002176 0.063779
Si Si8 0.223230 0.221308 0.662177
O O1 0.334489 0.239481 0.875278
O O2 0.279856 0.084713 0.940333
O O3 0.250000 0.250000 0.000000
O O4 0.037119 0.190048 0.968158
O O5 0.742884 0.398095 0.940919
O O6 0.654847 0.234994 0.916670
O O7 0.750000 0.250000 0.000000
O O8 0.140787 0.570515 0.250538
O O9 0.095754 0.694765 0.185082
O O10 0.043848 0.874935 0.836835
O O11 0.119441 0.019508 0.765562
O O12 0.173830 0.007026 0.867811
O O13 0.614778 0.631500 0.682838
O O14 0.500000 0.718358 0.250000
O O15 0.663586 0.783825 0.303930
O O16 0.000000 0.000000 0.000000
#
# Coordination Sequence:
#
# PCOD8146476 Si02
#       8
#     8   8   4   8   4   8   8   8
#     4  11  23  44  69  93 130 175 221 273 324 392
#     4  11  23  43  67  94 127 176 220 265 331 397
#     4   9  20  40  70  79 132 174 205 262 336 381
#     4  11  22  44  63  97 130 170 217 272 329 398
#     4  11  26  38  66  97 134 168 215 278 328 379
#     4  11  22  41  68  98 133 174 218 274 330 390
#     4  10  22  41  66  89 125 171 215 262 330 389
#     4  10  22  43  60  93 139 167 217 272 330 389
#
# _framework density 20.026682999999998
#
# number of rings (size 3 to 8) (size 9 to 14) (size 15 to 20)
#    0.000    1.429    5.000    0.857    6.000    3.429 
#    0.000    0.714    0.000    0.000    0.000    0.000 
#    0.000    0.000    0.000    0.000    0.000    0.000 
#
# Total GULP energy -346945.465683 kJ/mol
# GULP energy per Si atom -12390.909489 kJ/mol
# Density = 1.998110 g / cm^3
# Si number density = 20.026683 Si / 1000 Ang^3
#
#
#
# Elastic Constant Matrix: (Units=GPa)
#
#
# Indices 1 2 3 4 5 6 
#
# 1 108.1063 64.8514 41.1048 0.0000 3.9261 0.0000
# 2 64.8514 135.0511 42.0223 0.0000 2.2817 0.0000
# 3 41.1048 42.0223 101.0634 0.0000 -4.0087 0.0000
# 4 0.0000 0.0000 0.0000 24.3903 0.0000 -3.3973
# 5 3.9261 2.2817 -4.0087 0.0000 38.9315 0.0000
# 6 0.0000 0.0000 0.0000 -3.3973 0.0000 36.3521
#
#
#
# Elastic Compliance Matrix: (Units=1/GPa)
#
#
# Indices 1 2 3 4 5 6 
#
# 1 0.013970 -0.005626 -0.003399 0.000000 -0.001429 0.000000
# 2 -0.005626 0.010800 -0.002214 0.000000 -0.000294 0.000000
# 3 -0.003399 -0.002214 0.012267 0.000000 0.001736 0.000000
# 4 0.000000 0.000000 0.000000 0.041541 0.000000 0.003882
# 5 -0.001429 -0.000294 0.001736 0.000000 0.026026 0.000000
# 6 0.000000 0.000000 0.000000 0.003882 0.000000 0.027872
#
#
# Mechanical properties :
#
#
# Convention : Reuss Voigt Hill
#
# Bulk Modulus (GPa) = 68.69208 71.13087 69.91148
# Shear Modulus (GPa) = 31.28787 33.01760 32.15274
#
# Velocity S-wave (km/s) = 3.95689 4.06480 4.01121
# Velocity P-wave (km/s) = 7.43308 7.59113 7.51252
#
# Compressibility (1/GPa) = 0.01455772
#
# Stress axis : x y z
#
# Youngs Moduli (GPa) = 71.58370 92.59011 81.52185
#
# Poissons Ratio (x) = 0.52095 0.27709
# Poissons Ratio (y) = 0.40276 0.18049
# Poissons Ratio (z) = 0.24331 0.20500
#
# Static dielectric constant tensor:
#      x y z
#    x 3.381240 0.000000 -0.259900 
#    y 0.000000 4.260680 0.000000 
#    z -0.259900 0.000000 3.711630 
# 
# 
# High freq. dielectric constant tensor:
#      x y z
#    x 1.765270 0.000000 -0.008740 
#    y 0.000000 1.790340 0.000000 
#    z -0.008740 0.000000 1.783370 
# 
# From -- ./inp_files/288690.got.cif
#   From: 2010.06.25/outbox.cif.g09.slc.cpg/sg15_145_cif.got.tgz:288690.got - 2010.06.28 07:06:18.
