data_PCOD8146654
_publ_section_title
;
Structure prediction by ZEFSAII (Michael W. Deem and Ramdas Pophale) SiO2 
 PCOD8146654
Probable space group: C 2/C
;
_chemical_formula_sum "Si O2"
_cell_formula_units_Z 48
_cell_length_a 23.612220
_cell_length_b 8.427718
_cell_length_c 13.604997
_cell_angle_alpha 90.000000
_cell_angle_beta 132.300726
_cell_angle_gamma 90.000000
_cell_volume 2002.421134
_symmetry_space_group_name_H-M "C 2/C"
_symmetry_group_IT_number 15
_symmetry_cell_setting 'monoclinic'
loop_
_space_group_symop_operation_xyz
x,y,z
-x,y,1/2-z
-x,-y,-z
x,-y,1/2+z
1/2+x,1/2+y,z
1/2-x,1/2+y,1/2-z
1/2-x,1/2-y,-z
1/2+x,1/2-y,1/2+z
loop_
_atom_site_type_symbol
_atom_site_label
_atom_site_fract_x
_atom_site_fract_y
_atom_site_fract_z
Si Si1 0.400990 0.537906 0.964704
Si Si2 0.067787 0.966885 0.212546
Si Si3 0.182867 0.294051 0.124817
Si Si4 0.695034 0.927136 0.797834
Si Si5 0.191761 0.879724 0.968644
Si Si6 0.915621 0.348840 0.670660
O O1 0.411330 0.612560 0.868473
O O2 0.368855 0.359273 0.909931
O O3 0.483068 0.536414 0.113504
O O4 0.348784 0.652008 0.972161
O O5 0.076121 0.840796 0.310156
O O6 0.128835 0.104000 0.309743
O O7 0.271093 0.235175 0.210723
O O8 0.187225 0.424721 0.215115
O O9 0.143556 0.384815 0.986533
O O10 0.614370 0.911338 0.759210
O O11 0.758808 0.961501 0.956710
O O12 0.250000 0.750000 0.000000
O O13 0.000000 0.424252 0.750000
#
# Coordination Sequence:
#
# PCOD8146654 Si02
#       6
#     8   8   8   8   8   8
#     4  10  22  41  73 104 139 182 242 293 349 430
#     4  11  21  43  71 102 135 191 241 287 353 429
#     4  11  24  47  71 105 141 186 238 300 364 420
#     4  11  27  42  70 107 139 187 233 300 357 429
#     4  11  23  42  67 103 143 181 230 294 353 420
#     4  12  24  47  72  97 141 191 234 287 369 431
#
# _framework density 23.970981999999999
#
# number of rings (size 3 to 8) (size 9 to 14) (size 15 to 20)
#    0.000    1.000    5.000    2.000    4.667    2.000 
#    0.000    3.333    0.000    0.000    0.000    0.000 
#    0.000    0.000    0.000    0.000    0.000    0.000 
#
# Total GULP energy -297412.002401 kJ/mol
# GULP energy per Si atom -12392.166767 kJ/mol
# Density = 2.391642 g / cm^3
# Si number density = 23.970982 Si / 1000 Ang^3
#
#
#
# Elastic Constant Matrix: (Units=GPa)
#
#
# Indices 1 2 3 4 5 6 
#
# 1 202.0195 55.1514 62.6534 0.0000 20.6905 0.0000
# 2 55.1514 57.2651 31.8249 0.0000 0.7957 0.0000
# 3 62.6534 31.8249 125.2882 0.0000 11.9878 0.0000
# 4 0.0000 0.0000 0.0000 24.4729 0.0000 -5.2359
# 5 20.6905 0.7957 11.9878 0.0000 37.2613 0.0000
# 6 0.0000 0.0000 0.0000 -5.2359 0.0000 45.2214
#
#
#
# Elastic Compliance Matrix: (Units=1/GPa)
#
#
# Indices 1 2 3 4 5 6 
#
# 1 0.007585 -0.006210 -0.001883 0.000000 -0.003473 0.000000
# 2 -0.006210 0.025476 -0.003759 0.000000 0.004114 0.000000
# 3 -0.001883 -0.003759 0.010081 0.000000 -0.002117 0.000000
# 4 0.000000 0.000000 0.000000 0.041899 0.000000 0.004851
# 5 -0.003473 0.004114 -0.002117 0.000000 0.029359 0.000000
# 6 0.000000 0.000000 0.000000 0.004851 0.000000 0.022675
#
#
# Mechanical properties :
#
#
# Convention : Reuss Voigt Hill
#
# Bulk Modulus (GPa) = 51.45053 75.98138 63.71596
# Shear Modulus (GPa) = 29.89349 37.05400 33.47375
#
# Velocity S-wave (km/s) = 3.53522 3.93591 3.74093
# Velocity P-wave (km/s) = 6.17851 7.24025 6.73035
#
# Compressibility (1/GPa) = 0.01943615
#
# Stress axis : x y z
#
# Youngs Moduli (GPa) = 131.83410 39.25296 99.19788
#
# Poissons Ratio (x) = 0.24378 0.18682
# Poissons Ratio (y) = 0.81874 0.37290
# Poissons Ratio (z) = 0.24829 0.14756
#
# Static dielectric constant tensor:
#      x y z
#    x 4.750170 0.000000 0.023660 
#    y 0.000000 3.798470 0.000000 
#    z 0.023660 0.000000 4.570230 
# 
# 
# High freq. dielectric constant tensor:
#      x y z
#    x 1.975630 0.000000 0.000920 
#    y 0.000000 1.902010 0.000000 
#    z 0.000920 0.000000 1.968690 
# 
# From -- ./inp_files/177016.got.cif
#   From: 2010.06.25/outbox.cif.g09.slc.cpg/sg15_89_cif.got.tgz:177016.got - 2010.06.28 07:06:18.
