data_PCOD8146495
_publ_section_title
;
Structure prediction by ZEFSAII (Michael W. Deem and Ramdas Pophale) SiO2 
 PCOD8146495
Probable space group: C 2/C
;
_chemical_formula_sum "Si O2"
_cell_formula_units_Z 52
_cell_length_a 26.053660
_cell_length_b 6.503557
_cell_length_c 17.497381
_cell_angle_alpha 90.000000
_cell_angle_beta 127.404710
_cell_angle_gamma 90.000000
_cell_volume 2355.117997
_symmetry_space_group_name_H-M "C 2/C"
_symmetry_group_IT_number 15
_symmetry_cell_setting 'monoclinic'
loop_
_space_group_symop_operation_xyz
x,y,z
-x,y,1/2-z
-x,-y,-z
x,-y,1/2+z
1/2+x,1/2+y,z
1/2-x,1/2+y,1/2-z
1/2-x,1/2-y,-z
1/2+x,1/2-y,1/2+z
loop_
_atom_site_type_symbol
_atom_site_label
_atom_site_fract_x
_atom_site_fract_y
_atom_site_fract_z
Si Si1 0.286639 0.027892 0.707410
Si Si2 0.550523 0.021008 0.947148
Si Si3 0.954462 0.189004 0.441928
Si Si4 0.315853 0.861738 0.892308
Si Si5 0.000000 0.348335 0.250000
Si Si6 0.618318 0.659624 0.269887
Si Si7 0.727095 0.359554 0.402777
O O1 0.218311 0.144581 0.654324
O O2 0.335155 0.141627 0.692838
O O3 0.317532 0.006568 0.819119
O O4 0.273460 0.802426 0.665456
O O5 0.488223 0.123602 0.928244
O O6 0.534750 0.002710 0.842785
O O7 0.610797 0.175176 0.014679
O O8 0.567302 0.794344 0.997216
O O9 0.898176 0.106407 0.334432
O O10 0.000000 0.000000 0.500000
O O11 0.279620 0.969544 0.929814
O O12 0.945925 0.201209 0.239175
O O13 0.656570 0.469230 0.343595
O O14 0.750000 0.250000 0.500000
#
# Coordination Sequence:
#
# PCOD8146495 Si02
#       7
#     8   8   8   8   4   8   8
#     4  11  23  42  70  97 133 173 222 282 335 409
#     4  10  23  41  65  94 131 172 222 275 336 391
#     4  10  22  41  66  95 124 174 224 274 322 394
#     4  11  23  41  69  99 131 174 222 276 337 408
#     4  10  24  46  66  96 136 188 224 288 350 400
#     4  10  24  45  66  95 139 173 226 278 336 402
#     4  11  27  43  66 103 134 175 221 277 350 407
#
# _framework density 22.079571999999999
#
# number of rings (size 3 to 8) (size 9 to 14) (size 15 to 20)
#    0.000    1.538    3.077    0.000    6.462    2.462 
#    2.769    1.538    0.000    0.000    0.000    0.000 
#    0.000    0.000    0.000    0.000    0.000    0.000 
#
# Total GULP energy -322346.237862 kJ/mol
# GULP energy per Si atom -12397.932225 kJ/mol
# Density = 2.202932 g / cm^3
# Si number density = 22.079572 Si / 1000 Ang^3
#
#
#
# Elastic Constant Matrix: (Units=GPa)
#
#
# Indices 1 2 3 4 5 6 
#
# 1 90.7891 23.0157 38.1972 0.0001 4.4427 0.0000
# 2 23.0157 76.6449 37.5516 0.0003 -2.3746 0.0010
# 3 38.1972 37.5516 170.3819 0.0000 -3.2635 0.0000
# 4 0.0001 0.0003 0.0000 37.8498 0.0000 3.5372
# 5 4.4427 -2.3746 -3.2635 0.0000 36.7749 0.0000
# 6 0.0000 0.0010 0.0000 3.5372 0.0000 25.7543
#
#
#
# Elastic Compliance Matrix: (Units=1/GPa)
#
#
# Indices 1 2 3 4 5 6 
#
# 1 0.012775 -0.002774 -0.002289 0.000000 -0.001926 0.000000
# 2 -0.002774 0.015245 -0.002717 0.000000 0.001078 -0.000001
# 3 -0.002289 -0.002717 0.006995 0.000000 0.000722 0.000000
# 4 0.000000 0.000000 0.000000 0.026764 0.000000 -0.003676
# 5 -0.001926 0.001078 0.000722 0.000000 0.027559 0.000000
# 6 0.000000 -0.000001 0.000000 -0.003676 0.000000 0.039333
#
#
# Mechanical properties :
#
#
# Convention : Reuss Voigt Hill
#
# Bulk Modulus (GPa) = 51.40511 59.48279 55.44395
# Shear Modulus (GPa) = 33.17455 36.01255 34.59355
#
# Velocity S-wave (km/s) = 3.88041 4.04299 3.96254
# Velocity P-wave (km/s) = 6.58856 6.98520 6.78978
#
# Compressibility (1/GPa) = 0.01945332
#
# Stress axis : x y z
#
# Youngs Moduli (GPa) = 78.27599 65.59517 142.95585
#
# Poissons Ratio (x) = 0.18198 0.32730
# Poissons Ratio (y) = 0.21716 0.38846
# Poissons Ratio (z) = 0.17921 0.17825
#
# Static dielectric constant tensor:
#      x y z
#    x 3.928510 0.000000 0.016680 
#    y 0.000000 3.768780 0.000000 
#    z 0.016680 0.000000 4.271680 
# 
# 
# High freq. dielectric constant tensor:
#      x y z
#    x 1.863380 0.000000 0.006220 
#    y 0.000000 1.853010 0.000000 
#    z 0.006220 0.000000 1.882990 
# 
# From -- ./inp_files/221357.got.cif
#   From: 2010.06.25/outbox.cif.g09.slc.cpg/sg15_111_cif.got.tgz:221357.got - 2010.06.28 07:06:18.
