data_PCOD8146083
_publ_section_title
;
Structure prediction by ZEFSAII (Michael W. Deem and Ramdas Pophale) SiO2 
 PCOD8146083
Probable space group: C 2/C
;
_chemical_formula_sum "Si O2"
_cell_formula_units_Z 36
_cell_length_a 6.637587
_cell_length_b 18.922779
_cell_length_c 13.429013
_cell_angle_alpha 90.000000
_cell_angle_beta 91.426797
_cell_angle_gamma 90.000000
_cell_volume 1686.182453
_symmetry_space_group_name_H-M "C 2/C"
_symmetry_group_IT_number 15
_symmetry_cell_setting 'monoclinic'
loop_
_space_group_symop_operation_xyz
x,y,z
-x,y,1/2-z
-x,-y,-z
x,-y,1/2+z
1/2+x,1/2+y,z
1/2-x,1/2+y,1/2-z
1/2-x,1/2-y,-z
1/2+x,1/2-y,1/2+z
loop_
_atom_site_type_symbol
_atom_site_label
_atom_site_fract_x
_atom_site_fract_y
_atom_site_fract_z
Si Si1 0.966989 0.062463 0.867071
Si Si2 0.822456 0.785049 0.400114
Si Si3 0.695599 0.957844 0.975249
Si Si4 0.872380 0.329987 0.657863
Si Si5 0.500000 0.731795 0.250000
O O1 0.872652 0.132986 0.913952
O O2 0.000000 0.069735 0.750000
O O3 0.820332 0.997114 0.889705
O O4 0.180440 0.049497 0.921609
O O5 0.750000 0.750000 0.500000
O O6 0.642841 0.780826 0.318155
O O7 0.023032 0.744601 0.366903
O O8 0.625865 0.881288 0.936332
O O9 0.500000 0.000000 0.000000
O O10 0.639476 0.318155 0.683631
O O11 0.000000 0.364950 0.750000
#
# Coordination Sequence:
#
# PCOD8146083 Si02
#       5
#     8   8   8   8   4
#     4  11  26  43  65  97 136 170 225 277 334 399
#     4  11  23  42  66  98 132 170 220 279 332 398
#     4  11  26  43  64  96 130 177 219 273 333 398
#     4  10  23  40  66  94 126 171 223 263 329 395
#     4  10  22  40  66  92 128 168 212 268 330 388
#
# _framework density 21.350003000000001
#
# number of rings (size 3 to 8) (size 9 to 14) (size 15 to 20)
#    0.000    1.333    0.000    4.667    4.667   12.444 
#    0.000    0.000    0.000    0.000    0.000    0.000 
#    0.000    0.000    0.000    0.000    0.000    0.000 
#
# Total GULP energy -223297.933722 kJ/mol
# GULP energy per Si atom -12405.440762 kJ/mol
# Density = 2.130141 g / cm^3
# Si number density = 21.350003 Si / 1000 Ang^3
#
#
#
# Elastic Constant Matrix: (Units=GPa)
#
#
# Indices 1 2 3 4 5 6 
#
# 1 143.8267 40.2455 35.8410 0.0000 6.8281 0.0000
# 2 40.2455 92.5001 28.1625 0.0000 14.6865 0.0000
# 3 35.8410 28.1625 105.7127 0.0000 -2.8507 0.0000
# 4 0.0000 0.0000 0.0000 38.5988 0.0000 1.9489
# 5 6.8281 14.6865 -2.8507 0.0000 26.8379 0.0000
# 6 0.0000 0.0000 0.0000 1.9489 0.0000 24.4524
#
#
#
# Elastic Compliance Matrix: (Units=1/GPa)
#
#
# Indices 1 2 3 4 5 6 
#
# 1 0.008307 -0.002860 -0.002075 0.000000 -0.000769 0.000000
# 2 -0.002860 0.014129 -0.002992 0.000000 -0.007322 0.000000
# 3 -0.002075 -0.002992 0.011050 0.000000 0.003339 0.000000
# 4 0.000000 0.000000 0.000000 0.026012 0.000000 -0.002073
# 5 -0.000769 -0.007322 0.003339 0.000000 0.041818 0.000000
# 6 0.000000 0.000000 0.000000 -0.002073 0.000000 0.041061
#
#
# Mechanical properties :
#
#
# Convention : Reuss Voigt Hill
#
# Bulk Modulus (GPa) = 56.71668 61.17081 58.94374
# Shear Modulus (GPa) = 30.46781 33.83050 32.14915
#
# Velocity S-wave (km/s) = 3.78175 3.98498 3.88469
# Velocity P-wave (km/s) = 6.75956 7.06308 6.91299
#
# Compressibility (1/GPa) = 0.01763150
#
# Stress axis : x y z
#
# Youngs Moduli (GPa) = 120.38356 70.77840 90.49652
#
# Poissons Ratio (x) = 0.20245 0.18779
# Poissons Ratio (y) = 0.34434 0.27073
# Poissons Ratio (z) = 0.24980 0.21174
#
# Static dielectric constant tensor:
#      x y z
#    x 4.158490 0.000000 0.153670 
#    y 0.000000 3.871760 0.000000 
#    z 0.153670 0.000000 3.883610 
# 
# 
# High freq. dielectric constant tensor:
#      x y z
#    x 1.855070 0.000000 0.002650 
#    y 0.000000 1.835290 0.000000 
#    z 0.002650 0.000000 1.845700 
# 
# From -- ./inp_files/128750.got.cif
#   From: 2010.06.25/outbox.cif.g09.slc.cpg/sg15_65_cif.got.tgz:128750.got - 2010.06.28 07:06:18.
