data_PCOD8146713
_publ_section_title
;
Structure prediction by ZEFSAII (Michael W. Deem and Ramdas Pophale) SiO2 
 PCOD8146713
Probable space group: C 2/C
;
_chemical_formula_sum "Si O2"
_cell_formula_units_Z 32
_cell_length_a 7.434647
_cell_length_b 12.080417
_cell_length_c 14.895662
_cell_angle_alpha 90.000000
_cell_angle_beta 114.739370
_cell_angle_gamma 90.000000
_cell_volume 1215.048313
_symmetry_space_group_name_H-M "C 2/C"
_symmetry_group_IT_number 15
_symmetry_cell_setting 'monoclinic'
loop_
_space_group_symop_operation_xyz
x,y,z
-x,y,1/2-z
-x,-y,-z
x,-y,1/2+z
1/2+x,1/2+y,z
1/2-x,1/2+y,1/2-z
1/2-x,1/2-y,-z
1/2+x,1/2-y,1/2+z
loop_
_atom_site_type_symbol
_atom_site_label
_atom_site_fract_x
_atom_site_fract_y
_atom_site_fract_z
Si Si1 0.720379 0.522231 0.076347
Si Si2 0.310993 0.888806 0.932368
Si Si3 0.071957 0.760513 0.590985
Si Si4 0.269806 0.440863 0.227095
O O1 0.743871 0.654208 0.095699
O O2 0.770658 0.452571 0.175824
O O3 0.500000 0.500000 0.000000
O O4 0.852674 0.478333 0.021589
O O5 0.095141 0.831412 0.891409
O O6 0.331153 0.951951 0.841743
O O7 0.477393 0.794756 0.981626
O O8 0.168828 0.673114 0.677968
O O9 0.500000 0.437785 0.250000
#
# Coordination Sequence:
#
# PCOD8146713 Si02
#       4
#     8   8   8   8
#     4  10  22  42  62  93 127 162 209 261 307 375
#     4  10  23  46  64  91 130 163 215 263 305 379
#     4  10  23  42  69  89 125 177 203 258 328 359
#     4  12  23  42  64  96 130 161 214 264 309 379
#
# _framework density 26.336400999999999
#
# number of rings (size 3 to 8) (size 9 to 14) (size 15 to 20)
#    0.000    1.500    5.000    0.750    0.000   10.000 
#    4.500    0.000    0.000    0.000    0.000    0.000 
#    0.000    0.000    0.000    0.000    0.000    0.000 
#
# Total GULP energy -198407.975367 kJ/mol
# GULP energy per Si atom -12400.498460 kJ/mol
# Density = 2.627646 g / cm^3
# Si number density = 26.336401 Si / 1000 Ang^3
#
#
#
# Elastic Constant Matrix: (Units=GPa)
#
#
# Indices 1 2 3 4 5 6 
#
# 1 42.3051 17.4985 29.0697 0.0000 -14.3997 0.0000
# 2 17.4985 175.9315 65.0640 0.0000 1.0978 0.0000
# 3 29.0697 65.0640 159.8395 0.0000 -17.6242 0.0000
# 4 0.0000 0.0000 0.0000 53.1410 0.0000 16.4845
# 5 -14.3997 1.0978 -17.6242 0.0000 43.2557 0.0000
# 6 0.0000 0.0000 0.0000 16.4845 0.0000 24.3150
#
#
#
# Elastic Compliance Matrix: (Units=1/GPa)
#
#
# Indices 1 2 3 4 5 6 
#
# 1 0.029796 -0.001594 -0.003845 0.000000 0.008393 0.000000
# 2 -0.001594 0.006852 -0.002698 0.000000 -0.001804 0.000000
# 3 -0.003845 -0.002698 0.008293 0.000000 0.002167 0.000000
# 4 0.000000 0.000000 0.000000 0.023829 0.000000 -0.016155
# 5 0.008393 -0.001804 0.002167 0.000000 0.026841 0.000000
# 6 0.000000 0.000000 0.000000 -0.016155 0.000000 0.052079
#
#
# Mechanical properties :
#
#
# Convention : Reuss Voigt Hill
#
# Bulk Modulus (GPa) = 34.88363 66.81563 50.84963
# Shear Modulus (GPa) = 28.81532 41.90526 35.36029
#
# Velocity S-wave (km/s) = 3.31134 3.99325 3.66818
# Velocity P-wave (km/s) = 5.28149 6.83276 6.10658
#
# Compressibility (1/GPa) = 0.02866674
#
# Stress axis : x y z
#
# Youngs Moduli (GPa) = 33.56183 145.95082 120.58791
#
# Poissons Ratio (x) = 0.23266 0.46361
# Poissons Ratio (y) = 0.05350 0.32534
# Poissons Ratio (z) = 0.12903 0.39377
#
# Static dielectric constant tensor:
#      x y z
#    x 5.116010 0.000000 0.223800 
#    y 0.000000 5.789840 0.000000 
#    z 0.223800 0.000000 4.848890 
# 
# 
# High freq. dielectric constant tensor:
#      x y z
#    x 2.051530 0.000000 0.021290 
#    y 0.000000 2.072540 0.000000 
#    z 0.021290 0.000000 2.059770 
# 
# From -- ./inp_files/141553.got.cif
#   From: 2010.06.25/outbox.cif.g09.slc.cpg/sg15_71_cif.got.tgz:141553.got - 2010.06.28 07:06:18.
