data_PCOD8146673
_publ_section_title
;
Structure prediction by ZEFSAII (Michael W. Deem and Ramdas Pophale) SiO2 
 PCOD8146673
Probable space group: C 2/C
;
_chemical_formula_sum "Si O2"
_cell_formula_units_Z 48
_cell_length_a 19.109730
_cell_length_b 13.671841
_cell_length_c 12.291288
_cell_angle_alpha 90.000000
_cell_angle_beta 128.931158
_cell_angle_gamma 90.000000
_cell_volume 2498.064092
_symmetry_space_group_name_H-M "C 2/C"
_symmetry_group_IT_number 15
_symmetry_cell_setting 'monoclinic'
loop_
_space_group_symop_operation_xyz
x,y,z
-x,y,1/2-z
-x,-y,-z
x,-y,1/2+z
1/2+x,1/2+y,z
1/2-x,1/2+y,1/2-z
1/2-x,1/2-y,-z
1/2+x,1/2-y,1/2+z
loop_
_atom_site_type_symbol
_atom_site_label
_atom_site_fract_x
_atom_site_fract_y
_atom_site_fract_z
Si Si1 0.261707 0.068895 0.377039
Si Si2 0.692258 0.108345 0.840207
Si Si3 0.354156 0.276697 0.845071
Si Si4 0.710825 0.362112 0.271568
Si Si5 0.418341 0.056694 0.366873
Si Si6 0.973316 0.765019 0.346342
O O1 0.274227 0.121309 0.504909
O O2 0.180190 0.119809 0.233223
O O3 0.352940 0.087831 0.400427
O O4 0.239869 0.954436 0.374101
O O5 0.632332 0.201783 0.743477
O O6 0.779799 0.102859 0.845769
O O7 0.632367 0.010945 0.770277
O O8 0.281448 0.227795 0.858441
O O9 0.446842 0.296421 0.996017
O O10 0.611151 0.330301 0.202468
O O11 0.453284 0.150453 0.336473
O O12 0.500000 0.000000 0.500000
O O13 0.000000 0.790580 0.250000
#
# Coordination Sequence:
#
# PCOD8146673 Si02
#       6
#     8   8   8   8   8   8
#     4  11  21  41  68  84 128 174 201 263 315 366
#     4   9  21  38  64  89 122 163 209 253 321 352
#     4  10  22  42  59  93 126 158 216 257 302 383
#     4   9  23  42  58  96 126 160 217 250 307 386
#     4  11  21  38  60  98 128 152 218 269 301 379
#     4  12  25  40  64  93 131 166 203 258 325 375
#
# _framework density 19.214877999999999
#
# number of rings (size 3 to 8) (size 9 to 14) (size 15 to 20)
#    1.000    0.667    3.333    0.500    4.667    4.000 
#    0.000    2.500    0.000    0.000    0.000    0.000 
#    0.000    0.000    0.000    0.000    0.000    0.000 
#
# Total GULP energy -297530.054283 kJ/mol
# GULP energy per Si atom -12397.085595 kJ/mol
# Density = 1.917114 g / cm^3
# Si number density = 19.214878 Si / 1000 Ang^3
#
#
#
# Elastic Constant Matrix: (Units=GPa)
#
#
# Indices 1 2 3 4 5 6 
#
# 1 74.0118 10.4004 38.8270 0.0000 16.0506 0.0000
# 2 10.4004 48.7477 21.0542 0.0000 2.1147 0.0000
# 3 38.8270 21.0542 82.2895 0.0000 12.0565 0.0000
# 4 0.0000 0.0000 0.0000 33.9539 0.0000 11.6023
# 5 16.0506 2.1147 12.0565 0.0000 25.4576 0.0000
# 6 0.0000 0.0000 0.0000 11.6023 0.0000 29.1956
#
#
#
# Elastic Compliance Matrix: (Units=1/GPa)
#
#
# Indices 1 2 3 4 5 6 
#
# 1 0.019554 -0.000402 -0.007868 0.000000 -0.008569 0.000000
# 2 -0.000402 0.023092 -0.005883 0.000000 0.001121 0.000000
# 3 -0.007868 -0.005883 0.017807 0.000000 -0.002984 0.000000
# 4 0.000000 0.000000 0.000000 0.034080 0.000000 -0.013543
# 5 -0.008569 0.001121 -0.002984 0.000000 0.046003 0.000000
# 6 0.000000 0.000000 0.000000 -0.013543 0.000000 0.039634
#
#
# Mechanical properties :
#
#
# Convention : Reuss Voigt Hill
#
# Bulk Modulus (GPa) = 31.10698 38.40135 34.75417
# Shear Modulus (GPa) = 22.81132 26.70592 24.75862
#
# Velocity S-wave (km/s) = 3.44927 3.73212 3.59348
# Velocity P-wave (km/s) = 5.66458 6.21291 5.94507
#
# Compressibility (1/GPa) = 0.03214713
#
# Stress axis : x y z
#
# Youngs Moduli (GPa) = 51.14154 43.30563 56.15825
#
# Poissons Ratio (x) = 0.01741 0.44184
# Poissons Ratio (y) = 0.02056 0.33037
# Poissons Ratio (z) = 0.40237 0.25476
#
# Static dielectric constant tensor:
#      x y z
#    x 3.482040 0.000000 0.043920 
#    y 0.000000 3.742300 0.000000 
#    z 0.043920 0.000000 3.254030 
# 
# 
# High freq. dielectric constant tensor:
#      x y z
#    x 1.736060 0.000000 0.002910 
#    y 0.000000 1.752090 0.000000 
#    z 0.002910 0.000000 1.736980 
# 
# From -- ./inp_files/112999.got.cif
#   From: 2010.06.25/outbox.cif.g09.slc.cpg/sg15_57_cif.got.tgz:112999.got - 2010.06.28 07:06:18.
