data_PCOD8146252
_publ_section_title
;
Structure prediction by ZEFSAII (Michael W. Deem and Ramdas Pophale) SiO2 
 PCOD8146252
Probable space group: C 2/C
;
_chemical_formula_sum "Si O2"
_cell_formula_units_Z 52
_cell_length_a 11.257807
_cell_length_b 16.220029
_cell_length_c 14.388913
_cell_angle_alpha 90.000000
_cell_angle_beta 110.018865
_cell_angle_gamma 90.000000
_cell_volume 2468.693401
_symmetry_space_group_name_H-M "C 2/C"
_symmetry_group_IT_number 15
_symmetry_cell_setting 'monoclinic'
loop_
_space_group_symop_operation_xyz
x,y,z
-x,y,1/2-z
-x,-y,-z
x,-y,1/2+z
1/2+x,1/2+y,z
1/2-x,1/2+y,1/2-z
1/2-x,1/2-y,-z
1/2+x,1/2-y,1/2+z
loop_
_atom_site_type_symbol
_atom_site_label
_atom_site_fract_x
_atom_site_fract_y
_atom_site_fract_z
Si Si1 0.254458 0.728959 0.796848
Si Si2 0.020640 0.928246 0.617545
Si Si3 0.591820 0.043940 0.596332
Si Si4 0.234182 0.189639 0.908358
Si Si5 0.210507 0.904128 0.826720
Si Si6 0.513882 0.616523 0.591570
Si Si7 0.500000 0.865377 0.250000
O O1 0.256008 0.738689 0.685642
O O2 0.282468 0.816882 0.853007
O O3 0.362934 0.670388 0.863078
O O4 0.121309 0.692616 0.795780
O O5 0.872847 0.920692 0.604347
O O6 0.040606 0.879104 0.527543
O O7 0.115938 0.889012 0.715723
O O8 0.056603 0.023957 0.623471
O O9 0.659776 0.118482 0.560143
O O10 0.513109 0.077063 0.662876
O O11 0.500000 0.000000 0.500000
O O12 0.693046 0.978624 0.662702
O O13 0.096638 0.147088 0.870408
O O14 0.250000 0.250000 0.000000
#
# Coordination Sequence:
#
# PCOD8146252 Si02
#       7
#     8   8   8   8   8   8   4
#     4  11  25  41  68  98 133 179 222 285 342 400
#     4  10  22  40  71  94 130 174 228 282 333 400
#     4  11  26  44  69  98 139 187 223 283 347 414
#     4  11  24  43  66  97 139 173 227 285 343 406
#     4  11  23  44  64 100 134 174 224 276 342 405
#     4  11  23  41  69 101 126 176 231 281 338 409
#     4  10  24  46  64  96 142 180 228 280 344 406
#
# _framework density 21.063775
#
# number of rings (size 3 to 8) (size 9 to 14) (size 15 to 20)
#    0.000    1.231    1.538    4.154    6.462    4.308 
#    0.000    0.000    0.000    0.000    0.000    0.000 
#    0.000    0.000    0.000    0.000    0.000    0.000 
#
# Total GULP energy -322494.943024 kJ/mol
# GULP energy per Si atom -12403.651655 kJ/mol
# Density = 2.101583 g / cm^3
# Si number density = 21.063775 Si / 1000 Ang^3
#
#
#
# Elastic Constant Matrix: (Units=GPa)
#
#
# Indices 1 2 3 4 5 6 
#
# 1 125.7540 48.1593 40.5237 0.0000 -10.8899 0.0000
# 2 48.1593 124.6678 59.0860 0.0000 -13.4355 0.0000
# 3 40.5237 59.0860 52.0545 0.0000 -2.3931 0.0000
# 4 0.0000 0.0000 0.0000 10.2636 0.0000 6.5949
# 5 -10.8899 -13.4355 -2.3931 0.0000 30.2126 0.0000
# 6 0.0000 0.0000 0.0000 6.5949 0.0000 34.4008
#
#
#
# Elastic Compliance Matrix: (Units=1/GPa)
#
#
# Indices 1 2 3 4 5 6 
#
# 1 0.010931 0.000214 -0.008599 0.000000 0.003354 0.000000
# 2 0.000214 0.018597 -0.020968 0.000000 0.006686 0.000000
# 3 -0.008599 -0.020968 0.049314 0.000000 -0.008518 0.000000
# 4 0.000000 0.000000 0.000000 0.111120 0.000000 -0.021302
# 5 0.003354 0.006686 -0.008518 0.000000 0.036607 0.000000
# 6 0.000000 0.000000 0.000000 -0.021302 0.000000 0.033153
#
#
# Mechanical properties :
#
#
# Convention : Reuss Voigt Hill
#
# Bulk Modulus (GPa) = 49.66183 66.44601 58.05392
# Shear Modulus (GPa) = 15.37798 25.28922 20.33360
#
# Velocity S-wave (km/s) = 2.70491 3.46873 3.11035
# Velocity P-wave (km/s) = 5.77784 6.90336 6.36553
#
# Compressibility (1/GPa) = 0.02013619
#
# Stress axis : x y z
#
# Youngs Moduli (GPa) = 91.47938 53.77148 20.27828
#
# Poissons Ratio (x) = -0.01151 0.17437
# Poissons Ratio (y) = -0.01957 0.42520
# Poissons Ratio (z) = 0.78660 1.12751
#
# Static dielectric constant tensor:
#      x y z
#    x 3.988000 0.000000 -0.133260 
#    y 0.000000 3.854520 0.000000 
#    z -0.133260 0.000000 3.762970 
# 
# 
# High freq. dielectric constant tensor:
#      x y z
#    x 1.835180 0.000000 -0.006890 
#    y 0.000000 1.838180 0.000000 
#    z -0.006890 0.000000 1.822530 
# 
# From -- ./inp_files/144319.got.cif
#   From: 2010.06.25/outbox.cif.g09.slc.cpg/sg15_73_cif.got.tgz:144319.got - 2010.06.28 07:06:18.
