data_PCOD8146939
_publ_section_title
;
Structure prediction by ZEFSAII (Michael W. Deem and Ramdas Pophale) SiO2 
 PCOD8146939
Probable space group: C 2/C
;
_chemical_formula_sum "Si O2"
_cell_formula_units_Z 48
_cell_length_a 27.227592
_cell_length_b 16.914496
_cell_length_c 14.171073
_cell_angle_alpha 90.000000
_cell_angle_beta 21.931945
_cell_angle_gamma 90.000000
_cell_volume 2437.628351
_symmetry_space_group_name_H-M "C 2/C"
_symmetry_group_IT_number 15
_symmetry_cell_setting 'monoclinic'
loop_
_space_group_symop_operation_xyz
x,y,z
-x,y,1/2-z
-x,-y,-z
x,-y,1/2+z
1/2+x,1/2+y,z
1/2-x,1/2+y,1/2-z
1/2-x,1/2-y,-z
1/2+x,1/2-y,1/2+z
loop_
_atom_site_type_symbol
_atom_site_label
_atom_site_fract_x
_atom_site_fract_y
_atom_site_fract_z
Si Si1 0.500000 0.560349 0.750000
Si Si2 0.322369 0.849572 0.962825
Si Si3 0.943327 0.422652 0.057063
Si Si4 0.908453 0.815087 0.261892
Si Si5 0.704230 0.573095 0.854414
Si Si6 0.405779 0.766043 0.223327
Si Si7 0.500000 0.704382 0.250000
O O1 0.537938 0.614868 0.769799
O O2 0.615359 0.504888 0.503602
O O3 0.215807 0.852496 0.069770
O O4 0.271120 0.903012 0.138245
O O5 0.458558 0.889943 0.695384
O O6 0.357108 0.756935 0.920468
O O7 0.807217 0.445809 0.251796
O O8 0.922573 0.358458 0.175326
O O9 0.000000 0.500000 0.000000
O O10 0.020417 0.786514 0.988141
O O11 0.627718 0.650753 0.021345
O O12 0.250000 0.750000 0.500000
O O13 0.480370 0.755310 0.190301
#
# Coordination Sequence:
#
# PCOD8146939 Si02
#       7
#     4   8   8   8   8   8   4
#     4  11  26  40  68 101 130 178 226 275 332 406
#     4  10  22  42  67  89 131 175 215 278 335 394
#     4  11  24  42  62  95 134 171 220 272 344 397
#     4  10  23  42  66 100 127 171 228 271 329 410
#     4  11  23  43  64  94 136 172 216 279 339 393
#     4  11  23  43  70  97 131 179 222 284 325 402
#     4  11  22  44  68  95 126 170 232 271 334 396
#
# _framework density 19.691272000000001
#
# number of rings (size 3 to 8) (size 9 to 14) (size 15 to 20)
#    0.000    1.333    3.333    1.500    4.667    2.000 
#    6.000    0.000    0.000    0.000    0.000    0.000 
#    0.000    0.000    0.000    0.000    0.000    0.000 
#
# Total GULP energy -297520.405147 kJ/mol
# GULP energy per Si atom -12396.683548 kJ/mol
# Density = 1.964645 g / cm^3
# Si number density = 19.691272 Si / 1000 Ang^3
#
#
#
# Elastic Constant Matrix: (Units=GPa)
#
#
# Indices 1 2 3 4 5 6 
#
# 1 128.8384 88.6997 50.1185 0.0000 -6.2426 0.0001
# 2 88.6997 151.1152 51.0848 0.0000 -2.6259 0.0001
# 3 50.1185 51.0848 102.1489 0.0000 -10.4010 0.0001
# 4 0.0000 0.0000 0.0000 22.1677 0.0000 7.9902
# 5 -6.2426 -2.6259 -10.4010 0.0000 36.0700 -0.0003
# 6 0.0001 0.0001 0.0001 7.9902 -0.0003 -71.4573
#
#
#
# Elastic Compliance Matrix: (Units=1/GPa)
#
#
# Indices 1 2 3 4 5 6 
#
# 1 0.013922 -0.007075 -0.003193 0.000000 0.000974 0.000000
# 2 -0.007075 0.011572 -0.002426 0.000000 -0.001082 0.000000
# 3 -0.003193 -0.002426 0.012873 0.000000 0.002983 0.000000
# 4 0.000000 0.000000 0.000000 0.043363 0.000000 0.004849
# 5 0.000974 -0.001082 0.002983 0.000000 0.028674 0.000000
# 6 0.000000 0.000000 0.000000 0.004849 0.000000 -0.013452
#
#
# Mechanical properties :
#
#
# Convention : Reuss Voigt Hill
#
# Bulk Modulus (GPa) = 77.05116 84.65649 80.85382
# Shear Modulus (GPa) = 39.47383 10.16940 24.82161
#
# Velocity S-wave (km/s) = 4.48217 2.27500 3.55426
# Velocity P-wave (km/s) = 8.12410 7.07008 7.61535
#
# Compressibility (1/GPa) = 0.01297839
#
# Stress axis : x y z
#
# Youngs Moduli (GPa) = 71.82797 86.41750 77.68120
#
# Poissons Ratio (x) = 0.61144 0.24805
# Poissons Ratio (y) = 0.50822 0.18843
# Poissons Ratio (z) = 0.22936 0.20962
#
# Static dielectric constant tensor:
#      x y z
#    x 3.495430 0.000000 -0.220470 
#    y 0.000000 3.646660 0.000000 
#    z -0.220470 0.000000 3.901600 
# 
# 
# High freq. dielectric constant tensor:
#      x y z
#    x 1.770950 0.000000 -0.013500 
#    y 0.000000 1.771550 0.000000 
#    z -0.013500 0.000000 1.785050 
# 
# From -- ./inp_files/182490.got.cif
#   From: 2010.06.25/outbox.cif.g09.slc.cpg/sg15_92_cif.got.tgz:182490.got - 2010.06.28 07:06:18.
