data_PCOD8146143
_publ_section_title
;
Structure prediction by ZEFSAII (Michael W. Deem and Ramdas Pophale) SiO2 
 PCOD8146143
Probable space group: C 2/C
;
_chemical_formula_sum "Si O2"
_cell_formula_units_Z 48
_cell_length_a 18.808847
_cell_length_b 21.411255
_cell_length_c 10.886119
_cell_angle_alpha 90.000000
_cell_angle_beta 31.164108
_cell_angle_gamma 90.000000
_cell_volume 2268.716566
_symmetry_space_group_name_H-M "C 2/C"
_symmetry_group_IT_number 15
_symmetry_cell_setting 'monoclinic'
loop_
_space_group_symop_operation_xyz
x,y,z
-x,y,1/2-z
-x,-y,-z
x,-y,1/2+z
1/2+x,1/2+y,z
1/2-x,1/2+y,1/2-z
1/2-x,1/2-y,-z
1/2+x,1/2-y,1/2+z
loop_
_atom_site_type_symbol
_atom_site_label
_atom_site_fract_x
_atom_site_fract_y
_atom_site_fract_z
Si Si1 0.144583 0.921093 0.090788
Si Si2 0.504095 0.260767 0.506435
Si Si3 0.218688 0.199594 0.330011
Si Si4 0.799237 0.944507 0.990835
Si Si5 0.054506 0.895857 0.494087
Si Si6 0.629769 0.158369 0.629973
O O1 0.128270 0.901403 0.255064
O O2 0.000000 0.942643 0.250000
O O3 0.206409 0.864200 0.923177
O O4 0.241338 0.982420 0.935820
O O5 0.666822 0.240032 0.264486
O O6 0.434345 0.269691 0.471499
O O7 0.501854 0.324872 0.587111
O O8 0.409431 0.211061 0.714568
O O9 0.261443 0.186381 0.126361
O O10 0.671973 0.905179 0.132947
O O11 0.835766 0.912627 0.065422
O O12 0.922821 0.940625 0.707689
O O13 0.500000 0.134371 0.750000
#
# Coordination Sequence:
#
# PCOD8146143 Si02
#       6
#     8   8   8   8   8   8
#     4  12  23  42  62  95 132 174 210 265 324 389
#     4  11  22  40  66  98 130 162 222 264 331 380
#     4  11  24  39  68  95 135 169 213 272 329 383
#     4  11  23  38  68  96 127 165 222 270 310 379
#     4  11  23  36  67  99 122 162 218 269 321 370
#     4  10  22  40  67  97 126 171 213 271 321 381
#
# _framework density 21.157336000000001
#
# number of rings (size 3 to 8) (size 9 to 14) (size 15 to 20)
#    0.000    1.000    5.000    2.000    9.333    0.667 
#    0.000    3.333    3.667    0.000    0.000    0.000 
#    0.000    0.000    0.000    0.000    0.000    0.000 
#
# Total GULP energy -297428.557725 kJ/mol
# GULP energy per Si atom -12392.856572 kJ/mol
# Density = 2.110918 g / cm^3
# Si number density = 21.157336 Si / 1000 Ang^3
#
#
#
# Elastic Constant Matrix: (Units=GPa)
#
#
# Indices 1 2 3 4 5 6 
#
# 1 118.9968 65.5321 45.8642 -0.0018 -20.8831 -0.0006
# 2 65.5321 137.5464 39.3900 0.0017 -14.7176 -0.0015
# 3 45.8642 39.3900 30.2817 -0.0011 1.6632 -0.0009
# 4 -0.0018 0.0017 -0.0011 24.3412 0.0009 -7.0236
# 5 -20.8831 -14.7176 1.6632 0.0009 28.1473 -0.0005
# 6 -0.0006 -0.0015 -0.0009 -7.0236 -0.0005 24.9785
#
#
#
# Elastic Compliance Matrix: (Units=1/GPa)
#
#
# Indices 1 2 3 4 5 6 
#
# 1 0.034333 0.003701 -0.058508 -0.000002 0.030864 -0.000001
# 2 0.003701 0.013531 -0.023822 -0.000002 0.011228 0.000000
# 3 -0.058508 -0.023822 0.156201 0.000007 -0.065094 0.000003
# 4 -0.000002 -0.000002 0.000007 0.044710 -0.000004 0.012572
# 5 0.030864 0.011228 -0.065094 -0.000004 0.068143 -0.000001
# 6 -0.000001 0.000000 0.000003 0.012572 -0.000001 0.043570
#
#
# Mechanical properties :
#
#
# Convention : Reuss Voigt Hill
#
# Bulk Modulus (GPa) = 21.36523 65.37752 43.37137
# Shear Modulus (GPa) = 9.37474 24.56263 16.96869
#
# Velocity S-wave (km/s) = 2.10727 3.41097 2.83507
# Velocity P-wave (km/s) = 4.00512 6.81767 5.59114
#
# Compressibility (1/GPa) = 0.04680503
#
# Stress axis : x y z
#
# Youngs Moduli (GPa) = 29.12691 73.90644 6.40201
#
# Poissons Ratio (x) = -0.27350 0.37457
# Poissons Ratio (y) = -0.10779 0.15251
# Poissons Ratio (z) = 1.70416 1.76059
#
# Static dielectric constant tensor:
#      x y z
#    x 4.135650 0.000000 -0.108290 
#    y 0.000000 3.942620 0.000010 
#    z -0.108290 0.000010 3.904210 
# 
# 
# High freq. dielectric constant tensor:
#      x y z
#    x 1.840890 0.000000 -0.000330 
#    y 0.000000 1.838540 0.000000 
#    z -0.000330 0.000000 1.799400 
# 
# From -- ./inp_files/114195.got.cif
#   From: 2010.06.25/outbox.cif.g09.slc.cpg/sg15_58_cif.got.tgz:114195.got - 2010.06.28 07:06:18.
