data_PCOD8146867
_publ_section_title
;
Structure prediction by ZEFSAII (Michael W. Deem and Ramdas Pophale) SiO2 
 PCOD8146867
Probable space group: C 2/C
;
_chemical_formula_sum "Si O2"
_cell_formula_units_Z 60
_cell_length_a 8.712573
_cell_length_b 16.425065
_cell_length_c 25.993763
_cell_angle_alpha 90.000000
_cell_angle_beta 51.631533
_cell_angle_gamma 90.000000
_cell_volume 2916.474862
_symmetry_space_group_name_H-M "C 2/C"
_symmetry_group_IT_number 15
_symmetry_cell_setting 'monoclinic'
loop_
_space_group_symop_operation_xyz
x,y,z
-x,y,1/2-z
-x,-y,-z
x,-y,1/2+z
1/2+x,1/2+y,z
1/2-x,1/2+y,1/2-z
1/2-x,1/2-y,-z
1/2+x,1/2-y,1/2+z
loop_
_atom_site_type_symbol
_atom_site_label
_atom_site_fract_x
_atom_site_fract_y
_atom_site_fract_z
Si Si1 0.936515 0.522810 0.358064
Si Si2 0.192255 0.933549 0.236483
Si Si3 0.632023 0.256601 0.674455
Si Si4 0.268342 0.679597 0.928578
Si Si5 0.294060 0.227194 0.673223
Si Si6 0.000000 0.367617 0.750000
Si Si7 0.471132 0.161292 0.426332
Si Si8 0.157727 0.912793 0.356644
O O1 0.030013 0.577992 0.293875
O O2 0.898944 0.576587 0.416356
O O3 0.736393 0.474829 0.384281
O O4 0.110281 0.459422 0.334183
O O5 0.185764 0.834682 0.235072
O O6 0.196167 0.959595 0.295189
O O7 0.000000 0.971923 0.250000
O O8 0.500000 0.286289 0.750000
O O9 0.513306 0.246642 0.646165
O O10 0.719466 0.169368 0.669505
O O11 0.798288 0.324383 0.630141
O O12 0.205417 0.682691 0.882311
O O13 0.348707 0.768211 0.924780
O O14 0.428404 0.609526 0.908578
O O15 0.078294 0.659203 0.002649
O O16 0.187140 0.313015 0.698343
#
# Coordination Sequence:
#
# PCOD8146867 Si02
#       8
#     8   8   8   8   8   4   8   8
#     4  12  23  39  61  96 130 158 205 281 318 361
#     4  12  22  37  63  95 129 159 205 258 323 380
#     4  11  21  37  65  93 125 163 206 263 319 380
#     4  10  22  42  66  87 123 180 215 247 309 394
#     4  12  21  37  67  91 122 174 209 250 316 390
#     4  12  22  36  62  98 128 150 208 264 310 364
#     4  10  24  43  60  92 131 163 216 265 307 368
#     4  11  20  38  63  91 124 167 209 250 324 383
#
# _framework density 20.572783000000001
#
# number of rings (size 3 to 8) (size 9 to 14) (size 15 to 20)
#    0.000    0.800    7.333    0.800    0.000    2.667 
#    0.000    0.667    0.000    0.000    0.000    0.000 
#    0.000    0.000    0.000    0.000    0.000    0.000 
#
# Total GULP energy -371988.799430 kJ/mol
# GULP energy per Si atom -12399.626648 kJ/mol
# Density = 2.052596 g / cm^3
# Si number density = 20.572783 Si / 1000 Ang^3
#
#
#
# Elastic Constant Matrix: (Units=GPa)
#
#
# Indices 1 2 3 4 5 6 
#
# 1 140.6272 31.3005 46.6749 0.0000 -2.3622 -0.0002
# 2 31.3005 68.6496 25.5800 0.0001 -3.5985 -0.0001
# 3 46.6749 25.5800 105.4474 0.0001 -8.6582 -0.0004
# 4 0.0000 0.0001 0.0001 18.9038 0.0000 7.4576
# 5 -2.3622 -3.5985 -8.6582 0.0000 25.1525 0.0001
# 6 -0.0002 -0.0001 -0.0004 7.4576 0.0001 29.9946
#
#
#
# Elastic Compliance Matrix: (Units=1/GPa)
#
#
# Indices 1 2 3 4 5 6 
#
# 1 0.008817 -0.002838 -0.003272 0.000000 -0.000704 0.000000
# 2 -0.002838 0.016951 -0.002757 0.000000 0.001210 0.000000
# 3 -0.003272 -0.002757 0.011879 0.000000 0.003387 0.000000
# 4 0.000000 0.000000 0.000000 0.058653 0.000000 -0.014583
# 5 -0.000704 0.001210 0.003387 0.000000 0.041030 0.000000
# 6 0.000000 0.000000 0.000000 -0.014583 0.000000 0.036965
#
#
# Mechanical properties :
#
#
# Convention : Reuss Voigt Hill
#
# Bulk Modulus (GPa) = 50.21688 57.98165 54.09927
# Shear Modulus (GPa) = 25.16795 28.88810 27.02802
#
# Velocity S-wave (km/s) = 3.50145 3.75132 3.62854
# Velocity P-wave (km/s) = 6.38821 6.85624 6.62636
#
# Compressibility (1/GPa) = 0.01991362
#
# Stress axis : x y z
#
# Youngs Moduli (GPa) = 113.41988 58.99305 84.18497
#
# Poissons Ratio (x) = 0.16740 0.27546
# Poissons Ratio (y) = 0.32185 0.23207
# Poissons Ratio (z) = 0.37112 0.16263
#
# Static dielectric constant tensor:
#      x y z
#    x 3.890130 0.000000 -0.007260 
#    y 0.000000 3.643780 0.000000 
#    z -0.007260 0.000000 3.595340 
# 
# 
# High freq. dielectric constant tensor:
#      x y z
#    x 1.812880 0.000000 0.002010 
#    y 0.000000 1.799460 0.000000 
#    z 0.002010 0.000000 1.779410 
# 
# From -- ./inp_files/289563.got.cif
#   From: 2010.06.25/outbox.cif.g09.slc.cpg/sg15_145_cif.got.tgz:289563.got - 2010.06.28 07:06:18.
