data_PCOD8146956
_publ_section_title
;
Structure prediction by ZEFSAII (Michael W. Deem and Ramdas Pophale) SiO2 
 PCOD8146956
Probable space group: C 2/C
;
_chemical_formula_sum "Si O2"
_cell_formula_units_Z 44
_cell_length_a 11.597741
_cell_length_b 18.846690
_cell_length_c 9.448565
_cell_angle_alpha 90.000000
_cell_angle_beta 112.291624
_cell_angle_gamma 90.000000
_cell_volume 1910.911470
_symmetry_space_group_name_H-M "C 2/C"
_symmetry_group_IT_number 15
_symmetry_cell_setting 'monoclinic'
loop_
_space_group_symop_operation_xyz
x,y,z
-x,y,1/2-z
-x,-y,-z
x,-y,1/2+z
1/2+x,1/2+y,z
1/2-x,1/2+y,1/2-z
1/2-x,1/2-y,-z
1/2+x,1/2-y,1/2+z
loop_
_atom_site_type_symbol
_atom_site_label
_atom_site_fract_x
_atom_site_fract_y
_atom_site_fract_z
Si Si1 0.500000 0.492038 0.250000
Si Si2 0.343402 0.444275 0.431984
Si Si3 0.384240 0.183991 0.427924
Si Si4 0.704103 0.191576 0.822648
Si Si5 0.639372 0.937762 0.781149
Si Si6 0.847615 0.311078 0.511114
O O1 0.435523 0.444034 0.339969
O O2 0.595976 0.539021 0.387070
O O3 0.303007 0.363606 0.432613
O O4 0.230432 0.496062 0.335786
O O5 0.402819 0.194476 0.605833
O O6 0.268301 0.232372 0.325130
O O7 0.358046 0.101444 0.371730
O O8 0.507261 0.211187 0.399675
O O9 0.653720 0.162937 0.651595
O O10 0.500000 0.964801 0.750000
O O11 0.687731 0.878832 0.913528
O O12 0.750000 0.250000 0.500000
#
# Coordination Sequence:
#
# PCOD8146956 Si02
#       6
#     4   8   8   8   8   8
#     4  10  24  42  62  98 130 172 214 268 320 400
#     4  11  23  43  66  96 133 170 221 263 334 383
#     4  10  23  41  60  94 128 164 219 262 324 380
#     4  11  23  41  63  92 126 172 211 267 323 386
#     4  10  22  42  67  95 129 171 217 273 316 384
#     4  11  22  39  65  92 125 168 217 266 317 385
#
# _framework density 23.025662000000001
#
# number of rings (size 3 to 8) (size 9 to 14) (size 15 to 20)
#    0.000    1.455    1.818    2.727    0.000    5.818 
#    6.545    4.545    0.000    0.000    0.000    0.000 
#    0.000    0.000    0.000    0.000    0.000    0.000 
#
# Total GULP energy -272646.708998 kJ/mol
# GULP energy per Si atom -12393.032227 kJ/mol
# Density = 2.297325 g / cm^3
# Si number density = 23.025662 Si / 1000 Ang^3
#
#
#
# Elastic Constant Matrix: (Units=GPa)
#
#
# Indices 1 2 3 4 5 6 
#
# 1 88.2023 23.7265 7.3768 0.0000 -1.3399 0.0000
# 2 23.7265 68.9240 -5.5336 0.0000 6.4482 0.0000
# 3 7.3768 -5.5336 113.4344 0.0000 -16.3927 0.0000
# 4 0.0000 0.0000 0.0000 17.3697 0.0000 -3.1673
# 5 -1.3399 6.4482 -16.3927 0.0000 31.5447 0.0000
# 6 0.0000 0.0000 0.0000 -3.1673 0.0000 10.5341
#
#
#
# Elastic Compliance Matrix: (Units=1/GPa)
#
#
# Indices 1 2 3 4 5 6 
#
# 1 0.012643 -0.004517 -0.000899 0.000000 0.000993 0.000000
# 2 -0.004517 0.016416 0.000629 0.000000 -0.003221 0.000000
# 3 -0.000899 0.000629 0.009602 0.000000 0.004823 0.000000
# 4 0.000000 0.000000 0.000000 0.060911 0.000000 0.018314
# 5 0.000993 -0.003221 0.004823 0.000000 0.034908 0.000000
# 6 0.000000 0.000000 0.000000 0.018314 0.000000 0.100436
#
#
# Mechanical properties :
#
#
# Convention : Reuss Voigt Hill
#
# Bulk Modulus (GPa) = 34.38080 35.74443 35.06262
# Shear Modulus (GPa) = 19.67065 28.22242 23.94654
#
# Velocity S-wave (km/s) = 2.92600 3.50479 3.22839
# Velocity P-wave (km/s) = 5.13607 5.65115 5.39976
#
# Compressibility (1/GPa) = 0.02908600
#
# Stress axis : x y z
#
# Youngs Moduli (GPa) = 79.09502 60.91762 104.14712
#
# Poissons Ratio (x) = 0.27519 0.09363
# Poissons Ratio (y) = 0.35730 -0.06552
# Poissons Ratio (z) = 0.07111 -0.03833
#
# Static dielectric constant tensor:
#      x y z
#    x 4.252550 0.000000 -0.202980 
#    y 0.000000 3.880850 0.000000 
#    z -0.202980 0.000000 4.482550 
# 
# 
# High freq. dielectric constant tensor:
#      x y z
#    x 1.919670 0.000000 -0.016430 
#    y 0.000000 1.885060 0.000000 
#    z -0.016430 0.000000 1.929370 
# 
# From -- ./inp_files/30821.got.cif
#   From: 2010.06.25/outbox.cif.g09.slc.cpg/sg15_16_cif.got.tgz:30821.got - 2010.06.28 07:06:18.
