data_PCOD8146461
_publ_section_title
;
Structure prediction by ZEFSAII (Michael W. Deem and Ramdas Pophale) SiO2 
 PCOD8146461
Probable space group: C 2/C
;
_chemical_formula_sum "Si O2"
_cell_formula_units_Z 48
_cell_length_a 13.254891
_cell_length_b 18.686109
_cell_length_c 12.150202
_cell_angle_alpha 90.000000
_cell_angle_beta 53.454126
_cell_angle_gamma 90.000000
_cell_volume 2417.685164
_symmetry_space_group_name_H-M "C 2/C"
_symmetry_group_IT_number 15
_symmetry_cell_setting 'monoclinic'
loop_
_space_group_symop_operation_xyz
x,y,z
-x,y,1/2-z
-x,-y,-z
x,-y,1/2+z
1/2+x,1/2+y,z
1/2-x,1/2+y,1/2-z
1/2-x,1/2-y,-z
1/2+x,1/2-y,1/2+z
loop_
_atom_site_type_symbol
_atom_site_label
_atom_site_fract_x
_atom_site_fract_y
_atom_site_fract_z
Si Si1 0.256333 0.380712 0.498879
Si Si2 0.000000 0.878183 0.750000
Si Si3 0.000000 0.669318 0.250000
Si Si4 0.092167 0.743068 0.779841
Si Si5 0.711891 0.632247 0.777262
Si Si6 0.472301 0.283652 0.441487
Si Si7 0.380700 0.477795 0.008859
O O1 0.237467 0.378471 0.379135
O O2 0.336555 0.311809 0.487605
O O3 0.319384 0.454516 0.490749
O O4 0.120726 0.379175 0.644893
O O5 0.108939 0.826538 0.732034
O O6 0.073359 0.924544 0.614744
O O7 0.969636 0.720722 0.168427
O O8 0.219176 0.697633 0.705231
O O9 0.000000 0.704901 0.750000
O O10 0.028816 0.747176 0.939634
O O11 0.563802 0.648628 0.873367
O O12 0.722269 0.559984 0.843734
O O13 0.500000 0.500000 0.000000
#
# Coordination Sequence:
#
# PCOD8146461 Si02
#       7
#     8   4   4   8   8   8   8
#     4  12  25  42  67 103 135 176 226 269 341 402
#     4  10  22  41  65  96 134 168 226 274 324 394
#     4  12  24  41  67 102 138 168 224 284 336 392
#     4  10  23  41  63 104 134 169 224 276 346 383
#     4  12  22  42  73  97 133 175 222 289 330 395
#     4  12  21  40  71 103 131 165 227 292 330 389
#     4  12  24  41  66  97 135 177 221 268 330 406
#
# _framework density 19.853701000000001
#
# number of rings (size 3 to 8) (size 9 to 14) (size 15 to 20)
#    0.500    0.000    6.667    2.500    0.000    2.667 
#    1.500    2.500    0.000    0.000    0.000    0.000 
#    0.000    0.000    0.000    0.000    0.000    0.000 
#
# Total GULP energy -297488.369862 kJ/mol
# GULP energy per Si atom -12395.348744 kJ/mol
# Density = 1.980851 g / cm^3
# Si number density = 19.853701 Si / 1000 Ang^3
#
#
#
# Elastic Constant Matrix: (Units=GPa)
#
#
# Indices 1 2 3 4 5 6 
#
# 1 99.0235 54.6763 58.7737 0.0000 10.8263 0.0000
# 2 54.6763 108.3036 48.6830 0.0000 3.3569 0.0000
# 3 58.7737 48.6830 130.6251 0.0000 12.3999 0.0000
# 4 0.0000 0.0000 0.0000 8.2741 0.0000 -18.3808
# 5 10.8263 3.3569 12.3999 0.0000 41.7100 0.0000
# 6 0.0000 0.0000 0.0000 -18.3808 0.0000 33.1613
#
#
#
# Elastic Compliance Matrix: (Units=1/GPa)
#
#
# Indices 1 2 3 4 5 6 
#
# 1 0.016705 -0.006105 -0.005018 0.000000 -0.002353 0.000000
# 2 -0.006105 0.013327 -0.002335 0.000000 0.001206 0.000000
# 3 -0.005018 -0.002335 0.010951 0.000000 -0.001765 0.000000
# 4 0.000000 0.000000 0.000000 -0.522436 0.000000 -0.289579
# 5 -0.002353 0.001206 -0.001765 0.000000 0.025014 0.000000
# 6 0.000000 0.000000 0.000000 -0.289579 0.000000 -0.130353
#
#
# Mechanical properties :
#
#
# Convention : Reuss Voigt Hill
#
# Bulk Modulus (GPa) = 71.07986 73.57981 72.32983
# Shear Modulus (GPa) = -9.00594 28.35035 9.67221
#
# Velocity S-wave (km/s) = -2.13213 3.78294 2.20960
# Velocity P-wave (km/s) = 5.46061 7.49815 6.55898
#
# Compressibility (1/GPa) = 0.01406868
#
# Stress axis : x y z
#
# Youngs Moduli (GPa) = 59.86282 75.03340 91.31765
#
# Poissons Ratio (x) = 0.45808 0.45819
# Poissons Ratio (y) = 0.36546 0.21319
# Poissons Ratio (z) = 0.30037 0.17517
#
# Static dielectric constant tensor:
#      x y z
#    x 3.667550 0.000000 0.190670 
#    y 0.000000 3.649290 0.000000 
#    z 0.190670 0.000000 3.780810 
# 
# 
# High freq. dielectric constant tensor:
#      x y z
#    x 1.768210 0.000000 0.023130 
#    y 0.000000 1.772590 0.000000 
#    z 0.023130 0.000000 1.781460 
# 
# From -- ./inp_files/89461.got.cif
#   From: 2010.06.25/outbox.cif.g09.slc.cpg/sg15_45_cif.got.tgz:89461.got - 2010.06.28 07:06:18.
