data_PCOD8146209
_publ_section_title
;
Structure prediction by ZEFSAII (Michael W. Deem and Ramdas Pophale) SiO2 
 PCOD8146209
Probable space group: C 2/C
;
_chemical_formula_sum "Si O2"
_cell_formula_units_Z 48
_cell_length_a 17.421228
_cell_length_b 14.845701
_cell_length_c 15.985904
_cell_angle_alpha 90.000000
_cell_angle_beta 33.625882
_cell_angle_gamma 90.000000
_cell_volume 2289.519415
_symmetry_space_group_name_H-M "C 2/C"
_symmetry_group_IT_number 15
_symmetry_cell_setting 'monoclinic'
loop_
_space_group_symop_operation_xyz
x,y,z
-x,y,1/2-z
-x,-y,-z
x,-y,1/2+z
1/2+x,1/2+y,z
1/2-x,1/2+y,1/2-z
1/2-x,1/2-y,-z
1/2+x,1/2-y,1/2+z
loop_
_atom_site_type_symbol
_atom_site_label
_atom_site_fract_x
_atom_site_fract_y
_atom_site_fract_z
Si Si1 0.614503 0.663367 0.041381
Si Si2 0.867396 0.987158 0.566975
Si Si3 0.612046 0.864272 0.584470
Si Si4 0.648107 0.007218 0.407979
Si Si5 0.197553 0.822256 0.658000
Si Si6 0.396103 0.665355 0.914739
O O1 0.452986 0.679786 0.159951
O O2 0.651091 0.673278 0.104575
O O3 0.652260 0.561016 0.987023
O O4 0.714240 0.732564 0.900985
O O5 0.740189 0.000879 0.743105
O O6 0.890885 0.890232 0.504770
O O7 0.000000 0.000000 0.500000
O O8 0.500000 0.909918 0.750000
O O9 0.655437 0.926476 0.467896
O O10 0.555138 0.766886 0.604534
O O11 0.743041 0.839811 0.519681
O O12 0.500000 0.000000 0.500000
O O13 0.698459 0.096981 0.410707
O O14 0.500000 0.624996 0.750000
#
# Coordination Sequence:
#
# PCOD8146209 Si02
#       6
#     8   8   8   8   8   8
#     4  10  23  43  68  92 127 172 229 268 321 383
#     4  12  24  39  64  98 131 172 209 268 335 394
#     4  10  22  44  65  92 121 167 216 266 313 378
#     4  12  26  40  63  99 139 168 210 266 341 395
#     4  10  23  44  66  94 124 176 224 271 316 386
#     4  10  22  40  69  91 120 166 222 263 309 378
#
# _framework density 20.965098000000001
#
# number of rings (size 3 to 8) (size 9 to 14) (size 15 to 20)
#    0.000    1.333    1.667    3.000    4.667    2.667 
#    3.000    0.000    0.000    0.000    0.000    0.000 
#    0.000    0.000    0.000    0.000    0.000    0.000 
#
# Total GULP energy -297334.880499 kJ/mol
# GULP energy per Si atom -12388.953354 kJ/mol
# Density = 2.091738 g / cm^3
# Si number density = 20.965098 Si / 1000 Ang^3
#
#
#
# Elastic Constant Matrix: (Units=GPa)
#
#
# Indices 1 2 3 4 5 6 
#
# 1 69.2289 34.2789 22.2586 0.0001 -13.5651 0.0000
# 2 34.2789 109.0260 28.8247 0.0001 2.7853 0.0000
# 3 22.2586 28.8247 137.0508 0.0003 -1.5749 0.0002
# 4 0.0001 0.0001 0.0003 36.2065 -0.0001 -0.9753
# 5 -13.5651 2.7853 -1.5749 -0.0001 43.7280 -0.0002
# 6 0.0000 0.0000 0.0002 -0.9753 -0.0002 2.6036
#
#
#
# Elastic Compliance Matrix: (Units=1/GPa)
#
#
# Indices 1 2 3 4 5 6 
#
# 1 0.019055 -0.005665 -0.001832 0.000000 0.006206 0.000001
# 2 -0.005665 0.011418 -0.001510 0.000000 -0.002539 0.000000
# 3 -0.001832 -0.001510 0.007910 0.000000 -0.000187 -0.000001
# 4 0.000000 0.000000 0.000000 0.027901 0.000000 0.010452
# 5 0.006206 -0.002539 -0.000187 0.000000 0.024949 0.000002
# 6 0.000001 0.000000 -0.000001 0.010452 0.000002 0.388005
#
#
# Mechanical properties :
#
#
# Convention : Reuss Voigt Hill
#
# Bulk Modulus (GPa) = 49.09921 54.00335 51.55128
# Shear Modulus (GPa) = 9.91982 31.83718 20.87850
#
# Velocity S-wave (km/s) = 2.17758 3.90112 3.15916
# Velocity P-wave (km/s) = 5.45828 6.79016 6.16032
#
# Compressibility (1/GPa) = 0.02036693
#
# Stress axis : x y z
#
# Youngs Moduli (GPa) = 52.47945 87.58434 126.42848
#
# Poissons Ratio (x) = 0.49620 0.23160
# Poissons Ratio (y) = 0.29731 0.19096
# Poissons Ratio (z) = 0.09614 0.13229
#
# Static dielectric constant tensor:
#      x y z
#    x 3.546030 0.000000 -0.341300 
#    y 0.000000 4.104540 0.000000 
#    z -0.341300 0.000000 3.764470 
# 
# 
# High freq. dielectric constant tensor:
#      x y z
#    x 1.819360 0.000000 -0.009180 
#    y 0.000000 1.823620 0.000000 
#    z -0.009180 0.000000 1.838490 
# 
# From -- ./inp_files/211319.got.cif
#   From: 2010.06.25/outbox.cif.g09.slc.cpg/sg15_106_cif.got.tgz:211319.got - 2010.06.28 07:06:18.
