data_PCOD8146663
_publ_section_title
;
Structure prediction by ZEFSAII (Michael W. Deem and Ramdas Pophale) SiO2 
 PCOD8146663
Probable space group: C 2/C
;
_chemical_formula_sum "Si O2"
_cell_formula_units_Z 36
_cell_length_a 15.438799
_cell_length_b 8.873007
_cell_length_c 28.666118
_cell_angle_alpha 90.000000
_cell_angle_beta 151.888565
_cell_angle_gamma 90.000000
_cell_volume 1850.322262
_symmetry_space_group_name_H-M "C 2/C"
_symmetry_group_IT_number 15
_symmetry_cell_setting 'monoclinic'
loop_
_space_group_symop_operation_xyz
x,y,z
-x,y,1/2-z
-x,-y,-z
x,-y,1/2+z
1/2+x,1/2+y,z
1/2-x,1/2+y,1/2-z
1/2-x,1/2-y,-z
1/2+x,1/2-y,1/2+z
loop_
_atom_site_type_symbol
_atom_site_label
_atom_site_fract_x
_atom_site_fract_y
_atom_site_fract_z
Si Si1 0.358702 0.592033 0.463970
Si Si2 0.500000 0.218741 0.250000
Si Si3 0.580184 0.489753 0.740282
Si Si4 0.212292 0.923103 0.974512
Si Si5 0.988340 0.419823 0.944984
O O1 0.500000 0.500000 0.500000
O O2 0.318348 0.500096 0.490906
O O3 0.448772 0.749430 0.520262
O O4 0.167568 0.613932 0.345670
O O5 0.429836 0.327499 0.258983
O O6 0.500000 0.415330 0.750000
O O7 0.468153 0.439319 0.642328
O O8 0.783569 0.429124 0.828057
O O9 0.250000 0.750000 0.000000
O O10 0.384735 0.997566 0.031572
O O11 0.000000 0.500000 0.000000
#
# Coordination Sequence:
#
# PCOD8146663 Si02
#       5
#     8   4   8   8   8
#     4  12  27  44  72 103 141 179 234 289 341 410
#     4  10  22  44  74  96 138 186 230 278 354 404
#     4  10  22  41  77  95 135 186 226 275 356 406
#     4  12  27  44  69 106 138 179 230 284 344 413
#     4  12  21  44  72  98 138 179 226 286 341 407
#
# _framework density 19.45607
#
# number of rings (size 3 to 8) (size 9 to 14) (size 15 to 20)
#    0.667    0.000    6.667    2.000    0.000    5.333 
#    0.000    0.000    0.000    0.000    0.000    0.000 
#    0.000    0.000    0.000    0.000    0.000    0.000 
#
# Total GULP energy -223233.828055 kJ/mol
# GULP energy per Si atom -12401.879336 kJ/mol
# Density = 1.941179 g / cm^3
# Si number density = 19.456070 Si / 1000 Ang^3
#
#
#
# Elastic Constant Matrix: (Units=GPa)
#
#
# Indices 1 2 3 4 5 6 
#
# 1 170.9360 91.2156 79.7984 0.0002 6.9754 -0.0001
# 2 91.2156 172.3998 80.8361 0.0002 0.1108 0.0000
# 3 79.7984 80.8361 222.1899 -0.0013 13.1924 -0.0001
# 4 0.0002 0.0002 -0.0013 -35.6400 0.0001 12.9082
# 5 6.9754 0.1108 13.1924 0.0001 40.6513 -0.0002
# 6 -0.0001 0.0000 -0.0001 12.9082 -0.0002 41.6247
#
#
#
# Elastic Compliance Matrix: (Units=1/GPa)
#
#
# Indices 1 2 3 4 5 6 
#
# 1 0.008713 -0.003820 -0.001684 0.000000 -0.000938 0.000000
# 2 -0.003820 0.008695 -0.001865 0.000000 0.001237 0.000000
# 3 -0.001684 -0.001865 0.005880 0.000000 -0.001614 0.000000
# 4 0.000000 0.000000 0.000000 -0.025225 0.000000 0.007823
# 5 -0.000938 0.001237 -0.001614 0.000000 0.025281 0.000000
# 6 0.000000 0.000000 0.000000 0.007823 0.000000 0.021598
#
#
# Mechanical properties :
#
#
# Convention : Reuss Voigt Hill
#
# Bulk Modulus (GPa) = 116.95131 118.80289 117.87710
# Shear Modulus (GPa) = 79.96270 30.23890 55.10080
#
# Velocity S-wave (km/s) = 6.41781 3.94663 5.32749
# Velocity P-wave (km/s) = 10.73120 9.05332 9.92777
#
# Compressibility (1/GPa) = 0.00855057
#
# Stress axis : x y z
#
# Youngs Moduli (GPa) = 114.77377 115.00604 170.07578
#
# Poissons Ratio (x) = 0.43930 0.28637
# Poissons Ratio (y) = 0.43841 0.31720
# Poissons Ratio (z) = 0.19325 0.21449
#
# Static dielectric constant tensor:
#      x y z
#    x 3.269960 0.000000 -0.160830 
#    y 0.000000 3.636230 0.000000 
#    z -0.160830 0.000000 3.536430 
# 
# 
# High freq. dielectric constant tensor:
#      x y z
#    x 1.762510 0.000000 0.005870 
#    y 0.000000 1.759610 0.000000 
#    z 0.005870 0.000000 1.775430 
# 
# From -- ./inp_files/150148.got.cif
#   From: 2010.06.25/outbox.cif.g09.slc.cpg/sg15_76_cif.got.tgz:150148.got - 2010.06.28 07:06:18.
