data_PCOD8146604
_publ_section_title
;
Structure prediction by ZEFSAII (Michael W. Deem and Ramdas Pophale) SiO2 
 PCOD8146604
Probable space group: C 2/C
;
_chemical_formula_sum "Si O2"
_cell_formula_units_Z 52
_cell_length_a 27.217431
_cell_length_b 16.405994
_cell_length_c 8.536680
_cell_angle_alpha 90.000000
_cell_angle_beta 39.015376
_cell_angle_gamma 90.000000
_cell_volume 2399.685738
_symmetry_space_group_name_H-M "C 2/C"
_symmetry_group_IT_number 15
_symmetry_cell_setting 'monoclinic'
loop_
_space_group_symop_operation_xyz
x,y,z
-x,y,1/2-z
-x,-y,-z
x,-y,1/2+z
1/2+x,1/2+y,z
1/2-x,1/2+y,1/2-z
1/2-x,1/2-y,-z
1/2+x,1/2-y,1/2+z
loop_
_atom_site_type_symbol
_atom_site_label
_atom_site_fract_x
_atom_site_fract_y
_atom_site_fract_z
Si Si1 0.611027 0.778883 0.051482
Si Si2 0.848194 0.410065 0.037563
Si Si3 0.955652 0.283261 0.612323
Si Si4 0.500000 0.648204 0.750000
Si Si5 0.354748 0.463635 0.694863
Si Si6 0.176149 0.892091 0.409197
Si Si7 0.687098 0.077458 0.514216
O O1 0.535063 0.811120 0.331227
O O2 0.677054 0.844327 0.927500
O O3 0.604152 0.766690 0.881778
O O4 0.633619 0.690702 0.061895
O O5 0.768415 0.374255 0.159168
O O6 0.846132 0.406763 0.230298
O O7 0.921790 0.355586 0.803344
O O8 0.859389 0.501994 0.948043
O O9 0.970530 0.203245 0.678957
O O10 0.570149 0.589401 0.529888
O O11 0.364365 0.561012 0.637069
O O12 0.335208 0.457201 0.924535
O O13 0.279648 0.435122 0.781736
#
# Coordination Sequence:
#
# PCOD8146604 Si02
#       7
#     8   8   8   4   8   8   8
#     4  11  24  43  65  95 140 169 228 277 333 390
#     4  10  22  41  69  95 134 174 222 272 335 391
#     4  11  25  41  63  99 131 176 219 277 330 399
#     4  12  24  42  64  96 132 178 226 268 330 398
#     4  10  24  41  66  95 137 177 223 271 333 395
#     4  10  23  43  64  98 132 177 221 277 327 393
#     4  10  22  43  68  99 133 176 225 274 332 398
#
# _framework density 21.669502000000001
#
# number of rings (size 3 to 8) (size 9 to 14) (size 15 to 20)
#    0.000    1.538    1.538    1.846    4.308    5.538 
#    0.000    1.538    0.000    0.000    0.000    0.000 
#    0.000    0.000    0.000    0.000    0.000    0.000 
#
# Total GULP energy -322367.563700 kJ/mol
# GULP energy per Si atom -12398.752450 kJ/mol
# Density = 2.162018 g / cm^3
# Si number density = 21.669502 Si / 1000 Ang^3
#
#
#
# Elastic Constant Matrix: (Units=GPa)
#
#
# Indices 1 2 3 4 5 6 
#
# 1 83.6494 48.1006 26.8580 0.0000 8.7810 0.0000
# 2 48.1006 141.6368 49.8924 0.0000 -10.6933 0.0000
# 3 26.8580 49.8924 96.9218 0.0000 -4.1553 0.0000
# 4 0.0000 0.0000 0.0000 36.0608 0.0000 0.9583
# 5 8.7810 -10.6933 -4.1553 0.0000 24.7579 0.0000
# 6 0.0000 0.0000 0.0000 0.9583 0.0000 42.2114
#
#
#
# Elastic Compliance Matrix: (Units=1/GPa)
#
#
# Indices 1 2 3 4 5 6 
#
# 1 0.016781 -0.005604 -0.002139 0.000000 -0.008731 0.000000
# 2 -0.005604 0.010723 -0.003710 0.000000 0.005997 0.000000
# 3 -0.002139 -0.003710 0.012877 0.000000 0.001318 0.000000
# 4 0.000000 0.000000 0.000000 0.027748 0.000000 -0.000630
# 5 -0.008731 0.005997 0.001318 0.000000 0.046299 0.000000
# 6 0.000000 0.000000 0.000000 -0.000630 0.000000 0.023705
#
#
# Mechanical properties :
#
#
# Convention : Reuss Voigt Hill
#
# Bulk Modulus (GPa) = 57.23052 63.54555 60.38804
# Shear Modulus (GPa) = 29.96454 33.76317 31.86386
#
# Velocity S-wave (km/s) = 3.72263 3.95155 3.83880
# Velocity P-wave (km/s) = 6.70413 7.08578 6.89759
#
# Compressibility (1/GPa) = 0.01747319
#
# Stress axis : x y z
#
# Youngs Moduli (GPa) = 59.59170 93.25636 77.65990
#
# Poissons Ratio (x) = 0.52265 0.16615
# Poissons Ratio (y) = 0.33398 0.28810
# Poissons Ratio (z) = 0.12750 0.34596
#
# Static dielectric constant tensor:
#      x y z
#    x 4.055290 0.000000 0.065460 
#    y 0.000000 3.788900 0.000000 
#    z 0.065460 0.000000 3.852070 
# 
# 
# High freq. dielectric constant tensor:
#      x y z
#    x 1.854560 0.000000 0.007600 
#    y 0.000000 1.849820 0.000000 
#    z 0.007600 0.000000 1.855960 
# 
# From -- ./inp_files/70086.got.cif
#   From: 2010.06.25/outbox.cif.g09.slc.cpg/sg15_36_cif.got.tgz:70086.got - 2010.06.28 07:06:18.
