data_PCOD8146705
_publ_section_title
;
Structure prediction by ZEFSAII (Michael W. Deem and Ramdas Pophale) SiO2 
 PCOD8146705
Probable space group: C 2/C
;
_chemical_formula_sum "Si O2"
_cell_formula_units_Z 52
_cell_length_a 15.415885
_cell_length_b 8.615300
_cell_length_c 32.843018
_cell_angle_alpha 90.000000
_cell_angle_beta 142.941875
_cell_angle_gamma 90.000000
_cell_volume 2628.627232
_symmetry_space_group_name_H-M "C 2/C"
_symmetry_group_IT_number 15
_symmetry_cell_setting 'monoclinic'
loop_
_space_group_symop_operation_xyz
x,y,z
-x,y,1/2-z
-x,-y,-z
x,-y,1/2+z
1/2+x,1/2+y,z
1/2-x,1/2+y,1/2-z
1/2-x,1/2-y,-z
1/2+x,1/2-y,1/2+z
loop_
_atom_site_type_symbol
_atom_site_label
_atom_site_fract_x
_atom_site_fract_y
_atom_site_fract_z
Si Si1 0.463675 0.791932 0.576481
Si Si2 0.591505 0.769023 0.708989
Si Si3 0.352928 0.886297 0.263979
Si Si4 0.347462 0.228382 0.597260
Si Si5 0.000000 0.079751 0.750000
Si Si6 0.203365 0.994202 0.981450
Si Si7 0.723908 0.685552 0.339901
O O1 0.479285 0.803858 0.630995
O O2 0.417449 0.615533 0.548396
O O3 0.609536 0.838406 0.608412
O O4 0.342746 0.913397 0.517207
O O5 0.716991 0.656803 0.740484
O O6 0.505139 0.687458 0.712508
O O7 0.657169 0.931200 0.749096
O O8 0.493771 0.843386 0.342501
O O9 0.353750 0.798683 0.221253
O O10 0.239175 0.117471 0.532438
O O11 0.357208 0.395768 0.579206
O O12 0.285270 0.241631 0.619109
O O13 0.855609 0.978907 0.692347
#
# Coordination Sequence:
#
# PCOD8146705 Si02
#       7
#     8   8   8   8   4   8   8
#     4  10  22  42  62  91 123 168 213 252 307 371
#     4  11  24  39  65  92 127 159 211 258 320 373
#     4  11  23  41  65  94 124 167 201 264 321 369
#     4  11  22  41  63  90 128 162 212 255 304 372
#     4  12  24  38  62 102 120 164 196 264 330 366
#     4  10  23  40  65  85 123 177 208 250 304 367
#     4  11  24  40  66  93 130 156 207 265 316 365
#
# _framework density 19.782188000000001
#
# number of rings (size 3 to 8) (size 9 to 14) (size 15 to 20)
#    0.000    1.231    3.077    2.769    6.462    1.231 
#    0.000    0.000    0.000    0.000    0.000    0.000 
#    0.000    0.000    0.000    0.000    0.000    0.000 
#
# Total GULP energy -322551.771238 kJ/mol
# GULP energy per Si atom -12405.837355 kJ/mol
# Density = 1.973716 g / cm^3
# Si number density = 19.782188 Si / 1000 Ang^3
#
#
#
# Elastic Constant Matrix: (Units=GPa)
#
#
# Indices 1 2 3 4 5 6 
#
# 1 103.6381 48.4661 40.7662 0.0000 1.2517 0.0000
# 2 48.4661 136.1598 29.5180 0.0001 6.1084 -0.0001
# 3 40.7662 29.5180 73.5805 0.0000 2.5147 0.0000
# 4 0.0000 0.0001 0.0000 27.4445 0.0000 3.2979
# 5 1.2517 6.1084 2.5147 0.0000 37.2818 0.0000
# 6 0.0000 -0.0001 0.0000 3.2979 0.0000 33.2933
#
#
#
# Elastic Compliance Matrix: (Units=1/GPa)
#
#
# Indices 1 2 3 4 5 6 
#
# 1 0.013755 -0.003575 -0.006205 0.000000 0.000542 0.000000
# 2 -0.003575 0.009019 -0.001594 0.000000 -0.001250 0.000000
# 3 -0.006205 -0.001594 0.017693 0.000000 -0.000724 0.000000
# 4 0.000000 0.000000 0.000000 0.036876 0.000000 -0.003653
# 5 0.000542 -0.001250 -0.000724 0.000000 0.027058 0.000000
# 6 0.000000 0.000000 0.000000 -0.003653 0.000000 0.030398
#
#
# Mechanical properties :
#
#
# Convention : Reuss Voigt Hill
#
# Bulk Modulus (GPa) = 56.44306 61.20878 58.82592
# Shear Modulus (GPa) = 30.58963 32.57912 31.58438
#
# Velocity S-wave (km/s) = 3.93660 4.06259 4.00009
# Velocity P-wave (km/s) = 7.01830 7.28112 7.15092
#
# Compressibility (1/GPa) = 0.01771697
#
# Stress axis : x y z
#
# Youngs Moduli (GPa) = 72.69996 110.88112 56.52023
#
# Poissons Ratio (x) = 0.39643 0.35071
# Poissons Ratio (y) = 0.25992 0.09012
# Poissons Ratio (z) = 0.45111 0.17679
#
# Static dielectric constant tensor:
#      x y z
#    x 3.453620 0.000000 -0.033800 
#    y 0.000000 3.764990 0.000000 
#    z -0.033800 0.000000 3.745770 
# 
# 
# High freq. dielectric constant tensor:
#      x y z
#    x 1.762520 0.000000 0.001530 
#    y 0.000000 1.786910 0.000000 
#    z 0.001530 0.000000 1.778390 
# 
# From -- ./inp_files/242515.got.cif
#   From: 2010.06.25/outbox.cif.g09.slc.cpg/sg15_122_cif.got.tgz:242515.got - 2010.06.28 07:06:18.
