data_PCOD8146563
_publ_section_title
;
Structure prediction by ZEFSAII (Michael W. Deem and Ramdas Pophale) SiO2 
 PCOD8146563
Probable space group: C 2/C
;
_chemical_formula_sum "Si O2"
_cell_formula_units_Z 48
_cell_length_a 20.879432
_cell_length_b 22.941813
_cell_length_c 5.229528
_cell_angle_alpha 90.000000
_cell_angle_beta 53.359664
_cell_angle_gamma 90.000000
_cell_volume 2010.011280
_symmetry_space_group_name_H-M "C 2/C"
_symmetry_group_IT_number 15
_symmetry_cell_setting 'monoclinic'
loop_
_space_group_symop_operation_xyz
x,y,z
-x,y,1/2-z
-x,-y,-z
x,-y,1/2+z
1/2+x,1/2+y,z
1/2-x,1/2+y,1/2-z
1/2-x,1/2-y,-z
1/2+x,1/2-y,1/2+z
loop_
_atom_site_type_symbol
_atom_site_label
_atom_site_fract_x
_atom_site_fract_y
_atom_site_fract_z
Si Si1 0.144484 0.129096 0.446707
Si Si2 0.500000 0.459932 0.250000
Si Si3 0.000000 0.326057 0.750000
Si Si4 0.354705 0.190069 0.299392
Si Si5 0.765242 0.533521 0.090290
Si Si6 0.920038 0.588947 0.828581
Si Si7 0.680371 0.695572 0.872949
O O1 0.229280 0.097520 0.210912
O O2 0.142132 0.160845 0.724908
O O3 0.076883 0.080803 0.579276
O O4 0.137547 0.176066 0.235549
O O5 0.500000 0.500000 0.500000
O O6 0.935613 0.287032 0.749090
O O7 0.056242 0.365653 0.442741
O O8 0.337450 0.235673 0.112538
O O9 0.276060 0.186559 0.665000
O O10 0.373019 0.124820 0.159906
O O11 0.735606 0.492776 0.393064
O O12 0.861569 0.538948 0.861679
O O13 0.000000 0.558620 0.750000
#
# Coordination Sequence:
#
# PCOD8146563 Si02
#       7
#     8   4   4   8   8   8   8
#     4  12  25  47  69 105 136 178 230 295 341 421
#     4  12  26  49  74  98 140 186 233 294 368 410
#     4  10  22  41  68  92 146 180 227 268 342 406
#     4  10  23  42  67 103 136 192 221 279 342 419
#     4  12  26  43  70  97 130 175 231 282 336 398
#     4  10  23  42  65  96 140 179 226 274 336 406
#     4  11  25  42  75 100 142 176 235 278 345 412
#
# _framework density 23.880464
#
# number of rings (size 3 to 8) (size 9 to 14) (size 15 to 20)
#    0.000    1.000    1.667    4.000    7.000    2.667 
#    6.000    0.000    0.000    0.000    0.000    0.000 
#    0.000    0.000    0.000    0.000    0.000    0.000 
#
# Total GULP energy -297633.597680 kJ/mol
# GULP energy per Si atom -12401.399903 kJ/mol
# Density = 2.382611 g / cm^3
# Si number density = 23.880464 Si / 1000 Ang^3
#
#
#
# Elastic Constant Matrix: (Units=GPa)
#
#
# Indices 1 2 3 4 5 6 
#
# 1 111.9437 9.4906 36.8633 0.0000 -1.8136 0.0000
# 2 9.4906 38.0560 5.9322 0.0000 2.4866 0.0000
# 3 36.8633 5.9322 73.0673 0.0000 6.9902 0.0000
# 4 0.0000 0.0000 0.0000 34.8755 0.0000 -1.0210
# 5 -1.8136 2.4866 6.9902 0.0000 32.6398 0.0000
# 6 0.0000 0.0000 0.0000 -1.0210 0.0000 43.3654
#
#
#
# Elastic Compliance Matrix: (Units=1/GPa)
#
#
# Indices 1 2 3 4 5 6 
#
# 1 0.010963 -0.001996 -0.005556 0.000000 0.001951 0.000000
# 2 -0.001996 0.027059 -0.001003 0.000000 -0.001958 0.000000
# 3 -0.005556 -0.001003 0.016940 0.000000 -0.003860 0.000000
# 4 0.000000 0.000000 0.000000 0.028693 0.000000 0.000676
# 5 0.001951 -0.001958 -0.003860 0.000000 0.031722 0.000000
# 6 0.000000 0.000000 0.000000 0.000676 0.000000 0.023076
#
#
# Mechanical properties :
#
#
# Convention : Reuss Voigt Hill
#
# Bulk Modulus (GPa) = 26.41750 36.40436 31.41093
# Shear Modulus (GPa) = 29.73025 33.56152 31.64589
#
# Velocity S-wave (km/s) = 3.53223 3.75293 3.64425
# Velocity P-wave (km/s) = 5.26516 5.83582 5.55782
#
# Compressibility (1/GPa) = 0.03785369
#
# Stress axis : x y z
#
# Youngs Moduli (GPa) = 91.21274 36.95636 59.03300
#
# Poissons Ratio (x) = 0.07375 0.32797
# Poissons Ratio (y) = 0.18202 0.05920
# Poissons Ratio (z) = 0.50676 0.03706
#
# Static dielectric constant tensor:
#      x y z
#    x 4.732510 0.000000 0.064440 
#    y 0.000000 4.012200 0.000000 
#    z 0.064440 0.000000 4.451140 
# 
# 
# High freq. dielectric constant tensor:
#      x y z
#    x 1.964040 0.000000 -0.002610 
#    y 0.000000 1.936240 0.000000 
#    z -0.002610 0.000000 1.945220 
# 
# From -- ./inp_files/13830.got.cif
#   From: 2010.06.25/outbox.cif.g09.slc.cpg/sg15_7_cif.got.tgz:13830.got - 2010.06.28 07:06:18.
