data_PCOD8146751
_publ_section_title
;
Structure prediction by ZEFSAII (Michael W. Deem and Ramdas Pophale) SiO2 
 PCOD8146751
Probable space group: C 2/C
;
_chemical_formula_sum "Si O2"
_cell_formula_units_Z 44
_cell_length_a 11.716286
_cell_length_b 12.746791
_cell_length_c 14.341065
_cell_angle_alpha 90.000000
_cell_angle_beta 71.854016
_cell_angle_gamma 90.000000
_cell_volume 2035.248594
_symmetry_space_group_name_H-M "C 2/C"
_symmetry_group_IT_number 15
_symmetry_cell_setting 'monoclinic'
loop_
_space_group_symop_operation_xyz
x,y,z
-x,y,1/2-z
-x,-y,-z
x,-y,1/2+z
1/2+x,1/2+y,z
1/2-x,1/2+y,1/2-z
1/2-x,1/2-y,-z
1/2+x,1/2-y,1/2+z
loop_
_atom_site_type_symbol
_atom_site_label
_atom_site_fract_x
_atom_site_fract_y
_atom_site_fract_z
Si Si1 0.132835 0.479520 0.425975
Si Si2 0.281698 0.907896 0.432295
Si Si3 0.685099 0.745867 0.417968
Si Si4 0.572208 0.280967 0.559392
Si Si5 0.257630 0.443235 0.723629
Si Si6 0.500000 0.592450 0.250000
O O1 0.226388 0.502896 0.486156
O O2 0.166266 0.362795 0.382218
O O3 0.161591 0.558172 0.332749
O O4 0.000000 0.500000 0.500000
O O5 0.402600 0.841229 0.423114
O O6 0.170706 0.828362 0.465110
O O7 0.284420 0.963173 0.332351
O O8 0.750000 0.750000 0.500000
O O9 0.550907 0.701436 0.465637
O O10 0.750782 0.670290 0.325907
O O11 0.572487 0.337153 0.658745
O O12 0.393668 0.471516 0.724574
#
# Coordination Sequence:
#
# PCOD8146751 Si02
#       6
#     8   8   8   8   8   4
#     4  12  25  46  70 102 142 183 235 294 352 431
#     4  11  23  43  70  98 134 180 234 280 359 413
#     4  11  24  45  68 102 143 180 236 295 352 425
#     4  10  23  40  70  98 134 177 230 285 341 423
#     4  11  26  42  72  99 139 185 229 292 358 411
#     4  10  22  42  64 100 134 176 232 280 342 426
#
# _framework density 21.618981999999999
#
# number of rings (size 3 to 8) (size 9 to 14) (size 15 to 20)
#    0.000    1.091    5.455    0.000    5.091    5.091 
#    0.000    0.000    0.000    0.000    0.000    0.000 
#    0.000    0.000    0.000    0.000    0.000    0.000 
#
# Total GULP energy -272676.150909 kJ/mol
# GULP energy per Si atom -12394.370496 kJ/mol
# Density = 2.156978 g / cm^3
# Si number density = 21.618982 Si / 1000 Ang^3
#
#
#
# Elastic Constant Matrix: (Units=GPa)
#
#
# Indices 1 2 3 4 5 6 
#
# 1 106.6631 41.0582 62.0877 0.0000 11.2868 0.0000
# 2 41.0582 97.9424 44.3875 0.0000 -6.3212 0.0000
# 3 62.0877 44.3875 138.9453 0.0000 -0.7230 0.0000
# 4 0.0000 0.0000 0.0000 35.3829 0.0000 0.0777
# 5 11.2868 -6.3212 -0.7230 0.0000 37.6117 0.0000
# 6 0.0000 0.0000 0.0000 0.0777 0.0000 25.4161
#
#
#
# Elastic Compliance Matrix: (Units=1/GPa)
#
#
# Indices 1 2 3 4 5 6 
#
# 1 0.014517 -0.004052 -0.005219 0.000000 -0.005138 0.000000
# 2 -0.004052 0.013212 -0.002392 0.000000 0.003390 0.000000
# 3 -0.005219 -0.002392 0.010301 0.000000 0.001362 0.000000
# 4 0.000000 0.000000 0.000000 0.028262 0.000000 -0.000086
# 5 -0.005138 0.003390 0.001362 0.000000 0.028725 0.000000
# 6 0.000000 0.000000 0.000000 -0.000086 0.000000 0.039345
#
#
# Mechanical properties :
#
#
# Convention : Reuss Voigt Hill
#
# Bulk Modulus (GPa) = 68.01657 70.95752 69.48704
# Shear Modulus (GPa) = 30.75234 32.74996 31.75115
#
# Velocity S-wave (km/s) = 3.77566 3.89636 3.83648
# Velocity P-wave (km/s) = 7.10895 7.28939 7.19974
#
# Compressibility (1/GPa) = 0.01470230
#
# Stress axis : x y z
#
# Youngs Moduli (GPa) = 68.88657 75.69062 97.08166
#
# Poissons Ratio (x) = 0.30668 0.50668
# Poissons Ratio (y) = 0.27911 0.23226
# Poissons Ratio (z) = 0.35953 0.18108
#
# Static dielectric constant tensor:
#      x y z
#    x 3.985620 0.000000 0.095390 
#    y 0.000000 4.028270 0.000000 
#    z 0.095390 0.000000 3.760260 
# 
# 
# High freq. dielectric constant tensor:
#      x y z
#    x 1.852480 0.000000 0.010080 
#    y 0.000000 1.846410 0.000000 
#    z 0.010080 0.000000 1.844580 
# 
# From -- ./inp_files/142240.got.cif
#   From: 2010.06.25/outbox.cif.g09.slc.cpg/sg15_72_cif.got.tgz:142240.got - 2010.06.28 07:06:18.
