data_PCOD8146936
_publ_section_title
;
Structure prediction by ZEFSAII (Michael W. Deem and Ramdas Pophale) SiO2 
 PCOD8146936
Probable space group: C 2/C
;
_chemical_formula_sum "Si O2"
_cell_formula_units_Z 48
_cell_length_a 29.059872
_cell_length_b 11.429801
_cell_length_c 14.928138
_cell_angle_alpha 90.000000
_cell_angle_beta 26.733705
_cell_angle_gamma 90.000000
_cell_volume 2230.490522
_symmetry_space_group_name_H-M "C 2/C"
_symmetry_group_IT_number 15
_symmetry_cell_setting 'monoclinic'
loop_
_space_group_symop_operation_xyz
x,y,z
-x,y,1/2-z
-x,-y,-z
x,-y,1/2+z
1/2+x,1/2+y,z
1/2-x,1/2+y,1/2-z
1/2-x,1/2-y,-z
1/2+x,1/2-y,1/2+z
loop_
_atom_site_type_symbol
_atom_site_label
_atom_site_fract_x
_atom_site_fract_y
_atom_site_fract_z
Si Si1 0.389396 0.872752 0.419307
Si Si2 0.084302 0.135538 0.672986
Si Si3 0.690224 0.853486 0.755285
Si Si4 0.347513 0.922194 0.294307
Si Si5 0.874826 0.127284 0.366033
Si Si6 0.490158 0.270670 0.009859
O O1 0.500000 0.926502 0.250000
O O2 0.314700 0.898228 0.633206
O O3 0.349183 0.935868 0.399511
O O4 0.403243 0.733250 0.382098
O O5 0.195161 0.193675 0.462116
O O6 0.045644 0.172752 0.836450
O O7 0.000000 0.181275 0.750000
O O8 0.100430 0.996687 0.632219
O O9 0.609248 0.749682 0.880086
O O10 0.654403 0.951240 0.746929
O O11 0.244610 0.855053 0.446869
O O12 0.445470 0.849480 0.088726
O O13 0.938194 0.135271 0.163719
#
# Coordination Sequence:
#
# PCOD8146936 Si02
#       6
#     8   8   8   8   8   8
#     4  11  20  38  71  92 118 167 217 254 303 374
#     4  11  26  41  59  95 128 161 207 260 319 368
#     4  11  24  43  63  94 129 165 209 256 315 373
#     4  10  23  41  65  95 127 163 209 261 309 368
#     4  10  22  42  67  89 123 166 211 255 309 376
#     4  11  21  42  65  87 128 165 207 259 314 367
#
# _framework density 21.519929999999999
#
# number of rings (size 3 to 8) (size 9 to 14) (size 15 to 20)
#    0.000    1.333    3.333    4.000    4.667    0.000 
#    3.000    0.000    0.000    0.000    0.000    0.000 
#    0.000    0.000    0.000    0.000    0.000    0.000 
#
# Total GULP energy -297591.049395 kJ/mol
# GULP energy per Si atom -12399.627058 kJ/mol
# Density = 2.147095 g / cm^3
# Si number density = 21.519930 Si / 1000 Ang^3
#
#
#
# Elastic Constant Matrix: (Units=GPa)
#
#
# Indices 1 2 3 4 5 6 
#
# 1 118.6249 21.1664 46.3656 0.0000 7.8921 0.0000
# 2 21.1664 29.6746 11.8125 0.0000 3.7378 0.0000
# 3 46.3656 11.8125 148.8950 0.0000 -6.9737 0.0000
# 4 0.0000 0.0000 0.0000 22.4709 0.0000 3.2230
# 5 7.8921 3.7378 -6.9737 0.0000 50.7428 0.0000
# 6 0.0000 0.0000 0.0000 3.2230 0.0000 22.9951
#
#
#
# Elastic Compliance Matrix: (Units=1/GPa)
#
#
# Indices 1 2 3 4 5 6 
#
# 1 0.010819 -0.006342 -0.002942 0.000000 -0.001620 0.000000
# 2 -0.006342 0.038963 -0.001212 0.000000 -0.002050 0.000000
# 3 -0.002942 -0.001212 0.007804 0.000000 0.001619 0.000000
# 4 0.000000 0.000000 0.000000 0.045415 0.000000 -0.006365
# 5 -0.001620 -0.002050 0.001619 0.000000 0.020333 0.000000
# 6 0.000000 0.000000 0.000000 -0.006365 0.000000 0.044380
#
#
# Mechanical properties :
#
#
# Convention : Reuss Voigt Hill
#
# Bulk Modulus (GPa) = 27.32647 50.65373 38.99010
# Shear Modulus (GPa) = 24.88742 33.76509 29.32625
#
# Velocity S-wave (km/s) = 3.40440 3.96538 3.69555
# Velocity P-wave (km/s) = 5.30839 6.67494 6.03050
#
# Compressibility (1/GPa) = 0.03659455
#
# Stress axis : x y z
#
# Youngs Moduli (GPa) = 92.42870 25.66509 128.13573
#
# Poissons Ratio (x) = 0.16277 0.37695
# Poissons Ratio (y) = 0.58619 0.15534
# Poissons Ratio (z) = 0.27190 0.03111
#
# Static dielectric constant tensor:
#      x y z
#    x 3.900560 0.000000 -0.143630 
#    y 0.000000 3.533030 0.000000 
#    z -0.143630 0.000000 4.183330 
# 
# 
# High freq. dielectric constant tensor:
#      x y z
#    x 1.851310 0.000000 -0.007340 
#    y 0.000000 1.814450 0.000000 
#    z -0.007340 0.000000 1.865540 
# 
# From -- ./inp_files/177742.got.cif
#   From: 2010.06.25/outbox.cif.g09.slc.cpg/sg15_89_cif.got.tgz:177742.got - 2010.06.28 07:06:18.
