data_PCOD8146241
_publ_section_title
;
Structure prediction by ZEFSAII (Michael W. Deem and Ramdas Pophale) SiO2 
 PCOD8146241
Probable space group: C 2/C
;
_chemical_formula_sum "Si O2"
_cell_formula_units_Z 60
_cell_length_a 8.271423
_cell_length_b 16.202004
_cell_length_c 22.268229
_cell_angle_alpha 90.000000
_cell_angle_beta 107.848186
_cell_angle_gamma 90.000000
_cell_volume 2840.620265
_symmetry_space_group_name_H-M "C 2/C"
_symmetry_group_IT_number 15
_symmetry_cell_setting 'monoclinic'
loop_
_space_group_symop_operation_xyz
x,y,z
-x,y,1/2-z
-x,-y,-z
x,-y,1/2+z
1/2+x,1/2+y,z
1/2-x,1/2+y,1/2-z
1/2-x,1/2-y,-z
1/2+x,1/2-y,1/2+z
loop_
_atom_site_type_symbol
_atom_site_label
_atom_site_fract_x
_atom_site_fract_y
_atom_site_fract_z
Si Si1 0.333075 0.116055 0.910026
Si Si2 0.158656 0.669998 0.012496
Si Si3 0.237642 0.767234 0.853877
Si Si4 0.000000 0.118905 0.250000
Si Si5 0.118304 0.980766 0.957442
Si Si6 0.632153 0.503420 0.170267
Si Si7 0.060392 0.402930 0.325507
Si Si8 0.987919 0.824073 0.180299
O O1 0.238019 0.052215 0.943409
O O2 0.415316 0.074876 0.858491
O O3 0.199860 0.183284 0.869535
O O4 0.467161 0.164562 0.966556
O O5 0.173391 0.677735 0.085256
O O6 0.258429 0.589058 0.002936
O O7 0.250000 0.750000 0.000000
O O8 0.100196 0.823630 0.806526
O O9 0.150767 0.679573 0.862887
O O10 0.397465 0.747966 0.831752
O O11 0.865202 0.061104 0.270495
O O12 0.987835 0.950311 0.891380
O O13 0.000000 0.000000 0.000000
O O14 0.818961 0.483921 0.164886
O O15 0.554524 0.415365 0.176919
O O16 0.000000 0.383483 0.250000
O O17 0.000000 0.802788 0.250000
#
# Coordination Sequence:
#
# PCOD8146241 Si02
#       8
#     8   8   8   4   8   8   8   8
#     4  11  24  43  72  96 138 179 232 282 337 407
#     4  12  25  43  67  97 137 178 228 280 346 403
#     4  11  24  41  67  99 141 178 221 284 349 406
#     4  12  22  44  68 104 138 182 216 298 344 390
#     4  11  25  46  68  97 135 185 231 280 337 411
#     4  10  22  40  70  95 135 177 232 277 340 404
#     4  11  22  40  72 102 131 183 230 275 345 421
#     4  10  22  42  67  97 132 183 227 273 338 419
#
# _framework density 21.122146000000001
#
# number of rings (size 3 to 8) (size 9 to 14) (size 15 to 20)
#    0.000    1.067    4.000    2.800    5.600    0.533 
#    0.000    2.000    0.000    0.000    0.000    0.000 
#    0.000    0.000    0.000    0.000    0.000    0.000 
#
# Total GULP energy -371769.137818 kJ/mol
# GULP energy per Si atom -12392.304594 kJ/mol
# Density = 2.107407 g / cm^3
# Si number density = 21.122146 Si / 1000 Ang^3
#
#
#
# Elastic Constant Matrix: (Units=GPa)
#
#
# Indices 1 2 3 4 5 6 
#
# 1 127.4892 37.4370 54.5526 0.0000 -14.2913 0.0000
# 2 37.4370 73.1838 35.0502 0.0000 -3.1024 0.0000
# 3 54.5526 35.0502 120.0959 0.0000 1.8734 0.0000
# 4 0.0000 0.0000 0.0000 20.5722 0.0000 -3.9332
# 5 -14.2913 -3.1024 1.8734 0.0000 46.9338 0.0000
# 6 0.0000 0.0000 0.0000 -3.9332 0.0000 32.1103
#
#
#
# Elastic Compliance Matrix: (Units=1/GPa)
#
#
# Indices 1 2 3 4 5 6 
#
# 1 0.010962 -0.003558 -0.003992 0.000000 0.003262 0.000000
# 2 -0.003558 0.017111 -0.003381 0.000000 0.000183 0.000000
# 3 -0.003992 -0.003381 0.011156 0.000000 -0.001884 0.000000
# 4 0.000000 0.000000 0.000000 0.049775 0.000000 0.006097
# 5 0.003262 0.000183 -0.001884 0.000000 0.022387 0.000000
# 6 0.000000 0.000000 0.000000 0.006097 0.000000 0.031889
#
#
# Mechanical properties :
#
#
# Convention : Reuss Voigt Hill
#
# Bulk Modulus (GPa) = 57.57506 63.87207 60.72356
# Shear Modulus (GPa) = 29.25142 32.83851 31.04497
#
# Velocity S-wave (km/s) = 3.72542 3.94724 3.83793
# Velocity P-wave (km/s) = 6.76922 7.14698 6.96066
#
# Compressibility (1/GPa) = 0.01736863
#
# Stress axis : x y z
#
# Youngs Moduli (GPa) = 91.22069 58.44207 89.63639
#
# Poissons Ratio (x) = 0.20791 0.35785
# Poissons Ratio (y) = 0.32452 0.30304
# Poissons Ratio (z) = 0.36417 0.19758
#
# Static dielectric constant tensor:
#      x y z
#    x 4.075930 0.000000 0.183730 
#    y 0.000000 6.168980 0.000000 
#    z 0.183730 0.000000 3.654570 
# 
# 
# High freq. dielectric constant tensor:
#      x y z
#    x 1.833930 0.000000 0.000500 
#    y 0.000000 1.806280 0.000000 
#    z 0.000500 0.000000 1.850420 
# 
# From -- ./inp_files/264748.got.cif
#   From: 2010.06.25/outbox.cif.g09.slc.cpg/sg15_133_cif.got.tgz:264748.got - 2010.06.28 07:06:18.
