data_PCOD8146778
_publ_section_title
;
Structure prediction by ZEFSAII (Michael W. Deem and Ramdas Pophale) SiO2 
 PCOD8146778
Probable space group: C 2/C
;
_chemical_formula_sum "Si O2"
_cell_formula_units_Z 40
_cell_length_a 5.463698
_cell_length_b 24.739509
_cell_length_c 13.444459
_cell_angle_alpha 90.000000
_cell_angle_beta 77.758310
_cell_angle_gamma 90.000000
_cell_volume 1775.955368
_symmetry_space_group_name_H-M "C 2/C"
_symmetry_group_IT_number 15
_symmetry_cell_setting 'monoclinic'
loop_
_space_group_symop_operation_xyz
x,y,z
-x,y,1/2-z
-x,-y,-z
x,-y,1/2+z
1/2+x,1/2+y,z
1/2-x,1/2+y,1/2-z
1/2-x,1/2-y,-z
1/2+x,1/2-y,1/2+z
loop_
_atom_site_type_symbol
_atom_site_label
_atom_site_fract_x
_atom_site_fract_y
_atom_site_fract_z
Si Si1 0.404045 0.712514 0.867907
Si Si2 0.222125 0.916955 0.805475
Si Si3 0.221887 0.954911 0.306074
Si Si4 0.070030 0.701901 0.488457
Si Si5 0.916916 0.880801 0.008811
O O1 0.500000 0.707515 0.750000
O O2 0.426656 0.775333 0.902684
O O3 0.554969 0.669355 0.919785
O O4 0.115409 0.695233 0.901306
O O5 0.500000 0.896640 0.750000
O O6 0.000000 0.898060 0.750000
O O7 0.219988 0.981128 0.813231
O O8 0.159504 0.893699 0.920809
O O9 0.500000 0.934647 0.250000
O O10 0.165400 0.933178 0.421788
O O11 0.000000 0.934994 0.250000
O O12 0.250000 0.750000 0.500000
O O13 0.195588 0.643059 0.456334
#
# Coordination Sequence:
#
# PCOD8146778 Si02
#       5
#     8   8   8   8   8
#     4  10  22  42  64  91 132 166 218 276 335 390
#     4  10  24  45  63  95 139 178 220 272 330 393
#     4  10  23  41  67 100 135 174 216 272 337 390
#     4   9  22  42  58  92 126 166 217 265 337 391
#     4  11  23  38  66  96 127 172 228 268 326 398
#
# _framework density 22.523088000000001
#
# number of rings (size 3 to 8) (size 9 to 14) (size 15 to 20)
#    0.000    2.000    0.000    1.200    8.400    2.400 
#   10.800    6.000    0.000    0.000    0.000    0.000 
#    0.000    0.000    0.000    0.000    0.000    0.000 
#
# Total GULP energy -247786.603315 kJ/mol
# GULP energy per Si atom -12389.330166 kJ/mol
# Density = 2.247182 g / cm^3
# Si number density = 22.523088 Si / 1000 Ang^3
#
#
#
# Elastic Constant Matrix: (Units=GPa)
#
#
# Indices 1 2 3 4 5 6 
#
# 1 138.1381 23.5391 58.8396 0.0000 -30.9065 0.0000
# 2 23.5391 29.8002 38.9789 0.0000 -3.2051 0.0000
# 3 58.8396 38.9789 180.5651 0.0000 -36.6472 0.0000
# 4 0.0000 0.0000 0.0000 12.5413 0.0000 -4.3560
# 5 -30.9065 -3.2051 -36.6472 0.0000 40.1878 0.0000
# 6 0.0000 0.0000 0.0000 -4.3560 0.0000 25.5392
#
#
#
# Elastic Compliance Matrix: (Units=1/GPa)
#
#
# Indices 1 2 3 4 5 6 
#
# 1 0.010091 -0.006608 -0.000483 0.000000 0.006793 0.000000
# 2 -0.006608 0.052615 -0.011516 0.000000 -0.011387 0.000000
# 3 -0.000483 -0.011516 0.009718 0.000000 0.007572 0.000000
# 4 0.000000 0.000000 0.000000 0.084757 0.000000 0.014456
# 5 0.006793 -0.011387 0.007572 0.000000 0.036104 0.000000
# 6 0.000000 0.000000 0.000000 0.014456 0.000000 0.041621
#
#
# Mechanical properties :
#
#
# Convention : Reuss Voigt Hill
#
# Bulk Modulus (GPa) = 28.40125 65.69096 47.04610
# Shear Modulus (GPa) = 17.61452 30.79672 24.20562
#
# Velocity S-wave (km/s) = 2.79958 3.70177 3.28182
# Velocity P-wave (km/s) = 4.80493 6.89204 5.94086
#
# Compressibility (1/GPa) = 0.03520971
#
# Stress axis : x y z
#
# Youngs Moduli (GPa) = 99.10078 19.00612 102.89846
#
# Poissons Ratio (x) = 0.12560 0.04970
# Poissons Ratio (y) = 0.65489 1.18495
# Poissons Ratio (z) = 0.04787 0.21887
#
# Static dielectric constant tensor:
#      x y z
#    x 5.018880 0.000000 -0.001240 
#    y 0.000000 4.199880 0.000000 
#    z -0.001240 0.000000 4.028430 
# 
# 
# High freq. dielectric constant tensor:
#      x y z
#    x 1.897560 0.000000 -0.017270 
#    y 0.000000 1.888250 0.000000 
#    z -0.017270 0.000000 1.878020 
# 
# From -- ./inp_files/73050.got.cif
#   From: 2010.06.25/outbox.cif.g09.slc.cpg/sg15_37_cif.got.tgz:73050.got - 2010.06.28 07:06:18.
