data_PCOD8146253
_publ_section_title
;
Structure prediction by ZEFSAII (Michael W. Deem and Ramdas Pophale) SiO2 
 PCOD8146253
Probable space group: C 2/C
;
_chemical_formula_sum "Si O2"
_cell_formula_units_Z 48
_cell_length_a 22.736612
_cell_length_b 11.298497
_cell_length_c 12.922934
_cell_angle_alpha 90.000000
_cell_angle_beta 137.631836
_cell_angle_gamma 90.000000
_cell_volume 2237.164042
_symmetry_space_group_name_H-M "C 2/C"
_symmetry_group_IT_number 15
_symmetry_cell_setting 'monoclinic'
loop_
_space_group_symop_operation_xyz
x,y,z
-x,y,1/2-z
-x,-y,-z
x,-y,1/2+z
1/2+x,1/2+y,z
1/2-x,1/2+y,1/2-z
1/2-x,1/2-y,-z
1/2+x,1/2-y,1/2+z
loop_
_atom_site_type_symbol
_atom_site_label
_atom_site_fract_x
_atom_site_fract_y
_atom_site_fract_z
Si Si1 0.810009 0.331754 0.150473
Si Si2 0.115648 0.116073 0.145228
Si Si3 0.252128 0.082793 0.788551
Si Si4 0.663220 0.740859 0.824086
Si Si5 0.524911 0.550869 0.676535
Si Si6 0.601618 0.959443 0.852873
O O1 0.870155 0.248007 0.297827
O O2 0.760688 0.408758 0.174956
O O3 0.866386 0.414536 0.148819
O O4 0.750000 0.250000 0.000000
O O5 0.204138 0.041198 0.249513
O O6 0.047457 0.057731 0.134155
O O7 0.061402 0.124326 0.969060
O O8 0.191825 0.196053 0.745901
O O9 0.342340 0.078363 0.972208
O O10 0.604262 0.639714 0.797239
O O11 0.613868 0.866514 0.772738
O O12 0.750000 0.750000 0.000000
O O13 0.500000 0.487705 0.750000
O O14 0.500000 0.967511 0.750000
#
# Coordination Sequence:
#
# PCOD8146253 Si02
#       6
#     8   8   8   8   8   8
#     4  12  27  45  70  97 142 178 229 280 348 412
#     4  10  24  44  63 104 126 177 232 275 344 395
#     4  10  24  45  71  97 135 184 229 284 336 413
#     4   9  21  40  69 101 131 173 227 272 339 405
#     4  10  22  40  71  95 132 171 225 284 327 403
#     4  11  25  45  68 105 139 181 226 285 351 414
#
# _framework density 21.455736000000002
#
# number of rings (size 3 to 8) (size 9 to 14) (size 15 to 20)
#    0.000    1.667    1.667    0.500   11.667    1.333 
#    6.000    0.000    0.000    0.000    0.000    0.000 
#    0.000    0.000    0.000    0.000    0.000    0.000 
#
# Total GULP energy -297349.691816 kJ/mol
# GULP energy per Si atom -12389.570492 kJ/mol
# Density = 2.140690 g / cm^3
# Si number density = 21.455736 Si / 1000 Ang^3
#
#
#
# Elastic Constant Matrix: (Units=GPa)
#
#
# Indices 1 2 3 4 5 6 
#
# 1 126.0903 45.3115 60.2262 0.0000 3.3614 0.0000
# 2 45.3115 90.4973 3.7264 0.0000 2.6609 0.0000
# 3 60.2262 3.7264 65.9949 0.0000 -0.5913 0.0000
# 4 0.0000 0.0000 0.0000 27.3691 0.0000 0.2753
# 5 3.3614 2.6609 -0.5913 0.0000 34.7967 0.0000
# 6 0.0000 0.0000 0.0000 0.2753 0.0000 26.3920
#
#
#
# Elastic Compliance Matrix: (Units=1/GPa)
#
#
# Indices 1 2 3 4 5 6 
#
# 1 0.019428 -0.008974 -0.017237 0.000000 -0.001483 0.000000
# 2 -0.008974 0.015247 0.007327 0.000000 -0.000175 0.000000
# 3 -0.017237 0.007327 0.030483 0.000000 0.001623 0.000000
# 4 0.000000 0.000000 0.000000 0.036541 0.000000 -0.000381
# 5 -0.001483 -0.000175 0.001623 0.000000 0.028923 0.000000
# 6 0.000000 0.000000 0.000000 -0.000381 0.000000 0.037894
#
#
# Mechanical properties :
#
#
# Convention : Reuss Voigt Hill
#
# Bulk Modulus (GPa) = 36.50770 55.67896 46.09333
# Shear Modulus (GPa) = 23.21111 29.26614 26.23862
#
# Velocity S-wave (km/s) = 3.29266 3.69728 3.50082
# Velocity P-wave (km/s) = 5.61318 6.65082 6.15391
#
# Compressibility (1/GPa) = 0.02739148
#
# Stress axis : x y z
#
# Youngs Moduli (GPa) = 51.47142 65.58745 32.80475
#
# Poissons Ratio (x) = 0.58860 0.56544
# Poissons Ratio (y) = 0.46192 -0.24037
# Poissons Ratio (z) = 0.88719 -0.48058
#
# Static dielectric constant tensor:
#      x y z
#    x 4.128250 0.000000 0.065480 
#    y 0.000000 4.150260 0.000000 
#    z 0.065480 0.000000 4.009000 
# 
# 
# High freq. dielectric constant tensor:
#      x y z
#    x 1.848940 0.000000 0.002230 
#    y 0.000000 1.840480 0.000000 
#    z 0.002230 0.000000 1.840110 
# 
# From -- ./inp_files/111819.got.cif
#   From: 2010.06.25/outbox.cif.g09.slc.cpg/sg15_56_cif.got.tgz:111819.got - 2010.06.28 07:06:18.
