data_PCOD8146650
_publ_section_title
;
Structure prediction by ZEFSAII (Michael W. Deem and Ramdas Pophale) SiO2 
 PCOD8146650
Probable space group: C 2/C
;
_chemical_formula_sum "Si O2"
_cell_formula_units_Z 56
_cell_length_a 9.497216
_cell_length_b 29.491863
_cell_length_c 11.945427
_cell_angle_alpha 90.000000
_cell_angle_beta 51.828479
_cell_angle_gamma 90.000000
_cell_volume 2630.349468
_symmetry_space_group_name_H-M "C 2/C"
_symmetry_group_IT_number 15
_symmetry_cell_setting 'monoclinic'
loop_
_space_group_symop_operation_xyz
x,y,z
-x,y,1/2-z
-x,-y,-z
x,-y,1/2+z
1/2+x,1/2+y,z
1/2-x,1/2+y,1/2-z
1/2-x,1/2-y,-z
1/2+x,1/2-y,1/2+z
loop_
_atom_site_type_symbol
_atom_site_label
_atom_site_fract_x
_atom_site_fract_y
_atom_site_fract_z
Si Si1 0.089868 0.898610 0.592075
Si Si2 0.099302 0.338924 0.967838
Si Si3 0.810623 0.170349 0.148066
Si Si4 0.000000 0.533653 0.250000
Si Si5 0.460442 0.249873 0.895961
Si Si6 0.322387 0.112201 0.474659
Si Si7 0.833264 0.027842 0.624077
Si Si8 0.000000 0.072862 0.750000
O O1 0.236343 0.860108 0.544749
O O2 0.188149 0.933697 0.461052
O O3 0.000000 0.920159 0.750000
O O4 0.924213 0.875261 0.611551
O O5 0.177961 0.317917 0.814881
O O6 0.952487 0.376929 0.013970
O O7 0.988853 0.300847 0.090983
O O8 0.687988 0.156218 0.102336
O O9 0.941669 0.213948 0.069304
O O10 0.903461 0.565938 0.386168
O O11 0.846423 0.501643 0.274002
O O12 0.500000 0.262753 0.750000
O O13 0.250000 0.250000 0.000000
O O14 0.122207 0.104626 0.614181
O O15 0.872949 0.044056 0.730442
O O16 0.000000 0.000000 0.500000
#
# Coordination Sequence:
#
# PCOD8146650 Si02
#       8
#     8   8   8   4   8   8   8   4
#     4  10  22  41  72  99 137 196 238 280 359 432
#     4  11  24  41  73 105 135 191 237 292 352 432
#     4  11  20  45  72  97 145 193 231 278 363 427
#     4  12  26  48  74 101 140 194 245 296 356 450
#     4  12  23  41  70 109 140 180 243 302 341 421
#     4  12  26  47  71 101 146 187 236 291 366 440
#     4  12  27  45  70 106 143 187 243 308 359 427
#     4  12  28  48  68 105 146 180 237 314 364 414
#
# _framework density 21.289946
#
# number of rings (size 3 to 8) (size 9 to 14) (size 15 to 20)
#    0.000    0.571    7.143    0.429    5.000    3.429 
#    0.000    0.000    0.000    0.000    0.000    0.000 
#    0.000    0.000    0.000    0.000    0.000    0.000 
#
# Total GULP energy -347067.014649 kJ/mol
# GULP energy per Si atom -12395.250523 kJ/mol
# Density = 2.124149 g / cm^3
# Si number density = 21.289946 Si / 1000 Ang^3
#
#
#
# Elastic Constant Matrix: (Units=GPa)
#
#
# Indices 1 2 3 4 5 6 
#
# 1 92.9046 31.2444 27.1190 0.0000 -4.9889 0.0000
# 2 31.2444 96.8933 39.1493 0.0000 2.1786 0.0000
# 3 27.1190 39.1493 85.9340 0.0000 -3.9990 0.0000
# 4 0.0000 0.0000 0.0000 13.1018 0.0000 2.9402
# 5 -4.9889 2.1786 -3.9990 0.0000 38.0195 0.0000
# 6 0.0000 0.0000 0.0000 2.9402 0.0000 34.0666
#
#
#
# Elastic Compliance Matrix: (Units=1/GPa)
#
#
# Indices 1 2 3 4 5 6 
#
# 1 0.012618 -0.003094 -0.002499 0.000000 0.001570 0.000000
# 2 -0.003094 0.013476 -0.005243 0.000000 -0.001730 0.000000
# 3 -0.002499 -0.005243 0.014886 0.000000 0.001538 0.000000
# 4 0.000000 0.000000 0.000000 0.077833 0.000000 -0.006718
# 5 0.001570 -0.001730 0.001538 0.000000 0.026769 0.000000
# 6 0.000000 0.000000 0.000000 -0.006718 0.000000 0.029934
#
#
# Mechanical properties :
#
#
# Convention : Reuss Voigt Hill
#
# Bulk Modulus (GPa) = 51.79694 52.30637 52.05166
# Shear Modulus (GPa) = 24.55493 28.91887 26.73690
#
# Velocity S-wave (km/s) = 3.39980 3.68956 3.54764
# Velocity P-wave (km/s) = 6.30822 6.54006 6.42518
#
# Compressibility (1/GPa) = 0.01930616
#
# Stress axis : x y z
#
# Youngs Moduli (GPa) = 79.25028 74.20684 67.17806
#
# Poissons Ratio (x) = 0.22962 0.16790
# Poissons Ratio (y) = 0.24523 0.35223
# Poissons Ratio (z) = 0.19807 0.38908
#
# Static dielectric constant tensor:
#      x y z
#    x 3.870550 0.000000 -0.142600 
#    y 0.000000 4.530790 0.000000 
#    z -0.142600 0.000000 3.207530 
# 
# 
# High freq. dielectric constant tensor:
#      x y z
#    x 1.848950 0.000000 -0.007740 
#    y 0.000000 1.829570 0.000000 
#    z -0.007740 0.000000 1.828000 
# 
# From -- ./inp_files/82529.got.cif
#   From: 2010.06.25/outbox.cif.g09.slc.cpg/sg15_42_cif.got.tgz:82529.got - 2010.06.28 07:06:18.
