data_PCOD8146570
_publ_section_title
;
Structure prediction by ZEFSAII (Michael W. Deem and Ramdas Pophale) SiO2 
 PCOD8146570
Probable space group: C 2/C
;
_chemical_formula_sum "Si O2"
_cell_formula_units_Z 60
_cell_length_a 8.215968
_cell_length_b 21.869964
_cell_length_c 19.138450
_cell_angle_alpha 90.000000
_cell_angle_beta 127.652343
_cell_angle_gamma 90.000000
_cell_volume 2722.649388
_symmetry_space_group_name_H-M "C 2/C"
_symmetry_group_IT_number 15
_symmetry_cell_setting 'monoclinic'
loop_
_space_group_symop_operation_xyz
x,y,z
-x,y,1/2-z
-x,-y,-z
x,-y,1/2+z
1/2+x,1/2+y,z
1/2-x,1/2+y,1/2-z
1/2-x,1/2-y,-z
1/2+x,1/2-y,1/2+z
loop_
_atom_site_type_symbol
_atom_site_label
_atom_site_fract_x
_atom_site_fract_y
_atom_site_fract_z
Si Si1 0.908884 0.425547 0.100679
Si Si2 0.911999 0.393474 0.491837
Si Si3 0.305717 0.543129 0.447293
Si Si4 0.020684 0.853101 0.944565
Si Si5 0.182350 0.861749 0.836586
Si Si6 0.191692 0.243404 0.709181
Si Si7 0.000000 0.349749 0.250000
Si Si8 0.222324 0.265021 0.105326
O O1 0.040185 0.392160 0.193772
O O2 0.040332 0.432555 0.064481
O O3 0.876031 0.495556 0.117259
O O4 0.704430 0.383888 0.036859
O O5 0.723964 0.423741 0.484642
O O6 0.872573 0.324258 0.456525
O O7 0.107337 0.398109 0.595796
O O8 0.500000 0.500000 0.500000
O O9 0.335379 0.596186 0.396692
O O10 0.929972 0.790957 0.954714
O O11 0.100159 0.836882 0.888901
O O12 0.218649 0.807594 0.791232
O O13 0.000000 0.901141 0.750000
O O14 0.294672 0.191166 0.688225
O O15 0.258104 0.229294 0.806190
O O16 0.947995 0.245272 0.632815
#
# Coordination Sequence:
#
# PCOD8146570 Si02
#       8
#     8   8   8   8   8   8   4   8
#     4  10  24  42  68  93 129 183 223 272 324 399
#     4  11  24  42  70  99 133 176 227 273 341 404
#     4  10  23  45  67  93 129 173 228 285 320 389
#     4  10  22  41  68  95 133 170 225 270 334 399
#     4  11  22  40  64  97 132 177 209 273 336 404
#     4  11  23  38  62  96 143 167 210 272 339 402
#     4  12  22  42  62  94 132 178 216 270 336 396
#     4  11  23  39  64 105 132 171 213 276 343 408
#
# _framework density 22.037358000000001
#
# number of rings (size 3 to 8) (size 9 to 14) (size 15 to 20)
#    0.000    1.333    3.333    1.200    5.600    2.133 
#    2.400    0.000    0.000    0.000    0.000    0.000 
#    0.000    0.000    0.000    0.000    0.000    0.000 
#
# Total GULP energy -371771.363311 kJ/mol
# GULP energy per Si atom -12392.378777 kJ/mol
# Density = 2.198720 g / cm^3
# Si number density = 22.037358 Si / 1000 Ang^3
#
#
#
# Elastic Constant Matrix: (Units=GPa)
#
#
# Indices 1 2 3 4 5 6 
#
# 1 127.0482 42.7111 17.5758 0.0000 1.4273 0.0000
# 2 42.7111 89.7944 2.6811 0.0000 2.2482 0.0000
# 3 17.5758 2.6811 63.1781 0.0000 0.4183 0.0000
# 4 0.0000 0.0000 0.0000 13.9933 0.0000 -1.4937
# 5 1.4273 2.2482 0.4183 0.0000 21.8303 0.0000
# 6 0.0000 0.0000 0.0000 -1.4937 0.0000 42.6610
#
#
#
# Elastic Compliance Matrix: (Units=1/GPa)
#
#
# Indices 1 2 3 4 5 6 
#
# 1 0.009754 -0.004561 -0.002519 0.000000 -0.000120 0.000000
# 2 -0.004561 0.013312 0.000711 0.000000 -0.001086 0.000000
# 3 -0.002519 0.000711 0.016500 0.000000 -0.000225 0.000000
# 4 0.000000 0.000000 0.000000 0.071731 0.000000 0.002512
# 5 -0.000120 -0.001086 -0.000225 0.000000 0.045932 0.000000
# 6 0.000000 0.000000 0.000000 0.002512 0.000000 0.023529
#
#
# Mechanical properties :
#
#
# Convention : Reuss Voigt Hill
#
# Bulk Modulus (GPa) = 37.27446 45.10629 41.19038
# Shear Modulus (GPa) = 24.69871 30.16710 27.43290
#
# Velocity S-wave (km/s) = 3.35142 3.70389 3.53205
# Velocity P-wave (km/s) = 5.65039 6.22931 5.94690
#
# Compressibility (1/GPa) = 0.02682802
#
# Stress axis : x y z
#
# Youngs Moduli (GPa) = 102.51819 75.11901 60.60453
#
# Poissons Ratio (x) = 0.34265 0.15268
# Poissons Ratio (y) = 0.46764 -0.04310
# Poissons Ratio (z) = 0.25827 -0.05343
#
# Static dielectric constant tensor:
#      x y z
#    x 4.492850 0.000000 0.150650 
#    y 0.000000 4.160790 0.000000 
#    z 0.150650 0.000000 3.803600 
# 
# 
# High freq. dielectric constant tensor:
#      x y z
#    x 1.890460 0.000000 -0.002710 
#    y 0.000000 1.860150 0.000000 
#    z -0.002710 0.000000 1.839750 
# 
# From -- ./inp_files/234080.got.cif
#   From: 2010.06.25/outbox.cif.g09.slc.cpg/sg15_118_cif.got.tgz:234080.got - 2010.06.28 07:06:18.
