data_PCOD8146145
_publ_section_title
;
Structure prediction by ZEFSAII (Michael W. Deem and Ramdas Pophale) SiO2 
 PCOD8146145
Probable space group: C 2/C
;
_chemical_formula_sum "Si O2"
_cell_formula_units_Z 64
_cell_length_a 17.063708
_cell_length_b 9.277312
_cell_length_c 26.145479
_cell_angle_alpha 90.000000
_cell_angle_beta 45.486155
_cell_angle_gamma 90.000000
_cell_volume 2951.420417
_symmetry_space_group_name_H-M "C 2/C"
_symmetry_group_IT_number 15
_symmetry_cell_setting 'monoclinic'
loop_
_space_group_symop_operation_xyz
x,y,z
-x,y,1/2-z
-x,-y,-z
x,-y,1/2+z
1/2+x,1/2+y,z
1/2-x,1/2+y,1/2-z
1/2-x,1/2-y,-z
1/2+x,1/2-y,1/2+z
loop_
_atom_site_type_symbol
_atom_site_label
_atom_site_fract_x
_atom_site_fract_y
_atom_site_fract_z
Si Si1 0.941393 0.990160 0.130525
Si Si2 0.681138 0.028601 0.510001
Si Si3 0.114228 0.363617 0.724414
Si Si4 0.184222 0.873939 0.131667
Si Si5 0.970886 0.288964 0.875208
Si Si6 0.093342 0.121754 0.241925
Si Si7 0.362873 0.650968 0.498713
Si Si8 0.749136 0.874673 0.158157
O O1 0.816408 0.970067 0.168808
O O2 0.991811 0.829268 0.100614
O O3 0.945681 0.057826 0.185707
O O4 0.012592 0.092850 0.061001
O O5 0.632569 0.186473 0.523654
O O6 0.786601 0.046655 0.498808
O O7 0.711940 0.949734 0.442661
O O8 0.586486 0.931515 0.577419
O O9 0.210609 0.253136 0.660872
O O10 0.145246 0.524362 0.693498
O O11 0.000000 0.321094 0.750000
O O12 0.085750 0.342576 0.797077
O O13 0.113286 0.798798 0.120722
O O14 0.118756 0.992188 0.192531
O O15 0.198717 0.225333 0.202558
O O16 0.000000 0.204095 0.250000
O O17 0.322029 0.654128 0.575256
#
# Coordination Sequence:
#
# PCOD8146145 Si02
#       8
#     8   8   8   8   8   8   8   8
#     4  12  27  44  68  97 143 180 217 285 353 406
#     4  11  23  39  72 103 129 175 236 287 327 407
#     4  10  22  40  67  97 130 168 227 283 332 400
#     4  11  19  42  67  99 130 171 223 291 333 393
#     4  11  22  39  64 103 132 168 223 280 338 399
#     4  12  23  45  74 100 133 183 232 287 337 409
#     4  11  24  45  66  99 137 177 230 279 344 401
#     4  12  28  44  67  98 141 180 228 278 349 411
#
# _framework density 21.684474000000002
#
# number of rings (size 3 to 8) (size 9 to 14) (size 15 to 20)
#    0.000    0.750    5.000    3.000    7.000    0.000 
#    0.000    1.875    0.000    0.000    0.000    0.000 
#    0.000    0.000    0.000    0.000    0.000    0.000 
#
# Total GULP energy -396516.588678 kJ/mol
# GULP energy per Si atom -12391.143396 kJ/mol
# Density = 2.163512 g / cm^3
# Si number density = 21.684474 Si / 1000 Ang^3
#
#
#
# Elastic Constant Matrix: (Units=GPa)
#
#
# Indices 1 2 3 4 5 6 
#
# 1 54.7174 26.1149 23.4727 0.0000 -2.1070 0.0000
# 2 26.1149 124.7708 65.5880 0.0000 0.4801 0.0002
# 3 23.4727 65.5880 93.3281 0.0000 9.8551 -0.0001
# 4 0.0000 0.0000 0.0000 45.9022 0.0000 -5.3700
# 5 -2.1070 0.4801 9.8551 0.0000 21.0036 0.0000
# 6 0.0000 0.0002 -0.0001 -5.3700 0.0000 18.8898
#
#
#
# Elastic Compliance Matrix: (Units=1/GPa)
#
#
# Indices 1 2 3 4 5 6 
#
# 1 0.021324 -0.002266 -0.004211 0.000000 0.004167 0.000000
# 2 -0.002266 0.013296 -0.009173 0.000000 0.003773 0.000000
# 3 -0.004211 -0.009173 0.019194 0.000000 -0.009219 0.000000
# 4 0.000000 0.000000 0.000000 0.022535 0.000000 0.006406
# 5 0.004167 0.003773 -0.009219 0.000000 0.052268 0.000000
# 6 0.000000 0.000000 0.000000 0.006406 0.000000 0.054760
#
#
# Mechanical properties :
#
#
# Convention : Reuss Voigt Hill
#
# Bulk Modulus (GPa) = 44.41423 55.90750 50.16087
# Shear Modulus (GPa) = 22.50427 27.66849 25.08638
#
# Velocity S-wave (km/s) = 3.22499 3.57593 3.40499
# Velocity P-wave (km/s) = 5.86464 6.54889 6.21619
#
# Compressibility (1/GPa) = 0.02251531
#
# Stress axis : x y z
#
# Youngs Moduli (GPa) = 46.89581 75.20955 52.10056
#
# Poissons Ratio (x) = 0.17040 0.21939
# Poissons Ratio (y) = 0.10625 0.47790
# Poissons Ratio (z) = 0.19747 0.68987
#
# Static dielectric constant tensor:
#      x y z
#    x 3.763300 0.000000 0.206630 
#    y 0.000000 4.120840 0.000000 
#    z 0.206630 0.000000 4.220020 
# 
# 
# High freq. dielectric constant tensor:
#      x y z
#    x 1.812570 0.000000 0.010260 
#    y 0.000000 1.870580 0.000000 
#    z 0.010260 0.000000 1.861760 
# 
# From -- ./inp_files/315680.got.cif
#   From: 2010.06.25/outbox.cif.g09.slc.cpg/sg15_158_cif.got.tgz:315680.got - 2010.06.28 07:06:18.
