data_PCOD8146852
_publ_section_title
;
Structure prediction by ZEFSAII (Michael W. Deem and Ramdas Pophale) SiO2 
 PCOD8146852
Probable space group: C 2/C
;
_chemical_formula_sum "Si O2"
_cell_formula_units_Z 64
_cell_length_a 27.337929
_cell_length_b 15.297255
_cell_length_c 19.119595
_cell_angle_alpha 90.000000
_cell_angle_beta 22.229992
_cell_angle_gamma 90.000000
_cell_volume 3024.985485
_symmetry_space_group_name_H-M "C 2/C"
_symmetry_group_IT_number 15
_symmetry_cell_setting 'monoclinic'
loop_
_space_group_symop_operation_xyz
x,y,z
-x,y,1/2-z
-x,-y,-z
x,-y,1/2+z
1/2+x,1/2+y,z
1/2-x,1/2+y,1/2-z
1/2-x,1/2-y,-z
1/2+x,1/2-y,1/2+z
loop_
_atom_site_type_symbol
_atom_site_label
_atom_site_fract_x
_atom_site_fract_y
_atom_site_fract_z
Si Si1 0.208014 0.199232 0.244694
Si Si2 0.397133 0.081526 0.331172
Si Si3 0.107125 0.618666 0.388404
Si Si4 0.999977 0.909307 0.934545
Si Si5 0.652904 0.040416 0.732221
Si Si6 0.978155 0.270628 0.621213
Si Si7 0.880997 0.836403 0.957387
Si Si8 0.877219 0.084530 0.738732
O O1 0.295467 0.139657 0.178648
O O2 0.116658 0.137546 0.320173
O O3 0.127805 0.270290 0.397621
O O4 0.295854 0.249195 0.072330
O O5 0.500000 0.044315 0.250000
O O6 0.453771 0.171155 0.222357
O O7 0.268936 0.097283 0.544911
O O8 0.370136 0.009333 0.309271
O O9 0.149692 0.525137 0.301900
O O10 0.112768 0.693119 0.321055
O O11 0.959599 0.612727 0.611282
O O12 0.935359 0.848194 0.963134
O O13 0.052066 0.996838 0.826304
O O14 0.887973 0.926202 0.140312
O O15 0.794088 0.083801 0.544350
O O16 0.947914 0.169414 0.676827
O O17 0.000000 0.820118 0.750000
#
# Coordination Sequence:
#
# PCOD8146852 Si02
#       8
#     8   8   8   8   8   8   8   8
#     4  11  23  43  70  99 129 172 226 268 326 392
#     4  11  25  40  66 101 134 173 214 278 325 391
#     4  10  22  43  70  95 128 179 217 276 317 402
#     4  10  25  42  71  98 125 179 222 266 330 386
#     4  10  24  44  66  95 135 173 225 259 342 382
#     4  10  22  42  65  98 131 176 218 264 338 386
#     4  12  26  45  68  93 136 174 216 278 324 393
#     4  10  22  43  64  98 134 163 224 269 322 393
#
# _framework density 21.157126999999999
#
# number of rings (size 3 to 8) (size 9 to 14) (size 15 to 20)
#    0.000    1.500    1.250    2.625   10.500    0.500 
#    2.250    0.625    0.000    0.000    0.000    0.000 
#    0.000    0.000    0.000    0.000    0.000    0.000 
#
# Total GULP energy -396816.214391 kJ/mol
# GULP energy per Si atom -12400.506700 kJ/mol
# Density = 2.110897 g / cm^3
# Si number density = 21.157127 Si / 1000 Ang^3
#
#
#
# Elastic Constant Matrix: (Units=GPa)
#
#
# Indices 1 2 3 4 5 6 
#
# 1 110.7292 42.6430 46.1564 0.0001 -10.6551 -0.0001
# 2 42.6430 98.7345 48.6161 0.0000 -1.5586 0.0000
# 3 46.1564 48.6161 156.3155 0.0000 11.7707 -0.0001
# 4 0.0001 0.0000 0.0000 26.5952 0.0000 -10.0274
# 5 -10.6551 -1.5586 11.7707 0.0000 28.6208 0.0001
# 6 -0.0001 0.0000 -0.0001 -10.0274 0.0001 16.7808
#
#
#
# Elastic Compliance Matrix: (Units=1/GPa)
#
#
# Indices 1 2 3 4 5 6 
#
# 1 0.012202 -0.003785 -0.002841 0.000000 0.005505 0.000000
# 2 -0.003785 0.013276 -0.003054 0.000000 0.000570 0.000000
# 3 -0.002841 -0.003054 0.008543 0.000000 -0.004737 0.000000
# 4 0.000000 0.000000 0.000000 0.048536 0.000000 0.029003
# 5 0.005505 0.000570 -0.004737 0.000000 0.038968 0.000000
# 6 0.000000 0.000000 0.000000 0.029003 0.000000 0.076922
#
#
# Mechanical properties :
#
#
# Convention : Reuss Voigt Hill
#
# Bulk Modulus (GPa) = 68.20448 71.17890 69.69169
# Shear Modulus (GPa) = 22.45240 29.62361 26.03801
#
# Velocity S-wave (km/s) = 3.26117 3.74595 3.51193
# Velocity P-wave (km/s) = 6.81817 7.24055 7.03253
#
# Compressibility (1/GPa) = 0.01466179
#
# Stress axis : x y z
#
# Youngs Moduli (GPa) = 81.95190 75.32597 117.05895
#
# Poissons Ratio (x) = 0.28508 0.33251
# Poissons Ratio (y) = 0.31015 0.35754
# Poissons Ratio (z) = 0.23279 0.23007
#
# Static dielectric constant tensor:
#      x y z
#    x 3.666040 0.000000 0.061880 
#    y 0.000000 3.881240 0.000000 
#    z 0.061880 0.000000 4.049630 
# 
# 
# High freq. dielectric constant tensor:
#      x y z
#    x 1.817510 0.000000 -0.001580 
#    y 0.000000 1.835860 0.000000 
#    z -0.001580 0.000000 1.838530 
# 
# From -- ./inp_files/123505.got.cif
#   From: 2010.06.25/outbox.cif.g09.slc.cpg/sg15_62_cif.got.tgz:123505.got - 2010.06.28 07:06:18.
