data_PCOD8146597
_publ_section_title
;
Structure prediction by ZEFSAII (Michael W. Deem and Ramdas Pophale) SiO2 
 PCOD8146597
Probable space group: C 2/C
;
_chemical_formula_sum "Si O2"
_cell_formula_units_Z 36
_cell_length_a 10.705580
_cell_length_b 24.682343
_cell_length_c 16.367731
_cell_angle_alpha 90.000000
_cell_angle_beta 157.457348
_cell_angle_gamma 90.000000
_cell_volume 1658.075912
_symmetry_space_group_name_H-M "C 2/C"
_symmetry_group_IT_number 15
_symmetry_cell_setting 'monoclinic'
loop_
_space_group_symop_operation_xyz
x,y,z
-x,y,1/2-z
-x,-y,-z
x,-y,1/2+z
1/2+x,1/2+y,z
1/2-x,1/2+y,1/2-z
1/2-x,1/2-y,-z
1/2+x,1/2-y,1/2+z
loop_
_atom_site_type_symbol
_atom_site_label
_atom_site_fract_x
_atom_site_fract_y
_atom_site_fract_z
Si Si1 0.283368 0.989622 0.236044
Si Si2 0.006315 0.186392 0.078296
Si Si3 0.000000 0.220906 0.250000
Si Si4 0.500000 0.904639 0.250000
Si Si5 0.665061 0.573256 0.928896
Si Si6 0.500000 0.848719 0.750000
O O1 0.515034 0.942442 0.339496
O O2 0.110324 0.970576 0.213968
O O3 0.490147 0.043574 0.379952
O O4 0.000000 0.000000 0.000000
O O5 0.071805 0.182875 0.215129
O O6 0.329090 0.187970 0.216698
O O7 0.818600 0.242222 0.950704
O O8 0.816749 0.132748 0.937623
O O9 0.500000 0.601889 0.750000
O O10 0.724908 0.615880 0.037608
#
# Coordination Sequence:
#
# PCOD8146597 Si02
#       6
#     8   8   4   4   8   4
#     4  12  20  40  63  84 132 177 212 258 310 366
#     4  10  22  41  69  92 124 162 205 267 326 394
#     4   9  22  46  65  92 124 160 207 254 340 409
#     4  11  19  36  64  86 118 170 208 248 319 369
#     4  12  25  40  61  95 133 174 219 261 314 371
#     4  12  23  42  67  98 132 162 213 274 317 368
#
# _framework density 21.711912999999999
#
# number of rings (size 3 to 8) (size 9 to 14) (size 15 to 20)
#    0.000    0.889    6.667    0.667    0.000    2.667 
#    6.000    0.000    0.000    0.000    0.000    0.000 
#    0.000    0.000    0.000    0.000    0.000    0.000 
#
# Total GULP energy -223151.102683 kJ/mol
# GULP energy per Si atom -12397.283482 kJ/mol
# Density = 2.166250 g / cm^3
# Si number density = 21.711913 Si / 1000 Ang^3
#
#
#
# Elastic Constant Matrix: (Units=GPa)
#
#
# Indices 1 2 3 4 5 6 
#
# 1 153.4352 27.9432 54.3586 -0.0049 -0.0132 -0.0015
# 2 27.9432 51.4649 17.2833 -0.0192 -0.9280 -0.0095
# 3 54.3586 17.2833 84.5868 -0.0659 -11.5351 -0.0237
# 4 -0.0049 -0.0192 -0.0659 0.2302 -0.0112 1.2481
# 5 -0.0132 -0.9280 -11.5351 -0.0112 48.1376 -0.0043
# 6 -0.0015 -0.0095 -0.0237 1.2481 -0.0043 36.6343
#
#
#
# Elastic Compliance Matrix: (Units=1/GPa)
#
#
# Indices 1 2 3 4 5 6 
#
# 1 0.008964 -0.003109 -0.005308 -0.002003 -0.001330 0.000064
# 2 -0.003109 0.021960 -0.002512 0.001250 -0.000179 -0.000039
# 3 -0.005308 -0.002512 0.016276 0.005482 0.003852 -0.000177
# 4 -0.002003 0.001250 0.005482 5.330947 0.002566 -0.181613
# 5 -0.001330 -0.000179 0.003852 0.002566 0.021694 -0.000082
# 6 0.000064 -0.000039 -0.000177 -0.181613 -0.000082 0.033484
#
#
# Mechanical properties :
#
#
# Convention : Reuss Voigt Hill
#
# Bulk Modulus (GPa) = 39.46244 54.29523 46.87884
# Shear Modulus (GPa) = 0.91514 29.66054 15.28784
#
# Velocity S-wave (km/s) = 0.64993 3.70008 2.65641
# Velocity P-wave (km/s) = 4.33338 6.58145 5.57197
#
# Compressibility (1/GPa) = 0.02534055
#
# Stress axis : x y z
#
# Youngs Moduli (GPa) = 111.55665 45.53771 61.43922
#
# Poissons Ratio (x) = 0.14158 0.32613
# Poissons Ratio (y) = 0.34685 0.15436
# Poissons Ratio (z) = 0.59217 0.11441
#
# Static dielectric constant tensor:
#      x y z
#    x 4.267760 0.000000 0.025090 
#    y 0.000000 3.681210 -0.000030 
#    z 0.025090 -0.000030 3.914830 
# 
# 
# High freq. dielectric constant tensor:
#      x y z
#    x 1.866560 0.000000 0.007090 
#    y 0.000000 1.828770 -0.000010 
#    z 0.007090 -0.000010 1.844780 
# 
# From -- ./inp_files/31297.got.cif
#   From: 2010.06.25/outbox.cif.g09.slc.cpg/sg15_16_cif.got.tgz:31297.got - 2010.06.28 07:06:18.
