data_PCOD8146243
_publ_section_title
;
Structure prediction by ZEFSAII (Michael W. Deem and Ramdas Pophale) SiO2 
 PCOD8146243
Probable space group: C 2/C
;
_chemical_formula_sum "Si O2"
_cell_formula_units_Z 44
_cell_length_a 14.807993
_cell_length_b 16.962026
_cell_length_c 9.684264
_cell_angle_alpha 90.000000
_cell_angle_beta 127.053535
_cell_angle_gamma 90.000000
_cell_volume 1941.257206
_symmetry_space_group_name_H-M "C 2/C"
_symmetry_group_IT_number 15
_symmetry_cell_setting 'monoclinic'
loop_
_space_group_symop_operation_xyz
x,y,z
-x,y,1/2-z
-x,-y,-z
x,-y,1/2+z
1/2+x,1/2+y,z
1/2-x,1/2+y,1/2-z
1/2-x,1/2-y,-z
1/2+x,1/2-y,1/2+z
loop_
_atom_site_type_symbol
_atom_site_label
_atom_site_fract_x
_atom_site_fract_y
_atom_site_fract_z
Si Si1 0.604517 0.696560 0.620426
Si Si2 0.500000 0.253112 0.750000
Si Si3 0.746573 0.024252 0.328380
Si Si4 0.458441 0.866143 0.859543
Si Si5 0.110255 0.958842 0.283650
Si Si6 0.839886 0.644089 0.745694
O O1 0.530528 0.694079 0.410651
O O2 0.581334 0.775811 0.683826
O O3 0.565865 0.621676 0.673365
O O4 0.738790 0.693850 0.719719
O O5 0.391027 0.196488 0.669885
O O6 0.643174 0.078116 0.182430
O O7 0.804400 0.064335 0.514374
O O8 0.832152 0.014970 0.277729
O O9 0.707603 0.939133 0.350160
O O10 0.500000 0.895558 0.750000
O O11 0.563312 0.876130 0.056549
O O12 0.000000 0.001466 0.250000
#
# Coordination Sequence:
#
# PCOD8146243 Si02
#       6
#     8   4   8   8   8   8
#     4  10  23  43  66 100 135 179 234 285 340 406
#     4  10  22  40  70  96 134 186 228 292 332 408
#     4  11  25  42  71 101 143 182 226 285 337 418
#     4  11  23  40  71 103 138 183 221 287 346 401
#     4  11  25  48  67  99 140 183 231 280 342 410
#     4  10  23  41  64  99 138 178 234 275 343 406
#
# _framework density 22.665723
#
# number of rings (size 3 to 8) (size 9 to 14) (size 15 to 20)
#    0.000    1.455    0.000    4.364    6.364    5.818 
#   13.091    0.000    0.000    0.000    0.000    0.000 
#    0.000    0.000    0.000    0.000    0.000    0.000 
#
# Total GULP energy -272849.585419 kJ/mol
# GULP energy per Si atom -12402.253883 kJ/mol
# Density = 2.261414 g / cm^3
# Si number density = 22.665723 Si / 1000 Ang^3
#
#
#
# Elastic Constant Matrix: (Units=GPa)
#
#
# Indices 1 2 3 4 5 6 
#
# 1 131.6682 53.3214 47.9380 0.0000 -4.2640 0.0000
# 2 53.3214 83.4253 34.1967 0.0000 -4.5687 0.0000
# 3 47.9380 34.1967 120.3699 0.0000 1.5666 0.0000
# 4 0.0000 0.0000 0.0000 -7.0584 0.0000 -14.3473
# 5 -4.2640 -4.5687 1.5666 0.0000 35.2639 0.0000
# 6 0.0000 0.0000 0.0000 -14.3473 0.0000 33.7903
#
#
#
# Elastic Compliance Matrix: (Units=1/GPa)
#
#
# Indices 1 2 3 4 5 6 
#
# 1 0.010982 -0.005869 -0.002716 0.000000 0.000688 0.000000
# 2 -0.005869 0.016835 -0.002466 0.000000 0.001581 0.000000
# 3 -0.002716 -0.002466 0.010104 0.000000 -0.001097 0.000000
# 4 0.000000 0.000000 0.000000 -0.076044 0.000000 -0.032288
# 5 0.000688 0.001581 -0.001097 0.000000 0.028694 0.000000
# 6 0.000000 0.000000 0.000000 -0.032288 0.000000 0.015885
#
#
# Mechanical properties :
#
#
# Convention : Reuss Voigt Hill
#
# Bulk Modulus (GPa) = 63.20685 67.37507 65.29096
# Shear Modulus (GPa) = 147.79271 25.73297 86.76284
#
# Velocity S-wave (km/s) = 8.08375 3.37311 6.19374
# Velocity P-wave (km/s) = 10.72736 6.70527 8.94530
#
# Compressibility (1/GPa) = 0.01582107
#
# Stress axis : x y z
#
# Youngs Moduli (GPa) = 91.05466 59.39927 98.96970
#
# Poissons Ratio (x) = 0.34859 0.26875
# Poissons Ratio (y) = 0.53437 0.24408
# Poissons Ratio (z) = 0.24726 0.14649
#
# Static dielectric constant tensor:
#      x y z
#    x 4.399570 0.000000 0.020490 
#    y 0.000000 3.957170 0.000000 
#    z 0.020490 0.000000 3.998210 
# 
# 
# High freq. dielectric constant tensor:
#      x y z
#    x 1.909570 0.000000 0.004130 
#    y 0.000000 1.885150 0.000000 
#    z 0.004130 0.000000 1.898520 
# 
# From -- ./inp_files/39728.got.cif
#   From: 2010.06.25/outbox.cif.g09.slc.cpg/sg15_20_cif.got.tgz:39728.got - 2010.06.28 07:06:18.
