data_PCOD8146232
_publ_section_title
;
Structure prediction by ZEFSAII (Michael W. Deem and Ramdas Pophale) SiO2 
 PCOD8146232
Probable space group: C 2/C
;
_chemical_formula_sum "Si O2"
_cell_formula_units_Z 36
_cell_length_a 27.407973
_cell_length_b 5.537595
_cell_length_c 18.662515
_cell_angle_alpha 90.000000
_cell_angle_beta 146.199886
_cell_angle_gamma 90.000000
_cell_volume 1575.706060
_symmetry_space_group_name_H-M "C 2/C"
_symmetry_group_IT_number 15
_symmetry_cell_setting 'monoclinic'
loop_
_space_group_symop_operation_xyz
x,y,z
-x,y,1/2-z
-x,-y,-z
x,-y,1/2+z
1/2+x,1/2+y,z
1/2-x,1/2+y,1/2-z
1/2-x,1/2-y,-z
1/2+x,1/2-y,1/2+z
loop_
_atom_site_type_symbol
_atom_site_label
_atom_site_fract_x
_atom_site_fract_y
_atom_site_fract_z
Si Si1 0.664355 0.990962 0.425922
Si Si2 0.280957 0.149434 0.150181
Si Si3 0.883085 0.888813 0.517984
Si Si4 0.947055 0.747141 0.447612
Si Si5 0.500000 0.302389 0.250000
O O1 0.636823 0.751455 0.433024
O O2 0.693923 0.946079 0.379482
O O3 0.743454 0.116254 0.564737
O O4 0.578789 0.153130 0.313305
O O5 0.363114 0.242988 0.294645
O O6 0.205080 0.039897 0.109133
O O7 0.911475 0.728491 0.485456
O O8 0.965907 0.053296 0.638976
O O9 0.000000 0.500000 0.500000
O O10 0.000000 0.000000 0.500000
#
# Coordination Sequence:
#
# PCOD8146232 Si02
#       5
#     8   8   8   8   4
#     4  10  22  43  71 102 139 185 242 299 362 432
#     4  10  25  44  71 101 144 183 247 295 370 434
#     4  11  25  42  76 101 144 196 241 303 369 438
#     4  12  31  48  74 108 152 194 245 304 371 436
#     4  10  22  40  70 104 144 182 244 302 360 434
#
# _framework density 22.846900000000002
#
# number of rings (size 3 to 8) (size 9 to 14) (size 15 to 20)
#    0.000    1.333    0.000    2.667   18.667    0.000 
#    0.000    0.000    0.000    0.000    0.000    0.000 
#    0.000    0.000    0.000    0.000    0.000    0.000 
#
# Total GULP energy -223122.247307 kJ/mol
# GULP energy per Si atom -12395.680406 kJ/mol
# Density = 2.279490 g / cm^3
# Si number density = 22.846900 Si / 1000 Ang^3
#
#
#
# Elastic Constant Matrix: (Units=GPa)
#
#
# Indices 1 2 3 4 5 6 
#
# 1 115.8210 31.9802 51.3100 0.0004 5.7971 -0.0003
# 2 31.9802 106.0005 59.5518 -0.0047 9.1144 -0.0017
# 3 51.3100 59.5518 200.7570 -0.0010 12.7087 0.0001
# 4 0.0004 -0.0047 -0.0010 -53.7213 -0.0009 -16.8443
# 5 5.7971 9.1144 12.7087 -0.0009 21.1617 -0.0003
# 6 -0.0003 -0.0017 0.0001 -16.8443 -0.0003 33.0612
#
#
#
# Elastic Compliance Matrix: (Units=1/GPa)
#
#
# Indices 1 2 3 4 5 6 
#
# 1 0.010059 -0.001862 -0.001970 0.000000 -0.000771 0.000000
# 2 -0.001862 0.011848 -0.002856 -0.000001 -0.002877 0.000000
# 3 -0.001970 -0.002856 0.006466 0.000000 -0.002113 0.000000
# 4 0.000000 -0.000001 0.000000 -0.016051 -0.000001 -0.008178
# 5 -0.000771 -0.002877 -0.002113 -0.000001 0.049975 0.000000
# 6 0.000000 0.000000 0.000000 -0.008178 0.000000 0.026081
#
#
# Mechanical properties :
#
#
# Convention : Reuss Voigt Hill
#
# Bulk Modulus (GPa) = 66.68290 78.69583 72.68937
# Shear Modulus (GPa) = 46.83711 18.74943 32.79327
#
# Velocity S-wave (km/s) = 4.53265 2.86782 3.79271
# Velocity P-wave (km/s) = 7.52618 6.74429 7.14594
#
# Compressibility (1/GPa) = 0.01499635
#
# Stress axis : x y z
#
# Youngs Moduli (GPa) = 99.40967 84.40345 154.66184
#
# Poissons Ratio (x) = 0.15715 0.30467
# Poissons Ratio (y) = 0.18509 0.44179
# Poissons Ratio (z) = 0.19583 0.24110
#
# Static dielectric constant tensor:
#      x y z
#    x 4.233860 0.000000 0.306010 
#    y 0.000000 4.096870 0.000000 
#    z 0.306010 0.000000 4.094900 
# 
# 
# High freq. dielectric constant tensor:
#      x y z
#    x 1.907780 0.000000 0.016260 
#    y 0.000000 1.894440 0.000000 
#    z 0.016260 0.000000 1.922160 
# 
# From -- ./inp_files/179925.got.cif
#   From: 2010.06.25/outbox.cif.g09.slc.cpg/sg15_90_cif.got.tgz:179925.got - 2010.06.28 07:06:18.
