data_PCOD8146287
_publ_section_title
;
Structure prediction by ZEFSAII (Michael W. Deem and Ramdas Pophale) SiO2 
 PCOD8146287
Probable space group: C 2/C
;
_chemical_formula_sum "Si O2"
_cell_formula_units_Z 40
_cell_length_a 13.150870
_cell_length_b 27.364551
_cell_length_c 5.107560
_cell_angle_alpha 90.000000
_cell_angle_beta 77.094514
_cell_angle_gamma 90.000000
_cell_volume 1791.616254
_symmetry_space_group_name_H-M "C 2/C"
_symmetry_group_IT_number 15
_symmetry_cell_setting 'monoclinic'
loop_
_space_group_symop_operation_xyz
x,y,z
-x,y,1/2-z
-x,-y,-z
x,-y,1/2+z
1/2+x,1/2+y,z
1/2-x,1/2+y,1/2-z
1/2-x,1/2-y,-z
1/2+x,1/2-y,1/2+z
loop_
_atom_site_type_symbol
_atom_site_label
_atom_site_fract_x
_atom_site_fract_y
_atom_site_fract_z
Si Si1 0.378917 0.800698 0.270257
Si Si2 0.693827 0.700467 0.239956
Si Si3 0.755552 0.380918 0.078470
Si Si4 0.433107 0.634539 0.527929
Si Si5 0.118347 0.468477 0.706817
O O1 0.500000 0.801301 0.250000
O O2 0.344397 0.752776 0.120744
O O3 0.313933 0.796150 0.577020
O O4 0.352502 0.851914 0.147029
O O5 0.686185 0.657130 0.452213
O O6 0.614277 0.686336 0.048526
O O7 0.669523 0.399138 0.342866
O O8 0.800232 0.425008 0.882758
O O9 0.500000 0.643317 0.750000
O O10 0.500000 0.610252 0.250000
O O11 0.138107 0.511445 0.486120
O O12 0.000000 0.448791 0.750000
#
# Coordination Sequence:
#
# PCOD8146287 Si02
#       5
#     8   8   8   8   8
#     4  10  23  37  60  98 143 184 225 279 330 398
#     4  10  22  41  59 100 136 185 230 275 329 403
#     4  11  24  40  70  97 138 175 235 274 344 398
#     4  11  22  40  67  96 130 183 226 272 327 395
#     4  10  25  45  72 102 134 173 219 279 350 413
#
# _framework density 22.326212000000002
#
# number of rings (size 3 to 8) (size 9 to 14) (size 15 to 20)
#    0.000    1.600    2.000    1.200    8.400    0.800 
#    0.000    0.000    0.000    3.600    0.000    0.000 
#    0.000    0.000    0.000    0.000    0.000    0.000 
#
# Total GULP energy -247830.528669 kJ/mol
# GULP energy per Si atom -12391.526433 kJ/mol
# Density = 2.227540 g / cm^3
# Si number density = 22.326212 Si / 1000 Ang^3
#
#
#
# Elastic Constant Matrix: (Units=GPa)
#
#
# Indices 1 2 3 4 5 6 
#
# 1 136.7345 29.9442 46.8111 0.0000 -26.4531 0.0000
# 2 29.9442 64.8769 15.8404 0.0000 -25.3985 0.0000
# 3 46.8111 15.8404 92.4940 0.0000 -24.0727 0.0000
# 4 0.0000 0.0000 0.0000 31.7913 0.0000 -7.3770
# 5 -26.4531 -25.3985 -24.0727 0.0000 32.2181 0.0000
# 6 0.0000 0.0000 0.0000 -7.3770 0.0000 15.0767
#
#
#
# Elastic Compliance Matrix: (Units=1/GPa)
#
#
# Indices 1 2 3 4 5 6 
#
# 1 0.009722 -0.002224 -0.003623 0.000000 0.003523 0.000000
# 2 -0.002224 0.022869 0.001770 0.000000 0.017525 0.000000
# 3 -0.003623 0.001770 0.014811 0.000000 0.009487 0.000000
# 4 0.000000 0.000000 0.000000 0.035484 0.000000 0.017362
# 5 0.003523 0.017525 0.009487 0.000000 0.054835 0.000000
# 6 0.000000 0.000000 0.000000 0.017362 0.000000 0.074823
#
#
# Mechanical properties :
#
#
# Convention : Reuss Voigt Hill
#
# Bulk Modulus (GPa) = 25.47833 53.25519 39.36676
# Shear Modulus (GPa) = 21.38769 29.25121 25.31945
#
# Velocity S-wave (km/s) = 3.09846 3.62356 3.37125
# Velocity P-wave (km/s) = 4.92313 6.43521 5.72927
#
# Compressibility (1/GPa) = 0.03924903
#
# Stress axis : x y z
#
# Youngs Moduli (GPa) = 102.85768 43.72784 67.51724
#
# Poissons Ratio (x) = 0.09724 0.24460
# Poissons Ratio (y) = 0.22872 -0.11950
# Poissons Ratio (z) = 0.37263 -0.07740
#
# Static dielectric constant tensor:
#      x y z
#    x 4.063770 0.000000 -0.265700 
#    y 0.000000 3.606200 0.000000 
#    z -0.265700 0.000000 4.399130 
# 
# 
# High freq. dielectric constant tensor:
#      x y z
#    x 1.894160 0.000000 -0.014990 
#    y 0.000000 1.832070 0.000000 
#    z -0.014990 0.000000 1.889750 
# 
# From -- ./inp_files/4910.got.cif
#   From: 2010.06.25/outbox.cif.g09.slc.cpg/sg15_3_cif.got.tgz:4910.got - 2010.06.28 07:06:18.
