data_PCOD8146390
_publ_section_title
;
Structure prediction by ZEFSAII (Michael W. Deem and Ramdas Pophale) SiO2 
 PCOD8146390
Probable space group: C 2/C
;
_chemical_formula_sum "Si O2"
_cell_formula_units_Z 48
_cell_length_a 9.669956
_cell_length_b 10.599659
_cell_length_c 22.593544
_cell_angle_alpha 90.000000
_cell_angle_beta 83.106655
_cell_angle_gamma 90.000000
_cell_volume 2299.058172
_symmetry_space_group_name_H-M "C 2/C"
_symmetry_group_IT_number 15
_symmetry_cell_setting 'monoclinic'
loop_
_space_group_symop_operation_xyz
x,y,z
-x,y,1/2-z
-x,-y,-z
x,-y,1/2+z
1/2+x,1/2+y,z
1/2-x,1/2+y,1/2-z
1/2-x,1/2-y,-z
1/2+x,1/2-y,1/2+z
loop_
_atom_site_type_symbol
_atom_site_label
_atom_site_fract_x
_atom_site_fract_y
_atom_site_fract_z
Si Si1 0.471434 0.511611 0.933180
Si Si2 0.159453 0.414719 0.227471
Si Si3 0.146506 0.311335 0.772965
Si Si4 0.496713 0.797629 0.600666
Si Si5 0.707895 0.114104 0.480575
Si Si6 0.728247 0.982672 0.603858
O O1 0.460777 0.656482 0.916280
O O2 0.325582 0.440419 0.928783
O O3 0.607557 0.451370 0.894265
O O4 0.500000 0.500000 0.000000
O O5 0.206475 0.551027 0.251560
O O6 0.247923 0.300391 0.251263
O O7 0.180453 0.415761 0.155328
O O8 0.000000 0.387347 0.250000
O O9 0.000000 0.282677 0.750000
O O10 0.124457 0.305964 0.844496
O O11 0.438233 0.873713 0.546599
O O12 0.638949 0.856984 0.618333
O O13 0.750000 0.250000 0.500000
O O14 0.693325 0.029453 0.539630
#
# Coordination Sequence:
#
# PCOD8146390 Si02
#       6
#     8   8   8   8   8   8
#     4  10  22  41  64  93 133 167 208 267 318 385
#     4  11  23  47  67  97 132 175 223 281 328 385
#     4  11  24  45  69  94 136 171 228 277 331 389
#     4  12  22  44  67  94 134 175 212 272 327 392
#     4  11  22  42  65  97 135 168 212 265 325 394
#     4  11  22  44  67  94 133 171 213 273 325 389
#
# _framework density 20.878115999999999
#
# number of rings (size 3 to 8) (size 9 to 14) (size 15 to 20)
#    0.000    1.000    8.333    0.500    0.000    4.667 
#    9.000    0.000    0.000    0.000    0.000    0.000 
#    0.000    0.000    0.000    0.000    0.000    0.000 
#
# Total GULP energy -297485.638053 kJ/mol
# GULP energy per Si atom -12395.234919 kJ/mol
# Density = 2.083060 g / cm^3
# Si number density = 20.878116 Si / 1000 Ang^3
#
#
#
# Elastic Constant Matrix: (Units=GPa)
#
#
# Indices 1 2 3 4 5 6 
#
# 1 97.5903 66.9439 17.6248 0.0000 -24.7713 0.0000
# 2 66.9439 145.0068 20.3182 0.0000 -13.2129 0.0000
# 3 17.6248 20.3182 79.3256 0.0000 -17.0554 0.0000
# 4 0.0000 0.0000 0.0000 26.2301 0.0000 -4.6672
# 5 -24.7713 -13.2129 -17.0554 0.0000 34.8981 0.0000
# 6 0.0000 0.0000 0.0000 -4.6672 0.0000 47.5954
#
#
#
# Elastic Compliance Matrix: (Units=1/GPa)
#
#
# Indices 1 2 3 4 5 6 
#
# 1 0.017750 -0.007303 0.000046 0.000000 0.009857 0.000000
# 2 -0.007303 0.010288 -0.001441 0.000000 -0.001993 0.000000
# 3 0.000046 -0.001441 0.014364 0.000000 0.006507 0.000000
# 4 0.000000 0.000000 0.000000 0.038801 0.000000 0.003805
# 5 0.009857 -0.001993 0.006507 0.000000 0.038077 0.000000
# 6 0.000000 0.000000 0.000000 0.003805 0.000000 0.021384
#
#
# Mechanical properties :
#
#
# Convention : Reuss Voigt Hill
#
# Bulk Modulus (GPa) = 39.98933 59.07740 49.53336
# Shear Modulus (GPa) = 30.04891 36.21376 33.13134
#
# Velocity S-wave (km/s) = 3.79787 4.16929 3.98790
# Velocity P-wave (km/s) = 6.19895 7.17879 6.70679
#
# Compressibility (1/GPa) = 0.02500667
#
# Stress axis : x y z
#
# Youngs Moduli (GPa) = 56.33773 97.20076 69.61742
#
# Poissons Ratio (x) = 0.70984 -0.00320
# Poissons Ratio (y) = 0.41142 0.10032
# Poissons Ratio (z) = -0.00259 0.14007
#
# Static dielectric constant tensor:
#      x y z
#    x 4.090300 0.000000 -0.799210 
#    y 0.000000 3.972950 0.000000 
#    z -0.799210 0.000000 3.469780 
# 
# 
# High freq. dielectric constant tensor:
#      x y z
#    x 1.814930 0.000000 -0.010620 
#    y 0.000000 1.814050 0.000000 
#    z -0.010620 0.000000 1.822120 
# 
# From -- ./inp_files/263489.got.cif
#   From: 2010.06.25/outbox.cif.g09.slc.cpg/sg15_132_cif.got.tgz:263489.got - 2010.06.28 07:06:18.
