data_PCOD8146181
_publ_section_title
;
Structure prediction by ZEFSAII (Michael W. Deem and Ramdas Pophale) SiO2 
 PCOD8146181
Probable space group: C 2/C
;
_chemical_formula_sum "Si O2"
_cell_formula_units_Z 44
_cell_length_a 19.100655
_cell_length_b 12.952645
_cell_length_c 24.602310
_cell_angle_alpha 90.000000
_cell_angle_beta 160.692340
_cell_angle_gamma 90.000000
_cell_volume 2012.513252
_symmetry_space_group_name_H-M "C 2/C"
_symmetry_group_IT_number 15
_symmetry_cell_setting 'monoclinic'
loop_
_space_group_symop_operation_xyz
x,y,z
-x,y,1/2-z
-x,-y,-z
x,-y,1/2+z
1/2+x,1/2+y,z
1/2-x,1/2+y,1/2-z
1/2-x,1/2-y,-z
1/2+x,1/2-y,1/2+z
loop_
_atom_site_type_symbol
_atom_site_label
_atom_site_fract_x
_atom_site_fract_y
_atom_site_fract_z
Si Si1 0.241080 0.628551 0.493546
Si Si2 0.637047 0.042583 0.216143
Si Si3 0.717636 0.971246 0.390040
Si Si4 0.000000 0.986484 0.750000
Si Si5 0.106790 0.163052 0.178516
Si Si6 0.388366 0.871763 0.986303
O O1 0.250000 0.750000 0.500000
O O2 0.200555 0.586699 0.403011
O O3 0.452111 0.566445 0.665852
O O4 0.060451 0.603696 0.404669
O O5 0.804087 0.123108 0.313833
O O6 0.741841 0.978396 0.342671
O O7 0.561620 0.964299 0.112845
O O8 0.500000 0.913386 0.250000
O O9 0.916840 0.909831 0.560218
O O10 0.196130 0.910128 0.883117
O O11 0.300929 0.160320 0.363311
O O12 0.010102 0.276178 0.102380
#
# Coordination Sequence:
#
# PCOD8146181 Si02
#       6
#     8   8   8   4   8   8
#     4  10  22  40  68  95 129 173 220 271 333 383
#     4  10  24  43  62  97 134 164 225 275 322 397
#     4  10  22  42  65  97 127 175 226 273 322 398
#     4  10  22  44  64 100 132 164 226 288 304 404
#     4  12  24  43  67  95 134 180 214 275 340 397
#     4  11  25  43  67  99 130 176 222 271 342 386
#
# _framework density 21.863211
#
# number of rings (size 3 to 8) (size 9 to 14) (size 15 to 20)
#    0.000    1.455    1.818    2.182    5.091    3.636 
#    3.273    0.000    0.000    0.000    0.000    0.000 
#    0.000    0.000    0.000    0.000    0.000    0.000 
#
# Total GULP energy -272674.272894 kJ/mol
# GULP energy per Si atom -12394.285132 kJ/mol
# Density = 2.181345 g / cm^3
# Si number density = 21.863211 Si / 1000 Ang^3
#
#
#
# Elastic Constant Matrix: (Units=GPa)
#
#
# Indices 1 2 3 4 5 6 
#
# 1 82.8116 40.1114 32.7217 -0.0248 -5.6238 0.0054
# 2 40.1114 151.0709 60.0832 -0.0450 7.0119 -0.0413
# 3 32.7217 60.0832 98.8741 -0.1088 -13.9870 -0.0530
# 4 -0.0248 -0.0450 -0.1088 36.6994 -0.0593 0.2960
# 5 -5.6238 7.0119 -13.9870 -0.0593 36.0483 0.0004
# 6 0.0054 -0.0413 -0.0530 0.2960 0.0004 21.3705
#
#
#
# Elastic Compliance Matrix: (Units=1/GPa)
#
#
# Indices 1 2 3 4 5 6 
#
# 1 0.014711 -0.002830 -0.002906 0.000001 0.001718 -0.000016
# 2 -0.002830 0.009847 -0.005693 -0.000014 -0.004566 0.000006
# 3 -0.002906 -0.005693 0.015477 0.000047 0.006659 0.000027
# 4 0.000001 -0.000014 0.000047 0.027252 0.000066 -0.000377
# 5 0.001718 -0.004566 0.006659 0.000066 0.031481 0.000006
# 6 -0.000016 0.000006 0.000027 -0.000377 0.000006 0.046799
#
#
# Mechanical properties :
#
#
# Convention : Reuss Voigt Hill
#
# Bulk Modulus (GPa) = 58.21558 66.50991 62.36274
# Shear Modulus (GPa) = 28.71080 32.14631 30.42855
#
# Velocity S-wave (km/s) = 3.62774 3.83866 3.73469
# Velocity P-wave (km/s) = 6.65074 7.08054 6.86900
#
# Compressibility (1/GPa) = 0.01717753
#
# Stress axis : x y z
#
# Youngs Moduli (GPa) = 67.97505 101.55390 64.61136
#
# Poissons Ratio (x) = 0.28741 0.18774
# Poissons Ratio (y) = 0.19238 0.36784
# Poissons Ratio (z) = 0.19752 0.57815
#
# Static dielectric constant tensor:
#      x y z
#    x 3.671410 -0.000010 -0.131890 
#    y -0.000010 3.804940 -0.000190 
#    z -0.131890 -0.000190 4.340530 
# 
# 
# High freq. dielectric constant tensor:
#      x y z
#    x 1.845410 0.000000 -0.009730 
#    y 0.000000 1.850920 -0.000020 
#    z -0.009730 -0.000020 1.879640 
# 
# From -- ./inp_files/54354.got.cif
#   From: 2010.06.25/outbox.cif.g09.slc.cpg/sg15_28_cif.got.tgz:54354.got - 2010.06.28 07:06:18.
