data_PCOD8146763
_publ_section_title
;
Structure prediction by ZEFSAII (Michael W. Deem and Ramdas Pophale) SiO2 
 PCOD8146763
Probable space group: C 2/C
;
_chemical_formula_sum "Si O2"
_cell_formula_units_Z 52
_cell_length_a 28.305881
_cell_length_b 12.797138
_cell_length_c 8.389308
_cell_angle_alpha 90.000000
_cell_angle_beta 55.704743
_cell_angle_gamma 90.000000
_cell_volume 2510.567582
_symmetry_space_group_name_H-M "C 2/C"
_symmetry_group_IT_number 15
_symmetry_cell_setting 'monoclinic'
loop_
_space_group_symop_operation_xyz
x,y,z
-x,y,1/2-z
-x,-y,-z
x,-y,1/2+z
1/2+x,1/2+y,z
1/2-x,1/2+y,1/2-z
1/2-x,1/2-y,-z
1/2+x,1/2-y,1/2+z
loop_
_atom_site_type_symbol
_atom_site_label
_atom_site_fract_x
_atom_site_fract_y
_atom_site_fract_z
Si Si1 0.111975 0.037034 0.477464
Si Si2 0.000000 0.918871 0.750000
Si Si3 0.311113 0.867946 0.845199
Si Si4 0.549590 0.084572 0.910164
Si Si5 0.871796 0.510278 0.983810
Si Si6 0.525272 0.682372 0.525498
Si Si7 0.322116 0.371661 0.357754
O O1 0.087521 0.125375 0.401193
O O2 0.152021 0.099909 0.521463
O O3 0.057156 0.986315 0.668994
O O4 0.150555 0.947915 0.324531
O O5 0.010301 0.857549 0.562577
O O6 0.321628 0.917647 0.650963
O O7 0.334017 0.749353 0.796332
O O8 0.245747 0.884419 0.014367
O O9 0.348602 0.928737 0.901337
O O10 0.579907 0.087356 0.680351
O O11 0.599399 0.059374 0.937534
O O12 0.524388 0.194803 0.005860
O O13 0.500000 0.000000 0.000000
O O14 0.500000 0.656284 0.750000
#
# Coordination Sequence:
#
# PCOD8146763 Si02
#       7
#     8   4   8   8   8   8   8
#     4  12  23  44  63  98 135 178 218 281 334 416
#     4  12  26  42  64  98 140 178 226 268 344 412
#     4  10  23  44  65  99 122 178 222 288 347 407
#     4  11  24  40  63  98 128 178 227 274 341 415
#     4  10  22  42  64  87 137 163 220 286 339 404
#     4  12  25  42  65  94 141 181 219 276 334 412
#     4  11  24  40  71  93 132 170 233 276 347 408
#
# _framework density 20.712447999999998
#
# number of rings (size 3 to 8) (size 9 to 14) (size 15 to 20)
#    0.000    0.923    2.308    4.615    4.308    2.462 
#    0.000    0.000    0.000   10.154    0.000    0.000 
#    0.000    0.000    0.000    0.000    0.000    0.000 
#
# Total GULP energy -322245.871293 kJ/mol
# GULP energy per Si atom -12394.071973 kJ/mol
# Density = 2.066531 g / cm^3
# Si number density = 20.712448 Si / 1000 Ang^3
#
#
#
# Elastic Constant Matrix: (Units=GPa)
#
#
# Indices 1 2 3 4 5 6 
#
# 1 69.0347 35.9816 5.9534 0.0000 -7.0741 0.0000
# 2 35.9816 126.9680 49.1645 0.0000 -13.8795 0.0000
# 3 5.9534 49.1645 93.5947 0.0000 -8.6203 0.0000
# 4 0.0000 0.0000 0.0000 33.1768 0.0000 0.2442
# 5 -7.0741 -13.8795 -8.6203 0.0000 30.2328 0.0000
# 6 0.0000 0.0000 0.0000 0.2442 0.0000 35.2602
#
#
#
# Elastic Compliance Matrix: (Units=1/GPa)
#
#
# Indices 1 2 3 4 5 6 
#
# 1 0.017374 -0.005447 0.001952 0.000000 0.002121 0.000000
# 2 -0.005447 0.011894 -0.005665 0.000000 0.002571 0.000000
# 3 0.001952 -0.005665 0.013698 0.000000 0.001762 0.000000
# 4 0.000000 0.000000 0.000000 0.030143 0.000000 -0.000209
# 5 0.002121 0.002571 0.001762 0.000000 0.035255 0.000000
# 6 0.000000 0.000000 0.000000 -0.000209 0.000000 0.028362
#
#
# Mechanical properties :
#
#
# Convention : Reuss Voigt Hill
#
# Bulk Modulus (GPa) = 40.57569 52.42181 46.49875
# Shear Modulus (GPa) = 30.62549 32.96715 31.79632
#
# Velocity S-wave (km/s) = 3.84943 3.99389 3.92233
# Velocity P-wave (km/s) = 6.27615 6.82880 6.55830
#
# Compressibility (1/GPa) = 0.02464530
#
# Stress axis : x y z
#
# Youngs Moduli (GPa) = 57.55800 84.07414 73.00280
#
# Poissons Ratio (x) = 0.45799 -0.14248
# Poissons Ratio (y) = 0.31355 0.41354
# Poissons Ratio (z) = -0.11234 0.47625
#
# Static dielectric constant tensor:
#      x y z
#    x 3.783430 0.000000 0.019670 
#    y 0.000000 3.895460 0.000000 
#    z 0.019670 0.000000 4.157530 
# 
# 
# High freq. dielectric constant tensor:
#      x y z
#    x 1.816830 0.000000 0.005210 
#    y 0.000000 1.822570 0.000000 
#    z 0.005210 0.000000 1.813970 
# 
# From -- ./inp_files/65359.got.cif
#   From: 2010.06.25/outbox.cif.g09.slc.cpg/sg15_33_cif.got.tgz:65359.got - 2010.06.28 07:06:18.
