data_PCOD8146989
_publ_section_title
;
Structure prediction by ZEFSAII (Michael W. Deem and Ramdas Pophale) SiO2 
 PCOD8146989
Probable space group: C 2/C
;
_chemical_formula_sum "Si O2"
_cell_formula_units_Z 36
_cell_length_a 17.294074
_cell_length_b 15.717515
_cell_length_c 14.265837
_cell_angle_alpha 90.000000
_cell_angle_beta 25.258552
_cell_angle_gamma 90.000000
_cell_volume 1654.645254
_symmetry_space_group_name_H-M "C 2/C"
_symmetry_group_IT_number 15
_symmetry_cell_setting 'monoclinic'
loop_
_space_group_symop_operation_xyz
x,y,z
-x,y,1/2-z
-x,-y,-z
x,-y,1/2+z
1/2+x,1/2+y,z
1/2-x,1/2+y,1/2-z
1/2-x,1/2-y,-z
1/2+x,1/2-y,1/2+z
loop_
_atom_site_type_symbol
_atom_site_label
_atom_site_fract_x
_atom_site_fract_y
_atom_site_fract_z
Si Si1 0.418047 0.653193 0.443086
Si Si2 0.782142 0.336548 0.646150
Si Si3 0.423680 0.034845 0.680280
Si Si4 0.000000 0.773871 0.250000
Si Si5 0.841365 0.354502 0.801436
O O1 0.500000 0.649896 0.250000
O O2 0.579399 0.637029 0.339924
O O3 0.319432 0.742553 0.567849
O O4 0.269578 0.580299 0.621755
O O5 0.799481 0.343056 0.738407
O O6 0.928677 0.400387 0.437206
O O7 0.500000 0.000000 0.500000
O O8 0.397770 0.949906 0.770212
O O9 0.994925 0.713472 0.162827
O O10 0.829214 0.834846 0.445676
#
# Coordination Sequence:
#
# PCOD8146989 Si02
#       5
#     8   8   8   4   8
#     4  12  25  41  70 102 135 179 225 274 333 400
#     4  11  23  44  70  94 138 179 219 272 344 399
#     4  10  25  44  66 101 131 178 226 276 330 404
#     4  10  22  42  68  92 128 174 218 278 336 390
#     4  10  23  43  64  96 127 171 224 273 334 395
#
# _framework density 21.756927999999998
#
# number of rings (size 3 to 8) (size 9 to 14) (size 15 to 20)
#    0.000    1.333    2.222    2.000    4.667    5.333 
#    4.000    0.000    0.000    0.000    0.000    0.000 
#    0.000    0.000    0.000    0.000    0.000    0.000 
#
# Total GULP energy -223172.284529 kJ/mol
# GULP energy per Si atom -12398.460252 kJ/mol
# Density = 2.170741 g / cm^3
# Si number density = 21.756928 Si / 1000 Ang^3
#
#
#
# Elastic Constant Matrix: (Units=GPa)
#
#
# Indices 1 2 3 4 5 6 
#
# 1 72.6739 8.4669 24.2539 -0.0183 -2.6920 0.0103
# 2 8.4669 147.7645 62.4462 -0.0158 2.3650 0.0100
# 3 24.2539 62.4462 107.5485 -0.0220 -16.7619 0.0160
# 4 -0.0183 -0.0158 -0.0220 46.0995 0.0104 -0.1028
# 5 -2.6920 2.3650 -16.7619 0.0104 37.5344 -0.0069
# 6 0.0103 0.0100 0.0160 -0.1028 -0.0069 19.6733
#
#
#
# Elastic Compliance Matrix: (Units=1/GPa)
#
#
# Indices 1 2 3 4 5 6 
#
# 1 0.014962 0.000836 -0.003977 0.000004 -0.000756 -0.000005
# 2 0.000836 0.009365 -0.006136 0.000001 -0.003270 -0.000001
# 3 -0.003977 -0.006136 0.014804 0.000002 0.006712 -0.000004
# 4 0.000004 0.000001 0.000002 0.021692 -0.000005 0.000113
# 5 -0.000756 -0.003270 0.006712 -0.000005 0.029792 0.000007
# 6 -0.000005 -0.000001 -0.000004 0.000113 0.000007 0.050831
#
#
# Mechanical properties :
#
#
# Convention : Reuss Voigt Hill
#
# Bulk Modulus (GPa) = 48.59970 57.59123 53.09546
# Shear Modulus (GPa) = 29.96539 36.18277 33.07408
#
# Velocity S-wave (km/s) = 3.71520 4.08247 3.90316
# Velocity P-wave (km/s) = 6.38668 6.98211 6.69102
#
# Compressibility (1/GPa) = 0.02057626
#
# Stress axis : x y z
#
# Youngs Moduli (GPa) = 66.83566 106.78072 67.55028
#
# Poissons Ratio (x) = -0.08922 0.26865
# Poissons Ratio (y) = -0.05584 0.41447
# Poissons Ratio (z) = 0.26581 0.65518
#
# Static dielectric constant tensor:
#      x y z
#    x 3.862710 -0.000020 -0.264330 
#    y -0.000020 4.722030 0.000020 
#    z -0.264330 0.000020 4.214710 
# 
# 
# High freq. dielectric constant tensor:
#      x y z
#    x 1.848400 0.000000 -0.008890 
#    y 0.000000 1.871460 0.000000 
#    z -0.008890 0.000000 1.864100 
# 
# From -- ./inp_files/47330.got.cif
#   From: 2010.06.25/outbox.cif.g09.slc.cpg/sg15_24_cif.got.tgz:47330.got - 2010.06.28 07:06:18.
