data_PCOD8146369
_publ_section_title
;
Structure prediction by ZEFSAII (Michael W. Deem and Ramdas Pophale) SiO2 
 PCOD8146369
Probable space group: C 2/C
;
_chemical_formula_sum "Si O2"
_cell_formula_units_Z 52
_cell_length_a 12.495834
_cell_length_b 25.367295
_cell_length_c 8.485795
_cell_angle_alpha 90.000000
_cell_angle_beta 65.520962
_cell_angle_gamma 90.000000
_cell_volume 2448.089132
_symmetry_space_group_name_H-M "C 2/C"
_symmetry_group_IT_number 15
_symmetry_cell_setting 'monoclinic'
loop_
_space_group_symop_operation_xyz
x,y,z
-x,y,1/2-z
-x,-y,-z
x,-y,1/2+z
1/2+x,1/2+y,z
1/2-x,1/2+y,1/2-z
1/2-x,1/2-y,-z
1/2+x,1/2-y,1/2+z
loop_
_atom_site_type_symbol
_atom_site_label
_atom_site_fract_x
_atom_site_fract_y
_atom_site_fract_z
Si Si1 0.871853 0.762554 0.252080
Si Si2 0.620167 0.957729 0.095952
Si Si3 0.026605 0.173556 0.068168
Si Si4 0.500000 0.519942 0.750000
Si Si5 0.378291 0.928161 0.775128
Si Si6 0.223734 0.830866 0.927656
Si Si7 0.870515 0.063504 0.539353
O O1 0.785733 0.803649 0.395192
O O2 0.807038 0.706527 0.270803
O O3 0.000000 0.754084 0.250000
O O4 0.885822 0.786763 0.071420
O O5 0.500000 0.936316 0.250000
O O6 0.729325 0.933289 0.125157
O O7 0.628331 0.020619 0.109560
O O8 0.627282 0.942763 0.906754
O O9 0.908020 0.164036 0.047943
O O10 0.000000 0.200935 0.250000
O O11 0.086383 0.117503 0.062485
O O12 0.420568 0.556841 0.685928
O O13 0.588924 0.484900 0.594045
O O14 0.500000 0.899490 0.750000
O O15 0.273491 0.889906 0.892722
#
# Coordination Sequence:
#
# PCOD8146369 Si02
#       7
#     8   8   8   4   8   8   8
#     4   9  21  41  64  88 116 155 208 260 310 377
#     4  11  24  41  59  90 130 172 212 258 310 376
#     4  11  23  39  62  93 125 158 201 258 326 373
#     4  10  24  36  62  92 128 174 208 256 310 376
#     4  11  23  39  63  89 126 169 213 256 311 374
#     4  10  22  41  64  88 118 160 211 256 312 372
#     4  11  23  40  60  92 130 166 213 256 313 377
#
# _framework density 21.241056
#
# number of rings (size 3 to 8) (size 9 to 14) (size 15 to 20)
#    0.000    1.538    0.769    4.154    7.538    3.077 
#    0.000    0.769    0.000    0.000    0.000    0.000 
#    0.000    0.000    0.000    0.000    0.000    0.000 
#
# Total GULP energy -322379.635250 kJ/mol
# GULP energy per Si atom -12399.216740 kJ/mol
# Density = 2.119271 g / cm^3
# Si number density = 21.241056 Si / 1000 Ang^3
#
#
#
# Elastic Constant Matrix: (Units=GPa)
#
#
# Indices 1 2 3 4 5 6 
#
# 1 109.1220 22.3857 41.7180 0.0000 -12.6368 0.0000
# 2 22.3857 71.4466 39.4947 0.0000 -12.8456 0.0000
# 3 41.7180 39.4947 107.0672 0.0000 -4.1203 0.0000
# 4 0.0000 0.0000 0.0000 125.1110 0.0000 -81.2232
# 5 -12.6368 -12.8456 -4.1203 0.0000 37.5721 0.0000
# 6 0.0000 0.0000 0.0000 -81.2232 0.0000 76.9896
#
#
#
# Elastic Compliance Matrix: (Units=1/GPa)
#
#
# Indices 1 2 3 4 5 6 
#
# 1 0.011190 -0.000766 -0.003960 0.000000 0.003068 0.000000
# 2 -0.000766 0.018762 -0.006413 0.000000 0.005454 0.000000
# 3 -0.003960 -0.006413 0.013168 0.000000 -0.002080 0.000000
# 4 0.000000 0.000000 0.000000 0.025367 0.000000 0.026762
# 5 0.003068 0.005454 -0.002080 0.000000 0.029284 0.000000
# 6 0.000000 0.000000 0.000000 0.026762 0.000000 0.041222
#
#
# Mechanical properties :
#
#
# Convention : Reuss Voigt Hill
#
# Bulk Modulus (GPa) = 47.97498 54.98140 51.47819
# Shear Modulus (GPa) = 29.72354 60.20371 44.96362
#
# Velocity S-wave (km/s) = 3.74484 5.32960 4.60589
# Velocity P-wave (km/s) = 6.42911 7.98834 7.25076
#
# Compressibility (1/GPa) = 0.02084420
#
# Stress axis : x y z
#
# Youngs Moduli (GPa) = 89.36404 53.30011 75.94067
#
# Poissons Ratio (x) = 0.04081 0.30070
# Poissons Ratio (y) = 0.06843 0.48697
# Poissons Ratio (z) = 0.35385 0.34179
#
# Static dielectric constant tensor:
#      x y z
#    x 4.064380 0.000000 -0.143590 
#    y 0.000000 3.690840 0.000000 
#    z -0.143590 0.000000 4.069950 
# 
# 
# High freq. dielectric constant tensor:
#      x y z
#    x 1.838820 0.000000 -0.012460 
#    y 0.000000 1.818050 0.000000 
#    z -0.012460 0.000000 1.840980 
# 
# From -- ./inp_files/34061.got.cif
#   From: 2010.06.25/outbox.cif.g09.slc.cpg/sg15_18_cif.got.tgz:34061.got - 2010.06.28 07:06:18.
