data_PCOD8146491
_publ_section_title
;
Structure prediction by ZEFSAII (Michael W. Deem and Ramdas Pophale) SiO2 
 PCOD8146491
Probable space group: C 2/C
;
_chemical_formula_sum "Si O2"
_cell_formula_units_Z 48
_cell_length_a 8.640086
_cell_length_b 21.354673
_cell_length_c 20.486660
_cell_angle_alpha 90.000000
_cell_angle_beta 39.102742
_cell_angle_gamma 90.000000
_cell_volume 2384.041966
_symmetry_space_group_name_H-M "C 2/C"
_symmetry_group_IT_number 15
_symmetry_cell_setting 'monoclinic'
loop_
_space_group_symop_operation_xyz
x,y,z
-x,y,1/2-z
-x,-y,-z
x,-y,1/2+z
1/2+x,1/2+y,z
1/2-x,1/2+y,1/2-z
1/2-x,1/2-y,-z
1/2+x,1/2-y,1/2+z
loop_
_atom_site_type_symbol
_atom_site_label
_atom_site_fract_x
_atom_site_fract_y
_atom_site_fract_z
Si Si1 0.500000 0.677807 0.750000
Si Si2 0.929746 0.001498 0.198304
Si Si3 0.936776 0.398001 0.695330
Si Si4 0.079036 0.396830 0.333141
Si Si5 0.499215 0.239512 0.122228
Si Si6 0.000000 0.700485 0.750000
Si Si7 0.220640 0.000725 0.978591
O O1 0.741222 0.633927 0.671942
O O2 0.477068 0.720172 0.820703
O O3 0.836673 0.072871 0.218651
O O4 0.000000 0.990077 0.250000
O O5 0.723576 0.950522 0.245296
O O6 0.149530 0.987751 0.076768
O O7 0.961695 0.332630 0.651169
O O8 0.101649 0.445951 0.601283
O O9 0.000000 0.390271 0.750000
O O10 0.981570 0.342127 0.319449
O O11 0.845145 0.430745 0.441281
O O12 0.250915 0.259138 0.165426
O O13 0.750000 0.250000 0.000000
O O14 0.000000 0.000000 0.000000
#
# Coordination Sequence:
#
# PCOD8146491 Si02
#       7
#     4   8   8   8   8   4   8
#     4  10  22  46  62  90 130 168 222 278 322 398
#     4  11  24  40  66 100 137 167 217 287 338 395
#     4  11  24  43  65  96 137 174 222 278 334 407
#     4  10  22  41  66  93 131 166 222 276 331 395
#     4  11  26  44  69  95 131 182 224 273 339 391
#     4  10  24  44  68  98 128 178 230 280 320 418
#     4  11  23  39  71  99 128 181 219 268 355 411
#
# _framework density 20.133873000000001
#
# number of rings (size 3 to 8) (size 9 to 14) (size 15 to 20)
#    0.000    1.333    3.333    1.000   10.500    4.000 
#    0.000    1.667    0.000    0.000    0.000    0.000 
#    0.000    0.000    0.000    0.000    0.000    0.000 
#
# Total GULP energy -297512.976197 kJ/mol
# GULP energy per Si atom -12396.374008 kJ/mol
# Density = 2.008805 g / cm^3
# Si number density = 20.133873 Si / 1000 Ang^3
#
#
#
# Elastic Constant Matrix: (Units=GPa)
#
#
# Indices 1 2 3 4 5 6 
#
# 1 123.2708 53.4393 52.8048 0.0014 -4.4520 -0.0031
# 2 53.4393 144.5103 47.7602 0.0001 -7.1447 -0.0005
# 3 52.8048 47.7602 132.6417 -0.0006 2.3847 -0.0007
# 4 0.0014 0.0001 -0.0006 26.6503 -0.0005 -3.0451
# 5 -4.4520 -7.1447 2.3847 -0.0005 34.5762 0.0010
# 6 -0.0031 -0.0005 -0.0007 -3.0451 0.0010 21.8251
#
#
#
# Elastic Compliance Matrix: (Units=1/GPa)
#
#
# Indices 1 2 3 4 5 6 
#
# 1 0.010795 -0.002855 -0.003288 0.000000 0.001027 0.000001
# 2 -0.002855 0.008726 -0.002034 0.000000 0.001576 0.000000
# 3 -0.003288 -0.002034 0.009608 0.000000 -0.001506 0.000000
# 4 0.000000 0.000000 0.000000 0.038131 0.000000 0.005320
# 5 0.001027 0.001576 -0.001506 0.000000 0.029483 -0.000001
# 6 0.000001 0.000000 0.000000 0.005320 -0.000001 0.046561
#
#
# Mechanical properties :
#
#
# Convention : Reuss Voigt Hill
#
# Bulk Modulus (GPa) = 78.27570 78.71459 78.49514
# Shear Modulus (GPa) = 30.50354 33.03822 31.77088
#
# Velocity S-wave (km/s) = 3.89657 4.05523 3.97669
# Velocity P-wave (km/s) = 7.69457 7.81710 7.75607
#
# Compressibility (1/GPa) = 0.01277536
#
# Stress axis : x y z
#
# Youngs Moduli (GPa) = 92.63239 114.60561 104.08484
#
# Poissons Ratio (x) = 0.32715 0.34226
# Poissons Ratio (y) = 0.26442 0.21168
# Poissons Ratio (z) = 0.30460 0.23308
#
# Static dielectric constant tensor:
#      x y z
#    x 3.396160 -0.000010 0.244980 
#    y -0.000010 3.913370 0.000010 
#    z 0.244980 0.000010 3.277130 
# 
# 
# High freq. dielectric constant tensor:
#      x y z
#    x 1.792790 0.000000 -0.005460 
#    y 0.000000 1.801360 0.000000 
#    z -0.005460 0.000000 1.782670 
# 
# From -- ./inp_files/192328.got.cif
#   From: 2010.06.25/outbox.cif.g09.slc.cpg/sg15_97_cif.got.tgz:192328.got - 2010.06.28 07:06:18.
