data_PCOD8146074
_publ_section_title
;
Structure prediction by ZEFSAII (Michael W. Deem and Ramdas Pophale) SiO2 
 PCOD8146074
Probable space group: C 2/C
;
_chemical_formula_sum "Si O2"
_cell_formula_units_Z 60
_cell_length_a 13.687319
_cell_length_b 17.766994
_cell_length_c 12.733021
_cell_angle_alpha 90.000000
_cell_angle_beta 106.772032
_cell_angle_gamma 90.000000
_cell_volume 2964.726618
_symmetry_space_group_name_H-M "C 2/C"
_symmetry_group_IT_number 15
_symmetry_cell_setting 'monoclinic'
loop_
_space_group_symop_operation_xyz
x,y,z
-x,y,1/2-z
-x,-y,-z
x,-y,1/2+z
1/2+x,1/2+y,z
1/2-x,1/2+y,1/2-z
1/2-x,1/2-y,-z
1/2+x,1/2-y,1/2+z
loop_
_atom_site_type_symbol
_atom_site_label
_atom_site_fract_x
_atom_site_fract_y
_atom_site_fract_z
Si Si1 0.734839 0.702866 0.342441
Si Si2 0.982595 0.448884 0.897602
Si Si3 0.043582 0.286677 0.647793
Si Si4 0.482669 0.629309 0.943407
Si Si5 0.333152 0.988733 0.682306
Si Si6 0.248385 0.638980 0.930314
Si Si7 0.000000 0.028000 0.750000
Si Si8 0.370951 0.412920 0.824779
O O1 0.834811 0.722470 0.305640
O O2 0.753034 0.643813 0.443651
O O3 0.696975 0.783177 0.374359
O O4 0.651409 0.665918 0.240006
O O5 0.970542 0.361698 0.926179
O O6 0.880233 0.484176 0.813657
O O7 0.083649 0.445954 0.859638
O O8 0.000000 0.500000 0.000000
O O9 0.991045 0.216454 0.572364
O O10 0.000000 0.296252 0.750000
O O11 0.361858 0.621815 0.922963
O O12 0.522876 0.580181 0.857786
O O13 0.538735 0.600796 0.064796
O O14 0.227380 0.943599 0.644165
O O15 0.323026 0.073129 0.635599
O O16 0.904048 0.974850 0.748508
#
# Coordination Sequence:
#
# PCOD8146074 Si02
#       8
#     8   8   8   8   8   8   4   8
#     4  10  22  40  66  90 127 176 207 267 326 372
#     4  11  23  41  65  95 120 172 211 267 321 369
#     4  11  20  43  65  87 131 167 212 265 324 382
#     4  11  25  41  66  95 129 175 212 266 328 393
#     4  11  23  39  63  91 131 157 215 264 311 389
#     4  10  22  43  64  93 130 172 216 258 326 394
#     4  12  24  40  64  96 134 172 212 264 332 378
#     4  12  24  40  64  99 129 164 218 267 320 389
#
# _framework density 20.237953999999998
#
# number of rings (size 3 to 8) (size 9 to 14) (size 15 to 20)
#    0.000    1.067    4.667    2.000    1.867    1.067 
#    0.000    6.667    0.000    0.000    0.000    0.000 
#    0.000    0.000    0.000    0.000    0.000    0.000 
#
# Total GULP energy -371921.190218 kJ/mol
# GULP energy per Si atom -12397.373007 kJ/mol
# Density = 2.019189 g / cm^3
# Si number density = 20.237954 Si / 1000 Ang^3
#
#
#
# Elastic Constant Matrix: (Units=GPa)
#
#
# Indices 1 2 3 4 5 6 
#
# 1 68.4006 24.1440 20.1554 0.0000 2.8453 0.0000
# 2 24.1440 125.2418 44.7917 0.0000 16.4623 0.0000
# 3 20.1554 44.7917 92.0838 0.0000 3.0507 0.0000
# 4 0.0000 0.0000 0.0000 34.8017 0.0000 -2.2380
# 5 2.8453 16.4623 3.0507 0.0000 26.3959 0.0000
# 6 0.0000 0.0000 0.0000 -2.2380 0.0000 31.1714
#
#
#
# Elastic Compliance Matrix: (Units=1/GPa)
#
#
# Indices 1 2 3 4 5 6 
#
# 1 0.016129 -0.002226 -0.002445 0.000000 -0.000068 0.000000
# 2 -0.002226 0.010842 -0.004588 0.000000 -0.005992 0.000000
# 3 -0.002445 -0.004588 0.013575 0.000000 0.001556 0.000000
# 4 0.000000 0.000000 0.000000 0.028868 0.000000 0.002073
# 5 -0.000068 -0.005992 0.001556 0.000000 0.041449 0.000000
# 6 0.000000 0.000000 0.000000 0.002073 0.000000 0.032229
#
#
# Mechanical properties :
#
#
# Convention : Reuss Voigt Hill
#
# Bulk Modulus (GPa) = 45.39803 51.54537 48.47170
# Shear Modulus (GPa) = 29.59399 31.58282 30.58841
#
# Velocity S-wave (km/s) = 3.82815 3.95470 3.89194
# Velocity P-wave (km/s) = 6.48232 6.81012 6.64824
#
# Compressibility (1/GPa) = 0.02202739
#
# Stress axis : x y z
#
# Youngs Moduli (GPa) = 62.00088 92.23264 73.66400
#
# Poissons Ratio (x) = 0.20529 0.18013
# Poissons Ratio (y) = 0.13800 0.33798
# Poissons Ratio (z) = 0.15161 0.42318
#
# Static dielectric constant tensor:
#      x y z
#    x 3.719600 0.000000 -0.082220 
#    y 0.000000 3.974850 0.000000 
#    z -0.082220 0.000000 3.045920 
# 
# 
# High freq. dielectric constant tensor:
#      x y z
#    x 1.794390 0.000000 -0.018590 
#    y 0.000000 1.807510 0.000000 
#    z -0.018590 0.000000 1.775510 
# 
# From -- ./inp_files/98799.got.cif
#   From: 2010.06.25/outbox.cif.g09.slc.cpg/sg15_50_cif.got.tgz:98799.got - 2010.06.28 07:06:18.
