data_PCOD8146212
_publ_section_title
;
Structure prediction by ZEFSAII (Michael W. Deem and Ramdas Pophale) SiO2 
 PCOD8146212
Probable space group: C 2/C
;
_chemical_formula_sum "Si O2"
_cell_formula_units_Z 40
_cell_length_a 8.432796
_cell_length_b 17.945955
_cell_length_c 23.715629
_cell_angle_alpha 90.000000
_cell_angle_beta 149.603609
_cell_angle_gamma 90.000000
_cell_volume 1815.957506
_symmetry_space_group_name_H-M "C 2/C"
_symmetry_group_IT_number 15
_symmetry_cell_setting 'monoclinic'
loop_
_space_group_symop_operation_xyz
x,y,z
-x,y,1/2-z
-x,-y,-z
x,-y,1/2+z
1/2+x,1/2+y,z
1/2-x,1/2+y,1/2-z
1/2-x,1/2-y,-z
1/2+x,1/2-y,1/2+z
loop_
_atom_site_type_symbol
_atom_site_label
_atom_site_fract_x
_atom_site_fract_y
_atom_site_fract_z
Si Si1 0.072420 0.182893 0.668165
Si Si2 0.580581 0.004936 0.178369
Si Si3 0.224353 0.040429 0.885094
Si Si4 0.356448 0.160994 0.143252
Si Si5 0.744510 0.862872 0.399234
O O1 0.101558 0.165918 0.611053
O O2 0.402109 0.173547 0.802493
O O3 0.804516 0.129140 0.611883
O O4 0.973498 0.267536 0.645881
O O5 0.696990 0.970789 0.155614
O O6 0.306171 0.952708 0.119816
O O7 0.906576 0.997954 0.312965
O O8 0.471818 0.089775 0.142868
O O9 0.500000 0.000000 0.000000
O O10 0.500000 0.157869 0.250000
O O11 0.975183 0.158484 0.022364
#
# Coordination Sequence:
#
# PCOD8146212 Si02
#       5
#     8   8   8   8   8
#     4  10  24  44  69  95 129 172 217 272 330 377
#     4  10  24  41  64  96 126 172 219 257 320 387
#     4  10  22  40  69  93 128 168 218 265 315 384
#     4  12  27  39  66 103 134 165 219 274 328 384
#     4  10  23  45  71  88 132 176 220 263 324 392
#
# _framework density 22.026948000000001
#
# number of rings (size 3 to 8) (size 9 to 14) (size 15 to 20)
#    0.000    1.600    0.000    2.400   14.000    5.600 
#    0.000    0.000    0.000    0.000    0.000    0.000 
#    0.000    0.000    0.000    0.000    0.000    0.000 
#
# Total GULP energy -247853.409794 kJ/mol
# GULP energy per Si atom -12392.670490 kJ/mol
# Density = 2.197681 g / cm^3
# Si number density = 22.026948 Si / 1000 Ang^3
#
#
#
# Elastic Constant Matrix: (Units=GPa)
#
#
# Indices 1 2 3 4 5 6 
#
# 1 90.7457 62.7006 37.4217 -0.0028 -2.2468 -0.0003
# 2 62.7006 210.8093 58.7225 0.0057 16.3204 -0.0012
# 3 37.4217 58.7225 184.7062 0.0243 8.9228 -0.0029
# 4 -0.0028 0.0057 0.0243 26.7961 0.0040 9.9167
# 5 -2.2468 16.3204 8.9228 0.0040 23.5520 0.0005
# 6 -0.0003 -0.0012 -0.0029 9.9167 0.0005 27.3226
#
#
#
# Elastic Compliance Matrix: (Units=1/GPa)
#
#
# Indices 1 2 3 4 5 6 
#
# 1 0.014900 -0.004299 -0.001899 0.000004 0.005120 -0.000002
# 2 -0.004299 0.006667 -0.001024 0.000000 -0.004642 0.000000
# 3 -0.001899 -0.001024 0.006213 -0.000006 -0.001825 0.000003
# 4 0.000004 0.000000 -0.000006 0.043109 -0.000004 -0.015646
# 5 0.005120 -0.004642 -0.001825 -0.000004 0.046856 0.000000
# 6 -0.000002 0.000000 0.000003 -0.015646 0.000000 0.042279
#
#
# Mechanical properties :
#
#
# Convention : Reuss Voigt Hill
#
# Bulk Modulus (GPa) = 74.99446 89.32788 82.16117
# Shear Modulus (GPa) = 27.94640 37.36190 32.65415
#
# Velocity S-wave (km/s) = 3.56580 4.12295 3.85445
# Velocity P-wave (km/s) = 7.14659 7.95656 7.56243
#
# Compressibility (1/GPa) = 0.01333432
#
# Stress axis : x y z
#
# Youngs Moduli (GPa) = 67.11293 149.99264 160.96185
#
# Poissons Ratio (x) = 0.64483 0.30573
# Poissons Ratio (y) = 0.28852 0.16488
# Poissons Ratio (z) = 0.12747 0.15365
#
# Static dielectric constant tensor:
#      x y z
#    x 3.663100 0.000000 0.316050 
#    y 0.000000 3.985210 -0.000060 
#    z 0.316050 -0.000060 3.974170 
# 
# 
# High freq. dielectric constant tensor:
#      x y z
#    x 1.852030 0.000000 0.005640 
#    y 0.000000 1.868520 0.000000 
#    z 0.005640 0.000000 1.886100 
# 
# From -- ./inp_files/265667.got.cif
#   From: 2010.06.25/outbox.cif.g09.slc.cpg/sg15_133_cif.got.tgz:265667.got - 2010.06.28 07:06:18.
