data_PCOD8146306
_publ_section_title
;
Structure prediction by ZEFSAII (Michael W. Deem and Ramdas Pophale) SiO2 
 PCOD8146306
Probable space group: C 2/C
;
_chemical_formula_sum "Si O2"
_cell_formula_units_Z 52
_cell_length_a 28.843621
_cell_length_b 5.127260
_cell_length_c 16.617882
_cell_angle_alpha 90.000000
_cell_angle_beta 112.983508
_cell_angle_gamma 90.000000
_cell_volume 2262.506918
_symmetry_space_group_name_H-M "C 2/C"
_symmetry_group_IT_number 15
_symmetry_cell_setting 'monoclinic'
loop_
_space_group_symop_operation_xyz
x,y,z
-x,y,1/2-z
-x,-y,-z
x,-y,1/2+z
1/2+x,1/2+y,z
1/2-x,1/2+y,1/2-z
1/2-x,1/2-y,-z
1/2+x,1/2-y,1/2+z
loop_
_atom_site_type_symbol
_atom_site_label
_atom_site_fract_x
_atom_site_fract_y
_atom_site_fract_z
Si Si1 0.250926 0.938306 0.196985
Si Si2 0.341003 0.394996 0.476368
Si Si3 0.566807 0.745022 0.556416
Si Si4 0.158014 0.682183 0.858025
Si Si5 0.500000 0.527580 0.250000
Si Si6 0.029831 0.729474 0.611888
Si Si7 0.603714 0.671808 0.856090
O O1 0.263505 0.196745 0.255800
O O2 0.298671 0.859678 0.176774
O O3 0.205115 0.006275 0.106304
O O4 0.377794 0.229165 0.443891
O O5 0.373515 0.632844 0.538046
O O6 0.320226 0.212942 0.535665
O O7 0.559505 0.459370 0.587552
O O8 0.526525 0.805725 0.459707
O O9 0.561167 0.962013 0.622436
O O10 0.126876 0.943706 0.814208
O O11 0.118928 0.445400 0.828908
O O12 0.474099 0.714455 0.296970
O O13 0.456993 0.345607 0.180726
#
# Coordination Sequence:
#
# PCOD8146306 Si02
#       7
#     8   8   8   8   4   8   8
#     4  12  28  45  73 107 139 173 232 299 355 408
#     4  10  25  46  74  95 142 184 233 280 347 428
#     4  10  22  41  61  96 127 184 213 279 338 397
#     4  10  24  47  70 102 135 193 225 283 350 423
#     4  12  24  46  66 110 132 194 232 288 324 418
#     4  10  23  38  64  90 139 169 231 268 333 396
#     4  10  25  40  75  96 142 179 240 274 336 414
#
# _framework density 22.983356000000001
#
# number of rings (size 3 to 8) (size 9 to 14) (size 15 to 20)
#    0.923    0.615    1.538    1.385    4.308    9.231 
#    0.000    0.000    0.000    0.000    0.000    0.000 
#    0.000    0.000    0.000    0.000    0.000    0.000 
#
# Total GULP energy -322394.863771 kJ/mol
# GULP energy per Si atom -12399.802453 kJ/mol
# Density = 2.293105 g / cm^3
# Si number density = 22.983356 Si / 1000 Ang^3
#
#
#
# Elastic Constant Matrix: (Units=GPa)
#
#
# Indices 1 2 3 4 5 6 
#
# 1 77.5704 -10.5925 28.9266 0.0003 -0.8561 0.0000
# 2 -10.5925 82.2441 7.6913 0.0011 11.2492 -0.0001
# 3 28.9266 7.6913 90.0423 0.0003 7.2297 0.0000
# 4 0.0003 0.0011 0.0003 6.7240 0.0000 0.9290
# 5 -0.8561 11.2492 7.2297 0.0000 35.8863 0.0000
# 6 0.0000 -0.0001 0.0000 0.9290 0.0000 24.3654
#
#
#
# Elastic Compliance Matrix: (Units=1/GPa)
#
#
# Indices 1 2 3 4 5 6 
#
# 1 0.015124 0.002336 -0.005111 -0.000001 0.000658 0.000000
# 2 0.002336 0.013118 -0.001571 -0.000002 -0.003740 0.000000
# 3 -0.005111 -0.001571 0.013064 0.000000 -0.002261 0.000000
# 4 -0.000001 -0.000002 0.000000 0.149509 0.000001 -0.005700
# 5 0.000658 -0.003740 -0.002261 0.000001 0.029509 0.000000
# 6 0.000000 0.000000 0.000000 -0.005700 0.000000 0.041259
#
#
# Mechanical properties :
#
#
# Convention : Reuss Voigt Hill
#
# Bulk Modulus (GPa) = 30.66188 33.54529 32.10359
# Shear Modulus (GPa) = 17.78439 28.31723 23.05081
#
# Velocity S-wave (km/s) = 2.78473 3.51390 3.17035
# Velocity P-wave (km/s) = 4.86924 5.57588 5.23450
#
# Compressibility (1/GPa) = 0.03261378
#
# Stress axis : x y z
#
# Youngs Moduli (GPa) = 66.12162 76.23004 76.54894
#
# Poissons Ratio (x) = -0.17806 0.39124
# Poissons Ratio (y) = -0.15444 0.12023
# Poissons Ratio (z) = 0.33794 0.11973
#
# Static dielectric constant tensor:
#      x y z
#    x 4.045440 0.000000 -0.074990 
#    y 0.000000 4.004800 0.000000 
#    z -0.074990 0.000000 4.065160 
# 
# 
# High freq. dielectric constant tensor:
#      x y z
#    x 1.908280 0.000000 -0.005720 
#    y 0.000000 1.901770 0.000000 
#    z -0.005720 0.000000 1.902860 
# 
# From -- ./inp_files/223704.got.cif
#   From: 2010.06.25/outbox.cif.g09.slc.cpg/sg15_112_cif.got.tgz:223704.got - 2010.06.28 07:06:18.
