data_PCOD8146831
_publ_section_title
;
Structure prediction by ZEFSAII (Michael W. Deem and Ramdas Pophale) SiO2 
 PCOD8146831
Probable space group: C 2/C
;
_chemical_formula_sum "Si O2"
_cell_formula_units_Z 60
_cell_length_a 17.345223
_cell_length_b 8.570551
_cell_length_c 19.880928
_cell_angle_alpha 90.000000
_cell_angle_beta 108.085042
_cell_angle_gamma 90.000000
_cell_volume 2809.452118
_symmetry_space_group_name_H-M "C 2/C"
_symmetry_group_IT_number 15
_symmetry_cell_setting 'monoclinic'
loop_
_space_group_symop_operation_xyz
x,y,z
-x,y,1/2-z
-x,-y,-z
x,-y,1/2+z
1/2+x,1/2+y,z
1/2-x,1/2+y,1/2-z
1/2-x,1/2-y,-z
1/2+x,1/2-y,1/2+z
loop_
_atom_site_type_symbol
_atom_site_label
_atom_site_fract_x
_atom_site_fract_y
_atom_site_fract_z
Si Si1 0.251642 0.947197 0.706931
Si Si2 0.008626 0.254762 0.125577
Si Si3 0.670890 0.160915 0.502134
Si Si4 0.008359 0.176623 0.982135
Si Si5 0.317031 0.880913 0.342728
Si Si6 0.000000 0.724411 0.250000
Si Si7 0.076081 0.079960 0.662918
Si Si8 0.888607 0.507306 0.641931
O O1 0.283560 0.970811 0.791966
O O2 0.167598 0.035042 0.672975
O O3 0.315026 0.027876 0.673482
O O4 0.242315 0.764992 0.688946
O O5 0.093096 0.344674 0.160136
O O6 0.938396 0.330167 0.152302
O O7 0.018325 0.073092 0.147090
O O8 0.983049 0.279094 0.040140
O O9 0.750000 0.250000 0.500000
O O10 0.601708 0.291199 0.489796
O O11 0.685653 0.079749 0.578718
O O12 0.645559 0.031115 0.441262
O O13 0.951097 0.203965 0.902254
O O14 0.000000 0.000000 0.000000
O O15 0.066125 0.832753 0.230828
O O16 0.049488 0.625613 0.317549
#
# Coordination Sequence:
#
# PCOD8146831 Si02
#       8
#     8   8   8   8   8   4   8   8
#     4  11  23  41  64  93 131 168 211 269 327 383
#     4   9  22  41  65  91 130 167 210 269 326 375
#     4  11  22  41  68  94 129 171 215 270 329 388
#     4   9  19  40  66  87 121 170 213 257 319 396
#     4  10  22  42  65  92 128 173 211 264 327 389
#     4  12  24  40  68  98 122 170 222 264 312 406
#     4  10  22  42  66  91 124 173 215 258 325 396
#     4  12  24  42  65 101 131 165 218 275 325 382
#
# _framework density 21.356479
#
# number of rings (size 3 to 8) (size 9 to 14) (size 15 to 20)
#    0.000    1.600    2.667    2.400    0.000    4.800 
#    4.800    2.000    0.000    0.000    0.000    0.000 
#    0.000    0.000    0.000    0.000    0.000    0.000 
#
# Total GULP energy -371995.911106 kJ/mol
# GULP energy per Si atom -12399.863704 kJ/mol
# Density = 2.130787 g / cm^3
# Si number density = 21.356479 Si / 1000 Ang^3
#
#
#
# Elastic Constant Matrix: (Units=GPa)
#
#
# Indices 1 2 3 4 5 6 
#
# 1 119.8821 33.7906 28.4102 0.0000 -11.2826 0.0000
# 2 33.7906 54.5242 35.8469 0.0000 -0.4448 0.0000
# 3 28.4102 35.8469 145.3137 0.0000 2.8737 0.0000
# 4 0.0000 0.0000 0.0000 33.7857 0.0000 -0.1834
# 5 -11.2826 -0.4448 2.8737 0.0000 28.9441 0.0000
# 6 0.0000 0.0000 0.0000 -0.1834 0.0000 33.0702
#
#
#
# Elastic Compliance Matrix: (Units=1/GPa)
#
#
# Indices 1 2 3 4 5 6 
#
# 1 0.010604 -0.006113 -0.000646 0.000000 0.004104 0.000000
# 2 -0.006113 0.025437 -0.005050 0.000000 -0.001491 0.000000
# 3 -0.000646 -0.005050 0.008277 0.000000 -0.001151 0.000000
# 4 0.000000 0.000000 0.000000 0.029599 0.000000 0.000164
# 5 0.004104 -0.001491 -0.001151 0.000000 0.036240 0.000000
# 6 0.000000 0.000000 0.000000 0.000164 0.000000 0.030240
#
#
# Mechanical properties :
#
#
# Convention : Reuss Voigt Hill
#
# Bulk Modulus (GPa) = 48.31360 57.31280 52.81320
# Shear Modulus (GPa) = 29.25408 33.93818 31.59613
#
# Velocity S-wave (km/s) = 3.70509 3.99071 3.85055
# Velocity P-wave (km/s) = 6.40119 6.93750 6.67473
#
# Compressibility (1/GPa) = 0.02069811
#
# Stress axis : x y z
#
# Youngs Moduli (GPa) = 94.30366 39.31233 120.82209
#
# Poissons Ratio (x) = 0.24033 0.07808
# Poissons Ratio (y) = 0.57651 0.61019
# Poissons Ratio (z) = 0.06095 0.19854
#
# Static dielectric constant tensor:
#      x y z
#    x 3.936630 0.000000 0.114500 
#    y 0.000000 3.626090 0.000000 
#    z 0.114500 0.000000 4.562950 
# 
# 
# High freq. dielectric constant tensor:
#      x y z
#    x 1.839380 0.000000 0.001180 
#    y 0.000000 1.814300 0.000000 
#    z 0.001180 0.000000 1.856540 
# 
# From -- ./inp_files/247540.got.cif
#   From: 2010.06.25/outbox.cif.g09.slc.cpg/sg15_124_cif.got.tgz:247540.got - 2010.06.28 07:06:18.
