data_PCOD8146686
_publ_section_title
;
Structure prediction by ZEFSAII (Michael W. Deem and Ramdas Pophale) SiO2 
 PCOD8146686
Probable space group: C 2/C
;
_chemical_formula_sum "Si O2"
_cell_formula_units_Z 40
_cell_length_a 22.968787
_cell_length_b 6.906896
_cell_length_c 26.573679
_cell_angle_alpha 90.000000
_cell_angle_beta 25.543575
_cell_angle_gamma 90.000000
_cell_volume 1817.811339
_symmetry_space_group_name_H-M "C 2/C"
_symmetry_group_IT_number 15
_symmetry_cell_setting 'monoclinic'
loop_
_space_group_symop_operation_xyz
x,y,z
-x,y,1/2-z
-x,-y,-z
x,-y,1/2+z
1/2+x,1/2+y,z
1/2-x,1/2+y,1/2-z
1/2-x,1/2-y,-z
1/2+x,1/2-y,1/2+z
loop_
_atom_site_type_symbol
_atom_site_label
_atom_site_fract_x
_atom_site_fract_y
_atom_site_fract_z
Si Si1 0.398518 0.456073 0.373534
Si Si2 0.063839 0.189301 0.310374
Si Si3 0.167785 0.484079 0.414544
Si Si4 0.400589 0.052827 0.421409
Si Si5 0.544703 0.298258 0.941340
O O1 0.500000 0.519197 0.250000
O O2 0.431223 0.566902 0.399933
O O3 0.247923 0.523124 0.477506
O O4 0.425666 0.231157 0.364736
O O5 0.094124 0.179875 0.345816
O O6 0.026673 0.402896 0.317363
O O7 0.187728 0.080620 0.186676
O O8 0.105276 0.398910 0.514651
O O9 0.168521 0.300236 0.375895
O O10 0.082439 0.656713 0.456428
O O11 0.500000 0.500000 0.000000
#
# Coordination Sequence:
#
# PCOD8146686 Si02
#       5
#     8   8   8   8   8
#     4  11  22  42  67  94 127 170 211 271 328 393
#     4  11  23  40  66  93 127 169 210 268 328 389
#     4  10  22  42  61  93 130 163 219 262 311 390
#     4  10  23  43  62  94 129 165 217 269 323 390
#     4  10  23  40  62  90 127 169 212 265 316 378
#
# _framework density 22.004483
#
# number of rings (size 3 to 8) (size 9 to 14) (size 15 to 20)
#    0.000    1.600    2.000    1.800    2.800    2.400 
#   14.400    0.000    0.000    0.000    0.000    0.000 
#    0.000    0.000    0.000    0.000    0.000    0.000 
#
# Total GULP energy -247816.878615 kJ/mol
# GULP energy per Si atom -12390.843931 kJ/mol
# Density = 2.195440 g / cm^3
# Si number density = 22.004483 Si / 1000 Ang^3
#
#
#
# Elastic Constant Matrix: (Units=GPa)
#
#
# Indices 1 2 3 4 5 6 
#
# 1 108.2467 32.1512 15.9602 0.0041 -9.0707 -0.0073
# 2 32.1512 77.4247 16.0032 -0.0030 -4.6252 -0.0859
# 3 15.9602 16.0032 39.6897 -0.0122 1.4502 -0.0116
# 4 0.0041 -0.0030 -0.0122 26.1041 0.0061 -5.0833
# 5 -9.0707 -4.6252 1.4502 0.0061 22.8240 0.0095
# 6 -0.0073 -0.0859 -0.0116 -5.0833 0.0095 53.1787
#
#
#
# Elastic Compliance Matrix: (Units=1/GPa)
#
#
# Indices 1 2 3 4 5 6 
#
# 1 0.011134 -0.003751 -0.003106 -0.000006 0.003862 -0.000006
# 2 -0.003751 0.015594 -0.004852 0.000004 0.001978 0.000024
# 3 -0.003106 -0.004852 0.028548 0.000014 -0.004031 0.000000
# 4 -0.000006 0.000004 0.000014 0.039035 -0.000014 0.003731
# 5 0.003862 0.001978 -0.004031 -0.000014 0.046005 -0.000007
# 6 -0.000006 0.000024 0.000000 0.003731 -0.000007 0.019161
#
#
# Mechanical properties :
#
#
# Convention : Reuss Voigt Hill
#
# Bulk Modulus (GPa) = 31.38807 39.28781 35.33794
# Shear Modulus (GPa) = 25.83794 31.17114 28.50454
#
# Velocity S-wave (km/s) = 3.43040 3.76783 3.60307
# Velocity P-wave (km/s) = 5.47590 6.06811 5.77960
#
# Compressibility (1/GPa) = 0.03185923
#
# Stress axis : x y z
#
# Youngs Moduli (GPa) = 89.81697 64.12612 35.02873
#
# Poissons Ratio (x) = 0.24052 0.10880
# Poissons Ratio (y) = 0.33688 0.16995
# Poissons Ratio (z) = 0.27897 0.31112
#
# Static dielectric constant tensor:
#      x y z
#    x 4.313340 -0.000020 -0.129720 
#    y -0.000020 3.984130 0.000020 
#    z -0.129720 0.000020 3.596140 
# 
# 
# High freq. dielectric constant tensor:
#      x y z
#    x 1.893710 0.000000 -0.004830 
#    y 0.000000 1.863460 0.000000 
#    z -0.004830 0.000000 1.837890 
# 
# From -- ./inp_files/301744.got.cif
#   From: 2010.06.25/outbox.cif.g09.slc.cpg/sg15_151_cif.got.tgz:301744.got - 2010.06.28 07:06:18.
