data_PCOD8146916
_publ_section_title
;
Structure prediction by ZEFSAII (Michael W. Deem and Ramdas Pophale) SiO2 
 PCOD8146916
Probable space group: C 2/C
;
_chemical_formula_sum "Si O2"
_cell_formula_units_Z 60
_cell_length_a 16.008770
_cell_length_b 10.659189
_cell_length_c 20.770363
_cell_angle_alpha 90.000000
_cell_angle_beta 56.786381
_cell_angle_gamma 90.000000
_cell_volume 2965.253281
_symmetry_space_group_name_H-M "C 2/C"
_symmetry_group_IT_number 15
_symmetry_cell_setting 'monoclinic'
loop_
_space_group_symop_operation_xyz
x,y,z
-x,y,1/2-z
-x,-y,-z
x,-y,1/2+z
1/2+x,1/2+y,z
1/2-x,1/2+y,1/2-z
1/2-x,1/2-y,-z
1/2+x,1/2-y,1/2+z
loop_
_atom_site_type_symbol
_atom_site_label
_atom_site_fract_x
_atom_site_fract_y
_atom_site_fract_z
Si Si1 0.048969 0.635661 0.975311
Si Si2 0.150151 0.031698 0.801941
Si Si3 0.500000 0.075107 0.250000
Si Si4 0.805661 0.796540 0.914216
Si Si5 0.441240 0.802286 0.641266
Si Si6 0.282980 0.981846 0.636377
Si Si7 0.159108 0.613781 0.709719
Si Si8 0.028298 0.784815 0.860917
O O1 0.163756 0.612676 0.906071
O O2 0.999490 0.719864 0.940567
O O3 0.000000 0.500000 0.000000
O O4 0.033130 0.700331 0.051392
O O5 0.093518 0.160364 0.837219
O O6 0.256661 0.031783 0.791860
O O7 0.178532 0.013553 0.715182
O O8 0.084957 0.914079 0.852751
O O9 0.518084 0.155717 0.306463
O O10 0.406671 0.984339 0.302550
O O11 0.748409 0.922114 0.918213
O O12 0.786103 0.703064 0.863495
O O13 0.924004 0.817165 0.870946
O O14 0.750000 0.750000 0.000000
O O15 0.353475 0.892489 0.651432
O O16 0.094344 0.692188 0.789018
#
# Coordination Sequence:
#
# PCOD8146916 Si02
#       8
#     8   8   4   8   8   8   8   8
#     4  10  22  42  66  96 132 176 222 273 341 406
#     4  12  24  43  69  97 139 178 220 282 344 408
#     4  12  24  40  68  92 130 172 232 270 326 408
#     4  12  25  41  68 105 134 172 232 287 336 392
#     4  11  24  42  63  98 133 181 219 274 347 409
#     4  11  22  40  69  96 136 176 224 277 344 407
#     4  12  23  42  67 100 132 177 228 277 337 412
#     4  12  24  43  72 102 133 179 231 281 336 402
#
# _framework density 20.234359000000001
#
# number of rings (size 3 to 8) (size 9 to 14) (size 15 to 20)
#    0.000    0.533    6.667    2.400    1.867    1.600 
#    0.000    0.000    0.000    2.400    0.000    0.000 
#    0.000    0.000    0.000    0.000    0.000    0.000 
#
# Total GULP energy -371925.058008 kJ/mol
# GULP energy per Si atom -12397.501934 kJ/mol
# Density = 2.018830 g / cm^3
# Si number density = 20.234359 Si / 1000 Ang^3
#
#
#
# Elastic Constant Matrix: (Units=GPa)
#
#
# Indices 1 2 3 4 5 6 
#
# 1 111.3658 45.6813 32.0830 0.0000 7.2084 0.0000
# 2 45.6813 106.6160 44.6964 0.0000 -1.6618 0.0000
# 3 32.0830 44.6964 135.9644 0.0000 15.6917 0.0000
# 4 0.0000 0.0000 0.0000 34.2687 0.0000 -4.0533
# 5 7.2084 -1.6618 15.6917 0.0000 31.4196 0.0000
# 6 0.0000 0.0000 0.0000 -4.0533 0.0000 34.1800
#
#
#
# Elastic Compliance Matrix: (Units=1/GPa)
#
#
# Indices 1 2 3 4 5 6 
#
# 1 0.011226 -0.004466 -0.000909 0.000000 -0.002358 0.000000
# 2 -0.004466 0.012844 -0.003571 0.000000 0.003487 0.000000
# 3 -0.000909 -0.003571 0.009276 0.000000 -0.004613 0.000000
# 4 0.000000 0.000000 0.000000 0.029596 0.000000 0.003510
# 5 -0.002358 0.003487 -0.004613 0.000000 0.034856 0.000000
# 6 0.000000 0.000000 0.000000 0.003510 0.000000 0.029673
#
#
# Mechanical properties :
#
#
# Convention : Reuss Voigt Hill
#
# Bulk Modulus (GPa) = 64.70567 66.54083 65.62325
# Shear Modulus (GPa) = 33.21958 35.40602 34.31280
#
# Velocity S-wave (km/s) = 4.05624 4.18760 4.12244
# Velocity P-wave (km/s) = 7.34744 7.50585 7.42707
#
# Compressibility (1/GPa) = 0.01545460
#
# Stress axis : x y z
#
# Youngs Moduli (GPa) = 89.08244 77.85579 107.80936
#
# Poissons Ratio (x) = 0.34767 0.09797
# Poissons Ratio (y) = 0.39780 0.38500
# Poissons Ratio (z) = 0.08095 0.27803
#
# Static dielectric constant tensor:
#      x y z
#    x 3.799510 0.000000 -0.063440 
#    y 0.000000 3.761130 0.000000 
#    z -0.063440 0.000000 4.077990 
# 
# 
# High freq. dielectric constant tensor:
#      x y z
#    x 1.785120 0.000000 0.000580 
#    y 0.000000 1.784810 0.000000 
#    z 0.000580 0.000000 1.802490 
# 
# From -- ./inp_files/204065.got.cif
#   From: 2010.06.25/outbox.cif.g09.slc.cpg/sg15_103_cif.got.tgz:204065.got - 2010.06.28 07:06:18.
