data_PCOD8146682
_publ_section_title
;
Structure prediction by ZEFSAII (Michael W. Deem and Ramdas Pophale) SiO2 
 PCOD8146682
Probable space group: C 2/C
;
_chemical_formula_sum "Si O2"
_cell_formula_units_Z 56
_cell_length_a 5.415813
_cell_length_b 28.304481
_cell_length_c 17.787167
_cell_angle_alpha 90.000000
_cell_angle_beta 76.070861
_cell_angle_gamma 90.000000
_cell_volume 2646.447744
_symmetry_space_group_name_H-M "C 2/C"
_symmetry_group_IT_number 15
_symmetry_cell_setting 'monoclinic'
loop_
_space_group_symop_operation_xyz
x,y,z
-x,y,1/2-z
-x,-y,-z
x,-y,1/2+z
1/2+x,1/2+y,z
1/2-x,1/2+y,1/2-z
1/2-x,1/2-y,-z
1/2+x,1/2-y,1/2+z
loop_
_atom_site_type_symbol
_atom_site_label
_atom_site_fract_x
_atom_site_fract_y
_atom_site_fract_z
Si Si1 0.209727 0.207320 0.796631
Si Si2 0.687287 0.523681 0.089303
Si Si3 0.939850 0.622212 0.050612
Si Si4 0.500000 0.518019 0.750000
Si Si5 0.210510 0.683922 0.297119
Si Si6 0.000000 0.576901 0.750000
Si Si7 0.863353 0.063847 0.988920
Si Si8 0.231447 0.373210 0.101235
O O1 0.500000 0.199066 0.750000
O O2 0.175116 0.261771 0.822411
O O3 0.144622 0.174128 0.872502
O O4 0.000000 0.193759 0.750000
O O5 0.878619 0.567006 0.070117
O O6 0.601068 0.517918 0.180471
O O7 0.801306 0.473412 0.049741
O O8 0.440353 0.536087 0.058104
O O9 0.843371 0.655101 0.123523
O O10 0.850982 0.641667 0.976750
O O11 0.242004 0.614647 0.022322
O O12 0.261683 0.548094 0.737180
O O13 0.500000 0.673037 0.250000
O O14 0.000000 0.669452 0.250000
O O15 0.008845 0.609785 0.674469
O O16 0.090024 0.080837 0.918077
#
# Coordination Sequence:
#
# PCOD8146682 Si02
#       8
#     8   8   8   4   8   4   8   8
#     4  10  23  43  70 101 133 176 216 273 343 397
#     4  10  23  39  61  91 128 176 221 270 329 384
#     4  11  25  40  69  95 134 182 223 278 334 396
#     4  12  26  40  64  95 128 175 230 278 322 396
#     4  10  25  48  71  98 137 174 224 281 331 400
#     4  12  26  42  64  99 134 171 222 286 328 398
#     4  10  22  42  60  93 134 173 217 277 331 389
#     4  11  24  40  69 100 133 175 223 274 344 401
#
# _framework density 21.160440999999999
#
# number of rings (size 3 to 8) (size 9 to 14) (size 15 to 20)
#    0.000    1.429    2.143    1.286   10.000    0.571 
#    0.000    0.714    0.000    0.000    0.000    0.000 
#    0.000    0.000    0.000    0.000    0.000    0.000 
#
# Total GULP energy -346890.139608 kJ/mol
# GULP energy per Si atom -12388.933557 kJ/mol
# Density = 2.111228 g / cm^3
# Si number density = 21.160441 Si / 1000 Ang^3
#
#
#
# Elastic Constant Matrix: (Units=GPa)
#
#
# Indices 1 2 3 4 5 6 
#
# 1 101.8573 24.7544 38.0273 0.0000 13.3822 0.0000
# 2 24.7544 94.1262 67.8447 0.0000 16.2922 0.0000
# 3 38.0273 67.8447 164.5574 0.0000 20.1041 0.0000
# 4 0.0000 0.0000 0.0000 33.2498 0.0000 15.7234
# 5 13.3822 16.2922 20.1041 0.0000 22.7227 0.0000
# 6 0.0000 0.0000 0.0000 15.7234 0.0000 1.2368
#
#
#
# Elastic Compliance Matrix: (Units=1/GPa)
#
#
# Indices 1 2 3 4 5 6 
#
# 1 0.011261 -0.001006 -0.001643 0.000000 -0.004457 0.000000
# 2 -0.001006 0.015964 -0.005632 0.000000 -0.005871 0.000000
# 3 -0.001643 -0.005632 0.009157 0.000000 -0.003096 0.000000
# 4 0.000000 0.000000 0.000000 -0.006001 0.000000 0.076290
# 5 -0.004457 -0.005871 -0.003096 0.000000 0.053582 0.000000
# 6 0.000000 0.000000 0.000000 0.076290 0.000000 -0.161327
#
#
# Mechanical properties :
#
#
# Convention : Reuss Voigt Hill
#
# Bulk Modulus (GPa) = 50.45352 69.08820 59.77086
# Shear Modulus (GPa) = -92.25960 26.76949 -32.74506
#
# Velocity S-wave (km/s) = -6.61020 3.56064 -3.93805
# Velocity P-wave (km/s) = 5.86212 7.04449 2.76227
#
# Compressibility (1/GPa) = 0.01982022
#
# Stress axis : x y z
#
# Youngs Moduli (GPa) = 88.80112 62.63958 109.20739
#
# Poissons Ratio (x) = 0.06300 0.17944
# Poissons Ratio (y) = 0.08931 0.61508
# Poissons Ratio (z) = 0.14591 0.35280
#
# Static dielectric constant tensor:
#      x y z
#    x 3.866010 0.000000 0.020810 
#    y 0.000000 3.863510 0.000000 
#    z 0.020810 0.000000 3.829640 
# 
# 
# High freq. dielectric constant tensor:
#      x y z
#    x 1.828170 0.000000 -0.002230 
#    y 0.000000 1.828560 0.000000 
#    z -0.002230 0.000000 1.837290 
# 
# From -- ./inp_files/186163.got.cif
#   From: 2010.06.25/outbox.cif.g09.slc.cpg/sg15_94_cif.got.tgz:186163.got - 2010.06.28 07:06:18.
