data_PCOD8146492
_publ_section_title
;
Structure prediction by ZEFSAII (Michael W. Deem and Ramdas Pophale) SiO2 
 PCOD8146492
Probable space group: C 2/C
;
_chemical_formula_sum "Si O2"
_cell_formula_units_Z 40
_cell_length_a 27.144775
_cell_length_b 9.811877
_cell_length_c 21.859128
_cell_angle_alpha 90.000000
_cell_angle_beta 160.203467
_cell_angle_gamma 90.000000
_cell_volume 1971.796043
_symmetry_space_group_name_H-M "C 2/C"
_symmetry_group_IT_number 15
_symmetry_cell_setting 'monoclinic'
loop_
_space_group_symop_operation_xyz
x,y,z
-x,y,1/2-z
-x,-y,-z
x,-y,1/2+z
1/2+x,1/2+y,z
1/2-x,1/2+y,1/2-z
1/2-x,1/2-y,-z
1/2+x,1/2-y,1/2+z
loop_
_atom_site_type_symbol
_atom_site_label
_atom_site_fract_x
_atom_site_fract_y
_atom_site_fract_z
Si Si1 0.834675 0.491547 0.789955
Si Si2 0.401264 0.620533 0.724828
Si Si3 0.307026 0.241012 0.340702
Si Si4 0.785991 0.128712 0.460945
Si Si5 0.074992 0.091611 0.140994
O O1 0.762706 0.610424 0.745118
O O2 0.773226 0.344440 0.740003
O O3 0.792901 0.493953 0.669235
O O4 0.000000 0.500000 0.000000
O O5 0.320538 0.742091 0.665280
O O6 0.309694 0.576237 0.557758
O O7 0.410209 0.492914 0.779990
O O8 0.561241 0.669230 0.891735
O O9 0.234922 0.150721 0.310766
O O10 0.479928 0.272350 0.546658
O O11 0.000000 0.000000 0.000000
#
# Coordination Sequence:
#
# PCOD8146492 Si02
#       5
#     8   8   8   8   8
#     4  12  25  39  65  96 130 163 215 266 315 385
#     4  10  22  41  67  94 129 165 218 263 319 381
#     4  12  24  39  62  97 125 167 210 259 326 368
#     4  10  22  41  66  94 127 170 211 264 319 377
#     4  12  23  40  64  95 129 166 211 267 318 377
#
# _framework density 20.286073999999999
#
# number of rings (size 3 to 8) (size 9 to 14) (size 15 to 20)
#    0.000    0.800    6.000    1.200    2.800    0.000 
#    0.000    1.000    4.400    0.000    0.000    0.000 
#    0.000    0.000    0.000    0.000    0.000    0.000 
#
# Total GULP energy -247839.614395 kJ/mol
# GULP energy per Si atom -12391.980720 kJ/mol
# Density = 2.023990 g / cm^3
# Si number density = 20.286074 Si / 1000 Ang^3
#
#
#
# Elastic Constant Matrix: (Units=GPa)
#
#
# Indices 1 2 3 4 5 6 
#
# 1 106.2016 49.7909 43.2381 0.0000 2.3634 0.0000
# 2 49.7909 101.2131 23.8086 0.0000 -14.5374 -0.0001
# 3 43.2381 23.8086 76.0877 0.0000 -4.4682 -0.0001
# 4 0.0000 0.0000 0.0000 40.8940 0.0000 9.2974
# 5 2.3634 -14.5374 -4.4682 0.0000 33.3913 0.0000
# 6 0.0000 -0.0001 -0.0001 9.2974 0.0000 34.0218
#
#
#
# Elastic Compliance Matrix: (Units=1/GPa)
#
#
# Indices 1 2 3 4 5 6 
#
# 1 0.015523 -0.006697 -0.007016 0.000000 -0.004953 0.000000
# 2 -0.006697 0.014182 -0.000243 0.000000 0.006616 0.000000
# 3 -0.007016 -0.000243 0.017365 0.000000 0.002714 0.000000
# 4 0.000000 0.000000 0.000000 0.026073 0.000000 -0.007125
# 5 -0.004953 0.006616 0.002714 0.000000 0.033542 0.000000
# 6 0.000000 0.000000 0.000000 -0.007125 0.000000 0.031340
#
#
# Mechanical properties :
#
#
# Convention : Reuss Voigt Hill
#
# Bulk Modulus (GPa) = 52.20162 57.46417 54.83290
# Shear Modulus (GPa) = 29.01487 32.77242 30.89364
#
# Velocity S-wave (km/s) = 3.78601 4.02371 3.90667
# Velocity P-wave (km/s) = 6.70078 7.06932 6.88752
#
# Compressibility (1/GPa) = 0.01915649
#
# Stress axis : x y z
#
# Youngs Moduli (GPa) = 64.42164 70.51030 57.58568
#
# Poissons Ratio (x) = 0.47223 0.40404
# Poissons Ratio (y) = 0.43145 0.01402
# Poissons Ratio (z) = 0.45200 0.01717
#
# Static dielectric constant tensor:
#      x y z
#    x 3.612690 0.000000 -0.080720 
#    y 0.000000 4.108080 0.000000 
#    z -0.080720 0.000000 3.690590 
# 
# 
# High freq. dielectric constant tensor:
#      x y z
#    x 1.802870 0.000000 0.019750 
#    y 0.000000 1.784290 0.000000 
#    z 0.019750 0.000000 1.791600 
# 
# From -- ./inp_files/284261.got.cif
#   From: 2010.06.25/outbox.cif.g09.slc.cpg/sg15_143_cif.got.tgz:284261.got - 2010.06.28 07:06:18.
