data_PCOD8146553
_publ_section_title
;
Structure prediction by ZEFSAII (Michael W. Deem and Ramdas Pophale) SiO2 
 PCOD8146553
Probable space group: C 2/C
;
_chemical_formula_sum "Si O2"
_cell_formula_units_Z 32
_cell_length_a 10.308474
_cell_length_b 9.268757
_cell_length_c 24.698105
_cell_angle_alpha 90.000000
_cell_angle_beta 147.178062
_cell_angle_gamma 90.000000
_cell_volume 1279.095130
_symmetry_space_group_name_H-M "C 2/C"
_symmetry_group_IT_number 15
_symmetry_cell_setting 'monoclinic'
loop_
_space_group_symop_operation_xyz
x,y,z
-x,y,1/2-z
-x,-y,-z
x,-y,1/2+z
1/2+x,1/2+y,z
1/2-x,1/2+y,1/2-z
1/2-x,1/2-y,-z
1/2+x,1/2-y,1/2+z
loop_
_atom_site_type_symbol
_atom_site_label
_atom_site_fract_x
_atom_site_fract_y
_atom_site_fract_z
Si Si1 0.778395 0.042275 0.051608
Si Si2 0.451810 0.885985 0.621039
Si Si3 0.828061 0.120794 0.757784
Si Si4 0.904842 0.226550 0.418036
O O1 0.952088 0.117521 0.069519
O O2 0.586165 0.155640 0.007901
O O3 0.930393 0.977484 0.154853
O O4 0.646102 0.910720 0.973940
O O5 0.634165 0.750179 0.685403
O O6 0.229002 0.862657 0.582951
O O7 0.592784 0.029374 0.690797
O O8 0.795548 0.188986 0.687014
#
# Coordination Sequence:
#
# PCOD8146553 Si02
#       4
#     8   8   8   8
#     4  10  22  41  68 101 134 176 227 278 334 407
#     4  11  23  42  69  97 139 178 223 281 338 398
#     4  11  22  40  69  99 137 177 224 280 331 403
#     4  10  22  43  69  99 137 176 223 282 339 397
#
# _framework density 25.017683999999999
#
# number of rings (size 3 to 8) (size 9 to 14) (size 15 to 20)
#    0.000    1.500    2.500    2.250    0.000    1.000 
#    0.000    2.500    5.500    0.000    0.000    0.000 
#    0.000    0.000    0.000    0.000    0.000    0.000 
#
# Total GULP energy -198378.127460 kJ/mol
# GULP energy per Si atom -12398.632966 kJ/mol
# Density = 2.496074 g / cm^3
# Si number density = 25.017684 Si / 1000 Ang^3
#
#
#
# Elastic Constant Matrix: (Units=GPa)
#
#
# Indices 1 2 3 4 5 6 
#
# 1 75.1195 17.5254 20.4177 0.0000 24.6722 0.0000
# 2 17.5254 81.3099 22.3562 -0.0001 13.1979 0.0000
# 3 20.4177 22.3562 122.7112 -0.0004 10.2313 -0.0001
# 4 0.0000 -0.0001 -0.0004 64.9503 0.0000 18.6277
# 5 24.6722 13.1979 10.2313 0.0000 29.1317 0.0000
# 6 0.0000 0.0000 -0.0001 18.6277 0.0000 20.7964
#
#
#
# Elastic Compliance Matrix: (Units=1/GPa)
#
#
# Indices 1 2 3 4 5 6 
#
# 1 0.018949 -0.001199 -0.001691 0.000000 -0.014911 0.000000
# 2 -0.001199 0.013832 -0.001939 0.000000 -0.004570 0.000000
# 3 -0.001691 -0.001939 0.008850 0.000000 -0.000797 0.000000
# 4 0.000000 0.000000 0.000000 0.020719 0.000000 -0.018558
# 5 -0.014911 -0.004570 -0.000797 0.000000 0.049306 0.000000
# 6 0.000000 0.000000 0.000000 -0.018558 0.000000 0.064708
#
#
# Mechanical properties :
#
#
# Convention : Reuss Voigt Hill
#
# Bulk Modulus (GPa) = 31.27713 44.41546 37.84630
# Shear Modulus (GPa) = 25.42183 37.56508 31.49345
#
# Velocity S-wave (km/s) = 3.19118 3.87918 3.55187
# Velocity P-wave (km/s) = 5.10953 6.15274 5.65524
#
# Compressibility (1/GPa) = 0.03197224
#
# Stress axis : x y z
#
# Youngs Moduli (GPa) = 52.77346 72.29571 112.98867
#
# Poissons Ratio (x) = 0.08668 0.19109
# Poissons Ratio (y) = 0.06327 0.21914
# Poissons Ratio (z) = 0.08925 0.14022
#
# Static dielectric constant tensor:
#      x y z
#    x 3.810880 0.000000 0.169660 
#    y 0.000000 4.959790 0.000000 
#    z 0.169660 0.000000 5.081280 
# 
# 
# High freq. dielectric constant tensor:
#      x y z
#    x 1.962620 0.000000 0.015290 
#    y 0.000000 2.014400 0.000000 
#    z 0.015290 0.000000 2.025570 
# 
# From -- ./inp_files/140772.got.cif
#   From: 2010.06.25/outbox.cif.g09.slc.cpg/sg15_71_cif.got.tgz:140772.got - 2010.06.28 07:06:18.
