data_PCOD8146190
_publ_section_title
;
Structure prediction by ZEFSAII (Michael W. Deem and Ramdas Pophale) SiO2 
 PCOD8146190
Probable space group: C 2/C
;
_chemical_formula_sum "Si O2"
_cell_formula_units_Z 56
_cell_length_a 14.635726
_cell_length_b 11.973476
_cell_length_c 14.038272
_cell_angle_alpha 90.000000
_cell_angle_beta 93.703844
_cell_angle_gamma 90.000000
_cell_volume 2454.935611
_symmetry_space_group_name_H-M "C 2/C"
_symmetry_group_IT_number 15
_symmetry_cell_setting 'monoclinic'
loop_
_space_group_symop_operation_xyz
x,y,z
-x,y,1/2-z
-x,-y,-z
x,-y,1/2+z
1/2+x,1/2+y,z
1/2-x,1/2+y,1/2-z
1/2-x,1/2-y,-z
1/2+x,1/2-y,1/2+z
loop_
_atom_site_type_symbol
_atom_site_label
_atom_site_fract_x
_atom_site_fract_y
_atom_site_fract_z
Si Si1 0.870299 0.202522 0.176727
Si Si2 0.009638 0.273653 0.042689
Si Si3 0.916778 0.414437 0.300345
Si Si4 0.776597 0.590738 0.228774
Si Si5 0.113964 0.047717 0.079474
Si Si6 0.933912 0.270569 0.663730
Si Si7 0.071996 0.026828 0.871801
O O1 0.904545 0.290936 0.255365
O O2 0.762997 0.176148 0.192215
O O3 0.912908 0.078007 0.197726
O O4 0.905385 0.246674 0.075101
O O5 0.050800 0.388784 0.089633
O O6 0.076629 0.173904 0.078021
O O7 0.009794 0.289138 0.929905
O O8 0.826355 0.489763 0.288420
O O9 0.000000 0.475589 0.250000
O O10 0.701387 0.536870 0.153412
O O11 0.842757 0.655901 0.161379
O O12 0.034925 0.962462 0.107621
O O13 0.135776 0.013768 0.971002
O O14 0.000000 0.313533 0.750000
O O15 0.903329 0.142247 0.678613
#
# Coordination Sequence:
#
# PCOD8146190 Si02
#       7
#     8   8   8   8   8   8   8
#     4  10  22  40  68  97 127 176 230 268 323 407
#     4   9  20  45  70  90 130 188 225 262 338 420
#     4  10  22  43  66  94 134 188 224 261 339 412
#     4  12  25  38  65 103 141 165 228 286 328 389
#     4   9  19  39  65 101 130 170 226 273 333 397
#     4  11  26  43  66 100 141 174 222 285 349 389
#     4   9  21  39  67  96 133 175 215 275 345 398
#
# _framework density 22.811188999999999
#
# number of rings (size 3 to 8) (size 9 to 14) (size 15 to 20)
#    0.000    2.000    1.429    1.286    6.000    3.429 
#    0.000   10.714    0.000    0.000    0.000    0.000 
#    0.000    0.000    0.000    0.000    0.000    0.000 
#
# Total GULP energy -346891.222995 kJ/mol
# GULP energy per Si atom -12388.972250 kJ/mol
# Density = 2.275927 g / cm^3
# Si number density = 22.811189 Si / 1000 Ang^3
#
#
#
# Elastic Constant Matrix: (Units=GPa)
#
#
# Indices 1 2 3 4 5 6 
#
# 1 110.3837 37.7797 65.2359 0.0000 -1.1280 0.0000
# 2 37.7797 84.0437 39.9348 0.0000 0.2631 0.0000
# 3 65.2359 39.9348 121.9933 0.0000 -8.7437 0.0000
# 4 0.0000 0.0000 0.0000 5.4593 0.0000 0.1099
# 5 -1.1280 0.2631 -8.7437 0.0000 34.8568 0.0000
# 6 0.0000 0.0000 0.0000 0.1099 0.0000 43.8269
#
#
#
# Elastic Compliance Matrix: (Units=1/GPa)
#
#
# Indices 1 2 3 4 5 6 
#
# 1 0.013993 -0.003187 -0.006523 0.000000 -0.001159 0.000000
# 2 -0.003187 0.014873 -0.003238 0.000000 -0.001028 0.000000
# 3 -0.006523 -0.003238 0.012965 0.000000 0.003066 0.000000
# 4 0.000000 0.000000 0.000000 0.183181 0.000000 -0.000459
# 5 -0.001159 -0.001028 0.003066 0.000000 0.029428 0.000000
# 6 0.000000 0.000000 0.000000 -0.000459 0.000000 0.022818
#
#
# Mechanical properties :
#
#
# Convention : Reuss Voigt Hill
#
# Bulk Modulus (GPa) = 62.75357 66.92462 64.83910
# Shear Modulus (GPa) = 16.20923 28.39328 22.30126
#
# Velocity S-wave (km/s) = 2.66857 3.53187 3.13012
# Velocity P-wave (km/s) = 6.08808 6.78486 6.44589
#
# Compressibility (1/GPa) = 0.01593535
#
# Stress axis : x y z
#
# Youngs Moduli (GPa) = 71.46370 67.23515 77.13209
#
# Poissons Ratio (x) = 0.21430 0.50310
# Poissons Ratio (y) = 0.22778 0.24975
# Poissons Ratio (z) = 0.46612 0.21771
#
# Static dielectric constant tensor:
#      x y z
#    x 4.068740 0.000000 -0.349340 
#    y 0.000000 4.050890 0.000000 
#    z -0.349340 0.000000 4.174960 
# 
# 
# High freq. dielectric constant tensor:
#      x y z
#    x 1.874850 0.000000 -0.017310 
#    y 0.000000 1.901620 0.000000 
#    z -0.017310 0.000000 1.894600 
# 
# From -- ./inp_files/152594.got.cif
#   From: 2010.06.25/outbox.cif.g09.slc.cpg/sg15_77_cif.got.tgz:152594.got - 2010.06.28 07:06:18.
