data_PCOD8146598
_publ_section_title
;
Structure prediction by ZEFSAII (Michael W. Deem and Ramdas Pophale) SiO2 
 PCOD8146598
Probable space group: C 2/C
;
_chemical_formula_sum "Si O2"
_cell_formula_units_Z 52
_cell_length_a 5.608592
_cell_length_b 29.336478
_cell_length_c 15.525452
_cell_angle_alpha 90.000000
_cell_angle_beta 113.195993
_cell_angle_gamma 90.000000
_cell_volume 2348.002501
_symmetry_space_group_name_H-M "C 2/C"
_symmetry_group_IT_number 15
_symmetry_cell_setting 'monoclinic'
loop_
_space_group_symop_operation_xyz
x,y,z
-x,y,1/2-z
-x,-y,-z
x,-y,1/2+z
1/2+x,1/2+y,z
1/2-x,1/2+y,1/2-z
1/2-x,1/2-y,-z
1/2+x,1/2-y,1/2+z
loop_
_atom_site_type_symbol
_atom_site_label
_atom_site_fract_x
_atom_site_fract_y
_atom_site_fract_z
Si Si1 0.500000 0.041398 0.250000
Si Si2 0.690272 0.651245 0.695632
Si Si3 0.859852 0.877986 0.002336
Si Si4 0.986776 0.539982 0.431090
Si Si5 0.929759 0.289122 0.488621
Si Si6 0.005584 0.103482 0.157957
Si Si7 0.843316 0.742175 0.648038
O O1 0.486787 0.013739 0.337859
O O2 0.251207 0.072324 0.206372
O O3 0.500000 0.641505 0.750000
O O4 0.597031 0.619257 0.603534
O O5 0.647408 0.703750 0.658850
O O6 0.000000 0.641958 0.750000
O O7 0.735999 0.928004 0.980743
O O8 0.657584 0.840143 0.005150
O O9 0.955211 0.863581 0.919341
O O10 0.736981 0.571842 0.401085
O O11 0.000000 0.500000 0.500000
O O12 0.750000 0.250000 0.500000
O O13 0.963071 0.283852 0.390583
O O14 0.203014 0.282852 0.577458
O O15 0.000000 0.130231 0.250000
O O16 0.000000 0.763912 0.750000
#
# Coordination Sequence:
#
# PCOD8146598 Si02
#       7
#     4   8   8   8   8   8   8
#     4   8  18  40  62  94 124 170 208 270 334 410
#     4  11  24  42  71  97 139 188 229 284 352 407
#     4  11  23  40  69  96 136 172 226 290 337 411
#     4  10  22  41  69  93 129 175 220 277 352 411
#     4  11  23  41  64  96 131 177 234 278 336 409
#     4   9  20  40  68  90 132 175 215 274 344 407
#     4  10  23  41  67  90 135 183 224 282 342 405
#
# _framework density 22.146483
#
# number of rings (size 3 to 8) (size 9 to 14) (size 15 to 20)
#    0.000    1.846    1.538    1.846    4.308    2.462 
#    0.000   17.692    3.385    0.000    0.000    0.000 
#    0.000    0.000    0.000    0.000    0.000    0.000 
#
# Total GULP energy -322091.551908 kJ/mol
# GULP energy per Si atom -12388.136612 kJ/mol
# Density = 2.209608 g / cm^3
# Si number density = 22.146483 Si / 1000 Ang^3
#
#
#
# Elastic Constant Matrix: (Units=GPa)
#
#
# Indices 1 2 3 4 5 6 
#
# 1 102.2259 18.0835 67.9822 0.0000 -9.3425 0.0000
# 2 18.0835 63.1636 49.3625 0.0000 -4.7402 0.0000
# 3 67.9822 49.3625 210.0383 0.0000 -22.8055 0.0000
# 4 0.0000 0.0000 0.0000 30.8323 0.0000 -6.5560
# 5 -9.3425 -4.7402 -22.8055 0.0000 49.5266 0.0000
# 6 0.0000 0.0000 0.0000 -6.5560 0.0000 18.9202
#
#
#
# Elastic Compliance Matrix: (Units=1/GPa)
#
#
# Indices 1 2 3 4 5 6 
#
# 1 0.012492 -0.000517 -0.003864 0.000000 0.000527 0.000000
# 2 -0.000517 0.019418 -0.004426 0.000000 -0.000277 0.000000
# 3 -0.003864 -0.004426 0.007292 0.000000 0.002205 0.000000
# 4 0.000000 0.000000 0.000000 0.035013 0.000000 0.012132
# 5 0.000527 -0.000277 0.002205 0.000000 0.021279 0.000000
# 6 0.000000 0.000000 0.000000 0.012132 0.000000 0.057057
#
#
# Mechanical properties :
#
#
# Convention : Reuss Voigt Hill
#
# Bulk Modulus (GPa) = 46.32548 71.80936 59.06742
# Shear Modulus (GPa) = 28.19085 35.85580 32.02332
#
# Velocity S-wave (km/s) = 3.57168 4.02808 3.80673
# Velocity P-wave (km/s) = 6.16217 7.35724 6.78607
#
# Compressibility (1/GPa) = 0.02158639
#
# Stress axis : x y z
#
# Youngs Moduli (GPa) = 80.05245 51.49774 137.14529
#
# Poissons Ratio (x) = 0.02661 0.52999
# Poissons Ratio (y) = 0.04136 0.60707
# Poissons Ratio (z) = 0.30936 0.22795
#
# Static dielectric constant tensor:
#      x y z
#    x 4.547920 0.000000 -0.414550 
#    y 0.000000 3.379090 0.000000 
#    z -0.414550 0.000000 5.042740 
# 
# 
# High freq. dielectric constant tensor:
#      x y z
#    x 1.888460 0.000000 -0.003510 
#    y 0.000000 1.814040 0.000000 
#    z -0.003510 0.000000 1.908440 
# 
# From -- ./inp_files/130863.got.cif
#   From: 2010.06.25/outbox.cif.g09.slc.cpg/sg15_66_cif.got.tgz:130863.got - 2010.06.28 07:06:18.
