data_PCOD8146871
_publ_section_title
;
Structure prediction by ZEFSAII (Michael W. Deem and Ramdas Pophale) SiO2 
 PCOD8146871
Probable space group: C 2/C
;
_chemical_formula_sum "Si O2"
_cell_formula_units_Z 56
_cell_length_a 23.240023
_cell_length_b 8.814568
_cell_length_c 14.472148
_cell_angle_alpha 90.000000
_cell_angle_beta 121.065970
_cell_angle_gamma 90.000000
_cell_volume 2539.424631
_symmetry_space_group_name_H-M "C 2/C"
_symmetry_group_IT_number 15
_symmetry_cell_setting 'monoclinic'
loop_
_space_group_symop_operation_xyz
x,y,z
-x,y,1/2-z
-x,-y,-z
x,-y,1/2+z
1/2+x,1/2+y,z
1/2-x,1/2+y,1/2-z
1/2-x,1/2-y,-z
1/2+x,1/2-y,1/2+z
loop_
_atom_site_type_symbol
_atom_site_label
_atom_site_fract_x
_atom_site_fract_y
_atom_site_fract_z
Si Si1 0.927531 0.571658 0.206920
Si Si2 0.784228 0.911552 0.918231
Si Si3 0.232170 0.245857 0.592429
Si Si4 0.407956 0.910151 0.008476
Si Si5 0.674210 0.327103 0.350487
Si Si6 0.941360 0.634428 0.888696
Si Si7 0.149563 0.097110 0.207908
O O1 0.910806 0.440341 0.119888
O O2 0.876487 0.706311 0.151302
O O3 0.925227 0.501846 0.306054
O O4 0.000000 0.644024 0.250000
O O5 0.736619 0.766662 0.859606
O O6 0.847183 0.900549 0.900913
O O7 0.751696 0.073230 0.863481
O O8 0.804165 0.925524 0.042496
O O9 0.250000 0.250000 0.500000
O O10 0.156043 0.298915 0.556738
O O11 0.279735 0.354228 0.690117
O O12 0.478560 0.834543 0.032950
O O13 0.404630 0.073207 0.951816
O O14 0.637928 0.430584 0.242759
O O15 0.911145 0.788950 0.820999
#
# Coordination Sequence:
#
# PCOD8146871 Si02
#       7
#     8   8   8   8   8   8   8
#     4  10  22  42  66  89 124 176 216 261 326 401
#     4  11  25  41  62  92 131 172 208 267 337 389
#     4  12  24  42  65  99 129 171 223 279 332 391
#     4  10  23  43  71  94 133 176 222 273 334 399
#     4  11  24  42  61  95 133 167 213 268 332 390
#     4  10  23  44  69  97 129 175 226 268 331 404
#     4  12  25  39  67 100 126 171 219 276 326 394
#
# _framework density 22.052237999999999
#
# number of rings (size 3 to 8) (size 9 to 14) (size 15 to 20)
#    0.000    1.143    1.429    4.286   10.000    0.000 
#    2.571    0.714    0.000    0.000    0.000    0.000 
#    0.000    0.000    0.000    0.000    0.000    0.000 
#
# Total GULP energy -347057.704791 kJ/mol
# GULP energy per Si atom -12394.918028 kJ/mol
# Density = 2.200205 g / cm^3
# Si number density = 22.052238 Si / 1000 Ang^3
#
#
#
# Elastic Constant Matrix: (Units=GPa)
#
#
# Indices 1 2 3 4 5 6 
#
# 1 94.7743 29.3407 23.8098 0.0000 -0.2269 0.0000
# 2 29.3407 86.4295 11.4641 0.0000 3.6723 0.0000
# 3 23.8098 11.4641 58.6068 0.0000 -1.1084 0.0000
# 4 0.0000 0.0000 0.0000 40.5616 0.0000 8.8421
# 5 -0.2269 3.6723 -1.1084 0.0000 36.0741 0.0000
# 6 0.0000 0.0000 0.0000 8.8421 0.0000 22.0616
#
#
#
# Elastic Compliance Matrix: (Units=1/GPa)
#
#
# Indices 1 2 3 4 5 6 
#
# 1 0.012847 -0.003782 -0.004473 0.000000 0.000328 0.000000
# 2 -0.003782 0.013051 -0.001043 0.000000 -0.001384 0.000000
# 3 -0.004473 -0.001043 0.019097 0.000000 0.000665 0.000000
# 4 0.000000 0.000000 0.000000 0.027014 0.000000 -0.010827
# 5 0.000328 -0.001384 0.000665 0.000000 0.027884 0.000000
# 6 0.000000 0.000000 0.000000 -0.010827 0.000000 0.049667
#
#
# Mechanical properties :
#
#
# Convention : Reuss Voigt Hill
#
# Bulk Modulus (GPa) = 37.88001 41.00441 39.44221
# Shear Modulus (GPa) = 28.25580 31.41920 29.83750
#
# Velocity S-wave (km/s) = 3.58343 3.77870 3.68236
# Velocity P-wave (km/s) = 5.85969 6.13781 6.00036
#
# Compressibility (1/GPa) = 0.02639915
#
# Stress axis : x y z
#
# Youngs Moduli (GPa) = 77.84082 76.62209 52.36509
#
# Poissons Ratio (x) = 0.28977 0.23424
# Poissons Ratio (y) = 0.29438 0.05460
# Poissons Ratio (z) = 0.34820 0.07989
#
# Static dielectric constant tensor:
#      x y z
#    x 4.089020 0.000000 -0.118350 
#    y 0.000000 3.933120 0.000000 
#    z -0.118350 0.000000 4.060100 
# 
# 
# High freq. dielectric constant tensor:
#      x y z
#    x 1.867680 0.000000 -0.015410 
#    y 0.000000 1.860660 0.000000 
#    z -0.015410 0.000000 1.870800 
# 
# From -- ./inp_files/172502.got.cif
#   From: 2010.06.25/outbox.cif.g09.slc.cpg/sg15_87_cif.got.tgz:172502.got - 2010.06.28 07:06:18.
