data_PCOD8146085
_publ_section_title
;
Structure prediction by ZEFSAII (Michael W. Deem and Ramdas Pophale) SiO2 
 PCOD8146085
Probable space group: C 2/C
;
_chemical_formula_sum "Si O2"
_cell_formula_units_Z 48
_cell_length_a 10.338609
_cell_length_b 24.134170
_cell_length_c 11.866896
_cell_angle_alpha 90.000000
_cell_angle_beta 130.086389
_cell_angle_gamma 90.000000
_cell_volume 2265.349852
_symmetry_space_group_name_H-M "C 2/C"
_symmetry_group_IT_number 15
_symmetry_cell_setting 'monoclinic'
loop_
_space_group_symop_operation_xyz
x,y,z
-x,y,1/2-z
-x,-y,-z
x,-y,1/2+z
1/2+x,1/2+y,z
1/2-x,1/2+y,1/2-z
1/2-x,1/2-y,-z
1/2+x,1/2-y,1/2+z
loop_
_atom_site_type_symbol
_atom_site_label
_atom_site_fract_x
_atom_site_fract_y
_atom_site_fract_z
Si Si1 0.000000 0.302544 0.750000
Si Si2 0.097507 0.410226 0.458964
Si Si3 0.452503 0.359424 0.599615
Si Si4 0.588536 0.737063 0.599166
Si Si5 0.000000 0.493281 0.750000
Si Si6 0.054894 0.302716 0.162439
Si Si7 0.705302 0.901161 0.768244
O O1 0.960304 0.260272 0.623407
O O2 0.155844 0.342785 0.801738
O O3 0.271305 0.388677 0.499287
O O4 0.048318 0.470372 0.385715
O O5 0.100410 0.410228 0.594924
O O6 0.943959 0.369481 0.334905
O O7 0.500000 0.334213 0.750000
O O8 0.467330 0.315177 0.506812
O O9 0.595997 0.404043 0.647652
O O10 0.763421 0.724328 0.762330
O O11 0.592269 0.786848 0.509890
O O12 0.838228 0.453675 0.678722
O O13 0.000000 0.277346 0.250000
#
# Coordination Sequence:
#
# PCOD8146085 Si02
#       7
#     4   8   8   8   4   8   8
#     4  11  24  42  56  90 130 174 204 243 306 380
#     4  11  21  42  62  93 119 156 212 262 307 366
#     4  10  22  40  66  93 125 158 210 259 306 365
#     4  12  24  38  62  91 131 172 205 248 307 372
#     4  11  22  40  68  86 122 160 200 263 322 370
#     4  12  23  38  63  94 126 160 212 257 307 360
#     4  10  23  42  61  90 120 164 206 258 312 372
#
# _framework density 21.188782
#
# number of rings (size 3 to 8) (size 9 to 14) (size 15 to 20)
#    0.000    1.000    4.167    2.500    2.333    3.333 
#    0.000    0.000    0.000    0.000    0.000    0.000 
#    0.000    0.000    0.000    0.000    0.000    0.000 
#
# Total GULP energy -297350.965456 kJ/mol
# GULP energy per Si atom -12389.623561 kJ/mol
# Density = 2.114056 g / cm^3
# Si number density = 21.188782 Si / 1000 Ang^3
#
#
#
# Elastic Constant Matrix: (Units=GPa)
#
#
# Indices 1 2 3 4 5 6 
#
# 1 91.1078 50.4610 38.2013 0.0000 -11.6080 0.0000
# 2 50.4610 125.1328 45.5244 0.0000 -8.2160 0.0000
# 3 38.2013 45.5244 85.7786 0.0000 -6.9474 0.0000
# 4 0.0000 0.0000 0.0000 25.6128 0.0000 -13.0348
# 5 -11.6080 -8.2160 -6.9474 0.0000 34.8301 0.0000
# 6 0.0000 0.0000 0.0000 -13.0348 0.0000 32.5115
#
#
#
# Elastic Compliance Matrix: (Units=1/GPa)
#
#
# Indices 1 2 3 4 5 6 
#
# 1 0.015732 -0.004555 -0.004321 0.000000 0.003307 0.000000
# 2 -0.004555 0.011282 -0.003930 0.000000 0.000359 0.000000
# 3 -0.004321 -0.003930 0.015730 0.000000 0.000771 0.000000
# 4 0.000000 0.000000 0.000000 0.049051 0.000000 0.019666
# 5 0.003307 0.000359 0.000771 0.000000 0.030051 0.000000
# 6 0.000000 0.000000 0.000000 0.019666 0.000000 0.038643
#
#
# Mechanical properties :
#
#
# Convention : Reuss Voigt Hill
#
# Bulk Modulus (GPa) = 58.36862 63.37695 60.87278
# Shear Modulus (GPa) = 26.06728 29.77972 27.92350
#
# Velocity S-wave (km/s) = 3.51128 3.75300 3.63415
# Velocity P-wave (km/s) = 6.63668 6.98252 6.81179
#
# Compressibility (1/GPa) = 0.01713249
#
# Stress axis : x y z
#
# Youngs Moduli (GPa) = 63.56526 88.63996 63.57181
#
# Poissons Ratio (x) = 0.40375 0.27469
# Poissons Ratio (y) = 0.28953 0.24982
# Poissons Ratio (z) = 0.27466 0.34833
#
# Static dielectric constant tensor:
#      x y z
#    x 3.844260 0.000000 -0.159630 
#    y 0.000000 3.783560 0.000000 
#    z -0.159630 0.000000 3.889560 
# 
# 
# High freq. dielectric constant tensor:
#      x y z
#    x 1.823560 0.000000 -0.017420 
#    y 0.000000 1.824330 0.000000 
#    z -0.017420 0.000000 1.830670 
# 
# From -- ./inp_files/89838.got.cif
#   From: 2010.06.25/outbox.cif.g09.slc.cpg/sg15_45_cif.got.tgz:89838.got - 2010.06.28 07:06:18.
