data_PCOD8146877
_publ_section_title
;
Structure prediction by ZEFSAII (Michael W. Deem and Ramdas Pophale) SiO2 
 PCOD8146877
Probable space group: C 2/C
;
_chemical_formula_sum "Si O2"
_cell_formula_units_Z 60
_cell_length_a 13.931512
_cell_length_b 9.101060
_cell_length_c 24.460277
_cell_angle_alpha 90.000000
_cell_angle_beta 109.673345
_cell_angle_gamma 90.000000
_cell_volume 2920.321240
_symmetry_space_group_name_H-M "C 2/C"
_symmetry_group_IT_number 15
_symmetry_cell_setting 'monoclinic'
loop_
_space_group_symop_operation_xyz
x,y,z
-x,y,1/2-z
-x,-y,-z
x,-y,1/2+z
1/2+x,1/2+y,z
1/2-x,1/2+y,1/2-z
1/2-x,1/2-y,-z
1/2+x,1/2-y,1/2+z
loop_
_atom_site_type_symbol
_atom_site_label
_atom_site_fract_x
_atom_site_fract_y
_atom_site_fract_z
Si Si1 0.959395 0.943504 0.155300
Si Si2 0.343020 0.076599 0.754692
Si Si3 0.232024 0.607677 0.638620
Si Si4 0.938958 0.918193 0.441611
Si Si5 0.943762 0.581617 0.440954
Si Si6 0.482483 0.886530 0.664410
Si Si7 0.746762 0.942343 0.860522
Si Si8 0.000000 0.815954 0.750000
O O1 0.838806 0.951912 0.138021
O O2 0.992910 0.783547 0.183791
O O3 0.998713 0.956941 0.101130
O O4 0.002588 0.080613 0.197266
O O5 0.284384 0.102229 0.799779
O O6 0.396163 0.219931 0.737112
O O7 0.433835 0.961357 0.781411
O O8 0.250376 0.009590 0.700375
O O9 0.159266 0.505651 0.589375
O O10 0.215808 0.777685 0.622068
O O11 0.928436 0.748903 0.455923
O O12 0.820908 0.966354 0.413993
O O13 0.000000 0.000000 0.500000
O O14 0.000000 0.500000 0.500000
O O15 0.006098 0.583121 0.397191
O O16 0.373098 0.960137 0.651532
#
# Coordination Sequence:
#
# PCOD8146877 Si02
#       8
#     8   8   8   8   8   8   8   4
#     4  10  25  41  63  93 128 171 207 255 311 385
#     4  11  23  38  61  96 131 164 202 263 313 374
#     4  10  24  39  64  91 126 166 212 252 313 380
#     4  11  25  45  65  90 127 165 213 263 317 372
#     4  10  22  42  66  90 120 160 214 263 308 373
#     4   9  21  43  62  91 126 168 206 247 319 382
#     4  11  22  40  63  88 122 171 204 250 320 368
#     4  12  24  36  62  96 138 154 212 260 312 376
#
# _framework density 20.545683
#
# number of rings (size 3 to 8) (size 9 to 14) (size 15 to 20)
#    0.000    1.600    1.333    1.600    9.333    3.200 
#    0.000    5.333    0.000    0.000    0.000    0.000 
#    0.000    0.000    0.000    0.000    0.000    0.000 
#
# Total GULP energy -371797.660157 kJ/mol
# GULP energy per Si atom -12393.255339 kJ/mol
# Density = 2.049892 g / cm^3
# Si number density = 20.545683 Si / 1000 Ang^3
#
#
#
# Elastic Constant Matrix: (Units=GPa)
#
#
# Indices 1 2 3 4 5 6 
#
# 1 61.6719 38.9463 20.3264 0.0000 8.6652 0.0000
# 2 38.9463 133.2163 63.6193 0.0000 17.3993 0.0000
# 3 20.3264 63.6193 111.9983 0.0000 25.8598 0.0000
# 4 0.0000 0.0000 0.0000 -95.7131 0.0000 -162.7317
# 5 8.6652 17.3993 25.8598 0.0000 25.5557 0.0000
# 6 0.0000 0.0000 0.0000 -162.7317 0.0000 -172.2605
#
#
#
# Elastic Compliance Matrix: (Units=1/GPa)
#
#
# Indices 1 2 3 4 5 6 
#
# 1 0.020112 -0.005584 0.000285 0.000000 -0.003306 0.000000
# 2 -0.005584 0.011891 -0.005623 0.000000 -0.000513 0.000000
# 3 0.000285 -0.005623 0.014627 0.000000 -0.011069 0.000000
# 4 0.000000 0.000000 0.000000 0.017236 0.000000 -0.016283
# 5 -0.003306 -0.000513 -0.011069 0.000000 0.051802 0.000000
# 6 0.000000 0.000000 0.000000 -0.016283 0.000000 0.009577
#
#
# Mechanical properties :
#
#
# Convention : Reuss Voigt Hill
#
# Bulk Modulus (GPa) = 40.34448 61.40782 50.87615
# Shear Modulus (GPa) = 32.18524 -36.21729 -2.01603
#
# Velocity S-wave (km/s) = 3.96222 -4.20309 -0.99165
# Velocity P-wave (km/s) = 6.37271 2.52957 4.84820
#
# Compressibility (1/GPa) = 0.02478654
#
# Stress axis : x y z
#
# Youngs Moduli (GPa) = 49.72202 84.09404 68.36772
#
# Poissons Ratio (x) = 0.46960 -0.01951
# Poissons Ratio (y) = 0.27766 0.38442
# Poissons Ratio (z) = -0.01419 0.47285
#
# Static dielectric constant tensor:
#      x y z
#    x 4.011380 0.000000 -0.207930 
#    y 0.000000 4.033410 0.000000 
#    z -0.207930 0.000000 3.481120 
# 
# 
# High freq. dielectric constant tensor:
#      x y z
#    x 1.811150 0.000000 -0.001930 
#    y 0.000000 1.821540 0.000000 
#    z -0.001930 0.000000 1.798050 
# 
# From -- ./inp_files/273218.got.cif
#   From: 2010.06.25/outbox.cif.g09.slc.cpg/sg15_137_cif.got.tgz:273218.got - 2010.06.28 07:06:18.
