data_PCOD8146520
_publ_section_title
;
Structure prediction by ZEFSAII (Michael W. Deem and Ramdas Pophale) SiO2 
 PCOD8146520
Probable space group: C 2/C
;
_chemical_formula_sum "Si O2"
_cell_formula_units_Z 44
_cell_length_a 26.115571
_cell_length_b 15.323730
_cell_length_c 15.341405
_cell_angle_alpha 90.000000
_cell_angle_beta 159.002741
_cell_angle_gamma 90.000000
_cell_volume 2199.906311
_symmetry_space_group_name_H-M "C 2/C"
_symmetry_group_IT_number 15
_symmetry_cell_setting 'monoclinic'
loop_
_space_group_symop_operation_xyz
x,y,z
-x,y,1/2-z
-x,-y,-z
x,-y,1/2+z
1/2+x,1/2+y,z
1/2-x,1/2+y,1/2-z
1/2-x,1/2-y,-z
1/2+x,1/2-y,1/2+z
loop_
_atom_site_type_symbol
_atom_site_label
_atom_site_fract_x
_atom_site_fract_y
_atom_site_fract_z
Si Si1 0.066949 0.708588 0.447402
Si Si2 0.857353 0.168481 0.683552
Si Si3 0.397963 0.704128 0.938659
Si Si4 0.235648 0.490388 0.891446
Si Si5 0.500000 0.586193 0.250000
Si Si6 0.012988 0.624312 0.547529
O O1 0.236949 0.720733 0.715447
O O2 0.024429 0.647967 0.462282
O O3 0.000000 0.670275 0.250000
O O4 0.999043 0.805166 0.354338
O O5 0.750000 0.250000 0.500000
O O6 0.893058 0.152945 0.840500
O O7 0.795653 0.075858 0.558058
O O8 0.491622 0.646870 0.152326
O O9 0.485932 0.793372 0.066037
O O10 0.156007 0.574691 0.807330
O O11 0.120869 0.439987 0.649651
O O12 0.362076 0.524791 0.031784
#
# Coordination Sequence:
#
# PCOD8146520 Si02
#       6
#     8   8   8   8   4   8
#     4  11  18  36  68  97 119 172 220 257 312 387
#     4  11  21  38  69  95 122 166 218 270 315 371
#     4  11  23  44  61  96 127 181 208 254 330 391
#     4  11  22  41  63 100 123 168 212 278 310 365
#     4  12  28  40  66  94 142 168 210 262 326 396
#     4  10  22  41  67  91 135 169 212 264 321 380
#
# _framework density 20.000851000000001
#
# number of rings (size 3 to 8) (size 9 to 14) (size 15 to 20)
#    0.000    1.091    7.273    0.000    3.818    1.455 
#    0.000    1.818    4.000    0.000    0.000    0.000 
#    0.000    0.000    0.000    0.000    0.000    0.000 
#
# Total GULP energy -272703.920356 kJ/mol
# GULP energy per Si atom -12395.632743 kJ/mol
# Density = 1.995533 g / cm^3
# Si number density = 20.000851 Si / 1000 Ang^3
#
#
#
# Elastic Constant Matrix: (Units=GPa)
#
#
# Indices 1 2 3 4 5 6 
#
# 1 91.7337 53.0271 38.2701 0.0000 1.7263 0.0000
# 2 53.0271 132.9176 51.6692 0.0000 3.0875 0.0000
# 3 38.2701 51.6692 75.1097 0.0000 6.9236 0.0000
# 4 0.0000 0.0000 0.0000 48.8732 0.0000 8.4708
# 5 1.7263 3.0875 6.9236 0.0000 43.0365 0.0000
# 6 0.0000 0.0000 0.0000 8.4708 0.0000 28.4338
#
#
#
# Elastic Compliance Matrix: (Units=1/GPa)
#
#
# Indices 1 2 3 4 5 6 
#
# 1 0.015415 -0.004219 -0.004997 0.000000 0.000488 0.000000
# 2 -0.004219 0.011431 -0.005739 0.000000 0.000272 0.000000
# 3 -0.004997 -0.005739 0.020049 0.000000 -0.002613 0.000000
# 4 0.000000 0.000000 0.000000 0.021575 0.000000 -0.006428
# 5 0.000488 0.000272 -0.002613 0.000000 0.023617 0.000000
# 6 0.000000 0.000000 0.000000 -0.006428 0.000000 0.037084
#
#
# Mechanical properties :
#
#
# Convention : Reuss Voigt Hill
#
# Bulk Modulus (GPa) = 58.87537 65.07709 61.97623
# Shear Modulus (GPa) = 30.34990 34.52166 32.43578
#
# Velocity S-wave (km/s) = 3.89965 4.15903 4.03143
# Velocity P-wave (km/s) = 7.05526 7.46131 7.26113
#
# Compressibility (1/GPa) = 0.01698503
#
# Stress axis : x y z
#
# Youngs Moduli (GPa) = 64.87029 87.47989 49.87710
#
# Poissons Ratio (x) = 0.36904 0.24926
# Poissons Ratio (y) = 0.27366 0.28626
# Poissons Ratio (z) = 0.32419 0.50208
#
# Static dielectric constant tensor:
#      x y z
#    x 3.687870 0.000000 0.274290 
#    y 0.000000 3.773360 0.000000 
#    z 0.274290 0.000000 3.815460 
# 
# 
# High freq. dielectric constant tensor:
#      x y z
#    x 1.773410 0.000000 0.022990 
#    y 0.000000 1.776180 0.000000 
#    z 0.022990 0.000000 1.782860 
# 
# From -- ./inp_files/178798.got.cif
#   From: 2010.06.25/outbox.cif.g09.slc.cpg/sg15_90_cif.got.tgz:178798.got - 2010.06.28 07:06:18.
