data_PCOD8146167
_publ_section_title
;
Structure prediction by ZEFSAII (Michael W. Deem and Ramdas Pophale) SiO2 
 PCOD8146167
Probable space group: C 2/C
;
_chemical_formula_sum "Si O2"
_cell_formula_units_Z 52
_cell_length_a 15.305341
_cell_length_b 10.056993
_cell_length_c 17.930319
_cell_angle_alpha 90.000000
_cell_angle_beta 65.723100
_cell_angle_gamma 90.000000
_cell_volume 2515.873355
_symmetry_space_group_name_H-M "C 2/C"
_symmetry_group_IT_number 15
_symmetry_cell_setting 'monoclinic'
loop_
_space_group_symop_operation_xyz
x,y,z
-x,y,1/2-z
-x,-y,-z
x,-y,1/2+z
1/2+x,1/2+y,z
1/2-x,1/2+y,1/2-z
1/2-x,1/2-y,-z
1/2+x,1/2-y,1/2+z
loop_
_atom_site_type_symbol
_atom_site_label
_atom_site_fract_x
_atom_site_fract_y
_atom_site_fract_z
Si Si1 0.254680 0.944095 0.955816
Si Si2 0.152600 0.548376 0.841988
Si Si3 0.391123 0.221846 0.507003
Si Si4 0.714432 0.165398 0.669941
Si Si5 0.419756 0.238832 0.142969
Si Si6 0.000000 0.892529 0.250000
Si Si7 0.829483 0.944142 0.867424
O O1 0.297397 0.034893 0.875976
O O2 0.342395 0.856753 0.955705
O O3 0.209484 0.035174 0.035920
O O4 0.174131 0.848216 0.948790
O O5 0.163201 0.641225 0.766502
O O6 0.090578 0.419291 0.843800
O O7 0.258060 0.507752 0.832217
O O8 0.096339 0.630425 0.924829
O O9 0.494546 0.271231 0.444146
O O10 0.826240 0.197275 0.639290
O O11 0.659386 0.287187 0.650062
O O12 0.437621 0.300248 0.217807
O O13 0.931587 0.984981 0.323778
#
# Coordination Sequence:
#
# PCOD8146167 Si02
#       7
#     8   8   8   8   8   4   8
#     4  10  22  40  68  89 127 171 210 255 333 381
#     4  10  23  40  64  93 128 168 213 267 324 377
#     4  10  22  41  66  94 125 167 214 267 314 390
#     4  11  24  41  65  94 128 169 211 269 319 379
#     4  11  24  40  66  92 128 167 218 264 314 387
#     4  12  22  42  64  92 128 166 220 264 322 382
#     4  10  22  43  60  92 129 170 210 264 320 382
#
# _framework density 20.668768
#
# number of rings (size 3 to 8) (size 9 to 14) (size 15 to 20)
#    0.000    1.538    3.077    0.923    6.462    0.615 
#    5.538    0.000    0.000    0.000    0.000    0.000 
#    0.000    0.000    0.000    0.000    0.000    0.000 
#
# Total GULP energy -322593.038469 kJ/mol
# GULP energy per Si atom -12407.424556 kJ/mol
# Density = 2.062173 g / cm^3
# Si number density = 20.668768 Si / 1000 Ang^3
#
#
#
# Elastic Constant Matrix: (Units=GPa)
#
#
# Indices 1 2 3 4 5 6 
#
# 1 54.7419 23.9418 18.1042 0.0000 0.4092 0.0000
# 2 23.9418 109.6186 24.1880 0.0000 13.6132 0.0000
# 3 18.1042 24.1880 74.5383 0.0000 -1.7421 0.0000
# 4 0.0000 0.0000 0.0000 39.1971 0.0000 2.8770
# 5 0.4092 13.6132 -1.7421 0.0000 25.0233 0.0000
# 6 0.0000 0.0000 0.0000 2.8770 0.0000 29.2651
#
#
#
# Elastic Compliance Matrix: (Units=1/GPa)
#
#
# Indices 1 2 3 4 5 6 
#
# 1 0.021270 -0.003993 -0.003834 0.000000 0.001558 0.000000
# 2 -0.003993 0.011419 -0.002884 0.000000 -0.006348 0.000000
# 3 -0.003834 -0.002884 0.015346 0.000000 0.002700 0.000000
# 4 0.000000 0.000000 0.000000 0.025698 0.000000 -0.002526
# 5 0.001558 -0.006348 0.002700 0.000000 0.043579 0.000000
# 6 0.000000 0.000000 0.000000 -0.002526 0.000000 0.034419
#
#
# Mechanical properties :
#
#
# Convention : Reuss Voigt Hill
#
# Bulk Modulus (GPa) = 37.57518 41.26299 39.41908
# Shear Modulus (GPa) = 27.46883 30.20807 28.83845
#
# Velocity S-wave (km/s) = 3.64950 3.82715 3.73938
# Velocity P-wave (km/s) = 5.99814 6.28782 6.14469
#
# Compressibility (1/GPa) = 0.02661331
#
# Stress axis : x y z
#
# Youngs Moduli (GPa) = 47.01392 87.57035 65.16282
#
# Poissons Ratio (x) = 0.34967 0.24984
# Poissons Ratio (y) = 0.18773 0.18794
# Poissons Ratio (z) = 0.18025 0.25256
#
# Static dielectric constant tensor:
#      x y z
#    x 3.648340 0.000000 0.005110 
#    y 0.000000 3.835320 0.000000 
#    z 0.005110 0.000000 3.584370 
# 
# 
# High freq. dielectric constant tensor:
#      x y z
#    x 1.795370 0.000000 -0.002040 
#    y 0.000000 1.817460 0.000000 
#    z -0.002040 0.000000 1.812400 
# 
# From -- ./inp_files/152688.got.cif
#   From: 2010.06.25/outbox.cif.g09.slc.cpg/sg15_77_cif.got.tgz:152688.got - 2010.06.28 07:06:18.
