data_PCOD8146675
_publ_section_title
;
Structure prediction by ZEFSAII (Michael W. Deem and Ramdas Pophale) SiO2 
 PCOD8146675
Probable space group: C 2/C
;
_chemical_formula_sum "Si O2"
_cell_formula_units_Z 44
_cell_length_a 5.465958
_cell_length_b 20.421850
_cell_length_c 19.561094
_cell_angle_alpha 90.000000
_cell_angle_beta 59.928806
_cell_angle_gamma 90.000000
_cell_volume 1889.614160
_symmetry_space_group_name_H-M "C 2/C"
_symmetry_group_IT_number 15
_symmetry_cell_setting 'monoclinic'
loop_
_space_group_symop_operation_xyz
x,y,z
-x,y,1/2-z
-x,-y,-z
x,-y,1/2+z
1/2+x,1/2+y,z
1/2-x,1/2+y,1/2-z
1/2-x,1/2-y,-z
1/2+x,1/2-y,1/2+z
loop_
_atom_site_type_symbol
_atom_site_label
_atom_site_fract_x
_atom_site_fract_y
_atom_site_fract_z
Si Si1 0.885226 0.068565 0.619913
Si Si2 0.000000 0.038962 0.750000
Si Si3 0.826077 0.702493 0.841307
Si Si4 0.805303 0.360816 0.972494
Si Si5 0.485057 0.946383 0.828393
Si Si6 0.156974 0.264189 0.425390
O O1 0.651949 0.125308 0.640569
O O2 0.961666 0.083620 0.688698
O O3 0.141013 0.078970 0.531143
O O4 0.788614 0.993481 0.626048
O O5 0.256296 0.992759 0.694658
O O6 0.498722 0.723856 0.875034
O O7 0.000000 0.719555 0.750000
O O8 0.993692 0.740475 0.877227
O O9 0.595652 0.306218 0.969204
O O10 0.993796 0.389990 0.884580
O O11 0.979082 0.321641 0.007214
O O12 0.500000 0.914926 0.750000
#
# Coordination Sequence:
#
# PCOD8146675 Si02
#       6
#     8   4   8   8   8   8
#     4  10  23  39  69  95 130 175 224 285 335 408
#     4  10  22  42  60 106 134 166 232 276 350 404
#     4  11  23  42  71  98 138 176 230 278 342 396
#     4  10  23  44  68  93 137 176 227 276 344 395
#     4  10  22  43  64  98 133 175 223 283 337 410
#     4  10  25  45  64 104 134 181 228 282 325 412
#
# _framework density 23.285177999999998
#
# number of rings (size 3 to 8) (size 9 to 14) (size 15 to 20)
#    0.000    1.818    0.000    2.727   10.182    8.727 
#   21.273    0.000    0.000    0.000    0.000    0.000 
#    0.000    0.000    0.000    0.000    0.000    0.000 
#
# Total GULP energy -272548.085119 kJ/mol
# GULP energy per Si atom -12388.549324 kJ/mol
# Density = 2.323218 g / cm^3
# Si number density = 23.285178 Si / 1000 Ang^3
#
#
#
# Elastic Constant Matrix: (Units=GPa)
#
#
# Indices 1 2 3 4 5 6 
#
# 1 87.5332 6.0165 32.9229 0.0000 9.4300 0.0000
# 2 6.0165 69.6668 51.4497 0.0000 2.1004 0.0000
# 3 32.9229 51.4497 152.7471 0.0000 5.4889 0.0000
# 4 0.0000 0.0000 0.0000 25.8906 0.0000 0.1027
# 5 9.4300 2.1004 5.4889 0.0000 30.1487 0.0000
# 6 0.0000 0.0000 0.0000 0.1027 0.0000 17.0715
#
#
#
# Elastic Compliance Matrix: (Units=1/GPa)
#
#
# Indices 1 2 3 4 5 6 
#
# 1 0.012876 0.001265 -0.003074 0.000000 -0.003556 0.000000
# 2 0.001265 0.019232 -0.006732 0.000000 -0.000510 0.000000
# 3 -0.003074 -0.006732 0.009488 0.000000 -0.000297 0.000000
# 4 0.000000 0.000000 0.000000 0.038625 0.000000 -0.000232
# 5 -0.003556 -0.000510 -0.000297 0.000000 0.034371 0.000000
# 6 0.000000 0.000000 0.000000 -0.000232 0.000000 0.058579
#
#
# Mechanical properties :
#
#
# Convention : Reuss Voigt Hill
#
# Bulk Modulus (GPa) = 40.79236 54.52501 47.65869
# Shear Modulus (GPa) = 25.19862 29.25935 27.22899
#
# Velocity S-wave (km/s) = 3.29321 3.54865 3.42331
# Velocity P-wave (km/s) = 5.65835 6.34489 6.01143
#
# Compressibility (1/GPa) = 0.02451440
#
# Stress axis : x y z
#
# Youngs Moduli (GPa) = 77.66107 51.99664 105.40110
#
# Poissons Ratio (x) = -0.06579 0.32398
# Poissons Ratio (y) = -0.09826 0.70959
# Poissons Ratio (z) = 0.23871 0.35006
#
# Static dielectric constant tensor:
#      x y z
#    x 3.642990 0.000000 0.092090 
#    y 0.000000 4.052230 0.000000 
#    z 0.092090 0.000000 4.468100 
# 
# 
# High freq. dielectric constant tensor:
#      x y z
#    x 1.899740 0.000000 0.010410 
#    y 0.000000 1.908630 0.000000 
#    z 0.010410 0.000000 1.943900 
# 
# From -- ./inp_files/184808.got.cif
#   From: 2010.06.25/outbox.cif.g09.slc.cpg/sg15_93_cif.got.tgz:184808.got - 2010.06.28 07:06:18.
