data_PCOD8146131
_publ_section_title
;
Structure prediction by ZEFSAII (Michael W. Deem and Ramdas Pophale) SiO2 
 PCOD8146131
Probable space group: C 2/C
;
_chemical_formula_sum "Si O2"
_cell_formula_units_Z 64
_cell_length_a 11.912073
_cell_length_b 22.805182
_cell_length_c 11.572292
_cell_angle_alpha 90.000000
_cell_angle_beta 81.470188
_cell_angle_gamma 90.000000
_cell_volume 3108.921084
_symmetry_space_group_name_H-M "C 2/C"
_symmetry_group_IT_number 15
_symmetry_cell_setting 'monoclinic'
loop_
_space_group_symop_operation_xyz
x,y,z
-x,y,1/2-z
-x,-y,-z
x,-y,1/2+z
1/2+x,1/2+y,z
1/2-x,1/2+y,1/2-z
1/2-x,1/2-y,-z
1/2+x,1/2-y,1/2+z
loop_
_atom_site_type_symbol
_atom_site_label
_atom_site_fract_x
_atom_site_fract_y
_atom_site_fract_z
Si Si1 0.747582 0.052331 0.834173
Si Si2 0.373249 0.232343 0.949752
Si Si3 0.578825 0.442561 0.991870
Si Si4 0.192816 0.619579 0.624676
Si Si5 0.989939 0.433793 0.029190
Si Si6 0.100117 0.138677 0.073187
Si Si7 0.072517 0.654616 0.343460
Si Si8 0.217103 0.923029 0.744810
O O1 0.857996 0.061940 0.895592
O O2 0.765930 0.090877 0.715609
O O3 0.634197 0.080602 0.903450
O O4 0.732089 0.982761 0.817075
O O5 0.424119 0.204509 0.059000
O O6 0.250000 0.250000 0.000000
O O7 0.365536 0.184163 0.846381
O O8 0.434082 0.292841 0.901380
O O9 0.500000 0.500000 0.000000
O O10 0.498687 0.386274 0.992704
O O11 0.675587 0.441148 0.878617
O O12 0.276141 0.628348 0.502956
O O13 0.088429 0.577924 0.607632
O O14 0.000000 0.500000 0.000000
O O15 0.003775 0.399272 0.908098
O O16 0.107486 0.102024 0.191775
O O17 0.191341 0.629801 0.274158
O O18 0.000000 0.681694 0.250000
#
# Coordination Sequence:
#
# PCOD8146131 Si02
#       8
#     8   8   8   8   8   8   8   8
#     4  12  25  39  62  97 137 168 208 268 329 386
#     4   9  19  43  68  89 125 168 224 267 317 394
#     4  12  27  42  61  98 139 171 219 270 323 392
#     4  10  22  40  67  94 127 166 215 268 324 388
#     4  11  21  38  60  94 130 163 209 261 329 393
#     4  11  21  45  69  92 123 181 223 257 326 388
#     4  11  22  38  66  98 128 167 219 279 330 390
#     4  12  23  40  66  91 130 176 213 263 322 397
#
# _framework density 20.585920999999999
#
# number of rings (size 3 to 8) (size 9 to 14) (size 15 to 20)
#    0.000    1.000    6.250    2.250    3.500    1.500 
#    4.500    5.000    0.000    4.500    0.000    0.000 
#    0.000    0.000    0.000    0.000    0.000    0.000 
#
# Total GULP energy -396582.358899 kJ/mol
# GULP energy per Si atom -12393.198716 kJ/mol
# Density = 2.053907 g / cm^3
# Si number density = 20.585921 Si / 1000 Ang^3
#
#
#
# Elastic Constant Matrix: (Units=GPa)
#
#
# Indices 1 2 3 4 5 6 
#
# 1 97.7466 36.0384 24.3989 0.0000 23.6358 0.0000
# 2 36.0384 144.3424 34.8647 0.0000 21.6237 0.0000
# 3 24.3989 34.8647 74.4009 0.0000 24.4582 0.0000
# 4 0.0000 0.0000 0.0000 23.1719 0.0000 2.8608
# 5 23.6358 21.6237 24.4582 0.0000 47.0759 0.0000
# 6 0.0000 0.0000 0.0000 2.8608 0.0000 29.1500
#
#
#
# Elastic Compliance Matrix: (Units=1/GPa)
#
#
# Indices 1 2 3 4 5 6 
#
# 1 0.012479 -0.002045 -0.001668 0.000000 -0.004460 0.000000
# 2 -0.002045 0.008312 -0.002782 0.000000 -0.001346 0.000000
# 3 -0.001668 -0.002782 0.017602 0.000000 -0.007030 0.000000
# 4 0.000000 0.000000 0.000000 0.043685 0.000000 -0.004287
# 5 -0.004460 -0.001346 -0.007030 0.000000 0.027752 0.000000
# 6 0.000000 0.000000 0.000000 -0.004287 0.000000 0.034726
#
#
# Mechanical properties :
#
#
# Convention : Reuss Voigt Hill
#
# Bulk Modulus (GPa) = 39.36430 56.34375 47.85403
# Shear Modulus (GPa) = 30.11781 34.62541 32.37161
#
# Velocity S-wave (km/s) = 3.82911 4.10566 3.96979
# Velocity P-wave (km/s) = 6.22197 7.06433 6.65649
#
# Compressibility (1/GPa) = 0.02540373
#
# Stress axis : x y z
#
# Youngs Moduli (GPa) = 80.13357 120.30638 56.81042
#
# Poissons Ratio (x) = 0.24599 0.09477
# Poissons Ratio (y) = 0.16385 0.15805
# Poissons Ratio (z) = 0.13368 0.33470
#
# Static dielectric constant tensor:
#      x y z
#    x 3.690530 0.000000 -0.020050 
#    y 0.000000 4.130870 0.000000 
#    z -0.020050 0.000000 3.876660 
# 
# 
# High freq. dielectric constant tensor:
#      x y z
#    x 1.808590 0.000000 0.003020 
#    y 0.000000 1.806410 0.000000 
#    z 0.003020 0.000000 1.793270 
# 
# From -- ./inp_files/90796.got.cif
#   From: 2010.06.25/outbox.cif.g09.slc.cpg/sg15_46_cif.got.tgz:90796.got - 2010.06.28 07:06:18.
