data_PCOD8146058
_publ_section_title
;
Structure prediction by ZEFSAII (Michael W. Deem and Ramdas Pophale) SiO2 
 PCOD8146058
Probable space group: C 2/C
;
_chemical_formula_sum "Si O2"
_cell_formula_units_Z 52
_cell_length_a 21.778249
_cell_length_b 9.780225
_cell_length_c 12.114181
_cell_angle_alpha 90.000000
_cell_angle_beta 60.808162
_cell_angle_gamma 90.000000
_cell_volume 2252.557632
_symmetry_space_group_name_H-M "C 2/C"
_symmetry_group_IT_number 15
_symmetry_cell_setting 'monoclinic'
loop_
_space_group_symop_operation_xyz
x,y,z
-x,y,1/2-z
-x,-y,-z
x,-y,1/2+z
1/2+x,1/2+y,z
1/2-x,1/2+y,1/2-z
1/2-x,1/2-y,-z
1/2+x,1/2-y,1/2+z
loop_
_atom_site_type_symbol
_atom_site_label
_atom_site_fract_x
_atom_site_fract_y
_atom_site_fract_z
Si Si1 0.260588 0.097275 0.451864
Si Si2 0.094947 0.134433 0.851380
Si Si3 0.197475 0.623522 0.314161
Si Si4 0.060352 0.214416 0.119172
Si Si5 0.327596 0.590675 0.335542
Si Si6 0.000000 0.271435 0.750000
Si Si7 0.899372 0.486968 0.940978
O O1 0.250000 0.250000 0.500000
O O2 0.254912 0.069886 0.326961
O O3 0.193414 0.028426 0.563257
O O4 0.337177 0.035007 0.409357
O O5 0.159169 0.239825 0.807961
O O6 0.046145 0.178194 0.790945
O O7 0.124157 0.981833 0.801202
O O8 0.055569 0.135904 0.005406
O O9 0.255984 0.661038 0.354679
O O10 0.141428 0.507170 0.404841
O O11 0.132572 0.199385 0.123677
O O12 0.053506 0.377177 0.112509
O O13 0.000000 0.153328 0.250000
O O14 0.046645 0.361743 0.622802
#
# Coordination Sequence:
#
# PCOD8146058 Si02
#       7
#     8   8   8   8   8   4   8
#     4  11  20  42  66  98 135 170 230 278 342 405
#     4  11  25  45  69 102 137 181 233 286 343 415
#     4  10  22  40  66 100 132 175 223 286 338 401
#     4  11  26  47  64  99 143 182 232 282 352 411
#     4  11  24  43  69  98 135 181 229 289 345 409
#     4  12  22  46  70 102 140 184 230 284 340 412
#     4  10  23  40  68  98 132 179 225 279 338 409
#
# _framework density 23.084868
#
# number of rings (size 3 to 8) (size 9 to 14) (size 15 to 20)
#    0.000    1.231    3.846    0.923    1.077   11.077 
#    5.538    0.000    0.000    0.000    0.000    0.000 
#    0.000    0.000    0.000    0.000    0.000    0.000 
#
# Total GULP energy -322107.942307 kJ/mol
# GULP energy per Si atom -12388.767012 kJ/mol
# Density = 2.303233 g / cm^3
# Si number density = 23.084868 Si / 1000 Ang^3
#
#
#
# Elastic Constant Matrix: (Units=GPa)
#
#
# Indices 1 2 3 4 5 6 
#
# 1 110.1603 13.3374 28.9563 0.0000 10.8349 0.0000
# 2 13.3374 31.1114 9.5368 0.0000 4.9561 0.0000
# 3 28.9563 9.5368 150.6266 0.0000 3.2460 0.0000
# 4 0.0000 0.0000 0.0000 20.3896 0.0000 2.8424
# 5 10.8349 4.9561 3.2460 0.0000 33.8525 0.0000
# 6 0.0000 0.0000 0.0000 2.8424 0.0000 27.8470
#
#
#
# Elastic Compliance Matrix: (Units=1/GPa)
#
#
# Indices 1 2 3 4 5 6 
#
# 1 0.010193 -0.003439 -0.001686 0.000000 -0.002597 0.000000
# 2 -0.003439 0.034673 -0.001451 0.000000 -0.003836 0.000000
# 3 -0.001686 -0.001451 0.007053 0.000000 0.000076 0.000000
# 4 0.000000 0.000000 0.000000 0.049753 0.000000 -0.005078
# 5 -0.002597 -0.003836 0.000076 0.000000 0.030926 0.000000
# 6 0.000000 0.000000 0.000000 -0.005078 0.000000 0.036429
#
#
# Mechanical properties :
#
#
# Convention : Reuss Voigt Hill
#
# Bulk Modulus (GPa) = 25.79562 43.95102 34.87332
# Shear Modulus (GPa) = 25.62782 32.42233 29.02508
#
# Velocity S-wave (km/s) = 3.33552 3.75171 3.54972
# Velocity P-wave (km/s) = 5.10223 6.15202 5.65155
#
# Compressibility (1/GPa) = 0.03876627
#
# Stress axis : x y z
#
# Youngs Moduli (GPa) = 98.11043 28.84094 141.77847
#
# Poissons Ratio (x) = 0.09919 0.23900
# Poissons Ratio (y) = 0.33741 0.20579
# Poissons Ratio (z) = 0.16539 0.04186
#
# Static dielectric constant tensor:
#      x y z
#    x 3.749490 0.000000 0.010300 
#    y 0.000000 4.003540 0.000000 
#    z 0.010300 0.000000 4.615860 
# 
# 
# High freq. dielectric constant tensor:
#      x y z
#    x 1.912360 0.000000 -0.006900 
#    y 0.000000 1.892120 0.000000 
#    z -0.006900 0.000000 1.929740 
# 
# From -- ./inp_files/110958.got.cif
#   From: 2010.06.25/outbox.cif.g09.slc.cpg/sg15_56_cif.got.tgz:110958.got - 2010.06.28 07:06:18.
