data_PCOD8146157
_publ_section_title
;
Structure prediction by ZEFSAII (Michael W. Deem and Ramdas Pophale) SiO2 
 PCOD8146157
Probable space group: C 2/C
;
_chemical_formula_sum "Si O2"
_cell_formula_units_Z 52
_cell_length_a 14.113333
_cell_length_b 27.137171
_cell_length_c 8.986409
_cell_angle_alpha 90.000000
_cell_angle_beta 45.550783
_cell_angle_gamma 90.000000
_cell_volume 2456.972681
_symmetry_space_group_name_H-M "C 2/C"
_symmetry_group_IT_number 15
_symmetry_cell_setting 'monoclinic'
loop_
_space_group_symop_operation_xyz
x,y,z
-x,y,1/2-z
-x,-y,-z
x,-y,1/2+z
1/2+x,1/2+y,z
1/2-x,1/2+y,1/2-z
1/2-x,1/2-y,-z
1/2+x,1/2-y,1/2+z
loop_
_atom_site_type_symbol
_atom_site_label
_atom_site_fract_x
_atom_site_fract_y
_atom_site_fract_z
Si Si1 0.849290 0.548539 0.245981
Si Si2 0.354459 0.793277 0.369868
Si Si3 0.654884 0.948702 0.400945
Si Si4 0.788022 0.137178 0.259860
Si Si5 0.850328 0.206199 0.924162
Si Si6 0.721629 0.346092 0.286886
Si Si7 0.500000 0.359039 0.750000
O O1 0.795770 0.498055 0.233888
O O2 0.826798 0.544409 0.444901
O O3 0.763867 0.593319 0.281541
O O4 0.000426 0.559835 0.033785
O O5 0.500000 0.772952 0.250000
O O6 0.250000 0.750000 0.500000
O O7 0.323714 0.839894 0.510367
O O8 0.347332 0.813321 0.205814
O O9 0.742728 0.903867 0.241803
O O10 0.909128 0.113646 0.225544
O O11 0.833574 0.182226 0.104328
O O12 0.822124 0.164458 0.832272
O O13 0.000000 0.226642 0.750000
O O14 0.750000 0.250000 0.000000
O O15 0.605820 0.329484 0.531340
#
# Coordination Sequence:
#
# PCOD8146157 Si02
#       7
#     8   8   8   8   8   8   4
#     4  10  22  40  68 101 133 169 218 274 336 398
#     4  11  26  41  66  97 133 178 227 268 328 397
#     4  10  22  40  68 101 133 169 218 274 336 398
#     4  11  23  44  68  93 137 174 221 274 335 387
#     4  12  26  44  70  98 134 175 227 280 339 398
#     4  11  23  44  68  93 137 174 221 274 335 387
#     4  10  24  40  70  90 126 184 214 260 328 400
#
# _framework density 21.164256999999999
#
# number of rings (size 3 to 8) (size 9 to 14) (size 15 to 20)
#    0.000    1.231    3.077    1.846    8.615    4.923 
#    0.000    0.769    3.385    0.000    0.000    0.000 
#    0.000    0.000    0.000    0.000    0.000    0.000 
#
# Total GULP energy -322217.401367 kJ/mol
# GULP energy per Si atom -12392.976976 kJ/mol
# Density = 2.111609 g / cm^3
# Si number density = 21.164257 Si / 1000 Ang^3
#
#
#
# Elastic Constant Matrix: (Units=GPa)
#
#
# Indices 1 2 3 4 5 6 
#
# 1 140.2831 49.6788 37.6630 0.0000 -8.8519 0.0000
# 2 49.6788 116.2627 26.6197 0.0000 -13.2734 0.0000
# 3 37.6630 26.6197 73.5510 0.0000 -2.6781 0.0000
# 4 0.0000 0.0000 0.0000 25.9861 0.0000 4.3989
# 5 -8.8519 -13.2734 -2.6781 0.0000 34.1070 0.0000
# 6 0.0000 0.0000 0.0000 4.3989 0.0000 30.3880
#
#
#
# Elastic Compliance Matrix: (Units=1/GPa)
#
#
# Indices 1 2 3 4 5 6 
#
# 1 0.009219 -0.003008 -0.003598 0.000000 0.000939 0.000000
# 2 -0.003008 0.010769 -0.002239 0.000000 0.003234 0.000000
# 3 -0.003598 -0.002239 0.016229 0.000000 -0.000531 0.000000
# 4 0.000000 0.000000 0.000000 0.039449 0.000000 -0.005711
# 5 0.000939 0.003234 -0.000531 0.000000 0.030780 0.000000
# 6 0.000000 0.000000 0.000000 -0.005711 0.000000 0.033734
#
#
# Mechanical properties :
#
#
# Convention : Reuss Voigt Hill
#
# Bulk Modulus (GPa) = 53.97673 62.00221 57.98947
# Shear Modulus (GPa) = 30.47920 32.50523 31.49222
#
# Velocity S-wave (km/s) = 3.79902 3.92325 3.86163
# Velocity P-wave (km/s) = 6.69346 7.06271 6.88056
#
# Compressibility (1/GPa) = 0.01852650
#
# Stress axis : x y z
#
# Youngs Moduli (GPa) = 108.47209 92.86298 61.61659
#
# Poissons Ratio (x) = 0.27935 0.22168
# Poissons Ratio (y) = 0.32631 0.13797
# Poissons Ratio (z) = 0.39026 0.20794
#
# Static dielectric constant tensor:
#      x y z
#    x 4.366420 0.000000 0.105870 
#    y 0.000000 3.614450 0.000000 
#    z 0.105870 0.000000 3.887580 
# 
# 
# High freq. dielectric constant tensor:
#      x y z
#    x 1.853670 0.000000 0.016410 
#    y 0.000000 1.814090 0.000000 
#    z 0.016410 0.000000 1.824960 
# 
# From -- ./inp_files/43407.got.cif
#   From: 2010.06.25/outbox.cif.g09.slc.cpg/sg15_22_cif.got.tgz:43407.got - 2010.06.28 07:06:18.
