data_PCOD8146703
_publ_section_title
;
Structure prediction by ZEFSAII (Michael W. Deem and Ramdas Pophale) SiO2 
 PCOD8146703
Probable space group: C 2/C
;
_chemical_formula_sum "Si O2"
_cell_formula_units_Z 40
_cell_length_a 20.346774
_cell_length_b 13.080824
_cell_length_c 12.173131
_cell_angle_alpha 90.000000
_cell_angle_beta 36.651583
_cell_angle_gamma 90.000000
_cell_volume 1934.055922
_symmetry_space_group_name_H-M "C 2/C"
_symmetry_group_IT_number 15
_symmetry_cell_setting 'monoclinic'
loop_
_space_group_symop_operation_xyz
x,y,z
-x,y,1/2-z
-x,-y,-z
x,-y,1/2+z
1/2+x,1/2+y,z
1/2-x,1/2+y,1/2-z
1/2-x,1/2-y,-z
1/2+x,1/2-y,1/2+z
loop_
_atom_site_type_symbol
_atom_site_label
_atom_site_fract_x
_atom_site_fract_y
_atom_site_fract_z
Si Si1 0.157306 0.835828 0.126306
Si Si2 0.787417 0.001129 0.776189
Si Si3 0.370589 0.150328 0.918567
Si Si4 0.918441 0.826855 0.513324
Si Si5 0.730818 0.164811 0.675515
O O1 0.124851 0.863310 0.046708
O O2 0.048104 0.800138 0.339366
O O3 0.202743 0.936095 0.124647
O O4 0.250000 0.750000 0.000000
O O5 0.891325 0.922926 0.629096
O O6 0.779768 0.071840 0.679568
O O7 0.677068 0.933052 0.932686
O O8 0.500000 0.145372 0.750000
O O9 0.328968 0.122807 0.852467
O O10 0.332506 0.263354 0.004882
O O11 0.857821 0.724351 0.631839
#
# Coordination Sequence:
#
# PCOD8146703 Si02
#       5
#     8   8   8   8   8
#     4  11  22  39  61  92 123 157 205 251 296 360
#     4  11  22  40  63  89 124 159 200 251 302 359
#     4  10  24  41  62  91 122 158 204 247 298 366
#     4  10  23  39  62  91 122 161 203 247 305 358
#     4  10  22  42  62  90 122 160 202 247 304 359
#
# _framework density 20.681925
#
# number of rings (size 3 to 8) (size 9 to 14) (size 15 to 20)
#    0.000    1.600    2.000    1.800    2.800    2.400 
#    7.200    0.000    0.000    0.000    0.000    0.000 
#    0.000    0.000    0.000    0.000    0.000    0.000 
#
# Total GULP energy -248042.056025 kJ/mol
# GULP energy per Si atom -12402.102801 kJ/mol
# Density = 2.063485 g / cm^3
# Si number density = 20.681925 Si / 1000 Ang^3
#
#
#
# Elastic Constant Matrix: (Units=GPa)
#
#
# Indices 1 2 3 4 5 6 
#
# 1 79.5038 32.0606 35.7553 0.0000 -4.2561 0.0000
# 2 32.0606 87.2965 45.5934 0.0000 -7.7480 0.0000
# 3 35.7553 45.5934 129.2093 0.0000 -23.9780 0.0000
# 4 0.0000 0.0000 0.0000 36.5083 0.0000 13.0775
# 5 -4.2561 -7.7480 -23.9780 0.0000 42.7805 0.0000
# 6 0.0000 0.0000 0.0000 13.0775 0.0000 31.4630
#
#
#
# Elastic Compliance Matrix: (Units=1/GPa)
#
#
# Indices 1 2 3 4 5 6 
#
# 1 0.015582 -0.004246 -0.002979 0.000000 -0.000888 0.000000
# 2 -0.004246 0.015203 -0.004193 0.000000 -0.000019 0.000000
# 3 -0.002979 -0.004193 0.010990 0.000000 0.005104 0.000000
# 4 0.000000 0.000000 0.000000 0.032183 0.000000 -0.013377
# 5 -0.000888 -0.000019 0.005104 0.000000 0.026144 0.000000
# 6 0.000000 0.000000 0.000000 -0.013377 0.000000 0.037343
#
#
# Mechanical properties :
#
#
# Convention : Reuss Voigt Hill
#
# Bulk Modulus (GPa) = 52.79762 58.09201 55.44481
# Shear Modulus (GPa) = 30.01299 34.32370 32.16835
#
# Velocity S-wave (km/s) = 3.81356 4.07824 3.94811
# Velocity P-wave (km/s) = 6.70632 7.09403 6.90290
#
# Compressibility (1/GPa) = 0.01894025
#
# Stress axis : x y z
#
# Youngs Moduli (GPa) = 64.17569 65.77693 90.98789
#
# Poissons Ratio (x) = 0.27928 0.27101
# Poissons Ratio (y) = 0.27249 0.38153
# Poissons Ratio (z) = 0.19115 0.27582
#
# Static dielectric constant tensor:
#      x y z
#    x 3.702460 0.000000 0.127940 
#    y 0.000000 3.637120 0.000000 
#    z 0.127940 0.000000 3.969190 
# 
# 
# High freq. dielectric constant tensor:
#      x y z
#    x 1.803570 0.000000 0.008740 
#    y 0.000000 1.807880 0.000000 
#    z 0.008740 0.000000 1.824950 
# 
# From -- ./inp_files/95992.got.cif
#   From: 2010.06.25/outbox.cif.g09.slc.cpg/sg15_48_cif.got.tgz:95992.got - 2010.06.28 07:06:18.
