data_PCOD8146283
_publ_section_title
;
Structure prediction by ZEFSAII (Michael W. Deem and Ramdas Pophale) SiO2 
 PCOD8146283
Probable space group: C 2/C
;
_chemical_formula_sum "Si O2"
_cell_formula_units_Z 60
_cell_length_a 19.015291
_cell_length_b 11.614103
_cell_length_c 13.045157
_cell_angle_alpha 90.000000
_cell_angle_beta 102.660611
_cell_angle_gamma 90.000000
_cell_volume 2810.915487
_symmetry_space_group_name_H-M "C 2/C"
_symmetry_group_IT_number 15
_symmetry_cell_setting 'monoclinic'
loop_
_space_group_symop_operation_xyz
x,y,z
-x,y,1/2-z
-x,-y,-z
x,-y,1/2+z
1/2+x,1/2+y,z
1/2-x,1/2+y,1/2-z
1/2-x,1/2-y,-z
1/2+x,1/2-y,1/2+z
loop_
_atom_site_type_symbol
_atom_site_label
_atom_site_fract_x
_atom_site_fract_y
_atom_site_fract_z
Si Si1 0.051728 0.154999 0.906190
Si Si2 0.566912 0.578561 0.322019
Si Si3 0.797939 0.872278 0.946746
Si Si4 0.203976 0.373066 0.107362
Si Si5 0.070205 0.456590 0.581375
Si Si6 0.000000 0.347393 0.750000
Si Si7 0.829120 0.046778 0.794357
Si Si8 0.414557 0.706143 0.971210
O O1 0.053693 0.263245 0.829507
O O2 0.000624 0.186770 0.985329
O O3 0.024854 0.035310 0.849518
O O4 0.132711 0.123398 0.959361
O O5 0.500000 0.650572 0.250000
O O6 0.625448 0.545011 0.256041
O O7 0.606103 0.651579 0.425379
O O8 0.807784 0.762071 0.875733
O O9 0.790911 0.984108 0.875815
O O10 0.727145 0.877542 0.995236
O O11 0.131378 0.445724 0.101348
O O12 0.266431 0.407843 0.203293
O O13 0.047958 0.426966 0.691083
O O14 0.102091 0.342553 0.535685
O O15 0.000000 0.500000 0.500000
O O16 0.875994 0.149677 0.859526
#
# Coordination Sequence:
#
# PCOD8146283 Si02
#       8
#     8   8   8   8   8   4   8   8
#     4  11  18  38  67 100 126 174 222 275 323 393
#     4  12  20  36  63 101 137 168 219 278 341 395
#     4  11  25  44  67  95 135 174 232 277 332 414
#     4  11  26  44  69  92 132 183 223 278 339 412
#     4  11  26  49  68  99 132 178 232 281 342 404
#     4  10  22  40  78  96 132 178 236 272 334 410
#     4  12  23  40  64 103 132 174 220 276 346 407
#     4  11  23  40  68  99 140 175 222 286 335 406
#
# _framework density 21.345358999999998
#
# number of rings (size 3 to 8) (size 9 to 14) (size 15 to 20)
#    0.000    0.800    4.667    3.600    1.867    2.133 
#    6.000    1.333    0.000    0.000    0.000    0.000 
#    0.000    0.000    0.000    0.000    0.000    0.000 
#
# Total GULP energy -371877.451419 kJ/mol
# GULP energy per Si atom -12395.915047 kJ/mol
# Density = 2.129678 g / cm^3
# Si number density = 21.345359 Si / 1000 Ang^3
#
#
#
# Elastic Constant Matrix: (Units=GPa)
#
#
# Indices 1 2 3 4 5 6 
#
# 1 67.6323 39.1070 39.6892 0.0000 5.8380 0.0000
# 2 39.1070 111.7061 43.9810 0.0000 -4.2124 0.0000
# 3 39.6892 43.9810 113.2137 0.0000 6.4733 0.0000
# 4 0.0000 0.0000 0.0000 35.8173 0.0000 -10.5082
# 5 5.8380 -4.2124 6.4733 0.0000 27.7039 0.0000
# 6 0.0000 0.0000 0.0000 -10.5082 0.0000 28.2885
#
#
#
# Elastic Compliance Matrix: (Units=1/GPa)
#
#
# Indices 1 2 3 4 5 6 
#
# 1 0.021386 -0.005651 -0.005063 0.000000 -0.004183 0.000000
# 2 -0.005651 0.012250 -0.002992 0.000000 0.003753 0.000000
# 3 -0.005063 -0.002992 0.011894 0.000000 -0.002167 0.000000
# 4 0.000000 0.000000 0.000000 0.031334 0.000000 0.011640
# 5 -0.004183 0.003753 -0.002167 0.000000 0.038055 0.000000
# 6 0.000000 0.000000 0.000000 0.011640 0.000000 0.039674
#
#
# Mechanical properties :
#
#
# Convention : Reuss Voigt Hill
#
# Bulk Modulus (GPa) = 55.19567 59.78963 57.49265
# Shear Modulus (GPa) = 26.58954 29.68026 28.13490
#
# Velocity S-wave (km/s) = 3.53325 3.73296 3.63448
# Velocity P-wave (km/s) = 6.52378 6.83018 6.67874
#
# Compressibility (1/GPa) = 0.01811736
#
# Stress axis : x y z
#
# Youngs Moduli (GPa) = 46.76057 81.63140 84.07616
#
# Poissons Ratio (x) = 0.46133 0.42564
# Poissons Ratio (y) = 0.26426 0.25158
# Poissons Ratio (z) = 0.23673 0.24427
#
# Static dielectric constant tensor:
#      x y z
#    x 2.736030 0.000000 0.872540 
#    y 0.000000 3.994840 0.000000 
#    z 0.872540 0.000000 3.149310 
# 
# 
# High freq. dielectric constant tensor:
#      x y z
#    x 1.825510 0.000000 0.001080 
#    y 0.000000 1.834310 0.000000 
#    z 0.001080 0.000000 1.846270 
# 
# From -- ./inp_files/161378.got.cif
#   From: 2010.06.25/outbox.cif.g09.slc.cpg/sg15_81_cif.got.tgz:161378.got - 2010.06.28 07:06:18.
