data_PCOD8146542
_publ_section_title
;
Structure prediction by ZEFSAII (Michael W. Deem and Ramdas Pophale) SiO2 
 PCOD8146542
Probable space group: C 2/C
;
_chemical_formula_sum "Si O2"
_cell_formula_units_Z 64
_cell_length_a 26.764805
_cell_length_b 9.809438
_cell_length_c 22.523033
_cell_angle_alpha 90.000000
_cell_angle_beta 148.454204
_cell_angle_gamma 90.000000
_cell_volume 3093.756568
_symmetry_space_group_name_H-M "C 2/C"
_symmetry_group_IT_number 15
_symmetry_cell_setting 'monoclinic'
loop_
_space_group_symop_operation_xyz
x,y,z
-x,y,1/2-z
-x,-y,-z
x,-y,1/2+z
1/2+x,1/2+y,z
1/2-x,1/2+y,1/2-z
1/2-x,1/2-y,-z
1/2+x,1/2-y,1/2+z
loop_
_atom_site_type_symbol
_atom_site_label
_atom_site_fract_x
_atom_site_fract_y
_atom_site_fract_z
Si Si1 0.464747 0.562594 0.279717
Si Si2 0.707858 0.066118 0.414824
Si Si3 0.884327 0.324997 0.244648
Si Si4 0.366266 0.528777 0.478027
Si Si5 0.833864 0.685818 0.908082
Si Si6 0.052415 0.429924 0.497442
Si Si7 0.303802 0.638109 0.626150
Si Si8 0.722980 0.291210 0.174372
O O1 0.500000 0.527654 0.250000
O O2 0.413897 0.708227 0.228718
O O3 0.548121 0.563731 0.412303
O O4 0.397881 0.444041 0.236055
O O5 0.799998 0.056383 0.467105
O O6 0.662977 0.217424 0.367754
O O7 0.739530 0.047075 0.515531
O O8 0.633642 0.953751 0.316556
O O9 0.791297 0.268456 0.185903
O O10 0.971475 0.358156 0.376761
O O11 0.394971 0.676649 0.481430
O O12 0.320243 0.442090 0.378057
O O13 0.745552 0.670232 0.862095
O O14 0.791832 0.697953 0.799938
O O15 0.901421 0.557734 0.989258
O O16 0.139623 0.322937 0.599152
O O17 0.000000 0.500000 0.500000
#
# Coordination Sequence:
#
# PCOD8146542 Si02
#       8
#     8   8   8   8   8   8   8   8
#     4  12  24  42  64  99 133 176 224 276 330 401
#     4   9  21  43  65  92 128 173 215 269 333 390
#     4  11  25  44  69  96 136 182 222 282 337 398
#     4  10  22  42  65  94 131 171 216 271 329 397
#     4  11  24  40  70  97 132 178 216 278 338 399
#     4  12  25  43  66 100 133 172 229 276 333 402
#     4  10  22  41  67  97 131 171 217 271 339 397
#     4  11  23  47  68  96 136 174 226 279 340 404
#
# _framework density 20.686824000000001
#
# number of rings (size 3 to 8) (size 9 to 14) (size 15 to 20)
#    0.000    1.250    3.750    1.500    5.250    1.500 
#    0.000    2.500    0.000    0.000    0.000    0.000 
#    0.000    0.000    0.000    0.000    0.000    0.000 
#
# Total GULP energy -396633.775574 kJ/mol
# GULP energy per Si atom -12394.805487 kJ/mol
# Density = 2.063974 g / cm^3
# Si number density = 20.686824 Si / 1000 Ang^3
#
#
#
# Elastic Constant Matrix: (Units=GPa)
#
#
# Indices 1 2 3 4 5 6 
#
# 1 50.1548 35.3134 13.9732 0.0000 -2.3999 0.0000
# 2 35.3134 125.4364 33.9217 0.0000 11.8523 0.0000
# 3 13.9732 33.9217 80.1209 0.0000 2.2394 0.0000
# 4 0.0000 0.0000 0.0000 40.5961 0.0000 4.2376
# 5 -2.3999 11.8523 2.2394 0.0000 31.3792 0.0000
# 6 0.0000 0.0000 0.0000 4.2376 0.0000 30.6568
#
#
#
# Elastic Compliance Matrix: (Units=1/GPa)
#
#
# Indices 1 2 3 4 5 6 
#
# 1 0.025725 -0.007283 -0.001538 0.000000 0.004828 0.000000
# 2 -0.007283 0.011383 -0.003420 0.000000 -0.004612 0.000000
# 3 -0.001538 -0.003420 0.014193 0.000000 0.000161 0.000000
# 4 0.000000 0.000000 0.000000 0.024994 0.000000 -0.003455
# 5 0.004828 -0.004612 0.000161 0.000000 0.033968 0.000000
# 6 0.000000 0.000000 0.000000 -0.003455 0.000000 0.033097
#
#
# Mechanical properties :
#
#
# Convention : Reuss Voigt Hill
#
# Bulk Modulus (GPa) = 37.28658 46.90318 42.09488
# Shear Modulus (GPa) = 28.28342 32.02669 30.15506
#
# Velocity S-wave (km/s) = 3.70160 3.93895 3.82212
# Velocity P-wave (km/s) = 6.02765 6.58857 6.31434
#
# Compressibility (1/GPa) = 0.02681930
#
# Stress axis : x y z
#
# Youngs Moduli (GPa) = 38.87210 87.84890 70.45713
#
# Poissons Ratio (x) = 0.63976 0.10838
# Poissons Ratio (y) = 0.28309 0.24099
# Poissons Ratio (z) = 0.05979 0.30048
#
# Static dielectric constant tensor:
#      x y z
#    x 3.736400 0.000000 0.077320 
#    y 0.000000 4.107180 0.000000 
#    z 0.077320 0.000000 3.759220 
# 
# 
# High freq. dielectric constant tensor:
#      x y z
#    x 1.802960 0.000000 -0.003560 
#    y 0.000000 1.825710 0.000000 
#    z -0.003560 0.000000 1.809570 
# 
# From -- ./inp_files/284443.got.cif
#   From: 2010.06.25/outbox.cif.g09.slc.cpg/sg15_143_cif.got.tgz:284443.got - 2010.06.28 07:06:18.
