data_PCOD8146658
_publ_section_title
;
Structure prediction by ZEFSAII (Michael W. Deem and Ramdas Pophale) SiO2 
 PCOD8146658
Probable space group: C 2/C
;
_chemical_formula_sum "Si O2"
_cell_formula_units_Z 44
_cell_length_a 7.990139
_cell_length_b 24.487433
_cell_length_c 12.525932
_cell_angle_alpha 90.000000
_cell_angle_beta 129.356080
_cell_angle_gamma 90.000000
_cell_volume 1895.006337
_symmetry_space_group_name_H-M "C 2/C"
_symmetry_group_IT_number 15
_symmetry_cell_setting 'monoclinic'
loop_
_space_group_symop_operation_xyz
x,y,z
-x,y,1/2-z
-x,-y,-z
x,-y,1/2+z
1/2+x,1/2+y,z
1/2-x,1/2+y,1/2-z
1/2-x,1/2-y,-z
1/2+x,1/2-y,1/2+z
loop_
_atom_site_type_symbol
_atom_site_label
_atom_site_fract_x
_atom_site_fract_y
_atom_site_fract_z
Si Si1 0.655109 0.073153 0.097876
Si Si2 0.365256 0.310443 0.285265
Si Si3 0.000000 0.837051 0.750000
Si Si4 0.347130 0.707212 0.399421
Si Si5 0.000000 0.016461 0.750000
Si Si6 0.000000 0.385293 0.750000
Si Si7 0.656742 0.918264 0.220186
O O1 0.787296 0.128563 0.139036
O O2 0.561814 0.072978 0.180332
O O3 0.806851 0.022119 0.128735
O O4 0.454310 0.072735 0.938092
O O5 0.500000 0.344523 0.250000
O O6 0.495022 0.284196 0.436370
O O7 0.279459 0.262833 0.172103
O O8 0.192396 0.353944 0.260178
O O9 0.018122 0.799605 0.654119
O O10 0.198932 0.654208 0.362887
O O11 0.108765 0.051186 0.695979
O O12 0.500000 0.941563 0.250000
#
# Coordination Sequence:
#
# PCOD8146658 Si02
#       7
#     8   8   4   8   4   4   8
#     4  10  23  47  70 103 135 183 234 289 356 414
#     4  12  25  42  66 102 143 183 237 281 344 414
#     4   9  22  42  66  96 144 178 242 283 342 418
#     4  11  24  40  66 101 137 193 227 286 341 415
#     4  11  26  49  72 104 132 183 238 295 348 424
#     4  10  22  41  74  96 138 183 234 284 350 410
#     4  12  27  46  71 103 144 183 229 296 350 412
#
# _framework density 23.218921000000002
#
# number of rings (size 3 to 8) (size 9 to 14) (size 15 to 20)
#    0.000    1.091    1.818    3.273    7.636    1.455 
#    0.000    0.000    0.000    0.000    0.000    0.000 
#    0.000    0.000    0.000    0.000    0.000    0.000 
#
# Total GULP energy -272692.723036 kJ/mol
# GULP energy per Si atom -12395.123774 kJ/mol
# Density = 2.316607 g / cm^3
# Si number density = 23.218921 Si / 1000 Ang^3
#
#
#
# Elastic Constant Matrix: (Units=GPa)
#
#
# Indices 1 2 3 4 5 6 
#
# 1 159.3867 46.5635 38.8898 0.0000 -18.0060 0.0000
# 2 46.5635 89.7068 52.8330 0.0000 -1.1881 0.0000
# 3 38.8898 52.8330 130.9970 0.0000 5.5060 0.0000
# 4 0.0000 0.0000 0.0000 23.4397 0.0000 -4.3232
# 5 -18.0060 -1.1881 5.5060 0.0000 29.0096 0.0000
# 6 0.0000 0.0000 0.0000 -4.3232 0.0000 28.8747
#
#
#
# Elastic Compliance Matrix: (Units=1/GPa)
#
#
# Indices 1 2 3 4 5 6 
#
# 1 0.008167 -0.003429 -0.001259 0.000000 0.005167 0.000000
# 2 -0.003429 0.016147 -0.005476 0.000000 -0.000428 0.000000
# 3 -0.001259 -0.005476 0.010341 0.000000 -0.002968 0.000000
# 4 0.000000 0.000000 0.000000 0.043874 0.000000 0.006569
# 5 0.005167 -0.000428 -0.002968 0.000000 0.038225 0.000000
# 6 0.000000 0.000000 0.000000 0.006569 0.000000 0.035616
#
#
# Mechanical properties :
#
#
# Convention : Reuss Voigt Hill
#
# Bulk Modulus (GPa) = 69.80220 72.96255 71.38237
# Shear Modulus (GPa) = 28.17325 32.38508 30.27916
#
# Velocity S-wave (km/s) = 3.48713 3.73872 3.61511
# Velocity P-wave (km/s) = 6.80745 7.08020 6.94517
#
# Compressibility (1/GPa) = 0.01432620
#
# Stress axis : x y z
#
# Youngs Moduli (GPa) = 122.44728 61.93065 96.70409
#
# Poissons Ratio (x) = 0.21238 0.12171
# Poissons Ratio (y) = 0.41992 0.52958
# Poissons Ratio (z) = 0.15411 0.33915
#
# Static dielectric constant tensor:
#      x y z
#    x 4.573910 0.000000 0.075050 
#    y 0.000000 4.174020 0.000000 
#    z 0.075050 0.000000 3.869180 
# 
# 
# High freq. dielectric constant tensor:
#      x y z
#    x 1.938530 0.000000 -0.000760 
#    y 0.000000 1.921640 0.000000 
#    z -0.000760 0.000000 1.901540 
# 
# From -- ./inp_files/81617.got.cif
#   From: 2010.06.25/outbox.cif.g09.slc.cpg/sg15_41_cif.got.tgz:81617.got - 2010.06.28 07:06:18.
