data_PCOD8146944
_publ_section_title
;
Structure prediction by ZEFSAII (Michael W. Deem and Ramdas Pophale) SiO2 
 PCOD8146944
Probable space group: C 2/C
;
_chemical_formula_sum "Si O2"
_cell_formula_units_Z 48
_cell_length_a 12.595777
_cell_length_b 12.668053
_cell_length_c 18.140362
_cell_angle_alpha 90.000000
_cell_angle_beta 130.868739
_cell_angle_gamma 90.000000
_cell_volume 2188.887988
_symmetry_space_group_name_H-M "C 2/C"
_symmetry_group_IT_number 15
_symmetry_cell_setting 'monoclinic'
loop_
_space_group_symop_operation_xyz
x,y,z
-x,y,1/2-z
-x,-y,-z
x,-y,1/2+z
1/2+x,1/2+y,z
1/2-x,1/2+y,1/2-z
1/2-x,1/2-y,-z
1/2+x,1/2-y,1/2+z
loop_
_atom_site_type_symbol
_atom_site_label
_atom_site_fract_x
_atom_site_fract_y
_atom_site_fract_z
Si Si1 0.387175 0.032580 0.782025
Si Si2 0.424578 0.607259 0.101873
Si Si3 0.702889 0.861491 0.114948
Si Si4 0.185296 0.465402 0.958093
Si Si5 0.665772 0.620487 0.108266
Si Si6 0.000000 0.055000 0.750000
Si Si7 0.500000 0.784150 0.250000
O O1 0.365379 0.058648 0.857803
O O2 0.547261 0.988481 0.846684
O O3 0.377899 0.140060 0.728841
O O4 0.273545 0.945961 0.707406
O O5 0.502783 0.605275 0.057962
O O6 0.510940 0.518071 0.183717
O O7 0.432236 0.715587 0.152716
O O8 0.260336 0.574621 0.019027
O O9 0.679938 0.743493 0.129472
O O10 0.868851 0.869372 0.186953
O O11 0.640648 0.891970 0.006502
O O12 0.303717 0.405704 0.963008
#
# Coordination Sequence:
#
# PCOD8146944 Si02
#       7
#     8   8   8   8   8   4   4
#     4  12  24  45  67  98 131 169 222 273 319 386
#     4  10  22  42  67  92 129 169 218 265 321 386
#     4  11  24  42  66  94 130 175 217 260 332 389
#     4  11  25  43  63  98 137 165 214 278 321 378
#     4  12  23  43  66  97 130 172 217 266 324 393
#     4   9  20  39  64  90 124 169 212 265 318 384
#     4  11  22  45  68  96 124 177 218 265 328 382
#
# _framework density 21.928943
#
# number of rings (size 3 to 8) (size 9 to 14) (size 15 to 20)
#    0.000    1.000    5.000    1.500    2.333    0.667 
#    0.000    0.000    0.000    0.000    0.000    0.000 
#    0.000    0.000    0.000    0.000    0.000    0.000 
#
# Total GULP energy -297512.374517 kJ/mol
# GULP energy per Si atom -12396.348938 kJ/mol
# Density = 2.187903 g / cm^3
# Si number density = 21.928943 Si / 1000 Ang^3
#
#
#
# Elastic Constant Matrix: (Units=GPa)
#
#
# Indices 1 2 3 4 5 6 
#
# 1 105.4810 20.4890 3.6211 0.0000 -16.9738 0.0000
# 2 20.4890 93.4861 23.1477 0.0000 3.2232 0.0000
# 3 3.6211 23.1477 63.6843 0.0000 1.1600 0.0000
# 4 0.0000 0.0000 0.0000 27.7568 0.0000 -10.7036
# 5 -16.9738 3.2232 1.1600 0.0000 40.0115 0.0000
# 6 0.0000 0.0000 0.0000 -10.7036 0.0000 20.7553
#
#
#
# Elastic Compliance Matrix: (Units=1/GPa)
#
#
# Indices 1 2 3 4 5 6 
#
# 1 0.010738 -0.002577 0.000239 0.000000 0.004756 0.000000
# 2 -0.002577 0.012400 -0.004325 0.000000 -0.001967 0.000000
# 3 0.000239 -0.004325 0.017262 0.000000 -0.000050 0.000000
# 4 0.000000 0.000000 0.000000 0.044970 0.000000 0.023191
# 5 0.004756 -0.001967 -0.000050 0.000000 0.027170 0.000000
# 6 0.000000 0.000000 0.000000 0.023191 0.000000 0.060140
#
#
# Mechanical properties :
#
#
# Convention : Reuss Voigt Hill
#
# Bulk Modulus (GPa) = 36.93356 39.68522 38.30939
# Shear Modulus (GPa) = 25.63704 32.06429 28.85067
#
# Velocity S-wave (km/s) = 3.42291 3.82801 3.63111
# Velocity P-wave (km/s) = 5.70094 6.13797 5.92349
#
# Compressibility (1/GPa) = 0.02707565
#
# Stress axis : x y z
#
# Youngs Moduli (GPa) = 93.12744 80.64423 57.93155
#
# Poissons Ratio (x) = 0.20779 -0.01387
# Poissons Ratio (y) = 0.23996 0.25054
# Poissons Ratio (z) = -0.02229 0.34877
#
# Static dielectric constant tensor:
#      x y z
#    x 4.291910 0.000000 -0.178880 
#    y 0.000000 4.001390 0.000000 
#    z -0.178880 0.000000 3.726660 
# 
# 
# High freq. dielectric constant tensor:
#      x y z
#    x 1.882300 0.000000 -0.016040 
#    y 0.000000 1.860410 0.000000 
#    z -0.016040 0.000000 1.844670 
# 
# From -- ./inp_files/237773.got.cif
#   From: 2010.06.25/outbox.cif.g09.slc.cpg/sg15_119_cif.got.tgz:237773.got - 2010.06.28 07:06:18.
