data_PCOD8146018
_publ_section_title
;
Structure prediction by ZEFSAII (Michael W. Deem and Ramdas Pophale) SiO2 
 PCOD8146018
Probable space group: C 2/C
;
_chemical_formula_sum "Si O2"
_cell_formula_units_Z 64
_cell_length_a 21.592167
_cell_length_b 16.324272
_cell_length_c 9.300831
_cell_angle_alpha 90.000000
_cell_angle_beta 102.087977
_cell_angle_gamma 90.000000
_cell_volume 3205.633889
_symmetry_space_group_name_H-M "C 2/C"
_symmetry_group_IT_number 15
_symmetry_cell_setting 'monoclinic'
loop_
_space_group_symop_operation_xyz
x,y,z
-x,y,1/2-z
-x,-y,-z
x,-y,1/2+z
1/2+x,1/2+y,z
1/2-x,1/2+y,1/2-z
1/2-x,1/2-y,-z
1/2+x,1/2-y,1/2+z
loop_
_atom_site_type_symbol
_atom_site_label
_atom_site_fract_x
_atom_site_fract_y
_atom_site_fract_z
Si Si1 0.139179 0.740452 0.474851
Si Si2 0.537873 0.548468 0.133213
Si Si3 0.746277 0.648405 0.078457
Si Si4 0.783498 0.685852 0.409946
Si Si5 0.653136 0.557423 0.674881
Si Si6 0.231014 0.016965 0.461052
Si Si7 0.597197 0.263694 0.147726
Si Si8 0.023368 0.238939 0.103184
O O1 0.200223 0.680456 0.507349
O O2 0.173639 0.830204 0.495120
O O3 0.098848 0.727333 0.309335
O O4 0.090348 0.721139 0.582973
O O5 0.500000 0.519457 0.250000
O O6 0.610039 0.521540 0.178078
O O7 0.538319 0.644255 0.113512
O O8 0.500000 0.500000 0.000000
O O9 0.752854 0.691111 0.237173
O O10 0.757144 0.550392 0.088081
O O11 0.750000 0.750000 0.500000
O O12 0.780915 0.589973 0.455247
O O13 0.855746 0.714707 0.434714
O O14 0.674102 0.561622 0.518188
O O15 0.710635 0.538734 0.813826
O O16 0.614974 0.641166 0.677250
O O17 0.529171 0.247814 0.044516
O O18 0.000000 0.270666 0.250000
#
# Coordination Sequence:
#
# PCOD8146018 Si02
#       8
#     8   8   8   8   8   8   8   8
#     4  10  22  40  65  86 125 162 210 260 305 377
#     4  11  23  34  49  77 120 161 204 241 286 362
#     4  10  22  41  64  96 121 163 213 259 316 366
#     4  11  24  39  62  91 130 166 204 267 313 371
#     4  12  23  36  58  87 122 169 205 253 305 372
#     4  12  23  39  62  91 125 158 212 259 313 370
#     4  11  23  40  59  88 123 173 208 245 323 367
#     4  11  25  39  57  88 123 168 209 258 310 374
#
# _framework density 19.964849000000001
#
# number of rings (size 3 to 8) (size 9 to 14) (size 15 to 20)
#    0.000    1.000    5.000    1.875    5.250    0.000 
#    0.000    0.000    0.000    0.750    0.000    0.000 
#    0.000    0.000    0.000    0.000    0.000    0.000 
#
# Total GULP energy -396443.367684 kJ/mol
# GULP energy per Si atom -12388.855240 kJ/mol
# Density = 1.991941 g / cm^3
# Si number density = 19.964849 Si / 1000 Ang^3
#
#
#
# Elastic Constant Matrix: (Units=GPa)
#
#
# Indices 1 2 3 4 5 6 
#
# 1 116.4921 24.2388 46.8370 0.0000 -18.4205 0.0000
# 2 24.2388 60.7947 9.8915 0.0000 -1.4925 0.0000
# 3 46.8370 9.8915 85.2437 0.0000 -9.9087 0.0000
# 4 0.0000 0.0000 0.0000 28.1563 0.0000 -4.0343
# 5 -18.4205 -1.4925 -9.9087 0.0000 35.2431 0.0000
# 6 0.0000 0.0000 0.0000 -4.0343 0.0000 33.5929
#
#
#
# Elastic Compliance Matrix: (Units=1/GPa)
#
#
# Indices 1 2 3 4 5 6 
#
# 1 0.012504 -0.003915 -0.005868 0.000000 0.004720 0.000000
# 2 -0.003915 0.017992 -0.000089 0.000000 -0.001309 0.000000
# 3 -0.005868 -0.000089 0.015102 0.000000 0.001175 0.000000
# 4 0.000000 0.000000 0.000000 0.036138 0.000000 0.004340
# 5 0.004720 -0.001309 0.001175 0.000000 0.031117 0.000000
# 6 0.000000 0.000000 0.000000 0.004340 0.000000 0.030289
#
#
# Mechanical properties :
#
#
# Convention : Reuss Voigt Hill
#
# Bulk Modulus (GPa) = 38.67641 47.16279 42.91960
# Shear Modulus (GPa) = 29.15396 31.50268 30.32832
#
# Velocity S-wave (km/s) = 3.82549 3.97660 3.90177
# Velocity P-wave (km/s) = 6.23913 6.69019 6.46859
#
# Compressibility (1/GPa) = 0.02585555
#
# Stress axis : x y z
#
# Youngs Moduli (GPa) = 79.97216 55.58028 66.21678
#
# Poissons Ratio (x) = 0.21759 0.38853
# Poissons Ratio (y) = 0.31309 0.00589
# Poissons Ratio (z) = 0.46924 0.00494
#
# Static dielectric constant tensor:
#      x y z
#    x 3.678490 0.000000 -0.166770 
#    y 0.000000 3.493510 0.000000 
#    z -0.166770 0.000000 3.840210 
# 
# 
# High freq. dielectric constant tensor:
#      x y z
#    x 1.767050 0.000000 -0.012290 
#    y 0.000000 1.753010 0.000000 
#    z -0.012290 0.000000 1.794310 
# 
# From -- ./inp_files/56620.got.cif
#   From: 2010.06.25/outbox.cif.g09.slc.cpg/sg15_29_cif.got.tgz:56620.got - 2010.06.28 07:06:18.
