data_PCOD8146367
_publ_section_title
;
Structure prediction by ZEFSAII (Michael W. Deem and Ramdas Pophale) SiO2 
 PCOD8146367
Probable space group: C 2/C
;
_chemical_formula_sum "Si O2"
_cell_formula_units_Z 60
_cell_length_a 24.498698
_cell_length_b 16.092959
_cell_length_c 12.399950
_cell_angle_alpha 90.000000
_cell_angle_beta 35.854686
_cell_angle_gamma 90.000000
_cell_volume 2863.501697
_symmetry_space_group_name_H-M "C 2/C"
_symmetry_group_IT_number 15
_symmetry_cell_setting 'monoclinic'
loop_
_space_group_symop_operation_xyz
x,y,z
-x,y,1/2-z
-x,-y,-z
x,-y,1/2+z
1/2+x,1/2+y,z
1/2-x,1/2+y,1/2-z
1/2-x,1/2-y,-z
1/2+x,1/2-y,1/2+z
loop_
_atom_site_type_symbol
_atom_site_label
_atom_site_fract_x
_atom_site_fract_y
_atom_site_fract_z
Si Si1 0.979550 0.860431 0.094012
Si Si2 0.804304 0.681130 0.605963
Si Si3 0.000000 0.733291 0.250000
Si Si4 0.666738 0.229050 0.710433
Si Si5 0.833427 0.087276 0.220483
Si Si6 0.293606 0.146965 0.258690
Si Si7 0.716881 0.432524 0.082650
Si Si8 0.482443 0.765648 0.403166
O O1 0.006754 0.786418 0.131151
O O2 0.884120 0.899812 0.289892
O O3 0.962597 0.819216 0.001876
O O4 0.057849 0.936064 0.978996
O O5 0.909485 0.674470 0.393764
O O6 0.799243 0.672919 0.744044
O O7 0.761445 0.767817 0.633091
O O8 0.746054 0.605294 0.651237
O O9 0.750000 0.250000 0.500000
O O10 0.637392 0.319779 0.794913
O O11 0.577331 0.189124 0.793938
O O12 0.758854 0.088853 0.243878
O O13 0.789901 0.031907 0.386448
O O14 0.292268 0.093138 0.371243
O O15 0.398318 0.168082 0.052491
O O16 0.500000 0.742800 0.250000
#
# Coordination Sequence:
#
# PCOD8146367 Si02
#       8
#     8   8   4   8   8   8   8   8
#     4  11  20  37  62  93 127 163 206 258 316 375
#     4  11  21  35  63  90 120 162 209 257 305 365
#     4  12  18  38  64  90 126 162 212 264 312 354
#     4  10  22  41  64  86 120 163 206 264 313 365
#     4  10  23  40  56  90 132 163 196 258 331 369
#     4  11  21  40  62  89 122 167 208 262 313 368
#     4  12  23  36  63  94 127 163 211 258 311 393
#     4  11  21  37  65  94 116 159 217 260 306 369
#
# _framework density 20.953365999999999
#
# number of rings (size 3 to 8) (size 9 to 14) (size 15 to 20)
#    0.000    1.067    6.667    3.200    0.000    1.067 
#    2.400    0.000    5.867    4.000    0.000    0.000 
#    0.000    0.000    0.000    0.000    0.000    0.000 
#
# Total GULP energy -371748.224315 kJ/mol
# GULP energy per Si atom -12391.607477 kJ/mol
# Density = 2.090567 g / cm^3
# Si number density = 20.953366 Si / 1000 Ang^3
#
#
#
# Elastic Constant Matrix: (Units=GPa)
#
#
# Indices 1 2 3 4 5 6 
#
# 1 124.5136 28.3103 50.8292 0.0000 -0.5851 0.0000
# 2 28.3103 30.1314 15.4275 0.0000 4.8753 0.0000
# 3 50.8292 15.4275 133.9705 0.0000 -5.5643 0.0000
# 4 0.0000 0.0000 0.0000 24.3695 0.0000 -0.3758
# 5 -0.5851 4.8753 -5.5643 0.0000 44.5166 0.0000
# 6 0.0000 0.0000 0.0000 -0.3758 0.0000 16.6703
#
#
#
# Elastic Compliance Matrix: (Units=1/GPa)
#
#
# Indices 1 2 3 4 5 6 
#
# 1 0.011461 -0.009223 -0.003255 0.000000 0.000754 0.000000
# 2 -0.009223 0.043566 -0.001730 0.000000 -0.005109 0.000000
# 3 -0.003255 -0.001730 0.008951 0.000000 0.001265 0.000000
# 4 0.000000 0.000000 0.000000 0.041049 0.000000 0.000925
# 5 0.000754 -0.005109 0.001265 0.000000 0.023191 0.000000
# 6 0.000000 0.000000 0.000000 0.000925 0.000000 0.060008
#
#
# Mechanical properties :
#
#
# Convention : Reuss Voigt Hill
#
# Bulk Modulus (GPa) = 28.11994 53.08329 40.60161
# Shear Modulus (GPa) = 21.88230 30.04786 25.96508
#
# Velocity S-wave (km/s) = 3.23512 3.79097 3.52402
# Velocity P-wave (km/s) = 5.23489 6.67465 5.99813
#
# Compressibility (1/GPa) = 0.03556195
#
# Stress axis : x y z
#
# Youngs Moduli (GPa) = 87.25579 22.95362 111.72011
#
# Poissons Ratio (x) = 0.21171 0.36362
# Poissons Ratio (y) = 0.80480 0.19324
# Poissons Ratio (z) = 0.28400 0.03970
#
# Static dielectric constant tensor:
#      x y z
#    x 4.087720 0.000000 -0.157970 
#    y 0.000000 3.256160 0.000000 
#    z -0.157970 0.000000 3.566390 
# 
# 
# High freq. dielectric constant tensor:
#      x y z
#    x 1.837040 0.000000 -0.011590 
#    y 0.000000 1.764620 0.000000 
#    z -0.011590 0.000000 1.836400 
# 
# From -- ./inp_files/119442.got.cif
#   From: 2010.06.25/outbox.cif.g09.slc.cpg/sg15_60_cif.got.tgz:119442.got - 2010.06.28 07:06:18.
