data_PCOD8146026
_publ_section_title
;
Structure prediction by ZEFSAII (Michael W. Deem and Ramdas Pophale) SiO2 
 PCOD8146026
Probable space group: C 2/C
;
_chemical_formula_sum "Si O2"
_cell_formula_units_Z 56
_cell_length_a 18.394933
_cell_length_b 20.685277
_cell_length_c 22.036657
_cell_angle_alpha 90.000000
_cell_angle_beta 19.492510
_cell_angle_gamma 90.000000
_cell_volume 2797.951382
_symmetry_space_group_name_H-M "C 2/C"
_symmetry_group_IT_number 15
_symmetry_cell_setting 'monoclinic'
loop_
_space_group_symop_operation_xyz
x,y,z
-x,y,1/2-z
-x,-y,-z
x,-y,1/2+z
1/2+x,1/2+y,z
1/2-x,1/2+y,1/2-z
1/2-x,1/2-y,-z
1/2+x,1/2-y,1/2+z
loop_
_atom_site_type_symbol
_atom_site_label
_atom_site_fract_x
_atom_site_fract_y
_atom_site_fract_z
Si Si1 0.336172 0.199244 0.628988
Si Si2 0.745094 0.831075 0.728685
Si Si3 0.183297 0.533425 0.651848
Si Si4 0.393551 0.928858 0.152148
Si Si5 0.309493 0.884398 0.858621
Si Si6 0.435115 0.303558 0.365901
Si Si7 0.173373 0.951467 0.759062
O O1 0.514727 0.177168 0.441583
O O2 0.392442 0.265753 0.621444
O O3 0.296751 0.140031 0.706459
O O4 0.132827 0.225580 0.749338
O O5 0.707836 0.843418 0.687806
O O6 0.858868 0.892508 0.669146
O O7 0.144115 0.569678 0.746245
O O8 0.147233 0.458036 0.692423
O O9 0.424472 0.540380 0.431910
O O10 0.000000 0.560117 0.750000
O O11 0.251077 0.984811 0.233298
O O12 0.651941 0.936223 0.931998
O O13 0.500000 0.854451 0.750000
O O14 0.108387 0.868767 0.060750
O O15 0.500000 0.331643 0.250000
O O16 0.250000 0.250000 0.500000
#
# Coordination Sequence:
#
# PCOD8146026 Si02
#       7
#     8   8   8   8   8   8   8
#     4  11  23  35  59  90 118 164 206 250 306 367
#     4  11  22  37  59  90 120 156 209 255 301 372
#     4  11  24  41  65  93 123 166 207 266 323 369
#     4  10  22  42  65  92 125 166 214 258 313 372
#     4  11  22  37  55  85 123 164 204 243 302 368
#     4  12  23  36  52  81 129 172 202 244 293 360
#     4  10  22  40  65  92 126 162 206 263 311 378
#
# _framework density 20.014643
#
# number of rings (size 3 to 8) (size 9 to 14) (size 15 to 20)
#    0.000    1.143    1.429    6.000    4.000    0.571 
#    5.143    0.000    0.000    0.857    0.000    0.000 
#    0.000    0.000    0.000    0.000    0.000    0.000 
#
# Total GULP energy -346947.505443 kJ/mol
# GULP energy per Si atom -12390.982337 kJ/mol
# Density = 1.996909 g / cm^3
# Si number density = 20.014643 Si / 1000 Ang^3
#
#
#
# Elastic Constant Matrix: (Units=GPa)
#
#
# Indices 1 2 3 4 5 6 
#
# 1 89.0003 44.4733 51.3478 0.1225 6.9618 0.0917
# 2 44.4733 124.7960 21.3028 0.0471 8.8803 0.1003
# 3 51.3478 21.3028 93.6401 0.6479 -2.7643 0.2602
# 4 0.1225 0.0471 0.6479 30.5319 0.0453 4.6484
# 5 6.9618 8.8803 -2.7643 0.0453 41.2959 0.0993
# 6 0.0917 0.1003 0.2602 4.6484 0.0993 40.3036
#
#
#
# Elastic Compliance Matrix: (Units=1/GPa)
#
#
# Indices 1 2 3 4 5 6 
#
# 1 0.019599 -0.005132 -0.009665 0.000135 -0.002848 0.000022
# 2 -0.005132 0.009836 0.000541 -0.000002 -0.001214 -0.000013
# 3 -0.009665 0.000541 0.015934 -0.000296 0.002580 -0.000054
# 4 0.000135 -0.000002 -0.000296 0.033344 -0.000069 -0.003844
# 5 -0.002848 -0.001214 0.002580 -0.000069 0.025129 -0.000061
# 6 0.000022 -0.000013 -0.000054 -0.003844 -0.000061 0.025255
#
#
# Mechanical properties :
#
#
# Convention : Reuss Voigt Hill
#
# Bulk Modulus (GPa) = 59.32197 60.18712 59.75454
# Shear Modulus (GPa) = 30.63190 35.11379 32.87284
#
# Velocity S-wave (km/s) = 3.91637 4.19311 4.05710
# Velocity P-wave (km/s) = 7.08197 7.31981 7.20187
#
# Compressibility (1/GPa) = 0.01685716
#
# Stress axis : x y z
#
# Youngs Moduli (GPa) = 51.02346 101.66673 62.75841
#
# Poissons Ratio (x) = 0.52176 0.60653
# Poissons Ratio (y) = 0.26186 -0.03394
# Poissons Ratio (z) = 0.49312 -0.05498
#
# Static dielectric constant tensor:
#      x y z
#    x 3.459980 -0.000520 0.107800 
#    y -0.000520 3.966030 0.003090 
#    z 0.107800 0.003090 3.821780 
# 
# 
# High freq. dielectric constant tensor:
#      x y z
#    x 1.753930 -0.000030 0.013150 
#    y -0.000030 1.787990 0.000160 
#    z 0.013150 0.000160 1.792660 
# 
# From -- ./inp_files/250007.got.cif
#   From: 2010.06.25/outbox.cif.g09.slc.cpg/sg15_126_cif.got.tgz:250007.got - 2010.06.28 07:06:18.
