data_PCOD8146851
_publ_section_title
;
Structure prediction by ZEFSAII (Michael W. Deem and Ramdas Pophale) SiO2 
 PCOD8146851
Probable space group: C 2/C
;
_chemical_formula_sum "Si O2"
_cell_formula_units_Z 56
_cell_length_a 8.738529
_cell_length_b 13.424381
_cell_length_c 27.819053
_cell_angle_alpha 90.000000
_cell_angle_beta 132.209464
_cell_angle_gamma 90.000000
_cell_volume 2417.205393
_symmetry_space_group_name_H-M "C 2/C"
_symmetry_group_IT_number 15
_symmetry_cell_setting 'monoclinic'
loop_
_space_group_symop_operation_xyz
x,y,z
-x,y,1/2-z
-x,-y,-z
x,-y,1/2+z
1/2+x,1/2+y,z
1/2-x,1/2+y,1/2-z
1/2-x,1/2-y,-z
1/2+x,1/2-y,1/2+z
loop_
_atom_site_type_symbol
_atom_site_label
_atom_site_fract_x
_atom_site_fract_y
_atom_site_fract_z
Si Si1 0.525856 0.385252 0.555343
Si Si2 0.380946 0.753565 0.656803
Si Si3 0.733578 0.376383 0.759843
Si Si4 0.152965 0.098654 0.384298
Si Si5 0.266350 0.080692 0.589517
Si Si6 0.227390 0.440878 0.163200
Si Si7 0.815775 0.241482 0.858406
O O1 0.647000 0.288372 0.598692
O O2 0.361441 0.416823 0.561648
O O3 0.702123 0.467275 0.583625
O O4 0.398946 0.364895 0.480037
O O5 0.538093 0.839917 0.710382
O O6 0.365802 0.660100 0.690702
O O7 0.464170 0.722419 0.620973
O O8 0.577649 0.369814 0.682670
O O9 0.723953 0.489256 0.780022
O O10 0.667820 0.299746 0.788843
O O11 0.318681 0.185061 0.405647
O O12 0.227457 0.996213 0.377043
O O13 0.488683 0.087628 0.612723
O O14 0.271686 0.135497 0.642491
#
# Coordination Sequence:
#
# PCOD8146851 Si02
#       7
#     8   8   8   8   8   8   8
#     4  11  24  42  64  95 133 177 220 287 329 399
#     4  10  22  42  65  98 128 171 224 264 345 390
#     4   9  22  45  63  97 135 172 214 287 330 408
#     4  11  22  43  66  93 138 167 220 278 344 393
#     4  11  23  43  66  94 134 173 231 272 335 402
#     4  11  21  42  68  96 128 176 218 272 334 407
#     4   9  20  40  63  93 128 168 215 274 326 398
#
# _framework density 23.167249000000002
#
# number of rings (size 3 to 8) (size 9 to 14) (size 15 to 20)
#    0.857    0.857    1.429    3.429    0.000    4.000 
#   10.286    2.857    0.000    0.000    0.000    0.000 
#    0.000    0.000    0.000    0.000    0.000    0.000 
#
# Total GULP energy -346931.239710 kJ/mol
# GULP energy per Si atom -12390.401418 kJ/mol
# Density = 2.311452 g / cm^3
# Si number density = 23.167249 Si / 1000 Ang^3
#
#
#
# Elastic Constant Matrix: (Units=GPa)
#
#
# Indices 1 2 3 4 5 6 
#
# 1 118.0804 33.6638 27.1502 0.0000 4.3064 0.0000
# 2 33.6638 103.2680 40.2107 0.0000 3.9578 0.0000
# 3 27.1502 40.2107 60.5276 0.0000 -0.7271 0.0000
# 4 0.0000 0.0000 0.0000 0.9951 0.0000 10.5533
# 5 4.3064 3.9578 -0.7271 0.0000 23.1554 0.0000
# 6 0.0000 0.0000 0.0000 10.5533 0.0000 43.5104
#
#
#
# Elastic Compliance Matrix: (Units=1/GPa)
#
#
# Indices 1 2 3 4 5 6 
#
# 1 0.009794 -0.001907 -0.003146 0.000000 -0.001594 0.000000
# 2 -0.001907 0.013581 -0.008194 0.000000 -0.002224 0.000000
# 3 -0.003146 -0.008194 0.023408 0.000000 0.002721 0.000000
# 4 0.000000 0.000000 0.000000 -0.639151 0.000000 0.155024
# 5 -0.001594 -0.002224 0.002721 0.000000 0.043949 0.000000
# 6 0.000000 0.000000 0.000000 0.155024 0.000000 -0.014617
#
#
# Mechanical properties :
#
#
# Convention : Reuss Voigt Hill
#
# Bulk Modulus (GPa) = 49.28261 53.76949 51.52605
# Shear Modulus (GPa) = -9.43787 25.58892 8.07552
#
# Velocity S-wave (km/s) = -2.02055 3.32705 1.86904
# Velocity P-wave (km/s) = 3.98437 6.16593 5.19104
#
# Compressibility (1/GPa) = 0.02029113
#
# Stress axis : x y z
#
# Youngs Moduli (GPa) = 102.10547 73.63329 42.71970
#
# Poissons Ratio (x) = 0.14040 0.13438
# Poissons Ratio (y) = 0.19469 0.35003
# Poissons Ratio (z) = 0.32118 0.60333
#
# Static dielectric constant tensor:
#      x y z
#    x 4.542940 0.000000 0.055170 
#    y 0.000000 4.087720 0.000000 
#    z 0.055170 0.000000 3.704370 
# 
# 
# High freq. dielectric constant tensor:
#      x y z
#    x 1.932720 0.000000 -0.000560 
#    y 0.000000 1.910570 0.000000 
#    z -0.000560 0.000000 1.879350 
# 
# From -- ./inp_files/308068.got.cif
#   From: 2010.06.25/outbox.cif.g09.slc.cpg/sg15_155_cif.got.tgz:308068.got - 2010.06.28 07:06:18.
