data_PCOD8146273
_publ_section_title
;
Structure prediction by ZEFSAII (Michael W. Deem and Ramdas Pophale) SiO2 
 PCOD8146273
Probable space group: C 2/C
;
_chemical_formula_sum "Si O2"
_cell_formula_units_Z 36
_cell_length_a 16.493527
_cell_length_b 5.037863
_cell_length_c 21.696570
_cell_angle_alpha 90.000000
_cell_angle_beta 126.589299
_cell_angle_gamma 90.000000
_cell_volume 1447.531474
_symmetry_space_group_name_H-M "C 2/C"
_symmetry_group_IT_number 15
_symmetry_cell_setting 'monoclinic'
loop_
_space_group_symop_operation_xyz
x,y,z
-x,y,1/2-z
-x,-y,-z
x,-y,1/2+z
1/2+x,1/2+y,z
1/2-x,1/2+y,1/2-z
1/2-x,1/2-y,-z
1/2+x,1/2-y,1/2+z
loop_
_atom_site_type_symbol
_atom_site_label
_atom_site_fract_x
_atom_site_fract_y
_atom_site_fract_z
Si Si1 0.790356 0.816007 0.672191
Si Si2 0.151248 0.937940 0.669493
Si Si3 0.796805 0.499421 0.487865
Si Si4 0.500000 0.909920 0.250000
Si Si5 0.477821 0.929681 0.874970
O O1 0.734600 0.528830 0.656754
O O2 0.902147 0.773344 0.696194
O O3 0.795159 0.973694 0.739250
O O4 0.730933 0.998641 0.596872
O O5 0.057583 0.140654 0.620191
O O6 0.106218 0.643662 0.641036
O O7 0.750000 0.250000 0.500000
O O8 0.917311 0.499655 0.545580
O O9 0.750000 0.750000 0.500000
O O10 0.512589 0.084996 0.194691
#
# Coordination Sequence:
#
# PCOD8146273 Si02
#       5
#     8   8   8   4   8
#     4  11  25  47  74 105 146 189 244 299 362 433
#     4  11  26  45  72 105 140 192 240 298 359 432
#     4  12  27  45  71 110 145 188 237 308 365 430
#     4  10  22  40  74  98 138 188 238 294 346 432
#     4  11  25  45  70 106 142 187 242 294 368 428
#
# _framework density 24.869924999999999
#
# number of rings (size 3 to 8) (size 9 to 14) (size 15 to 20)
#    0.000    0.889    2.222    4.000    6.222    6.222 
#    0.000    0.000    0.000    0.000    0.000    0.000 
#    0.000    0.000    0.000    0.000    0.000    0.000 
#
# Total GULP energy -223270.749908 kJ/mol
# GULP energy per Si atom -12403.930550 kJ/mol
# Density = 2.481332 g / cm^3
# Si number density = 24.869925 Si / 1000 Ang^3
#
#
#
# Elastic Constant Matrix: (Units=GPa)
#
#
# Indices 1 2 3 4 5 6 
#
# 1 120.3347 22.5540 25.2190 -0.0002 21.8384 0.0004
# 2 22.5540 93.6165 5.1928 0.0003 0.2364 -0.0003
# 3 25.2190 5.1928 124.9770 -0.0005 23.8127 0.0005
# 4 -0.0002 0.0003 -0.0005 31.4057 -0.0001 -0.0557
# 5 21.8384 0.2364 23.8127 -0.0001 45.4797 0.0000
# 6 0.0004 -0.0003 0.0005 -0.0557 0.0000 47.7294
#
#
#
# Elastic Compliance Matrix: (Units=1/GPa)
#
#
# Indices 1 2 3 4 5 6 
#
# 1 0.009703 -0.002267 -0.001087 0.000000 -0.004078 0.000000
# 2 -0.002267 0.011238 -0.000229 0.000000 0.001150 0.000000
# 3 -0.001087 -0.000229 0.009032 0.000000 -0.004206 0.000000
# 4 0.000000 0.000000 0.000000 0.031841 0.000000 0.000037
# 5 -0.004078 0.001150 -0.004206 0.000000 0.026142 0.000000
# 6 0.000000 0.000000 0.000000 0.000037 0.000000 0.020951
#
#
# Mechanical properties :
#
#
# Convention : Reuss Voigt Hill
#
# Bulk Modulus (GPa) = 43.84457 49.42887 46.63672
# Shear Modulus (GPa) = 40.42862 43.98714 42.20788
#
# Velocity S-wave (km/s) = 4.03625 4.21014 4.12411
# Velocity P-wave (km/s) = 6.27611 6.59938 6.43977
#
# Compressibility (1/GPa) = 0.02280784
#
# Stress axis : x y z
#
# Youngs Moduli (GPa) = 103.06147 88.98521 110.72215
#
# Poissons Ratio (x) = 0.20173 0.12032
# Poissons Ratio (y) = 0.23365 0.02531
# Poissons Ratio (z) = 0.11199 0.02034
#
# Static dielectric constant tensor:
#      x y z
#    x 4.695620 0.000000 0.107360 
#    y 0.000000 4.207920 0.000000 
#    z 0.107360 0.000000 4.738350 
# 
# 
# High freq. dielectric constant tensor:
#      x y z
#    x 2.009510 0.000000 0.015950 
#    y 0.000000 1.984600 0.000000 
#    z 0.015950 0.000000 1.992790 
# 
# From -- ./inp_files/275764.got.cif
#   From: 2010.06.25/outbox.cif.g09.slc.cpg/sg15_138_cif.got.tgz:275764.got - 2010.06.28 07:06:18.
