data_PCOD8146760
_publ_section_title
;
Structure prediction by ZEFSAII (Michael W. Deem and Ramdas Pophale) SiO2 
 PCOD8146760
Probable space group: C 2/C
;
_chemical_formula_sum "Si O2"
_cell_formula_units_Z 48
_cell_length_a 28.844666
_cell_length_b 8.220710
_cell_length_c 16.293206
_cell_angle_alpha 90.000000
_cell_angle_beta 38.666701
_cell_angle_gamma 90.000000
_cell_volume 2413.874870
_symmetry_space_group_name_H-M "C 2/C"
_symmetry_group_IT_number 15
_symmetry_cell_setting 'monoclinic'
loop_
_space_group_symop_operation_xyz
x,y,z
-x,y,1/2-z
-x,-y,-z
x,-y,1/2+z
1/2+x,1/2+y,z
1/2-x,1/2+y,1/2-z
1/2-x,1/2-y,-z
1/2+x,1/2-y,1/2+z
loop_
_atom_site_type_symbol
_atom_site_label
_atom_site_fract_x
_atom_site_fract_y
_atom_site_fract_z
Si Si1 0.597011 0.644099 0.354839
Si Si2 0.181233 0.638351 0.620723
Si Si3 0.188643 0.588463 0.255914
Si Si4 0.322762 0.795659 0.112542
Si Si5 0.562810 0.283468 0.359708
Si Si6 0.580837 0.101991 0.165823
O O1 0.617509 0.752851 0.248901
O O2 0.655606 0.665454 0.347320
O O3 0.597355 0.461368 0.322480
O O4 0.520680 0.714453 0.494605
O O5 0.250000 0.750000 0.500000
O O6 0.214379 0.511610 0.640405
O O7 0.139118 0.543654 0.605280
O O8 0.243957 0.739357 0.186934
O O9 0.186304 0.476820 0.339498
O O10 0.106042 0.657752 0.358032
O O11 0.384207 0.794396 0.956480
O O12 0.569684 0.226197 0.256472
O O13 0.500000 0.033103 0.250000
#
# Coordination Sequence:
#
# PCOD8146760 Si02
#       6
#     8   8   8   8   8   8
#     4  10  22  42  64  87 127 163 208 255 310 386
#     4  10  25  41  62  91 126 169 208 253 317 376
#     4  10  24  38  64  88 123 165 206 258 314 378
#     4  11  23  40  64  93 124 160 213 261 312 372
#     4  10  22  42  64  89 122 170 205 254 320 371
#     4  11  24  41  64  94 126 163 211 262 311 368
#
# _framework density 19.885041000000001
#
# number of rings (size 3 to 8) (size 9 to 14) (size 15 to 20)
#    0.000    1.667    1.667    1.000   11.667    3.333 
#    0.000    0.833    0.000    0.000    0.000    0.000 
#    0.000    0.000    0.000    0.000    0.000    0.000 
#
# Total GULP energy -297619.720068 kJ/mol
# GULP energy per Si atom -12400.821669 kJ/mol
# Density = 1.983978 g / cm^3
# Si number density = 19.885041 Si / 1000 Ang^3
#
#
#
# Elastic Constant Matrix: (Units=GPa)
#
#
# Indices 1 2 3 4 5 6 
#
# 1 89.8924 46.6998 46.1556 -0.0019 -1.8045 -0.0014
# 2 46.6998 100.4989 43.6468 -0.0057 1.7075 -0.0042
# 3 46.1556 43.6468 81.4624 -0.0107 6.8559 -0.0061
# 4 -0.0019 -0.0057 -0.0107 34.9215 0.0114 -8.9614
# 5 -1.8045 1.7075 6.8559 0.0114 23.4817 0.0038
# 6 -0.0014 -0.0042 -0.0061 -8.9614 0.0038 28.9284
#
#
#
# Elastic Compliance Matrix: (Units=1/GPa)
#
#
# Indices 1 2 3 4 5 6 
#
# 1 0.017752 -0.004956 -0.007738 -0.000004 0.003984 -0.000003
# 2 -0.004956 0.014380 -0.004897 0.000001 0.000003 0.000001
# 3 -0.007738 -0.004897 0.019790 0.000008 -0.006017 0.000006
# 4 -0.000004 0.000001 0.000008 0.031109 -0.000020 0.009637
# 5 0.003984 0.000003 -0.006017 -0.000020 0.044649 -0.000013
# 6 -0.000003 0.000001 0.000006 0.009637 -0.000013 0.037553
#
#
# Mechanical properties :
#
#
# Convention : Reuss Voigt Hill
#
# Bulk Modulus (GPa) = 59.73673 60.53980 60.13826
# Shear Modulus (GPa) = 24.27237 26.48973 25.38105
#
# Velocity S-wave (km/s) = 3.49755 3.65381 3.57653
# Velocity P-wave (km/s) = 6.81298 6.95064 6.88216
#
# Compressibility (1/GPa) = 0.01674012
#
# Stress axis : x y z
#
# Youngs Moduli (GPa) = 56.33083 69.54076 50.53068
#
# Poissons Ratio (x) = 0.34465 0.39101
# Poissons Ratio (y) = 0.27918 0.24744
# Poissons Ratio (z) = 0.43589 0.34053
#
# Static dielectric constant tensor:
#      x y z
#    x 3.725140 0.000000 -0.003160 
#    y 0.000000 3.681330 0.000010 
#    z -0.003160 0.000010 3.598310 
# 
# 
# High freq. dielectric constant tensor:
#      x y z
#    x 1.785270 0.000000 -0.003590 
#    y 0.000000 1.777010 0.000000 
#    z -0.003590 0.000000 1.780750 
# 
# From -- ./inp_files/176868.got.cif
#   From: 2010.06.25/outbox.cif.g09.slc.cpg/sg15_89_cif.got.tgz:176868.got - 2010.06.28 07:06:18.
