data_PCOD8146508
_publ_section_title
;
Structure prediction by ZEFSAII (Michael W. Deem and Ramdas Pophale) SiO2 
 PCOD8146508
Probable space group: C 2/C
;
_chemical_formula_sum "Si O2"
_cell_formula_units_Z 48
_cell_length_a 13.745236
_cell_length_b 18.637108
_cell_length_c 12.249364
_cell_angle_alpha 90.000000
_cell_angle_beta 138.083617
_cell_angle_gamma 90.000000
_cell_volume 2096.284443
_symmetry_space_group_name_H-M "C 2/C"
_symmetry_group_IT_number 15
_symmetry_cell_setting 'monoclinic'
loop_
_space_group_symop_operation_xyz
x,y,z
-x,y,1/2-z
-x,-y,-z
x,-y,1/2+z
1/2+x,1/2+y,z
1/2-x,1/2+y,1/2-z
1/2-x,1/2-y,-z
1/2+x,1/2-y,1/2+z
loop_
_atom_site_type_symbol
_atom_site_label
_atom_site_fract_x
_atom_site_fract_y
_atom_site_fract_z
Si Si1 0.293753 0.123186 0.754398
Si Si2 0.500000 0.857494 0.750000
Si Si3 0.330687 0.393516 0.574769
Si Si4 0.500000 0.633114 0.750000
Si Si5 0.565884 0.804856 0.414432
Si Si6 0.726858 0.955054 0.056401
Si Si7 0.102549 0.239674 0.673266
O O1 0.174209 0.111988 0.559943
O O2 0.456895 0.127432 0.841707
O O3 0.279427 0.053044 0.817759
O O4 0.257935 0.196920 0.794077
O O5 0.410559 0.912177 0.602371
O O6 0.601343 0.809321 0.752431
O O7 0.500000 0.393046 0.750000
O O8 0.235876 0.326738 0.543105
O O9 0.238413 0.461840 0.537583
O O10 0.634956 0.582276 0.880179
O O11 0.494666 0.681804 0.636919
O O12 0.500000 0.765424 0.250000
O O13 0.551906 0.754563 0.507721
#
# Coordination Sequence:
#
# PCOD8146508 Si02
#       7
#     8   4   8   4   8   8   8
#     4  10  24  43  68  98 134 173 215 283 321 388
#     4  11  24  38  76 104 126 175 218 274 334 391
#     4  11  26  46  65  95 133 180 226 265 330 393
#     4   9  22  42  70  96 136 167 216 286 326 383
#     4  10  23  43  68  96 133 178 217 272 326 393
#     4  11  23  45  67 101 132 170 223 273 330 392
#     4  10  22  41  67 102 133 167 219 271 333 391
#
# _framework density 22.897658
#
# number of rings (size 3 to 8) (size 9 to 14) (size 15 to 20)
#    0.000    1.667    2.500    0.000    5.833    9.333 
#    3.000    0.000    0.000    0.000    0.000    0.000 
#    0.000    0.000    0.000    0.000    0.000    0.000 
#
# Total GULP energy -297337.343119 kJ/mol
# GULP energy per Si atom -12389.055963 kJ/mol
# Density = 2.284554 g / cm^3
# Si number density = 22.897658 Si / 1000 Ang^3
#
#
#
# Elastic Constant Matrix: (Units=GPa)
#
#
# Indices 1 2 3 4 5 6 
#
# 1 101.2310 15.0006 48.7149 0.0000 -14.6367 0.0000
# 2 15.0006 72.6987 28.7014 0.0000 -9.0469 0.0000
# 3 48.7149 28.7014 93.3017 0.0000 -6.3301 0.0000
# 4 0.0000 0.0000 0.0000 25.1089 0.0000 -6.8080
# 5 -14.6367 -9.0469 -6.3301 0.0000 48.4885 0.0000
# 6 0.0000 0.0000 0.0000 -6.8080 0.0000 22.5734
#
#
#
# Elastic Compliance Matrix: (Units=1/GPa)
#
#
# Indices 1 2 3 4 5 6 
#
# 1 0.013684 0.000361 -0.007033 0.000000 0.003280 0.000000
# 2 0.000361 0.015928 -0.004923 0.000000 0.002438 0.000000
# 3 -0.007033 -0.004923 0.015838 0.000000 -0.000974 0.000000
# 4 0.000000 0.000000 0.000000 0.043373 0.000000 0.013081
# 5 0.003280 0.002438 -0.000974 0.000000 0.021941 0.000000
# 6 0.000000 0.000000 0.000000 0.013081 0.000000 0.048245
#
#
# Mechanical properties :
#
#
# Convention : Reuss Voigt Hill
#
# Bulk Modulus (GPa) = 44.92296 50.22948 47.57622
# Shear Modulus (GPa) = 26.36864 30.88846 28.62855
#
# Velocity S-wave (km/s) = 3.39719 3.67683 3.53977
# Velocity P-wave (km/s) = 5.92026 6.32531 6.12613
#
# Compressibility (1/GPa) = 0.02226033
#
# Stress axis : x y z
#
# Youngs Moduli (GPa) = 73.08025 62.78321 63.13770
#
# Poissons Ratio (x) = -0.02269 0.44406
# Poissons Ratio (y) = -0.02641 0.31082
# Poissons Ratio (z) = 0.51398 0.30908
#
# Static dielectric constant tensor:
#      x y z
#    x 4.472680 0.000000 -0.189950 
#    y 0.000000 4.050600 0.000000 
#    z -0.189950 0.000000 3.691540 
# 
# 
# High freq. dielectric constant tensor:
#      x y z
#    x 1.923250 0.000000 -0.007520 
#    y 0.000000 1.892450 0.000000 
#    z -0.007520 0.000000 1.896900 
# 
# From -- ./inp_files/100090.got.cif
#   From: 2010.06.25/outbox.cif.g09.slc.cpg/sg15_51_cif.got.tgz:100090.got - 2010.06.28 07:06:18.
