data_PCOD8146009
_publ_section_title
;
Structure prediction by ZEFSAII (Michael W. Deem and Ramdas Pophale) SiO2 
 PCOD8146009
Probable space group: C 2/C
;
_chemical_formula_sum "Si O2"
_cell_formula_units_Z 52
_cell_length_a 26.460237
_cell_length_b 19.352519
_cell_length_c 11.423088
_cell_angle_alpha 90.000000
_cell_angle_beta 24.811551
_cell_angle_gamma 90.000000
_cell_volume 2454.632873
_symmetry_space_group_name_H-M "C 2/C"
_symmetry_group_IT_number 15
_symmetry_cell_setting 'monoclinic'
loop_
_space_group_symop_operation_xyz
x,y,z
-x,y,1/2-z
-x,-y,-z
x,-y,1/2+z
1/2+x,1/2+y,z
1/2-x,1/2+y,1/2-z
1/2-x,1/2-y,-z
1/2+x,1/2-y,1/2+z
loop_
_atom_site_type_symbol
_atom_site_label
_atom_site_fract_x
_atom_site_fract_y
_atom_site_fract_z
Si Si1 0.682912 0.438865 0.520567
Si Si2 0.041083 0.643534 0.439487
Si Si3 0.289231 0.083663 0.035249
Si Si4 0.122836 0.212961 0.787190
Si Si5 0.782109 0.900382 0.562955
Si Si6 0.887290 0.446112 0.919564
Si Si7 0.500000 0.639871 0.250000
O O1 0.700875 0.405720 0.611053
O O2 0.676103 0.521416 0.546975
O O3 0.563331 0.408497 0.713258
O O4 0.796254 0.414657 0.205291
O O5 0.027882 0.726697 0.459502
O O6 0.148998 0.614898 0.293260
O O7 0.062498 0.615708 0.264271
O O8 0.915785 0.620682 0.755660
O O9 0.317363 0.002167 0.989003
O O10 0.221011 0.113847 0.291630
O O11 0.250000 0.250000 0.500000
O O12 0.117969 0.148623 0.707567
O O13 0.097342 0.186144 0.973607
O O14 0.000000 0.481255 0.750000
#
# Coordination Sequence:
#
# PCOD8146009 Si02
#       7
#     8   8   8   8   8   8   4
#     4  11  23  42  67  97 131 172 228 282 337 385
#     4  11  20  39  68  98 134 178 219 269 338 401
#     4  11  21  36  67 105 131 167 224 285 331 389
#     4  10  25  45  69  92 135 184 223 262 332 414
#     4  10  22  40  64  99 135 172 221 270 333 397
#     4  11  20  37  65 106 142 168 216 285 341 387
#     4  12  28  48  72  94 132 186 228 278 336 398
#
# _framework density 21.184431
#
# number of rings (size 3 to 8) (size 9 to 14) (size 15 to 20)
#    0.000    1.231    3.077    4.615    6.462    0.615 
#    0.000    2.308    0.000    0.000    0.000    0.000 
#    0.000    0.000    0.000    0.000    0.000    0.000 
#
# Total GULP energy -322323.109002 kJ/mol
# GULP energy per Si atom -12397.042654 kJ/mol
# Density = 2.113621 g / cm^3
# Si number density = 21.184431 Si / 1000 Ang^3
#
#
#
# Elastic Constant Matrix: (Units=GPa)
#
#
# Indices 1 2 3 4 5 6 
#
# 1 133.3898 49.6830 51.3135 0.0000 5.1360 -0.0001
# 2 49.6830 114.4885 41.8679 -0.0001 20.1408 0.0000
# 3 51.3135 41.8679 90.6333 -0.0003 28.4263 -0.0001
# 4 0.0000 -0.0001 -0.0003 14.8059 0.0001 0.0134
# 5 5.1360 20.1408 28.4263 0.0001 42.7694 0.0001
# 6 -0.0001 0.0000 -0.0001 0.0134 0.0001 22.5458
#
#
#
# Elastic Compliance Matrix: (Units=1/GPa)
#
#
# Indices 1 2 3 4 5 6 
#
# 1 0.010837 -0.003267 -0.005939 0.000000 0.004184 0.000000
# 2 -0.003267 0.011658 -0.002447 0.000000 -0.003471 0.000000
# 3 -0.005939 -0.002447 0.018876 0.000000 -0.010680 0.000000
# 4 0.000000 0.000000 0.000000 0.067541 0.000000 -0.000040
# 5 0.004184 -0.003471 -0.010680 0.000000 0.031612 0.000000
# 6 0.000000 0.000000 0.000000 -0.000040 0.000000 0.044354
#
#
# Mechanical properties :
#
#
# Convention : Reuss Voigt Hill
#
# Bulk Modulus (GPa) = 55.35462 69.36006 62.35734
# Shear Modulus (GPa) = 23.34214 29.06736 26.20475
#
# Velocity S-wave (km/s) = 3.32302 3.70822 3.52089
# Velocity P-wave (km/s) = 6.39608 7.15169 6.78441
#
# Compressibility (1/GPa) = 0.01806534
#
# Stress axis : x y z
#
# Youngs Moduli (GPa) = 92.27486 85.77973 52.97777
#
# Poissons Ratio (x) = 0.28026 0.31462
# Poissons Ratio (y) = 0.30148 0.12963
# Poissons Ratio (z) = 0.54800 0.20989
#
# Static dielectric constant tensor:
#      x y z
#    x 3.835050 0.000000 0.272100 
#    y 0.000000 4.164750 0.000000 
#    z 0.272100 0.000000 3.875760 
# 
# 
# High freq. dielectric constant tensor:
#      x y z
#    x 1.823420 0.000000 0.023130 
#    y 0.000000 1.821540 0.000000 
#    z 0.023130 0.000000 1.833520 
# 
# From -- ./inp_files/123863.got.cif
#   From: 2010.06.25/outbox.cif.g09.slc.cpg/sg15_62_cif.got.tgz:123863.got - 2010.06.28 07:06:18.
