data_PCOD8146930
_publ_section_title
;
Structure prediction by ZEFSAII (Michael W. Deem and Ramdas Pophale) SiO2 
 PCOD8146930
Probable space group: C 2/C
;
_chemical_formula_sum "Si O2"
_cell_formula_units_Z 48
_cell_length_a 12.229265
_cell_length_b 7.305351
_cell_length_c 25.602077
_cell_angle_alpha 90.000000
_cell_angle_beta 64.262664
_cell_angle_gamma 90.000000
_cell_volume 2060.355893
_symmetry_space_group_name_H-M "C 2/C"
_symmetry_group_IT_number 15
_symmetry_cell_setting 'monoclinic'
loop_
_space_group_symop_operation_xyz
x,y,z
-x,y,1/2-z
-x,-y,-z
x,-y,1/2+z
1/2+x,1/2+y,z
1/2-x,1/2+y,1/2-z
1/2-x,1/2-y,-z
1/2+x,1/2-y,1/2+z
loop_
_atom_site_type_symbol
_atom_site_label
_atom_site_fract_x
_atom_site_fract_y
_atom_site_fract_z
Si Si1 0.986211 0.506372 0.417680
Si Si2 0.204973 0.382548 0.313530
Si Si3 0.562942 0.512988 0.184480
Si Si4 0.328043 0.471807 0.184263
Si Si5 0.460683 0.287703 0.008801
Si Si6 0.290059 0.830704 0.395676
O O1 0.998540 0.317732 0.448445
O O2 0.867787 0.495624 0.405064
O O3 0.109840 0.526056 0.358148
O O4 0.973537 0.685771 0.456305
O O5 0.329273 0.377924 0.320881
O O6 0.226889 0.441468 0.249380
O O7 0.145339 0.185544 0.327299
O O8 0.500000 0.597059 0.250000
O O9 0.461596 0.395403 0.173390
O O10 0.615975 0.670972 0.136860
O O11 0.281569 0.389278 0.140837
O O12 0.314568 0.267878 0.042638
O O13 0.500000 0.500000 0.000000
#
# Coordination Sequence:
#
# PCOD8146930 Si02
#       6
#     8   8   8   8   8   8
#     4  11  25  46  72 104 139 186 237 292 353 412
#     4  11  22  44  67 100 141 183 233 283 345 421
#     4  10  22  42  66  98 139 182 224 275 340 418
#     4  11  24  41  67 103 142 182 229 281 356 422
#     4  11  26  48  73 102 136 185 244 291 347 415
#     4  12  24  44  73 100 141 183 225 300 350 415
#
# _framework density 23.296945000000001
#
# number of rings (size 3 to 8) (size 9 to 14) (size 15 to 20)
#    0.000    1.000    3.333    3.500    0.000    2.000 
#    6.000    0.000    0.000    0.000    0.000    0.000 
#    0.000    0.000    0.000    0.000    0.000    0.000 
#
# Total GULP energy -297627.090581 kJ/mol
# GULP energy per Si atom -12401.128774 kJ/mol
# Density = 2.324392 g / cm^3
# Si number density = 23.296945 Si / 1000 Ang^3
#
#
#
# Elastic Constant Matrix: (Units=GPa)
#
#
# Indices 1 2 3 4 5 6 
#
# 1 158.2859 13.2054 31.4866 0.0000 6.4245 0.0000
# 2 13.2054 68.2601 -2.4967 0.0000 4.1082 0.0000
# 3 31.4866 -2.4967 63.0821 0.0000 -12.3290 0.0000
# 4 0.0000 0.0000 0.0000 7.8396 0.0000 2.2399
# 5 6.4245 4.1082 -12.3290 0.0000 40.8098 0.0000
# 6 0.0000 0.0000 0.0000 2.2399 0.0000 35.0078
#
#
#
# Elastic Compliance Matrix: (Units=1/GPa)
#
#
# Indices 1 2 3 4 5 6 
#
# 1 0.007361 -0.001440 -0.004176 0.000000 -0.002275 0.000000
# 2 -0.001440 0.015027 0.001129 0.000000 -0.000945 0.000000
# 3 -0.004176 0.001129 0.019223 0.000000 0.006351 0.000000
# 4 0.000000 0.000000 0.000000 0.129932 0.000000 -0.008313
# 5 -0.002275 -0.000945 0.006351 0.000000 0.026876 0.000000
# 6 0.000000 0.000000 0.000000 -0.008313 0.000000 0.029097
#
#
# Mechanical properties :
#
#
# Convention : Reuss Voigt Hill
#
# Bulk Modulus (GPa) = 30.64084 41.55766 36.09925
# Shear Modulus (GPa) = 20.21286 33.22698 26.71992
#
# Velocity S-wave (km/s) = 2.94873 3.78065 3.39031
# Velocity P-wave (km/s) = 4.97737 6.07740 5.55468
#
# Compressibility (1/GPa) = 0.03263618
#
# Stress axis : x y z
#
# Youngs Moduli (GPa) = 135.85474 66.54891 52.02219
#
# Poissons Ratio (x) = 0.09582 0.21723
# Poissons Ratio (y) = 0.19560 -0.05872
# Poissons Ratio (z) = 0.56729 -0.07511
#
# Static dielectric constant tensor:
#      x y z
#    x 4.449110 0.000000 -0.049050 
#    y 0.000000 3.956760 0.000000 
#    z -0.049050 0.000000 4.433520 
# 
# 
# High freq. dielectric constant tensor:
#      x y z
#    x 1.933580 0.000000 -0.001060 
#    y 0.000000 1.900090 0.000000 
#    z -0.001060 0.000000 1.936490 
# 
# From -- ./inp_files/291067.got.cif
#   From: 2010.06.25/outbox.cif.g09.slc.cpg/sg15_146_cif.got.tgz:291067.got - 2010.06.28 07:06:18.
