data_PCOD8146413
_publ_section_title
;
Structure prediction by ZEFSAII (Michael W. Deem and Ramdas Pophale) SiO2 
 PCOD8146413
Probable space group: C 2/C
;
_chemical_formula_sum "Si O2"
_cell_formula_units_Z 48
_cell_length_a 11.845363
_cell_length_b 19.073096
_cell_length_c 13.976340
_cell_angle_alpha 90.000000
_cell_angle_beta 42.149203
_cell_angle_gamma 90.000000
_cell_volume 2118.979103
_symmetry_space_group_name_H-M "C 2/C"
_symmetry_group_IT_number 15
_symmetry_cell_setting 'monoclinic'
loop_
_space_group_symop_operation_xyz
x,y,z
-x,y,1/2-z
-x,-y,-z
x,-y,1/2+z
1/2+x,1/2+y,z
1/2-x,1/2+y,1/2-z
1/2-x,1/2-y,-z
1/2+x,1/2-y,1/2+z
loop_
_atom_site_type_symbol
_atom_site_label
_atom_site_fract_x
_atom_site_fract_y
_atom_site_fract_z
Si Si1 0.500000 0.125875 0.250000
Si Si2 0.727808 0.948765 0.468390
Si Si3 0.325286 0.603419 0.409327
Si Si4 0.000000 0.159750 0.750000
Si Si5 0.069515 0.731571 0.362242
Si Si6 0.530213 0.881810 0.448787
Si Si7 0.823847 0.680721 0.818747
O O1 0.355492 0.075847 0.381381
O O2 0.606560 0.172420 0.258751
O O3 0.583082 0.950559 0.476983
O O4 0.840035 0.889306 0.349287
O O5 0.826507 0.019977 0.428948
O O6 0.500000 0.625919 0.250000
O O7 0.171309 0.616412 0.434803
O O8 0.297866 0.647867 0.523846
O O9 0.009880 0.203027 0.644546
O O10 0.935393 0.693211 0.517737
O O11 0.230420 0.755747 0.323717
O O12 0.626010 0.881184 0.286935
O O13 0.000000 0.711158 0.750000
#
# Coordination Sequence:
#
# PCOD8146413 Si02
#       7
#     4   8   8   4   8   8   8
#     4   9  24  38  72  98 128 171 210 278 332 387
#     4  11  22  45  66 100 129 170 220 271 332 384
#     4  11  25  45  64  96 132 175 222 266 321 390
#     4  11  22  40  74  96 132 165 218 286 322 383
#     4  10  22  41  65 102 130 164 219 268 329 385
#     4  10  23  42  69  96 130 177 209 273 327 389
#     4  10  23  42  68  95 131 178 214 266 324 389
#
# _framework density 22.652418000000001
#
# number of rings (size 3 to 8) (size 9 to 14) (size 15 to 20)
#    0.000    1.667    2.500    0.500    5.833    6.667 
#    3.000    1.667    0.000    0.000    0.000    0.000 
#    0.000    0.000    0.000    0.000    0.000    0.000 
#
# Total GULP energy -297353.491151 kJ/mol
# GULP energy per Si atom -12389.728798 kJ/mol
# Density = 2.260086 g / cm^3
# Si number density = 22.652418 Si / 1000 Ang^3
#
#
#
# Elastic Constant Matrix: (Units=GPa)
#
#
# Indices 1 2 3 4 5 6 
#
# 1 105.0226 19.3068 42.8498 -0.0012 10.0527 0.0007
# 2 19.3068 74.5795 36.6254 -0.0013 1.6664 0.0006
# 3 42.8498 36.6254 152.5404 -0.0061 8.3618 0.0024
# 4 -0.0012 -0.0013 -0.0061 26.5248 0.0018 -6.2596
# 5 10.0527 1.6664 8.3618 0.0018 28.4189 -0.0008
# 6 0.0007 0.0006 0.0024 -6.2596 -0.0008 24.9358
#
#
#
# Elastic Compliance Matrix: (Units=1/GPa)
#
#
# Indices 1 2 3 4 5 6 
#
# 1 0.011161 -0.001546 -0.002594 0.000000 -0.003094 0.000000
# 2 -0.001546 0.015416 -0.003301 0.000000 0.000614 0.000000
# 3 -0.002594 -0.003301 0.008147 0.000002 -0.001286 0.000000
# 4 0.000000 0.000000 0.000002 0.040075 -0.000003 0.010060
# 5 -0.003094 0.000614 -0.001286 -0.000003 0.036625 0.000001
# 6 0.000000 0.000000 0.000000 0.010060 0.000001 0.042628
#
#
# Mechanical properties :
#
#
# Convention : Reuss Voigt Hill
#
# Bulk Modulus (GPa) = 50.39871 58.85629 54.62750
# Shear Modulus (GPa) = 28.48230 31.53328 30.00779
#
# Velocity S-wave (km/s) = 3.54978 3.73507 3.64360
# Velocity P-wave (km/s) = 6.25286 6.68129 6.47062
#
# Compressibility (1/GPa) = 0.01984178
#
# Stress axis : x y z
#
# Youngs Moduli (GPa) = 89.60080 64.86764 122.73810
#
# Poissons Ratio (x) = 0.10029 0.31842
# Poissons Ratio (y) = 0.13853 0.40513
# Poissons Ratio (z) = 0.23245 0.21412
#
# Static dielectric constant tensor:
#      x y z
#    x 4.487270 0.000000 -0.139100 
#    y 0.000000 4.016070 0.000000 
#    z -0.139100 0.000000 4.364620 
# 
# 
# High freq. dielectric constant tensor:
#      x y z
#    x 1.899650 0.000000 0.009150 
#    y 0.000000 1.890320 0.000000 
#    z 0.009150 0.000000 1.889130 
# 
# From -- ./inp_files/147394.got.cif
#   From: 2010.06.25/outbox.cif.g09.slc.cpg/sg15_74_cif.got.tgz:147394.got - 2010.06.28 07:06:18.
