data_PCOD8146983
_publ_section_title
;
Structure prediction by ZEFSAII (Michael W. Deem and Ramdas Pophale) SiO2 
 PCOD8146983
Probable space group: C 2/C
;
_chemical_formula_sum "Si O2"
_cell_formula_units_Z 52
_cell_length_a 23.421713
_cell_length_b 4.996276
_cell_length_c 22.276772
_cell_angle_alpha 90.000000
_cell_angle_beta 114.274524
_cell_angle_gamma 90.000000
_cell_volume 2376.375467
_symmetry_space_group_name_H-M "C 2/C"
_symmetry_group_IT_number 15
_symmetry_cell_setting 'monoclinic'
loop_
_space_group_symop_operation_xyz
x,y,z
-x,y,1/2-z
-x,-y,-z
x,-y,1/2+z
1/2+x,1/2+y,z
1/2-x,1/2+y,1/2-z
1/2-x,1/2-y,-z
1/2+x,1/2-y,1/2+z
loop_
_atom_site_type_symbol
_atom_site_label
_atom_site_fract_x
_atom_site_fract_y
_atom_site_fract_z
Si Si1 0.502325 0.437954 0.620743
Si Si2 0.373364 0.984502 0.718504
Si Si3 0.311042 0.524115 0.137427
Si Si4 0.418989 0.057218 0.367996
Si Si5 0.139035 0.979144 0.472431
Si Si6 0.500000 0.262619 0.750000
Si Si7 0.829972 0.521086 0.440502
O O1 0.553011 0.645220 0.616864
O O2 0.435172 0.490875 0.563760
O O3 0.501599 0.456689 0.692913
O O4 0.522147 0.141961 0.609359
O O5 0.321159 0.193558 0.674559
O O6 0.440055 0.069561 0.719726
O O7 0.356400 0.692124 0.687262
O O8 0.374739 0.978733 0.791057
O O9 0.238561 0.450673 0.114321
O O10 0.326945 0.547976 0.074544
O O11 0.378950 0.985821 0.408454
O O12 0.153355 0.676334 0.497726
O O13 0.167532 0.176703 0.534444
#
# Coordination Sequence:
#
# PCOD8146983 Si02
#       7
#     8   8   8   8   8   4   8
#     4  11  24  41  70 100 134 165 225 266 345 381
#     4  11  24  40  71 100 133 163 223 271 345 379
#     4  12  25  44  69 101 126 179 220 280 319 389
#     4  11  26  43  65 103 132 181 206 276 329 406
#     4  12  25  43  70  97 127 182 218 280 317 387
#     4  10  22  42  68 104 138 162 210 296 334 400
#     4  12  27  46  65  91 145 175 227 257 322 397
#
# _framework density 21.882065999999998
#
# number of rings (size 3 to 8) (size 9 to 14) (size 15 to 20)
#    0.000    0.615    1.538    6.462    4.308    6.154 
#    0.000    0.000    0.000    0.000    0.000    0.000 
#    0.000    0.000    0.000    0.000    0.000    0.000 
#
# Total GULP energy -322650.632656 kJ/mol
# GULP energy per Si atom -12409.639718 kJ/mol
# Density = 2.183226 g / cm^3
# Si number density = 21.882066 Si / 1000 Ang^3
#
#
#
# Elastic Constant Matrix: (Units=GPa)
#
#
# Indices 1 2 3 4 5 6 
#
# 1 65.7115 12.7503 25.9451 0.0008 21.8022 -0.0008
# 2 12.7503 77.9748 19.3651 0.0000 -7.1750 0.0020
# 3 25.9451 19.3651 63.6379 -0.0002 12.9894 0.0004
# 4 0.0008 0.0000 -0.0002 34.9052 0.0002 9.3113
# 5 21.8022 -7.1750 12.9894 0.0002 26.6296 0.0001
# 6 -0.0008 0.0020 0.0004 9.3113 0.0001 18.6796
#
#
#
# Elastic Compliance Matrix: (Units=1/GPa)
#
#
# Indices 1 2 3 4 5 6 
#
# 1 0.024137 -0.004514 -0.004648 -0.000001 -0.018711 0.000002
# 2 -0.004514 0.015788 -0.005094 0.000001 0.010434 -0.000002
# 3 -0.004648 -0.005094 0.020726 0.000000 -0.007677 0.000000
# 4 -0.000001 0.000001 0.000000 0.033043 0.000001 -0.016471
# 5 -0.018711 0.010434 -0.007677 0.000001 0.059427 -0.000002
# 6 0.000002 -0.000002 0.000000 -0.016471 -0.000002 0.061744
#
#
# Mechanical properties :
#
#
# Convention : Reuss Voigt Hill
#
# Bulk Modulus (GPa) = 31.11458 35.93838 33.52648
# Shear Modulus (GPa) = 19.67811 25.99381 22.83596
#
# Velocity S-wave (km/s) = 3.00205 3.45034 3.23397
# Velocity P-wave (km/s) = 5.12509 5.68616 5.41290
#
# Compressibility (1/GPa) = 0.03213927
#
# Stress axis : x y z
#
# Youngs Moduli (GPa) = 41.43017 63.33943 48.24910
#
# Poissons Ratio (x) = 0.28593 0.22425
# Poissons Ratio (y) = 0.18702 0.24576
# Poissons Ratio (z) = 0.19256 0.32263
#
# Static dielectric constant tensor:
#      x y z
#    x 3.889310 0.000000 0.042690 
#    y 0.000000 4.006570 0.000000 
#    z 0.042690 0.000000 4.050850 
# 
# 
# High freq. dielectric constant tensor:
#      x y z
#    x 1.859940 0.000000 0.006540 
#    y 0.000000 1.872550 0.000000 
#    z 0.006540 0.000000 1.868760 
# 
# From -- ./inp_files/254420.got.cif
#   From: 2010.06.25/outbox.cif.g09.slc.cpg/sg15_128_cif.got.tgz:254420.got - 2010.06.28 07:06:18.
