data_PCOD8146118
_publ_section_title
;
Structure prediction by ZEFSAII (Michael W. Deem and Ramdas Pophale) SiO2 
 PCOD8146118
Probable space group: C 2/C
;
_chemical_formula_sum "Si O2"
_cell_formula_units_Z 52
_cell_length_a 11.364173
_cell_length_b 25.791862
_cell_length_c 8.971122
_cell_angle_alpha 90.000000
_cell_angle_beta 108.651753
_cell_angle_gamma 90.000000
_cell_volume 2491.364722
_symmetry_space_group_name_H-M "C 2/C"
_symmetry_group_IT_number 15
_symmetry_cell_setting 'monoclinic'
loop_
_space_group_symop_operation_xyz
x,y,z
-x,y,1/2-z
-x,-y,-z
x,-y,1/2+z
1/2+x,1/2+y,z
1/2-x,1/2+y,1/2-z
1/2-x,1/2-y,-z
1/2+x,1/2-y,1/2+z
loop_
_atom_site_type_symbol
_atom_site_label
_atom_site_fract_x
_atom_site_fract_y
_atom_site_fract_z
Si Si1 0.298326 0.831384 0.642580
Si Si2 0.000000 0.380786 0.250000
Si Si3 0.267038 0.044977 0.690415
Si Si4 0.019196 0.306316 0.534537
Si Si5 0.525131 0.697799 0.087670
Si Si6 0.221954 0.945087 0.520244
Si Si7 0.025660 0.916519 0.937240
O O1 0.385430 0.803868 0.558478
O O2 0.369320 0.831213 0.827978
O O3 0.171374 0.799743 0.609191
O O4 0.279093 0.890109 0.584345
O O5 0.881157 0.416979 0.215264
O O6 0.009961 0.342511 0.390277
O O7 0.158249 0.061320 0.533425
O O8 0.301939 0.987393 0.646063
O O9 0.225646 0.044225 0.845353
O O10 0.048399 0.245855 0.514798
O O11 0.500000 0.702264 0.250000
O O12 0.472471 0.643289 0.006938
O O13 0.078985 0.948081 0.515202
O O14 0.000000 0.920645 0.750000
#
# Coordination Sequence:
#
# PCOD8146118 Si02
#       7
#     8   4   8   8   8   8   8
#     4  10  24  44  67  91 136 173 222 273 326 400
#     4  12  28  40  68  98 138 176 222 264 330 394
#     4  12  26  44  67  99 133 173 223 274 329 400
#     4  11  23  45  64  95 135 181 215 270 325 397
#     4  10  22  40  67 102 125 172 224 269 335 378
#     4  11  24  45  68  97 129 172 221 276 337 382
#     4  10  23  44  71 100 132 172 220 277 331 384
#
# _framework density 20.872095000000002
#
# number of rings (size 3 to 8) (size 9 to 14) (size 15 to 20)
#    0.000    1.231    2.308    2.308    8.615    3.692 
#   11.077    0.000    0.000    0.000    0.000    0.000 
#    0.000    0.000    0.000    0.000    0.000    0.000 
#
# Total GULP energy -322387.330859 kJ/mol
# GULP energy per Si atom -12399.512725 kJ/mol
# Density = 2.082459 g / cm^3
# Si number density = 20.872095 Si / 1000 Ang^3
#
#
#
# Elastic Constant Matrix: (Units=GPa)
#
#
# Indices 1 2 3 4 5 6 
#
# 1 57.8717 13.3524 31.1745 0.0000 -13.0296 0.0000
# 2 13.3524 107.7057 49.6829 0.0000 -3.0055 0.0000
# 3 31.1745 49.6829 131.8766 0.0000 -8.9330 0.0000
# 4 0.0000 0.0000 0.0000 -63.4366 0.0000 -28.2159
# 5 -13.0296 -3.0055 -8.9330 0.0000 34.2539 0.0000
# 6 0.0000 0.0000 0.0000 -28.2159 0.0000 21.9539
#
#
#
# Elastic Compliance Matrix: (Units=1/GPa)
#
#
# Indices 1 2 3 4 5 6 
#
# 1 0.021310 -0.000413 -0.004413 0.000000 0.006919 0.000000
# 2 -0.000413 0.011246 -0.004156 0.000000 -0.000254 0.000000
# 3 -0.004413 -0.004156 0.010234 0.000000 0.000626 0.000000
# 4 0.000000 0.000000 0.000000 -0.010030 0.000000 -0.012891
# 5 0.006919 -0.000254 0.000626 0.000000 0.031966 0.000000
# 6 0.000000 0.000000 0.000000 -0.012891 0.000000 0.028982
#
#
# Mechanical properties :
#
#
# Convention : Reuss Voigt Hill
#
# Bulk Modulus (GPa) = 40.28195 53.98597 47.13396
# Shear Modulus (GPa) = 41.68440 12.10384 26.89412
#
# Velocity S-wave (km/s) = 4.47378 2.41074 3.59349
# Velocity P-wave (km/s) = 6.78436 5.80260 6.31260
#
# Compressibility (1/GPa) = 0.02482501
#
# Stress axis : x y z
#
# Youngs Moduli (GPa) = 46.92641 88.92107 97.71025
#
# Poissons Ratio (x) = 0.03672 0.43122
# Poissons Ratio (y) = 0.01938 0.40612
# Poissons Ratio (z) = 0.20710 0.36959
#
# Static dielectric constant tensor:
#      x y z
#    x 3.901480 0.000000 -0.175540 
#    y 0.000000 4.097920 0.000000 
#    z -0.175540 0.000000 3.705030 
# 
# 
# High freq. dielectric constant tensor:
#      x y z
#    x 1.821620 0.000000 -0.013960 
#    y 0.000000 1.839340 0.000000 
#    z -0.013960 0.000000 1.818450 
# 
# From -- ./inp_files/33736.got.cif
#   From: 2010.06.25/outbox.cif.g09.slc.cpg/sg15_17_cif.got.tgz:33736.got - 2010.06.28 07:06:18.
