data_PCOD8146966
_publ_section_title
;
Structure prediction by ZEFSAII (Michael W. Deem and Ramdas Pophale) SiO2 
 PCOD8146966
Probable space group: C 2/C
;
_chemical_formula_sum "Si O2"
_cell_formula_units_Z 56
_cell_length_a 13.543717
_cell_length_b 11.962738
_cell_length_c 17.505610
_cell_angle_alpha 90.000000
_cell_angle_beta 63.597327
_cell_angle_gamma 90.000000
_cell_volume 2540.410672
_symmetry_space_group_name_H-M "C 2/C"
_symmetry_group_IT_number 15
_symmetry_cell_setting 'monoclinic'
loop_
_space_group_symop_operation_xyz
x,y,z
-x,y,1/2-z
-x,-y,-z
x,-y,1/2+z
1/2+x,1/2+y,z
1/2-x,1/2+y,1/2-z
1/2-x,1/2-y,-z
1/2+x,1/2-y,1/2+z
loop_
_atom_site_type_symbol
_atom_site_label
_atom_site_fract_x
_atom_site_fract_y
_atom_site_fract_z
Si Si1 0.828153 0.501618 0.576999
Si Si2 0.305618 0.717710 0.875818
Si Si3 0.500000 0.810315 0.250000
Si Si4 0.622241 0.626689 0.995416
Si Si5 0.532470 0.010691 0.612048
Si Si6 0.614793 0.637765 0.494696
Si Si7 0.000000 0.329749 0.750000
Si Si8 0.702672 0.283052 0.625481
O O1 0.741069 0.596580 0.627210
O O2 0.854207 0.498223 0.476378
O O3 0.779804 0.385286 0.623084
O O4 0.936874 0.530028 0.585011
O O5 0.210772 0.812393 0.908000
O O6 0.391502 0.752448 0.779968
O O7 0.375018 0.708456 0.930779
O O8 0.465637 0.881604 0.335304
O O9 0.389272 0.736238 0.276293
O O10 0.504383 0.661336 0.000908
O O11 0.634309 0.687151 0.072491
O O12 0.633384 0.493822 0.000952
O O13 0.720685 0.672971 0.908164
O O14 0.514629 0.901282 0.668446
#
# Coordination Sequence:
#
# PCOD8146966 Si02
#       8
#     8   8   4   8   8   8   4   8
#     4  11  24  45  71  96 129 180 232 264 318 406
#     4  11  24  41  67  97 138 171 218 277 330 392
#     4  11  26  43  64 102 142 169 213 282 344 382
#     4  10  22  42  67  98 130 181 225 270 321 406
#     4  10  24  44  70  98 128 178 231 269 322 396
#     4  10  22  42  67  98 130 181 225 270 321 406
#     4  11  26  43  64 102 142 169 213 282 344 382
#     4  11  24  41  67  97 138 171 218 277 330 392
#
# _framework density 22.043679999999998
#
# number of rings (size 3 to 8) (size 9 to 14) (size 15 to 20)
#    0.000    1.429    1.429    3.429   12.000    1.714 
#    0.000    0.000    0.000    0.000    0.000    0.000 
#    0.000    0.000    0.000    0.000    0.000    0.000 
#
# Total GULP energy -347192.979408 kJ/mol
# GULP energy per Si atom -12399.749265 kJ/mol
# Density = 2.199351 g / cm^3
# Si number density = 22.043680 Si / 1000 Ang^3
#
#
#
# Elastic Constant Matrix: (Units=GPa)
#
#
# Indices 1 2 3 4 5 6 
#
# 1 107.9674 32.4869 19.1384 0.0000 -20.1682 0.0000
# 2 32.4869 111.8965 49.2464 0.0000 -24.0891 0.0000
# 3 19.1384 49.2464 84.0816 0.0000 -37.1503 0.0000
# 4 0.0000 0.0000 0.0000 44.1558 0.0000 -9.1001
# 5 -20.1682 -24.0891 -37.1503 0.0000 42.1039 0.0000
# 6 0.0000 0.0000 0.0000 -9.1001 0.0000 41.2342
#
#
#
# Elastic Compliance Matrix: (Units=1/GPa)
#
#
# Indices 1 2 3 4 5 6 
#
# 1 0.010714 -0.002614 0.001146 0.000000 0.004647 0.000000
# 2 -0.002614 0.012709 -0.006866 0.000000 -0.000039 0.000000
# 3 0.001146 -0.006866 0.023209 0.000000 0.017099 0.000000
# 4 0.000000 0.000000 0.000000 0.023726 0.000000 0.005236
# 5 0.004647 -0.000039 0.017099 0.000000 0.041042 0.000000
# 6 0.000000 0.000000 0.000000 0.005236 0.000000 0.025407
#
#
# Mechanical properties :
#
#
# Convention : Reuss Voigt Hill
#
# Bulk Modulus (GPa) = 33.37472 56.18764 44.78118
# Shear Modulus (GPa) = 30.58801 39.03705 34.81253
#
# Velocity S-wave (km/s) = 3.72910 4.21277 3.97829
# Velocity P-wave (km/s) = 5.80644 7.01482 6.43904
#
# Compressibility (1/GPa) = 0.02996280
#
# Stress axis : x y z
#
# Youngs Moduli (GPa) = 93.33851 78.68323 43.08754
#
# Poissons Ratio (x) = 0.20571 -0.04938
# Poissons Ratio (y) = 0.24402 0.29584
# Poissons Ratio (z) = -0.10696 0.54023
#
# Static dielectric constant tensor:
#      x y z
#    x 4.077430 0.000000 -0.199680 
#    y 0.000000 4.038490 0.000000 
#    z -0.199680 0.000000 3.802710 
# 
# 
# High freq. dielectric constant tensor:
#      x y z
#    x 1.879360 0.000000 -0.019760 
#    y 0.000000 1.882610 0.000000 
#    z -0.019760 0.000000 1.844200 
# 
# From -- ./inp_files/204395.got.cif
#   From: 2010.06.25/outbox.cif.g09.slc.cpg/sg15_103_cif.got.tgz:204395.got - 2010.06.28 07:06:18.
