data_PCOD8146326
_publ_section_title
;
Structure prediction by ZEFSAII (Michael W. Deem and Ramdas Pophale) SiO2 
 PCOD8146326
Probable space group: C 2/C
;
_chemical_formula_sum "Si O2"
_cell_formula_units_Z 48
_cell_length_a 14.977501
_cell_length_b 28.042488
_cell_length_c 9.030521
_cell_angle_alpha 90.000000
_cell_angle_beta 32.913667
_cell_angle_gamma 90.000000
_cell_volume 2060.953201
_symmetry_space_group_name_H-M "C 2/C"
_symmetry_group_IT_number 15
_symmetry_cell_setting 'monoclinic'
loop_
_space_group_symop_operation_xyz
x,y,z
-x,y,1/2-z
-x,-y,-z
x,-y,1/2+z
1/2+x,1/2+y,z
1/2-x,1/2+y,1/2-z
1/2-x,1/2-y,-z
1/2+x,1/2-y,1/2+z
loop_
_atom_site_type_symbol
_atom_site_label
_atom_site_fract_x
_atom_site_fract_y
_atom_site_fract_z
Si Si1 0.659819 0.850063 0.429265
Si Si2 0.523570 0.693477 0.883841
Si Si3 0.590987 0.222254 0.768716
Si Si4 0.813176 0.051891 0.721151
Si Si5 0.177088 0.476880 0.720221
Si Si6 0.392301 0.402816 0.547286
O O1 0.796358 0.828474 0.347927
O O2 0.632367 0.821229 0.317590
O O3 0.716350 0.901969 0.297287
O O4 0.500000 0.854132 0.750000
O O5 0.500000 0.712468 0.750000
O O6 0.385233 0.652249 0.116610
O O7 0.520997 0.738853 0.993232
O O8 0.500000 0.202261 0.750000
O O9 0.750000 0.250000 0.500000
O O10 0.004406 0.063232 0.486131
O O11 0.814078 0.013649 0.588452
O O12 0.707663 0.030735 0.005079
O O13 0.214649 0.426438 0.756101
O O14 0.000000 0.500000 0.000000
O O15 0.500000 0.397966 0.250000
#
# Coordination Sequence:
#
# PCOD8146326 Si02
#       6
#     8   8   8   8   8   8
#     4  11  24  44  69  96 133 180 229 277 335 413
#     4  10  22  42  69  97 130 181 229 270 334 415
#     4  12  26  46  66  99 141 173 221 286 350 407
#     4  10  22  41  62  91 127 169 217 266 324 393
#     4  11  20  37  61  92 128 163 213 271 317 377
#     4   8  18  38  63  89 124 170 216 260 316 393
#
# _framework density 23.290194
#
# number of rings (size 3 to 8) (size 9 to 14) (size 15 to 20)
#    0.000    1.667    1.667    3.500    2.333    1.333 
#    3.000    0.000    0.000    0.000    0.000    0.000 
#    0.000    0.000    0.000    0.000    0.000    0.000 
#
# Total GULP energy -297515.243362 kJ/mol
# GULP energy per Si atom -12396.468473 kJ/mol
# Density = 2.323718 g / cm^3
# Si number density = 23.290194 Si / 1000 Ang^3
#
#
#
# Elastic Constant Matrix: (Units=GPa)
#
#
# Indices 1 2 3 4 5 6 
#
# 1 125.0315 43.9174 7.3540 0.0000 -1.6493 0.0000
# 2 43.9174 105.8898 7.1734 0.0000 4.7734 0.0000
# 3 7.3540 7.1734 35.3256 0.0000 -17.8738 0.0000
# 4 0.0000 0.0000 0.0000 19.8501 0.0000 -4.2480
# 5 -1.6493 4.7734 -17.8738 0.0000 21.5431 0.0000
# 6 0.0000 0.0000 0.0000 -4.2480 0.0000 43.2181
#
#
#
# Elastic Compliance Matrix: (Units=1/GPa)
#
#
# Indices 1 2 3 4 5 6 
#
# 1 0.009424 -0.003914 -0.000626 0.000000 0.001070 0.000000
# 2 -0.003914 0.011749 -0.005239 0.000000 -0.007250 0.000000
# 3 -0.000626 -0.005239 0.051818 0.000000 0.044105 0.000000
# 4 0.000000 0.000000 0.000000 0.051460 0.000000 0.005058
# 5 0.001070 -0.007250 0.044105 0.000000 0.084699 0.000000
# 6 0.000000 0.000000 0.000000 0.005058 0.000000 0.023636
#
#
# Mechanical properties :
#
#
# Convention : Reuss Voigt Hill
#
# Bulk Modulus (GPa) = 18.71515 42.57070 30.64293
# Shear Modulus (GPa) = 18.50788 30.77575 24.64182
#
# Velocity S-wave (km/s) = 2.82204 3.63906 3.25627
# Velocity P-wave (km/s) = 4.32107 5.99792 5.22717
#
# Compressibility (1/GPa) = 0.05343263
#
# Stress axis : x y z
#
# Youngs Moduli (GPa) = 106.11426 85.11405 19.29827
#
# Poissons Ratio (x) = 0.33316 0.01208
# Poissons Ratio (y) = 0.41536 0.10110
# Poissons Ratio (z) = 0.06640 0.44591
#
# Static dielectric constant tensor:
#      x y z
#    x 4.196280 0.000000 -0.213440 
#    y 0.000000 4.543960 0.000000 
#    z -0.213440 0.000000 3.701170 
# 
# 
# High freq. dielectric constant tensor:
#      x y z
#    x 1.940160 0.000000 -0.007360 
#    y 0.000000 1.937320 0.000000 
#    z -0.007360 0.000000 1.881200 
# 
# From -- ./inp_files/43795.got.cif
#   From: 2010.06.25/outbox.cif.g09.slc.cpg/sg15_22_cif.got.tgz:43795.got - 2010.06.28 07:06:18.
