data_PCOD8146567
_publ_section_title
;
Structure prediction by ZEFSAII (Michael W. Deem and Ramdas Pophale) SiO2 
 PCOD8146567
Probable space group: C 2/C
;
_chemical_formula_sum "Si O2"
_cell_formula_units_Z 56
_cell_length_a 16.284042
_cell_length_b 9.171524
_cell_length_c 24.802604
_cell_angle_alpha 90.000000
_cell_angle_beta 44.064299
_cell_angle_gamma 90.000000
_cell_volume 2576.181171
_symmetry_space_group_name_H-M "C 2/C"
_symmetry_group_IT_number 15
_symmetry_cell_setting 'monoclinic'
loop_
_space_group_symop_operation_xyz
x,y,z
-x,y,1/2-z
-x,-y,-z
x,-y,1/2+z
1/2+x,1/2+y,z
1/2-x,1/2+y,1/2-z
1/2-x,1/2-y,-z
1/2+x,1/2-y,1/2+z
loop_
_atom_site_type_symbol
_atom_site_label
_atom_site_fract_x
_atom_site_fract_y
_atom_site_fract_z
Si Si1 0.056521 0.724870 0.502442
Si Si2 0.648526 0.921803 0.456255
Si Si3 0.349916 0.633730 0.641491
Si Si4 0.507467 0.601722 0.367919
Si Si5 0.006005 0.633856 0.367629
Si Si6 0.087493 0.868248 0.161063
Si Si7 0.576749 0.864415 0.267042
O O1 0.154970 0.597937 0.449684
O O2 0.076656 0.849026 0.448332
O O3 0.929935 0.644632 0.555153
O O4 0.066054 0.799632 0.555894
O O5 0.593733 0.874897 0.539348
O O6 0.777691 0.858757 0.383791
O O7 0.385845 0.481762 0.652503
O O8 0.381092 0.771948 0.665232
O O9 0.214201 0.622682 0.688878
O O10 0.418647 0.483230 0.384986
O O11 0.556241 0.700624 0.296847
O O12 0.949413 0.709359 0.342097
O O13 0.046010 0.474191 0.330338
O O14 0.000000 0.916890 0.250000
O O15 0.500000 0.896627 0.250000
#
# Coordination Sequence:
#
# PCOD8146567 Si02
#       7
#     8   8   8   8   8   8   8
#     4  10  22  41  68  95 124 175 221 264 329 387
#     4  10  22  42  69  95 130 169 222 271 318 396
#     4  10  24  42  67  92 131 171 219 274 325 395
#     4  11  24  42  61  95 129 169 217 266 332 386
#     4  10  22  46  65  96 126 180 222 258 334 392
#     4  11  25  41  66  97 134 171 215 271 331 382
#     4  12  25  40  63  97 134 170 221 273 329 381
#
# _framework density 21.737603
#
# number of rings (size 3 to 8) (size 9 to 14) (size 15 to 20)
#    0.000    1.429    1.429    2.571    4.000    6.286 
#    0.000    0.000    0.000    0.000    0.000    0.000 
#    0.000    0.000    0.000    0.000    0.000    0.000 
#
# Total GULP energy -347307.040380 kJ/mol
# GULP energy per Si atom -12403.822871 kJ/mol
# Density = 2.168813 g / cm^3
# Si number density = 21.737603 Si / 1000 Ang^3
#
#
#
# Elastic Constant Matrix: (Units=GPa)
#
#
# Indices 1 2 3 4 5 6 
#
# 1 90.4730 16.9713 33.7921 0.0000 -10.7906 0.0001
# 2 16.9713 90.2438 20.1424 0.0000 2.1600 0.0002
# 3 33.7921 20.1424 86.1491 0.0000 -5.3512 0.0000
# 4 0.0000 0.0000 0.0000 27.0731 0.0000 14.1308
# 5 -10.7906 2.1600 -5.3512 0.0000 42.2383 0.0000
# 6 0.0001 0.0002 0.0000 14.1308 0.0000 29.4196
#
#
#
# Elastic Compliance Matrix: (Units=1/GPa)
#
#
# Indices 1 2 3 4 5 6 
#
# 1 0.013460 -0.001544 -0.004738 0.000000 0.002917 0.000000
# 2 -0.001544 0.011906 -0.002258 0.000000 -0.001289 0.000000
# 3 -0.004738 -0.002258 0.014037 0.000000 0.000683 0.000000
# 4 0.000000 0.000000 0.000000 0.049296 0.000000 -0.023678
# 5 0.002917 -0.001289 0.000683 0.000000 0.024573 0.000000
# 6 0.000000 0.000000 0.000000 -0.023678 0.000000 0.045364
#
#
# Mechanical properties :
#
#
# Convention : Reuss Voigt Hill
#
# Bulk Modulus (GPa) = 44.79554 45.40863 45.10209
# Shear Modulus (GPa) = 27.29914 32.81019 30.05466
#
# Velocity S-wave (km/s) = 3.54764 3.88928 3.72238
# Velocity P-wave (km/s) = 6.11826 6.41120 6.26644
#
# Compressibility (1/GPa) = 0.02232365
#
# Stress axis : x y z
#
# Youngs Moduli (GPa) = 74.29390 83.98893 71.24239
#
# Poissons Ratio (x) = 0.12965 0.33752
# Poissons Ratio (y) = 0.11469 0.16089
# Poissons Ratio (z) = 0.35197 0.18968
#
# Static dielectric constant tensor:
#      x y z
#    x 3.869170 0.000000 0.130310 
#    y 0.000000 4.063380 0.000000 
#    z 0.130310 0.000000 3.581050 
# 
# 
# High freq. dielectric constant tensor:
#      x y z
#    x 1.853480 0.000000 0.012180 
#    y 0.000000 1.867290 0.000000 
#    z 0.012180 0.000000 1.840200 
# 
# From -- ./inp_files/298491.got.cif
#   From: 2010.06.25/outbox.cif.g09.slc.cpg/sg15_150_cif.got.tgz:298491.got - 2010.06.28 07:06:18.
