data_PCOD8146681
_publ_section_title
;
Structure prediction by ZEFSAII (Michael W. Deem and Ramdas Pophale) SiO2 
 PCOD8146681
Probable space group: C 2/C
;
_chemical_formula_sum "Si O2"
_cell_formula_units_Z 52
_cell_length_a 11.913437
_cell_length_b 24.405876
_cell_length_c 9.133354
_cell_angle_alpha 90.000000
_cell_angle_beta 67.446931
_cell_angle_gamma 90.000000
_cell_volume 2452.507089
_symmetry_space_group_name_H-M "C 2/C"
_symmetry_group_IT_number 15
_symmetry_cell_setting 'monoclinic'
loop_
_space_group_symop_operation_xyz
x,y,z
-x,y,1/2-z
-x,-y,-z
x,-y,1/2+z
1/2+x,1/2+y,z
1/2-x,1/2+y,1/2-z
1/2-x,1/2-y,-z
1/2+x,1/2-y,1/2+z
loop_
_atom_site_type_symbol
_atom_site_label
_atom_site_fract_x
_atom_site_fract_y
_atom_site_fract_z
Si Si1 0.101237 0.454544 0.478559
Si Si2 0.636514 0.429778 0.678386
Si Si3 0.544736 0.832121 0.482064
Si Si4 0.772583 0.212448 0.708500
Si Si5 0.271624 0.176470 0.076869
Si Si6 0.741072 0.509088 0.856989
Si Si7 0.500000 0.747236 0.750000
O O1 0.046512 0.394748 0.537330
O O2 0.173194 0.470329 0.588880
O O3 0.182555 0.452105 0.290660
O O4 0.000000 0.500000 0.500000
O O5 0.500000 0.407467 0.750000
O O6 0.729366 0.380756 0.665610
O O7 0.652112 0.473530 0.799853
O O8 0.662062 0.453604 0.504339
O O9 0.659399 0.822287 0.321297
O O10 0.415497 0.823868 0.466554
O O11 0.558535 0.787569 0.602016
O O12 0.804083 0.189484 0.531735
O O13 0.741865 0.277241 0.712816
O O14 0.894023 0.206634 0.745612
#
# Coordination Sequence:
#
# PCOD8146681 Si02
#       7
#     8   8   8   8   8   8   4
#     4  11  23  37  66  96 132 165 210 272 329 390
#     4  11  23  42  65  89 126 173 216 268 325 391
#     4  11  22  39  65  91 128 168 207 266 329 376
#     4  10  22  42  60  92 129 166 207 271 317 385
#     4  10  23  39  65  93 121 160 219 259 319 389
#     4  10  23  40  59  94 128 164 218 263 322 393
#     4  10  24  38  62  90 130 168 218 256 318 396
#
# _framework density 21.202793
#
# number of rings (size 3 to 8) (size 9 to 14) (size 15 to 20)
#    0.000    1.538    0.000    4.615    6.462    4.923 
#    2.769    0.000    3.385    0.000    0.000    0.000 
#    0.000    0.000    0.000    0.000    0.000    0.000 
#
# Total GULP energy -322406.979885 kJ/mol
# GULP energy per Si atom -12400.268457 kJ/mol
# Density = 2.115453 g / cm^3
# Si number density = 21.202793 Si / 1000 Ang^3
#
#
#
# Elastic Constant Matrix: (Units=GPa)
#
#
# Indices 1 2 3 4 5 6 
#
# 1 132.5128 32.2659 34.5278 0.0000 -1.8473 0.0000
# 2 32.2659 81.0582 4.5362 0.0000 -12.0125 0.0000
# 3 34.5278 4.5362 67.8168 0.0000 8.8051 0.0000
# 4 0.0000 0.0000 0.0000 26.7054 0.0000 -6.3731
# 5 -1.8473 -12.0125 8.8051 0.0000 31.6888 0.0000
# 6 0.0000 0.0000 0.0000 -6.3731 0.0000 32.0655
#
#
#
# Elastic Compliance Matrix: (Units=1/GPa)
#
#
# Indices 1 2 3 4 5 6 
#
# 1 0.009641 -0.003489 -0.004748 0.000000 0.000559 0.000000
# 2 -0.003489 0.014498 0.000124 0.000000 0.005258 0.000000
# 3 -0.004748 0.000124 0.017827 0.000000 -0.005183 0.000000
# 4 0.000000 0.000000 0.000000 0.039310 0.000000 0.007813
# 5 0.000559 0.005258 -0.005183 0.000000 0.035023 0.000000
# 6 0.000000 0.000000 0.000000 0.007813 0.000000 0.032739
#
#
# Mechanical properties :
#
#
# Convention : Reuss Voigt Hill
#
# Bulk Modulus (GPa) = 38.84888 47.11642 42.98265
# Shear Modulus (GPa) = 28.76136 32.09578 30.42857
#
# Velocity S-wave (km/s) = 3.68705 3.89492 3.79241
# Velocity P-wave (km/s) = 6.04054 6.51899 6.28432
#
# Compressibility (1/GPa) = 0.02574077
#
# Stress axis : x y z
#
# Youngs Moduli (GPa) = 103.72510 68.97507 56.09318
#
# Poissons Ratio (x) = 0.24067 0.26631
# Poissons Ratio (y) = 0.36191 -0.00696
# Poissons Ratio (z) = 0.49245 -0.00855
#
# Static dielectric constant tensor:
#      x y z
#    x 3.848830 0.000000 0.158170 
#    y 0.000000 3.812560 0.000000 
#    z 0.158170 0.000000 3.899700 
# 
# 
# High freq. dielectric constant tensor:
#      x y z
#    x 1.833000 0.000000 0.007560 
#    y 0.000000 1.831030 0.000000 
#    z 0.007560 0.000000 1.831560 
# 
# From -- ./inp_files/33480.got.cif
#   From: 2010.06.25/outbox.cif.g09.slc.cpg/sg15_17_cif.got.tgz:33480.got - 2010.06.28 07:06:18.
