data_PCOD8146094
_publ_section_title
;
Structure prediction by ZEFSAII (Michael W. Deem and Ramdas Pophale) SiO2 
 PCOD8146094
Probable space group: C 2/C
;
_chemical_formula_sum "Si O2"
_cell_formula_units_Z 52
_cell_length_a 5.233626
_cell_length_b 19.009051
_cell_length_c 27.389889
_cell_angle_alpha 90.000000
_cell_angle_beta 59.629932
_cell_angle_gamma 90.000000
_cell_volume 2350.998810
_symmetry_space_group_name_H-M "C 2/C"
_symmetry_group_IT_number 15
_symmetry_cell_setting 'monoclinic'
loop_
_space_group_symop_operation_xyz
x,y,z
-x,y,1/2-z
-x,-y,-z
x,-y,1/2+z
1/2+x,1/2+y,z
1/2-x,1/2+y,1/2-z
1/2-x,1/2-y,-z
1/2+x,1/2-y,1/2+z
loop_
_atom_site_type_symbol
_atom_site_label
_atom_site_fract_x
_atom_site_fract_y
_atom_site_fract_z
Si Si1 0.500000 0.363102 0.250000
Si Si2 0.915457 0.415403 0.338079
Si Si3 0.737293 0.942030 0.684774
Si Si4 0.629688 0.129427 0.362824
Si Si5 0.200543 0.589818 0.012426
Si Si6 0.643612 0.070997 0.545879
Si Si7 0.781121 0.219152 0.688446
O O1 0.465742 0.312089 0.300460
O O2 0.783199 0.414383 0.223285
O O3 0.710453 0.475504 0.332847
O O4 0.990713 0.431910 0.386911
O O5 0.766939 0.338920 0.348877
O O6 0.500000 0.928114 0.750000
O O7 0.605412 0.910632 0.647855
O O8 0.046593 0.906573 0.670292
O O9 0.507501 0.130539 0.429488
O O10 0.631676 0.209249 0.345266
O O11 0.186307 0.507158 0.022524
O O12 0.543412 0.612794 0.983695
O O13 0.083456 0.609125 0.969306
O O14 0.500000 0.231483 0.750000
#
# Coordination Sequence:
#
# PCOD8146094 Si02
#       7
#     4   8   8   8   8   8   8
#     4  10  24  44  72  96 138 190 226 268 348 430
#     4  11  25  42  69  99 133 178 226 278 339 403
#     4  12  26  40  66 103 136 168 225 283 334 397
#     4  12  26  44  68  99 137 179 222 278 340 398
#     4  10  22  41  64  96 131 173 226 272 342 390
#     4  10  22  40  66  94 132 173 221 281 332 395
#     4  10  24  44  66  95 137 182 221 266 345 417
#
# _framework density 22.118258999999998
#
# number of rings (size 3 to 8) (size 9 to 14) (size 15 to 20)
#    0.000    1.231    1.538    3.692   16.154    0.000 
#    0.000    1.538    0.000    0.000    0.000    0.000 
#    0.000    0.000    0.000    0.000    0.000    0.000 
#
# Total GULP energy -322371.221572 kJ/mol
# GULP energy per Si atom -12398.893137 kJ/mol
# Density = 2.206792 g / cm^3
# Si number density = 22.118259 Si / 1000 Ang^3
#
#
#
# Elastic Constant Matrix: (Units=GPa)
#
#
# Indices 1 2 3 4 5 6 
#
# 1 118.6631 32.4541 25.4319 0.0000 9.2259 0.0000
# 2 32.4541 73.0081 17.6715 0.0000 -9.3245 0.0000
# 3 25.4319 17.6715 75.9660 0.0000 13.6220 0.0000
# 4 0.0000 0.0000 0.0000 29.0433 0.0000 10.0131
# 5 9.2259 -9.3245 13.6220 0.0000 36.4565 0.0000
# 6 0.0000 0.0000 0.0000 10.0131 0.0000 15.6818
#
#
#
# Elastic Compliance Matrix: (Units=1/GPa)
#
#
# Indices 1 2 3 4 5 6 
#
# 1 0.010299 -0.004524 -0.001844 0.000000 -0.003074 0.000000
# 2 -0.004524 0.017538 -0.003831 0.000000 0.007062 0.000000
# 3 -0.001844 -0.003831 0.015825 0.000000 -0.006426 0.000000
# 4 0.000000 0.000000 0.000000 0.044151 0.000000 -0.028191
# 5 -0.003074 0.007062 -0.006426 0.000000 0.032415 0.000000
# 6 0.000000 0.000000 0.000000 -0.028191 0.000000 0.081768
#
#
# Mechanical properties :
#
#
# Convention : Reuss Voigt Hill
#
# Bulk Modulus (GPa) = 42.98935 46.52801 44.75868
# Shear Modulus (GPa) = 21.72501 29.04165 25.38333
#
# Velocity S-wave (km/s) = 3.13744 3.62749 3.39133
# Velocity P-wave (km/s) = 5.70991 6.21503 5.96781
#
# Compressibility (1/GPa) = 0.02326158
#
# Stress axis : x y z
#
# Youngs Moduli (GPa) = 97.09765 57.01994 63.19224
#
# Poissons Ratio (x) = 0.25798 0.11653
# Poissons Ratio (y) = 0.43931 0.24211
# Poissons Ratio (z) = 0.17905 0.21846
#
# Static dielectric constant tensor:
#      x y z
#    x 4.306520 0.000000 0.191360 
#    y 0.000000 3.825020 0.000000 
#    z 0.191360 0.000000 4.016460 
# 
# 
# High freq. dielectric constant tensor:
#      x y z
#    x 1.883480 0.000000 0.013410 
#    y 0.000000 1.844080 0.000000 
#    z 0.013410 0.000000 1.872850 
# 
# From -- ./inp_files/285975.got.cif
#   From: 2010.06.25/outbox.cif.g09.slc.cpg/sg15_143_cif.got.tgz:285975.got - 2010.06.28 07:06:18.
