data_PCOD8146559
_publ_section_title
;
Structure prediction by ZEFSAII (Michael W. Deem and Ramdas Pophale) SiO2 
 PCOD8146559
Probable space group: C 2/C
;
_chemical_formula_sum "Si O2"
_cell_formula_units_Z 44
_cell_length_a 10.525440
_cell_length_b 24.883942
_cell_length_c 13.439245
_cell_angle_alpha 90.000000
_cell_angle_beta 35.931541
_cell_angle_gamma 90.000000
_cell_volume 2065.560310
_symmetry_space_group_name_H-M "C 2/C"
_symmetry_group_IT_number 15
_symmetry_cell_setting 'monoclinic'
loop_
_space_group_symop_operation_xyz
x,y,z
-x,y,1/2-z
-x,-y,-z
x,-y,1/2+z
1/2+x,1/2+y,z
1/2-x,1/2+y,1/2-z
1/2-x,1/2-y,-z
1/2+x,1/2-y,1/2+z
loop_
_atom_site_type_symbol
_atom_site_label
_atom_site_fract_x
_atom_site_fract_y
_atom_site_fract_z
Si Si1 0.650683 0.789295 0.481406
Si Si2 0.500000 0.027019 0.250000
Si Si3 0.500000 0.378425 0.250000
Si Si4 0.711044 0.926425 0.068200
Si Si5 0.176390 0.805035 0.830048
Si Si6 0.419122 0.411390 0.511995
Si Si7 0.000000 0.857206 0.750000
O O1 0.750000 0.750000 0.500000
O O2 0.431800 0.812251 0.664034
O O3 0.610450 0.754867 0.406147
O O4 0.792830 0.840768 0.365962
O O5 0.315940 0.062906 0.313449
O O6 0.624463 0.986457 0.093071
O O7 0.477314 0.418086 0.358896
O O8 0.500000 0.895350 0.250000
O O9 0.898992 0.936174 0.031502
O O10 0.803789 0.894937 0.913923
O O11 0.076623 0.817302 0.786473
O O12 0.089361 0.847385 0.965525
#
# Coordination Sequence:
#
# PCOD8146559 Si02
#       7
#     8   4   4   8   8   8   4
#     4  12  21  38  59  91 126 162 201 266 317 358
#     4  10  22  41  68  91 132 161 210 279 318 384
#     4  12  24  34  64  92 128 164 206 254 326 372
#     4   9  23  44  64  90 131 166 210 272 319 378
#     4  11  23  40  63  89 129 165 214 259 310 390
#     4  11  22  41  62  98 124 167 216 260 319 395
#     4  10  24  45  66  91 124 179 216 255 326 380
#
# _framework density 21.301725999999999
#
# number of rings (size 3 to 8) (size 9 to 14) (size 15 to 20)
#    0.545    0.727    3.636    1.636    2.545    1.455 
#    0.000    4.545    0.000    0.000    0.000    0.000 
#    0.000    0.000    0.000    0.000    0.000    0.000 
#
# Total GULP energy -272673.630925 kJ/mol
# GULP energy per Si atom -12394.255951 kJ/mol
# Density = 2.125324 g / cm^3
# Si number density = 21.301726 Si / 1000 Ang^3
#
#
#
# Elastic Constant Matrix: (Units=GPa)
#
#
# Indices 1 2 3 4 5 6 
#
# 1 105.3980 23.2898 38.1005 0.0000 4.7015 0.0000
# 2 23.2898 45.3750 9.8138 0.0000 3.7625 0.0000
# 3 38.1005 9.8138 105.5927 0.0000 -5.0681 0.0000
# 4 0.0000 0.0000 0.0000 36.2026 0.0000 -7.9664
# 5 4.7015 3.7625 -5.0681 0.0000 42.5183 0.0000
# 6 0.0000 0.0000 0.0000 -7.9664 0.0000 14.9617
#
#
#
# Elastic Compliance Matrix: (Units=1/GPa)
#
#
# Indices 1 2 3 4 5 6 
#
# 1 0.012141 -0.005264 -0.003956 0.000000 -0.001348 0.000000
# 2 -0.005264 0.024990 -0.000504 0.000000 -0.001689 0.000000
# 3 -0.003956 -0.000504 0.011031 0.000000 0.001797 0.000000
# 4 0.000000 0.000000 0.000000 0.031288 0.000000 0.016660
# 5 -0.001348 -0.001689 0.001797 0.000000 0.024032 0.000000
# 6 0.000000 0.000000 0.000000 0.016660 0.000000 0.075708
#
#
# Mechanical properties :
#
#
# Convention : Reuss Voigt Hill
#
# Bulk Modulus (GPa) = 34.82810 44.30820 39.56815
# Shear Modulus (GPa) = 24.01409 31.08063 27.54736
#
# Velocity S-wave (km/s) = 3.36122 3.82392 3.60001
# Velocity P-wave (km/s) = 5.60795 6.35153 5.99128
#
# Compressibility (1/GPa) = 0.02871245
#
# Stress axis : x y z
#
# Youngs Moduli (GPa) = 82.36246 40.01645 90.65356
#
# Poissons Ratio (x) = 0.21066 0.35866
# Poissons Ratio (y) = 0.43359 0.04570
# Poissons Ratio (z) = 0.32586 0.02017
#
# Static dielectric constant tensor:
#      x y z
#    x 3.676410 0.000000 -0.093060 
#    y 0.000000 3.816530 0.000000 
#    z -0.093060 0.000000 4.040060 
# 
# 
# High freq. dielectric constant tensor:
#      x y z
#    x 1.819610 0.000000 -0.012010 
#    y 0.000000 1.827660 0.000000 
#    z -0.012010 0.000000 1.845680 
# 
# From -- ./inp_files/148506.got.cif
#   From: 2010.06.25/outbox.cif.g09.slc.cpg/sg15_75_cif.got.tgz:148506.got - 2010.06.28 07:06:18.
