data_PCOD8146097
_publ_section_title
;
Structure prediction by ZEFSAII (Michael W. Deem and Ramdas Pophale) SiO2 
 PCOD8146097
Probable space group: C 2/C
;
_chemical_formula_sum "Si O2"
_cell_formula_units_Z 36
_cell_length_a 21.645144
_cell_length_b 11.354938
_cell_length_c 14.752856
_cell_angle_alpha 90.000000
_cell_angle_beta 151.996187
_cell_angle_gamma 90.000000
_cell_volume 1702.491661
_symmetry_space_group_name_H-M "C 2/C"
_symmetry_group_IT_number 15
_symmetry_cell_setting 'monoclinic'
loop_
_space_group_symop_operation_xyz
x,y,z
-x,y,1/2-z
-x,-y,-z
x,-y,1/2+z
1/2+x,1/2+y,z
1/2-x,1/2+y,1/2-z
1/2-x,1/2-y,-z
1/2+x,1/2-y,1/2+z
loop_
_atom_site_type_symbol
_atom_site_label
_atom_site_fract_x
_atom_site_fract_y
_atom_site_fract_z
Si Si1 0.694756 0.478457 0.090817
Si Si2 0.846792 0.767047 0.040648
Si Si3 0.111263 0.411042 0.301490
Si Si4 0.000000 0.192491 0.250000
Si Si5 0.828009 0.527055 0.944452
O O1 0.820158 0.415538 0.206898
O O2 0.723847 0.510655 0.232981
O O3 0.666882 0.602023 0.010133
O O4 0.574085 0.389589 0.918974
O O5 0.000000 0.739160 0.250000
O O6 0.750000 0.750000 0.000000
O O7 0.809198 0.668119 0.918406
O O8 0.093480 0.275667 0.310009
O O9 0.204960 0.475339 0.498099
O O10 0.974017 0.479690 0.111818
#
# Coordination Sequence:
#
# PCOD8146097 Si02
#       5
#     8   8   8   4   8
#     4  12  23  41  66  93 129 171 218 267 328 385
#     4  12  23  45  68  97 135 170 222 280 323 383
#     4  10  22  45  61  89 132 172 210 267 328 394
#     4  10  24  40  60  92 130 162 218 266 324 386
#     4  10  22  40  66  95 123 175 216 259 331 393
#
# _framework density 21.145478000000001
#
# number of rings (size 3 to 8) (size 9 to 14) (size 15 to 20)
#    0.000    1.333    5.556    1.333    6.222    0.000 
#    0.000    2.222    0.000    0.000    0.000    0.000 
#    0.000    0.000    0.000    0.000    0.000    0.000 
#
# Total GULP energy -223017.133593 kJ/mol
# GULP energy per Si atom -12389.840755 kJ/mol
# Density = 2.109735 g / cm^3
# Si number density = 21.145478 Si / 1000 Ang^3
#
#
#
# Elastic Constant Matrix: (Units=GPa)
#
#
# Indices 1 2 3 4 5 6 
#
# 1 50.3437 6.6551 26.5602 0.0000 4.5399 0.0000
# 2 6.6551 143.0737 21.7481 0.0000 -4.1200 0.0000
# 3 26.5602 21.7481 82.9556 0.0000 -11.3494 0.0000
# 4 0.0000 0.0000 0.0000 8.8954 0.0000 -5.2594
# 5 4.5399 -4.1200 -11.3494 0.0000 28.0577 0.0000
# 6 0.0000 0.0000 0.0000 -5.2594 0.0000 23.2699
#
#
#
# Elastic Compliance Matrix: (Units=1/GPa)
#
#
# Indices 1 2 3 4 5 6 
#
# 1 0.025433 -0.000008 -0.009214 0.000000 -0.007843 0.000000
# 2 -0.000008 0.007282 -0.001863 0.000000 0.000317 0.000000
# 3 -0.009214 -0.001863 0.016577 0.000000 0.007923 0.000000
# 4 0.000000 0.000000 0.000000 0.129757 0.000000 0.029327
# 5 -0.007843 0.000317 0.007923 0.000000 0.040161 0.000000
# 6 0.000000 0.000000 0.000000 0.029327 0.000000 0.049602
#
#
# Mechanical properties :
#
#
# Convention : Reuss Voigt Hill
#
# Bulk Modulus (GPa) = 36.87103 42.92220 39.89662
# Shear Modulus (GPa) = 16.66535 26.80524 21.73529
#
# Velocity S-wave (km/s) = 2.81041 3.56428 3.20956
# Velocity P-wave (km/s) = 5.29206 6.10585 5.71346
#
# Compressibility (1/GPa) = 0.02712156
#
# Stress axis : x y z
#
# Youngs Moduli (GPa) = 39.31914 137.32261 60.32431
#
# Poissons Ratio (x) = 0.00114 0.55582
# Poissons Ratio (y) = 0.00033 0.11239
# Poissons Ratio (z) = 0.36228 0.25584
#
# Static dielectric constant tensor:
#      x y z
#    x 3.776570 0.000000 -0.056020 
#    y 0.000000 4.084520 0.000000 
#    z -0.056020 0.000000 3.705520 
# 
# 
# High freq. dielectric constant tensor:
#      x y z
#    x 1.814510 0.000000 0.000110 
#    y 0.000000 1.854610 0.000000 
#    z 0.000110 0.000000 1.815060 
# 
# From -- ./inp_files/94376.got.cif
#   From: 2010.06.25/outbox.cif.g09.slc.cpg/sg15_48_cif.got.tgz:94376.got - 2010.06.28 07:06:18.
