data_PCOD8146618
_publ_section_title
;
Structure prediction by ZEFSAII (Michael W. Deem and Ramdas Pophale) SiO2 
 PCOD8146618
Probable space group: C 2/C
;
_chemical_formula_sum "Si O2"
_cell_formula_units_Z 40
_cell_length_a 16.710364
_cell_length_b 6.804607
_cell_length_c 14.954409
_cell_angle_alpha 90.000000
_cell_angle_beta 97.500377
_cell_angle_gamma 90.000000
_cell_volume 1685.879004
_symmetry_space_group_name_H-M "C 2/C"
_symmetry_group_IT_number 15
_symmetry_cell_setting 'monoclinic'
loop_
_space_group_symop_operation_xyz
x,y,z
-x,y,1/2-z
-x,-y,-z
x,-y,1/2+z
1/2+x,1/2+y,z
1/2-x,1/2+y,1/2-z
1/2-x,1/2-y,-z
1/2+x,1/2-y,1/2+z
loop_
_atom_site_type_symbol
_atom_site_label
_atom_site_fract_x
_atom_site_fract_y
_atom_site_fract_z
Si Si1 0.895954 0.961297 0.571873
Si Si2 0.345145 0.094731 0.344778
Si Si3 0.506653 0.213013 0.043523
Si Si4 0.227266 0.472962 0.985135
Si Si5 0.681528 0.196979 0.808709
O O1 0.968389 0.845291 0.537115
O O2 0.877085 0.878013 0.669302
O O3 0.812763 0.911726 0.506427
O O4 0.923016 0.193326 0.572838
O O5 0.429292 0.214733 0.364263
O O6 0.271091 0.225063 0.297125
O O7 0.332605 0.023885 0.443969
O O8 0.356510 0.903508 0.283938
O O9 0.500000 0.000000 0.000000
O O10 0.250000 0.250000 0.000000
O O11 0.185935 0.529825 0.886047
#
# Coordination Sequence:
#
# PCOD8146618 Si02
#       5
#     8   8   8   8   8
#     4  10  22  41  69  99 139 172 229 290 352 415
#     4  11  22  41  68  98 133 179 236 280 349 417
#     4  11  22  42  72  98 133 186 224 281 360 428
#     4  11  20  39  71  99 131 178 231 293 340 409
#     4  11  22  42  69 102 134 178 235 298 343 412
#
# _framework density 23.726493000000001
#
# number of rings (size 3 to 8) (size 9 to 14) (size 15 to 20)
#    0.000    1.200    4.000    3.600    0.000    0.000 
#    0.000    1.000    8.800    0.000    0.000    0.000 
#    0.000    0.000    0.000    0.000    0.000    0.000 
#
# Total GULP energy -247918.904094 kJ/mol
# GULP energy per Si atom -12395.945205 kJ/mol
# Density = 2.367249 g / cm^3
# Si number density = 23.726493 Si / 1000 Ang^3
#
#
#
# Elastic Constant Matrix: (Units=GPa)
#
#
# Indices 1 2 3 4 5 6 
#
# 1 111.6465 24.9503 39.2064 0.0000 -0.4496 0.0000
# 2 24.9503 110.1570 36.9617 0.0000 -11.3605 0.0000
# 3 39.2064 36.9617 83.2547 0.0000 -5.3571 0.0000
# 4 0.0000 0.0000 0.0000 47.2519 0.0000 -7.0615
# 5 -0.4496 -11.3605 -5.3571 0.0000 19.8474 0.0000
# 6 0.0000 0.0000 0.0000 -7.0615 0.0000 47.6351
#
#
#
# Elastic Compliance Matrix: (Units=1/GPa)
#
#
# Indices 1 2 3 4 5 6 
#
# 1 0.010851 -0.001029 -0.004758 0.000000 -0.001628 0.000000
# 2 -0.001029 0.011257 -0.004172 0.000000 0.005294 0.000000
# 3 -0.004758 -0.004172 0.016225 0.000000 0.001884 0.000000
# 4 0.000000 0.000000 0.000000 0.021643 0.000000 0.003208
# 5 -0.001628 0.005294 0.001884 0.000000 0.053886 0.000000
# 6 0.000000 0.000000 0.000000 0.003208 0.000000 0.021469
#
#
# Mechanical properties :
#
#
# Convention : Reuss Voigt Hill
#
# Bulk Modulus (GPa) = 54.30400 56.36610 55.33505
# Shear Modulus (GPa) = 30.98126 36.54286 33.76206
#
# Velocity S-wave (km/s) = 3.61746 3.92876 3.77632
# Velocity P-wave (km/s) = 6.35493 6.66246 6.51051
#
# Compressibility (1/GPa) = 0.01841485
#
# Stress axis : x y z
#
# Youngs Moduli (GPa) = 92.15689 88.83358 61.63161
#
# Poissons Ratio (x) = 0.09142 0.29323
# Poissons Ratio (y) = 0.09484 0.25715
# Poissons Ratio (z) = 0.43846 0.37065
#
# Static dielectric constant tensor:
#      x y z
#    x 4.729930 0.000000 0.066760 
#    y 0.000000 3.077210 0.000000 
#    z 0.066760 0.000000 3.974640 
# 
# 
# High freq. dielectric constant tensor:
#      x y z
#    x 1.944420 0.000000 -0.005140 
#    y 0.000000 1.954480 0.000000 
#    z -0.005140 0.000000 1.906420 
# 
# From -- ./inp_files/102869.got.cif
#   From: 2010.06.25/outbox.cif.g09.slc.cpg/sg15_52_cif.got.tgz:102869.got - 2010.06.28 07:06:18.
