data_PCOD8146317
_publ_section_title
;
Structure prediction by ZEFSAII (Michael W. Deem and Ramdas Pophale) SiO2 
 PCOD8146317
Probable space group: C 2/C
;
_chemical_formula_sum "Si O2"
_cell_formula_units_Z 32
_cell_length_a 10.133068
_cell_length_b 16.431123
_cell_length_c 9.342756
_cell_angle_alpha 90.000000
_cell_angle_beta 57.868985
_cell_angle_gamma 90.000000
_cell_volume 1317.290533
_symmetry_space_group_name_H-M "C 2/C"
_symmetry_group_IT_number 15
_symmetry_cell_setting 'monoclinic'
loop_
_space_group_symop_operation_xyz
x,y,z
-x,y,1/2-z
-x,-y,-z
x,-y,1/2+z
1/2+x,1/2+y,z
1/2-x,1/2+y,1/2-z
1/2-x,1/2-y,-z
1/2+x,1/2-y,1/2+z
loop_
_atom_site_type_symbol
_atom_site_label
_atom_site_fract_x
_atom_site_fract_y
_atom_site_fract_z
Si Si1 0.258407 0.152926 0.387241
Si Si2 0.000000 0.643068 0.750000
Si Si3 0.796555 0.034972 0.620170
Si Si4 0.000000 0.000514 0.250000
Si Si5 0.511804 0.782139 0.538675
O O1 0.357997 0.154362 0.477087
O O2 0.086120 0.191531 0.506173
O O3 0.242884 0.060851 0.344935
O O4 0.352598 0.210023 0.220521
O O5 0.142661 0.586271 0.707672
O O6 0.963025 0.699935 0.904861
O O7 0.894357 0.054705 0.418852
O O8 0.893321 0.056419 0.708776
#
# Coordination Sequence:
#
# PCOD8146317 Si02
#       5
#     8   4   8   4   8
#     4  10  22  41  62  88 127 170 209 254 315 379
#     4  12  24  41  68  99 126 162 216 268 310 369
#     4  11  23  41  65  93 127 168 213 261 314 376
#     4  10  24  39  60  93 128 164 208 262 320 371
#     4  10  23  39  61  92 127 166 208 258 316 374
#
# _framework density 24.292286000000001
#
# number of rings (size 3 to 8) (size 9 to 14) (size 15 to 20)
#    0.000    1.500    0.000    4.500    0.000   13.000 
#    0.000    0.000    0.000    0.000    0.000    0.000 
#    0.000    0.000    0.000    0.000    0.000    0.000 
#
# Total GULP energy -198337.471141 kJ/mol
# GULP energy per Si atom -12396.091946 kJ/mol
# Density = 2.423700 g / cm^3
# Si number density = 24.292286 Si / 1000 Ang^3
#
#
#
# Elastic Constant Matrix: (Units=GPa)
#
#
# Indices 1 2 3 4 5 6 
#
# 1 111.4448 18.2687 39.1013 0.0000 25.3148 0.0000
# 2 18.2687 67.0845 -0.2419 0.0000 4.9390 0.0000
# 3 39.1013 -0.2419 113.5433 0.0000 25.3521 0.0000
# 4 0.0000 0.0000 0.0000 15.8328 0.0000 8.4153
# 5 25.3148 4.9390 25.3521 0.0000 52.9254 0.0000
# 6 0.0000 0.0000 0.0000 8.4153 0.0000 -15.9321
#
#
#
# Elastic Compliance Matrix: (Units=1/GPa)
#
#
# Indices 1 2 3 4 5 6 
#
# 1 0.011361 -0.002834 -0.003095 0.000000 -0.003687 0.000000
# 2 -0.002834 0.015732 0.001158 0.000000 -0.000668 0.000000
# 3 -0.003095 0.001158 0.010715 0.000000 -0.003760 0.000000
# 4 0.000000 0.000000 0.000000 0.049315 0.000000 0.026048
# 5 -0.003687 -0.000668 -0.003760 0.000000 0.022522 0.000000
# 6 0.000000 0.000000 0.000000 0.026048 0.000000 -0.049008
#
#
# Mechanical properties :
#
#
# Convention : Reuss Voigt Hill
#
# Bulk Modulus (GPa) = 35.37699 45.14764 40.26232
# Shear Modulus (GPa) = 62.81409 26.22819 44.52114
#
# Velocity S-wave (km/s) = 5.09056 3.28943 4.28568
# Velocity P-wave (km/s) = 7.01045 5.74915 6.41089
#
# Compressibility (1/GPa) = 0.02826696
#
# Stress axis : x y z
#
# Youngs Moduli (GPa) = 88.02001 63.56650 93.32520
#
# Poissons Ratio (x) = 0.18012 0.28886
# Poissons Ratio (y) = 0.24941 -0.10811
# Poissons Ratio (z) = 0.27244 -0.07364
#
# Static dielectric constant tensor:
#      x y z
#    x 4.493650 0.000000 -0.051000 
#    y 0.000000 3.776280 0.000000 
#    z -0.051000 0.000000 4.478340 
# 
# 
# High freq. dielectric constant tensor:
#      x y z
#    x 1.981330 0.000000 0.002770 
#    y 0.000000 1.933000 0.000000 
#    z 0.002770 0.000000 1.980740 
# 
# From -- ./inp_files/28651.got.cif
#   From: 2010.06.25/outbox.cif.g09.slc.cpg/sg15_15_cif.got.tgz:28651.got - 2010.06.28 07:06:18.
