data_PCOD8146915
_publ_section_title
;
Structure prediction by ZEFSAII (Michael W. Deem and Ramdas Pophale) SiO2 
 PCOD8146915
Probable space group: C 2/C
;
_chemical_formula_sum "Si O2"
_cell_formula_units_Z 28
_cell_length_a 19.967528
_cell_length_b 7.714858
_cell_length_c 13.841042
_cell_angle_alpha 90.000000
_cell_angle_beta 143.297878
_cell_angle_gamma 90.000000
_cell_volume 1274.299366
_symmetry_space_group_name_H-M "C 2/C"
_symmetry_group_IT_number 15
_symmetry_cell_setting 'monoclinic'
loop_
_space_group_symop_operation_xyz
x,y,z
-x,y,1/2-z
-x,-y,-z
x,-y,1/2+z
1/2+x,1/2+y,z
1/2-x,1/2+y,1/2-z
1/2-x,1/2-y,-z
1/2+x,1/2-y,1/2+z
loop_
_atom_site_type_symbol
_atom_site_label
_atom_site_fract_x
_atom_site_fract_y
_atom_site_fract_z
Si Si1 0.597890 0.573588 0.046285
Si Si2 0.843441 0.534971 0.844597
Si Si3 0.000000 0.075875 0.250000
Si Si4 0.028803 0.405781 0.183427
O O1 0.712396 0.480581 0.211904
O O2 0.609371 0.778017 0.071436
O O3 0.500000 0.500000 0.000000
O O4 0.577348 0.541716 0.908128
O O5 0.872641 0.504092 0.764458
O O6 0.913186 0.394739 0.987407
O O7 0.932302 0.208419 0.243706
O O8 0.000000 0.509247 0.250000
#
# Coordination Sequence:
#
# PCOD8146915 Si02
#       4
#     8   8   4   8
#     4  12  25  43  66  99 132 172 218 266 324 388
#     4  11  24  42  70  93 133 172 218 264 329 381
#     4  10  22  42  66  96 130 166 218 266 322 386
#     4   9  21  44  69  91 130 170 218 266 325 375
#
# _framework density 21.972857000000001
#
# number of rings (size 3 to 8) (size 9 to 14) (size 15 to 20)
#    0.857    0.571    2.857    1.714    6.000    3.429 
#    0.000    2.857    0.000    0.000    0.000    0.000 
#    0.000    0.000    0.000    0.000    0.000    0.000 
#
# Total GULP energy -173436.215781 kJ/mol
# GULP energy per Si atom -12388.301127 kJ/mol
# Density = 2.192285 g / cm^3
# Si number density = 21.972857 Si / 1000 Ang^3
#
#
#
# Elastic Constant Matrix: (Units=GPa)
#
#
# Indices 1 2 3 4 5 6 
#
# 1 153.2673 30.2175 74.0319 0.0000 -2.0035 0.0000
# 2 30.2175 65.4342 29.1908 0.0000 -6.3926 0.0000
# 3 74.0319 29.1908 114.1129 0.0000 9.0354 0.0000
# 4 0.0000 0.0000 0.0000 36.0211 0.0000 -1.5512
# 5 -2.0035 -6.3926 9.0354 0.0000 48.6956 0.0000
# 6 0.0000 0.0000 0.0000 -1.5512 0.0000 26.3743
#
#
#
# Elastic Compliance Matrix: (Units=1/GPa)
#
#
# Indices 1 2 3 4 5 6 
#
# 1 0.009782 -0.001709 -0.006011 0.000000 0.001293 0.000000
# 2 -0.001709 0.018033 -0.003741 0.000000 0.002991 0.000000
# 3 -0.006011 -0.003741 0.013883 0.000000 -0.003314 0.000000
# 4 0.000000 0.000000 0.000000 0.027832 0.000000 0.001637
# 5 0.001293 0.002991 -0.003314 0.000000 0.021597 0.000000
# 6 0.000000 0.000000 0.000000 0.001637 0.000000 0.038012
#
#
# Mechanical properties :
#
#
# Convention : Reuss Voigt Hill
#
# Bulk Modulus (GPa) = 53.26370 66.63276 59.94823
# Shear Modulus (GPa) = 31.58171 35.50981 33.54576
#
# Velocity S-wave (km/s) = 3.79529 4.02441 3.91153
# Velocity P-wave (km/s) = 6.59538 7.21008 6.90957
#
# Compressibility (1/GPa) = 0.01877451
#
# Stress axis : x y z
#
# Youngs Moduli (GPa) = 102.22736 55.45416 72.03270
#
# Poissons Ratio (x) = 0.09479 0.43302
# Poissons Ratio (y) = 0.17473 0.26946
# Poissons Ratio (z) = 0.61453 0.20745
#
# Static dielectric constant tensor:
#      x y z
#    x 4.194280 0.000000 -0.291570 
#    y 0.000000 3.899270 0.000000 
#    z -0.291570 0.000000 3.923410 
# 
# 
# High freq. dielectric constant tensor:
#      x y z
#    x 1.869050 0.000000 -0.020850 
#    y 0.000000 1.854910 0.000000 
#    z -0.020850 0.000000 1.851120 
# 
# From -- ./inp_files/93120.got.cif
#   From: 2010.06.25/outbox.cif.g09.slc.cpg/sg15_47_cif.got.tgz:93120.got - 2010.06.28 07:06:18.
