data_PCOD8146680
_publ_section_title
;
Structure prediction by ZEFSAII (Michael W. Deem and Ramdas Pophale) SiO2 
 PCOD8146680
Probable space group: C 2/C
;
_chemical_formula_sum "Si O2"
_cell_formula_units_Z 56
_cell_length_a 7.657112
_cell_length_b 24.047246
_cell_length_c 15.646935
_cell_angle_alpha 90.000000
_cell_angle_beta 72.179702
_cell_angle_gamma 90.000000
_cell_volume 2742.875963
_symmetry_space_group_name_H-M "C 2/C"
_symmetry_group_IT_number 15
_symmetry_cell_setting 'monoclinic'
loop_
_space_group_symop_operation_xyz
x,y,z
-x,y,1/2-z
-x,-y,-z
x,-y,1/2+z
1/2+x,1/2+y,z
1/2-x,1/2+y,1/2-z
1/2-x,1/2-y,-z
1/2+x,1/2-y,1/2+z
loop_
_atom_site_type_symbol
_atom_site_label
_atom_site_fract_x
_atom_site_fract_y
_atom_site_fract_z
Si Si1 0.695129 0.134416 0.757519
Si Si2 0.182501 0.743173 0.264529
Si Si3 0.694125 0.441935 0.412648
Si Si4 0.444385 0.348792 0.666728
Si Si5 0.200827 0.299954 0.947817
Si Si6 0.190994 0.067635 0.442256
Si Si7 0.462840 0.105303 0.545119
O O1 0.500000 0.152842 0.750000
O O2 0.810944 0.190513 0.747010
O O3 0.785637 0.089388 0.680873
O O4 0.677328 0.107534 0.854123
O O5 0.355559 0.712005 0.196143
O O6 0.156384 0.727621 0.365591
O O7 0.000000 0.719824 0.250000
O O8 0.704660 0.507789 0.395471
O O9 0.497501 0.424930 0.478438
O O10 0.854870 0.428136 0.455846
O O11 0.500000 0.375847 0.750000
O O12 0.627353 0.341869 0.583189
O O13 0.304303 0.388315 0.636435
O O14 0.250000 0.250000 0.000000
O O15 0.023623 0.332441 0.009935
O O16 0.362652 0.076568 0.480010
#
# Coordination Sequence:
#
# PCOD8146680 Si02
#       7
#     8   8   8   8   8   8   8
#     4  10  22  42  61  92 132 169 209 264 330 381
#     4  11  23  37  60  94 129 165 218 262 316 394
#     4  10  23  44  62  94 131 170 211 275 321 384
#     4  10  22  42  60  91 128 169 208 268 325 381
#     4  11  21  38  63  88 128 172 210 266 327 379
#     4  11  23  42  68  92 127 169 224 265 326 387
#     4  11  22  40  68  95 126 171 216 270 320 391
#
# _framework density 20.416526999999999
#
# number of rings (size 3 to 8) (size 9 to 14) (size 15 to 20)
#    0.000    1.429    1.429    5.143    2.000    0.000 
#    5.143   12.143    0.000    0.000    0.000    0.000 
#    0.000    0.000    0.000    0.000    0.000    0.000 
#
# Total GULP energy -347224.658168 kJ/mol
# GULP energy per Si atom -12400.880649 kJ/mol
# Density = 2.037006 g / cm^3
# Si number density = 20.416527 Si / 1000 Ang^3
#
#
#
# Elastic Constant Matrix: (Units=GPa)
#
#
# Indices 1 2 3 4 5 6 
#
# 1 91.6595 29.2928 39.9680 0.0000 6.7454 0.0000
# 2 29.2928 113.3509 60.5473 0.0000 -1.1590 0.0000
# 3 39.9680 60.5473 105.4802 0.0000 0.3294 0.0000
# 4 0.0000 0.0000 0.0000 16.7316 0.0000 -7.7924
# 5 6.7454 -1.1590 0.3294 0.0000 28.4538 0.0000
# 6 0.0000 0.0000 0.0000 -7.7924 0.0000 17.3852
#
#
#
# Elastic Compliance Matrix: (Units=1/GPa)
#
#
# Indices 1 2 3 4 5 6 
#
# 1 0.013439 -0.001140 -0.004428 0.000000 -0.003181 0.000000
# 2 -0.001140 0.012830 -0.006935 0.000000 0.000873 0.000000
# 3 -0.004428 -0.006935 0.015137 0.000000 0.000592 0.000000
# 4 0.000000 0.000000 0.000000 0.075535 0.000000 0.033857
# 5 -0.003181 0.000873 0.000592 0.000000 0.035928 0.000000
# 6 0.000000 0.000000 0.000000 0.033857 0.000000 0.072696
#
#
# Mechanical properties :
#
#
# Convention : Reuss Voigt Hill
#
# Bulk Modulus (GPa) = 60.97659 63.34522 62.16090
# Shear Modulus (GPa) = 19.52825 24.55962 22.04394
#
# Velocity S-wave (km/s) = 3.09608 3.47209 3.28946
# Velocity P-wave (km/s) = 6.53545 6.86787 6.70372
#
# Compressibility (1/GPa) = 0.01639974
#
# Stress axis : x y z
#
# Youngs Moduli (GPa) = 74.40897 77.93956 66.06142
#
# Poissons Ratio (x) = 0.08889 0.29250
# Poissons Ratio (y) = 0.08486 0.45817
# Poissons Ratio (z) = 0.32946 0.54055
#
# Static dielectric constant tensor:
#      x y z
#    x 3.695930 0.000000 0.018600 
#    y 0.000000 3.569690 0.000000 
#    z 0.018600 0.000000 3.749040 
# 
# 
# High freq. dielectric constant tensor:
#      x y z
#    x 1.802550 0.000000 0.004770 
#    y 0.000000 1.795060 0.000000 
#    z 0.004770 0.000000 1.803340 
# 
# From -- ./inp_files/137261.got.cif
#   From: 2010.06.25/outbox.cif.g09.slc.cpg/sg15_69_cif.got.tgz:137261.got - 2010.06.28 07:06:18.
