data_PCOD8146954
_publ_section_title
;
Structure prediction by ZEFSAII (Michael W. Deem and Ramdas Pophale) SiO2 
 PCOD8146954
Probable space group: C 2/C
;
_chemical_formula_sum "Si O2"
_cell_formula_units_Z 56
_cell_length_a 17.129126
_cell_length_b 20.163546
_cell_length_c 14.659880
_cell_angle_alpha 90.000000
_cell_angle_beta 147.218260
_cell_angle_gamma 90.000000
_cell_volume 2741.467519
_symmetry_space_group_name_H-M "C 2/C"
_symmetry_group_IT_number 15
_symmetry_cell_setting 'monoclinic'
loop_
_space_group_symop_operation_xyz
x,y,z
-x,y,1/2-z
-x,-y,-z
x,-y,1/2+z
1/2+x,1/2+y,z
1/2-x,1/2+y,1/2-z
1/2-x,1/2-y,-z
1/2+x,1/2-y,1/2+z
loop_
_atom_site_type_symbol
_atom_site_label
_atom_site_fract_x
_atom_site_fract_y
_atom_site_fract_z
Si Si1 0.153872 0.805375 0.859424
Si Si2 0.929804 0.793795 0.925660
Si Si3 0.642517 0.115900 0.842701
Si Si4 0.185103 0.032633 0.762911
Si Si5 0.138667 0.932778 0.559064
Si Si6 0.757426 0.672304 0.747965
Si Si7 0.156899 0.529773 0.393926
O O1 0.151779 0.800350 0.749793
O O2 0.000000 0.800418 0.750000
O O3 0.250000 0.750000 0.000000
O O4 0.223731 0.875698 0.956183
O O5 0.881428 0.856295 0.936816
O O6 0.866599 0.724491 0.905423
O O7 0.102049 0.792358 0.084142
O O8 0.500000 0.146255 0.750000
O O9 0.672262 0.156150 0.780118
O O10 0.626170 0.038135 0.808381
O O11 0.242586 0.104645 0.789309
O O12 0.014554 0.034216 0.616688
O O13 0.212098 0.976434 0.711986
O O14 0.272211 0.014153 0.938901
O O15 0.237376 0.928279 0.566095
O O16 0.000000 0.565370 0.250000
#
# Coordination Sequence:
#
# PCOD8146954 Si02
#       7
#     8   8   8   8   8   8   8
#     4  12  21  33  54  83 122 164 202 245 307 374
#     4  11  23  38  60  90 127 164 210 259 309 377
#     4  11  23  37  56  87 127 165 205 247 315 381
#     4  10  22  43  68  91 126 167 217 270 310 375
#     4  10  22  42  67  95 120 170 222 259 315 376
#     4  11  23  41  60  90 127 167 209 257 315 374
#     4  11  24  42  63  95 128 161 210 269 323 373
#
# _framework density 20.427015999999998
#
# number of rings (size 3 to 8) (size 9 to 14) (size 15 to 20)
#    0.000    1.143    4.286    1.714    2.000    2.857 
#    0.000    0.714    0.000    0.000    0.000    0.000 
#    0.000    0.000    0.000    0.000    0.000    0.000 
#
# Total GULP energy -347121.887587 kJ/mol
# GULP energy per Si atom -12397.210271 kJ/mol
# Density = 2.038052 g / cm^3
# Si number density = 20.427016 Si / 1000 Ang^3
#
#
#
# Elastic Constant Matrix: (Units=GPa)
#
#
# Indices 1 2 3 4 5 6 
#
# 1 119.7284 34.5491 52.8508 0.0000 24.0964 0.0000
# 2 34.5491 89.5119 22.7274 0.0000 16.2724 0.0000
# 3 52.8508 22.7274 98.8676 0.0000 11.2917 0.0000
# 4 0.0000 0.0000 0.0000 30.0117 0.0000 2.6085
# 5 24.0964 16.2724 11.2917 0.0000 34.3026 0.0000
# 6 0.0000 0.0000 0.0000 2.6085 0.0000 -5.4891
#
#
#
# Elastic Compliance Matrix: (Units=1/GPa)
#
#
# Indices 1 2 3 4 5 6 
#
# 1 0.012696 -0.002409 -0.005554 0.000000 -0.005948 0.000000
# 2 -0.002409 0.013176 -0.001268 0.000000 -0.004141 0.000000
# 3 -0.005554 -0.001268 0.013363 0.000000 0.000104 0.000000
# 4 0.000000 0.000000 0.000000 0.031999 0.000000 0.015206
# 5 -0.005948 -0.004141 0.000104 0.000000 0.035260 0.000000
# 6 0.000000 0.000000 0.000000 0.015206 0.000000 -0.174953
#
#
# Mechanical properties :
#
#
# Convention : Reuss Voigt Hill
#
# Bulk Modulus (GPa) = 48.13873 58.70695 53.42284
# Shear Modulus (GPa) = -116.08378 24.96375 -45.56001
#
# Velocity S-wave (km/s) = -7.54665 3.49964 -4.72781
# Velocity P-wave (km/s) = 7.23315 6.71805 1.89556
#
# Compressibility (1/GPa) = 0.02077329
#
# Stress axis : x y z
#
# Youngs Moduli (GPa) = 78.76565 75.89405 74.83356
#
# Poissons Ratio (x) = 0.18283 0.41560
# Poissons Ratio (y) = 0.18974 0.09491
# Poissons Ratio (z) = 0.43744 0.09625
#
# Static dielectric constant tensor:
#      x y z
#    x 3.678400 0.000000 0.258140 
#    y 0.000000 3.798050 0.000000 
#    z 0.258140 0.000000 3.972860 
# 
# 
# High freq. dielectric constant tensor:
#      x y z
#    x 1.794860 0.000000 0.020190 
#    y 0.000000 1.800140 0.000000 
#    z 0.020190 0.000000 1.793350 
# 
# From -- ./inp_files/50332.got.cif
#   From: 2010.06.25/outbox.cif.g09.slc.cpg/sg15_26_cif.got.tgz:50332.got - 2010.06.28 07:06:18.
