data_PCOD8146938
_publ_section_title
;
Structure prediction by ZEFSAII (Michael W. Deem and Ramdas Pophale) SiO2 
 PCOD8146938
Probable space group: C 2/C
;
_chemical_formula_sum "Si O2"
_cell_formula_units_Z 48
_cell_length_a 12.418035
_cell_length_b 7.629743
_cell_length_c 24.246309
_cell_angle_alpha 90.000000
_cell_angle_beta 107.710517
_cell_angle_gamma 90.000000
_cell_volume 2188.374176
_symmetry_space_group_name_H-M "C 2/C"
_symmetry_group_IT_number 15
_symmetry_cell_setting 'monoclinic'
loop_
_space_group_symop_operation_xyz
x,y,z
-x,y,1/2-z
-x,-y,-z
x,-y,1/2+z
1/2+x,1/2+y,z
1/2-x,1/2+y,1/2-z
1/2-x,1/2-y,-z
1/2+x,1/2-y,1/2+z
loop_
_atom_site_type_symbol
_atom_site_label
_atom_site_fract_x
_atom_site_fract_y
_atom_site_fract_z
Si Si1 0.970681 0.253445 0.972564
Si Si2 0.371872 0.006692 0.731967
Si Si3 0.266236 0.164921 0.819249
Si Si4 0.406630 0.646788 0.188444
Si Si5 0.673652 0.071715 0.557564
Si Si6 0.579623 0.451908 0.930020
O O1 0.881067 0.386535 0.932022
O O2 0.984819 0.094011 0.932327
O O3 0.094345 0.340824 0.999252
O O4 0.919881 0.198711 0.023889
O O5 0.500000 0.934981 0.750000
O O6 0.287942 0.846296 0.709356
O O7 0.356273 0.097911 0.789011
O O8 0.348498 0.160400 0.683185
O O9 0.175826 0.012548 0.813405
O O10 0.323964 0.195735 0.887777
O O11 0.500000 0.639845 0.250000
O O12 0.457243 0.626614 0.134801
O O13 0.797300 0.041324 0.551970
#
# Coordination Sequence:
#
# PCOD8146938 Si02
#       6
#     8   8   8   8   8   8
#     4  10  22  42  67  89 131 170 211 267 320 380
#     4  11  24  42  65  95 129 171 213 263 326 388
#     4  11  23  43  65  96 130 170 214 267 324 382
#     4  10  23  43  67  97 132 167 215 267 320 395
#     4  10  23  41  63  96 125 165 218 264 316 385
#     4  10  22  43  63  97 125 170 213 263 323 378
#
# _framework density 21.934092
#
# number of rings (size 3 to 8) (size 9 to 14) (size 15 to 20)
#    0.000    1.667    1.667    1.500    4.667    4.000 
#   21.000    0.000    0.000    0.000    0.000    0.000 
#    0.000    0.000    0.000    0.000    0.000    0.000 
#
# Total GULP energy -297599.600821 kJ/mol
# GULP energy per Si atom -12399.983368 kJ/mol
# Density = 2.188417 g / cm^3
# Si number density = 21.934092 Si / 1000 Ang^3
#
#
#
# Elastic Constant Matrix: (Units=GPa)
#
#
# Indices 1 2 3 4 5 6 
#
# 1 77.9004 14.8689 38.5120 0.0000 -24.7439 0.0000
# 2 14.8689 89.1013 26.2466 0.0000 -9.6912 0.0000
# 3 38.5120 26.2466 92.2188 0.0000 -22.5161 0.0000
# 4 0.0000 0.0000 0.0000 30.0516 0.0000 -5.3047
# 5 -24.7439 -9.6912 -22.5161 0.0000 23.1579 0.0000
# 6 0.0000 0.0000 0.0000 -5.3047 0.0000 27.4375
#
#
#
# Elastic Compliance Matrix: (Units=1/GPa)
#
#
# Indices 1 2 3 4 5 6 
#
# 1 0.020628 -0.000269 -0.004175 0.000000 0.017869 0.000000
# 2 -0.000269 0.012346 -0.002898 0.000000 0.002061 0.000000
# 3 -0.004175 -0.002898 0.015771 0.000000 0.009660 0.000000
# 4 0.000000 0.000000 0.000000 0.034452 0.000000 0.006661
# 5 0.017869 0.002061 0.009660 0.000000 0.072529 0.000000
# 6 0.000000 0.000000 0.000000 0.006661 0.000000 0.037734
#
#
# Mechanical properties :
#
#
# Convention : Reuss Voigt Hill
#
# Bulk Modulus (GPa) = 29.35991 46.49731 37.92861
# Shear Modulus (GPa) = 22.77925 28.10227 25.44076
#
# Velocity S-wave (km/s) = 3.22612 3.58329 3.40939
# Velocity P-wave (km/s) = 5.22415 6.19392 5.72959
#
# Compressibility (1/GPa) = 0.03406005
#
# Stress axis : x y z
#
# Youngs Moduli (GPa) = 48.47754 80.99797 63.40837
#
# Poissons Ratio (x) = 0.02178 0.26475
# Poissons Ratio (y) = 0.01304 0.18377
# Poissons Ratio (z) = 0.20241 0.23475
#
# Static dielectric constant tensor:
#      x y z
#    x 3.985970 0.000000 -0.139240 
#    y 0.000000 4.280160 0.000000 
#    z -0.139240 0.000000 4.053010 
# 
# 
# High freq. dielectric constant tensor:
#      x y z
#    x 1.870790 0.000000 -0.010500 
#    y 0.000000 1.872700 0.000000 
#    z -0.010500 0.000000 1.854570 
# 
# From -- ./inp_files/268083.got.cif
#   From: 2010.06.25/outbox.cif.g09.slc.cpg/sg15_135_cif.got.tgz:268083.got - 2010.06.28 07:06:18.
