data_PCOD8146330
_publ_section_title
;
Structure prediction by ZEFSAII (Michael W. Deem and Ramdas Pophale) SiO2 
 PCOD8146330
Probable space group: C 2/C
;
_chemical_formula_sum "Si O2"
_cell_formula_units_Z 56
_cell_length_a 27.911567
_cell_length_b 5.394384
_cell_length_c 16.716170
_cell_angle_alpha 90.000000
_cell_angle_beta 99.799351
_cell_angle_gamma 90.000000
_cell_volume 2480.160266
_symmetry_space_group_name_H-M "C 2/C"
_symmetry_group_IT_number 15
_symmetry_cell_setting 'monoclinic'
loop_
_space_group_symop_operation_xyz
x,y,z
-x,y,1/2-z
-x,-y,-z
x,-y,1/2+z
1/2+x,1/2+y,z
1/2-x,1/2+y,1/2-z
1/2-x,1/2-y,-z
1/2+x,1/2-y,1/2+z
loop_
_atom_site_type_symbol
_atom_site_label
_atom_site_fract_x
_atom_site_fract_y
_atom_site_fract_z
Si Si1 0.738543 0.280642 0.294610
Si Si2 0.855788 0.884381 0.520111
Si Si3 0.449937 0.187428 0.279942
Si Si4 0.389675 0.194361 0.832624
Si Si5 0.818601 0.403540 0.436718
Si Si6 0.360803 0.463019 0.198049
Si Si7 0.051384 0.937655 0.053287
O O1 0.746670 0.513140 0.236459
O O2 0.765859 0.343960 0.385684
O O3 0.681872 0.259221 0.305468
O O4 0.836521 0.152277 0.485398
O O5 0.857564 0.882747 0.616060
O O6 0.909845 0.829131 0.500011
O O7 0.819495 0.653186 0.490447
O O8 0.500000 0.155211 0.250000
O O9 0.416357 0.369795 0.219241
O O10 0.457078 0.251323 0.375382
O O11 0.421122 0.930660 0.271853
O O12 0.352853 0.375672 0.776013
O O13 0.426853 0.312273 0.905601
O O14 0.354237 0.018148 0.873410
O O15 0.000000 0.000000 0.000000
#
# Coordination Sequence:
#
# PCOD8146330 Si02
#       7
#     8   8   8   8   8   8   8
#     4  12  25  42  76 103 136 184 236 283 344 412
#     4  11  25  43  68  98 146 177 225 288 345 407
#     4  11  23  41  68  98 133 178 237 282 337 415
#     4  10  22  43  66  93 134 182 227 284 335 423
#     4  11  23  45  67 101 134 184 225 280 346 406
#     4  11  26  43  68 102 137 180 233 288 342 411
#     4  10  22  41  62  93 134 179 227 280 351 399
#
# _framework density 22.579184999999999
#
# number of rings (size 3 to 8) (size 9 to 14) (size 15 to 20)
#    0.000    1.143    2.857    2.571    4.000    5.143 
#    0.000    0.000    0.000    0.000    0.000    0.000 
#    0.000    0.000    0.000    0.000    0.000    0.000 
#
# Total GULP energy -346967.836412 kJ/mol
# GULP energy per Si atom -12391.708443 kJ/mol
# Density = 2.252779 g / cm^3
# Si number density = 22.579185 Si / 1000 Ang^3
#
#
#
# Elastic Constant Matrix: (Units=GPa)
#
#
# Indices 1 2 3 4 5 6 
#
# 1 74.2009 -1.8407 30.0093 0.0000 2.7697 0.0000
# 2 -1.8407 85.5269 12.6297 0.0000 4.4332 0.0000
# 3 30.0093 12.6297 107.7891 0.0000 23.9636 0.0000
# 4 0.0000 0.0000 0.0000 -8.4046 0.0000 -11.8167
# 5 2.7697 4.4332 23.9636 0.0000 31.7634 0.0000
# 6 0.0000 0.0000 0.0000 -11.8167 0.0000 23.0389
#
#
#
# Elastic Compliance Matrix: (Units=1/GPa)
#
#
# Indices 1 2 3 4 5 6 
#
# 1 0.015394 0.000938 -0.004888 0.000000 0.002215 0.000000
# 2 0.000938 0.011969 -0.001531 0.000000 -0.000597 0.000000
# 3 -0.004888 -0.001531 0.012827 0.000000 -0.009037 0.000000
# 4 0.000000 0.000000 0.000000 -0.069130 0.000000 -0.035457
# 5 0.002215 -0.000597 -0.009037 0.000000 0.038191 0.000000
# 6 0.000000 0.000000 0.000000 -0.035457 0.000000 0.025219
#
#
# Mechanical properties :
#
#
# Convention : Reuss Voigt Hill
#
# Bulk Modulus (GPa) = 34.21230 38.79039 36.50135
# Shear Modulus (GPa) = 90.62059 24.39410 57.50735
#
# Velocity S-wave (km/s) = 6.34206 3.29048 5.05218
# Velocity P-wave (km/s) = 8.29542 5.62613 7.08757
#
# Compressibility (1/GPa) = 0.02922925
#
# Stress axis : x y z
#
# Youngs Moduli (GPa) = 64.95828 83.54596 77.96172
#
# Poissons Ratio (x) = -0.07840 0.38109
# Poissons Ratio (y) = -0.06095 0.11935
# Poissons Ratio (z) = 0.31753 0.12790
#
# Static dielectric constant tensor:
#      x y z
#    x 4.093260 0.000000 0.076210 
#    y 0.000000 4.370380 0.000000 
#    z 0.076210 0.000000 4.141670 
# 
# 
# High freq. dielectric constant tensor:
#      x y z
#    x 1.894790 0.000000 0.008780 
#    y 0.000000 1.883660 0.000000 
#    z 0.008780 0.000000 1.897680 
# 
# From -- ./inp_files/221218.got.cif
#   From: 2010.06.25/outbox.cif.g09.slc.cpg/sg15_111_cif.got.tgz:221218.got - 2010.06.28 07:06:18.
