data_PCOD8146786
_publ_section_title
;
Structure prediction by ZEFSAII (Michael W. Deem and Ramdas Pophale) SiO2 
 PCOD8146786
Probable space group: C 2/C
;
_chemical_formula_sum "Si O2"
_cell_formula_units_Z 60
_cell_length_a 10.841643
_cell_length_b 9.058769
_cell_length_c 27.920678
_cell_angle_alpha 90.000000
_cell_angle_beta 88.370409
_cell_angle_gamma 90.000000
_cell_volume 2741.034910
_symmetry_space_group_name_H-M "C 2/C"
_symmetry_group_IT_number 15
_symmetry_cell_setting 'monoclinic'
loop_
_space_group_symop_operation_xyz
x,y,z
-x,y,1/2-z
-x,-y,-z
x,-y,1/2+z
1/2+x,1/2+y,z
1/2-x,1/2+y,1/2-z
1/2-x,1/2-y,-z
1/2+x,1/2-y,1/2+z
loop_
_atom_site_type_symbol
_atom_site_label
_atom_site_fract_x
_atom_site_fract_y
_atom_site_fract_z
Si Si1 0.300374 0.571589 0.222030
Si Si2 0.058262 0.347324 0.016376
Si Si3 0.792430 0.212652 0.857351
Si Si4 0.073099 0.174225 0.840764
Si Si5 0.872853 0.500934 0.692329
Si Si6 0.177041 0.808978 0.955405
Si Si7 0.000000 0.286414 0.250000
Si Si8 0.182471 0.863048 0.441216
O O1 0.227878 0.662960 0.182454
O O2 0.389595 0.447387 0.198649
O O3 0.204763 0.491143 0.257599
O O4 0.379800 0.682505 0.254227
O O5 0.102291 0.260770 0.968700
O O6 0.171315 0.356235 0.051673
O O7 0.000000 0.500000 0.000000
O O8 0.953692 0.269068 0.048564
O O9 0.762924 0.283680 0.908704
O O10 0.931160 0.151384 0.856462
O O11 0.705365 0.070043 0.850301
O O12 0.085244 0.337262 0.819375
O O13 0.160989 0.154267 0.885230
O O14 0.989564 0.608831 0.702534
O O15 0.141122 0.979302 0.961811
O O16 0.250000 0.750000 0.000000
#
# Coordination Sequence:
#
# PCOD8146786 Si02
#       8
#     8   8   8   8   8   8   4   8
#     4  11  23  46  65  99 136 183 233 287 350 414
#     4  11  25  46  73 101 143 181 237 293 355 425
#     4  11  26  43  67 104 138 185 235 285 362 421
#     4  12  25  43  71 101 144 178 239 290 349 429
#     4  11  25  42  69  99 136 186 230 290 353 413
#     4  12  24  46  73  99 145 188 235 294 354 430
#     4  10  22  42  64  92 130 172 226 274 344 404
#     4  11  26  45  69 107 135 191 232 294 362 420
#
# _framework density 21.889541999999999
#
# number of rings (size 3 to 8) (size 9 to 14) (size 15 to 20)
#    0.000    0.800    2.667    4.400    1.867    2.667 
#    9.600    0.000    0.000    0.000    0.000    0.000 
#    0.000    0.000    0.000    0.000    0.000    0.000 
#
# Total GULP energy -372085.730776 kJ/mol
# GULP energy per Si atom -12402.857693 kJ/mol
# Density = 2.183972 g / cm^3
# Si number density = 21.889542 Si / 1000 Ang^3
#
#
#
# Elastic Constant Matrix: (Units=GPa)
#
#
# Indices 1 2 3 4 5 6 
#
# 1 119.6787 51.3167 47.5880 0.0000 8.7309 0.0000
# 2 51.3167 152.2121 41.7530 0.0000 10.1311 0.0000
# 3 47.5880 41.7530 106.9106 0.0000 14.7919 0.0000
# 4 0.0000 0.0000 0.0000 35.0350 0.0000 -2.0575
# 5 8.7309 10.1311 14.7919 0.0000 31.3018 0.0000
# 6 0.0000 0.0000 0.0000 -2.0575 0.0000 37.3027
#
#
#
# Elastic Compliance Matrix: (Units=1/GPa)
#
#
# Indices 1 2 3 4 5 6 
#
# 1 0.011041 -0.002646 -0.003824 0.000000 -0.000416 0.000000
# 2 -0.002646 0.008027 -0.001819 0.000000 -0.001001 0.000000
# 3 -0.003824 -0.001819 0.012344 0.000000 -0.004178 0.000000
# 4 0.000000 0.000000 0.000000 0.028636 0.000000 0.001579
# 5 -0.000416 -0.001001 -0.004178 0.000000 0.034361 0.000000
# 6 0.000000 0.000000 0.000000 0.001579 0.000000 0.026895
#
#
# Mechanical properties :
#
#
# Convention : Reuss Voigt Hill
#
# Bulk Modulus (GPa) = 67.40506 73.34631 70.37569
# Shear Modulus (GPa) = 35.00767 36.60416 35.80592
#
# Velocity S-wave (km/s) = 4.00345 4.09372 4.04883
# Velocity P-wave (km/s) = 7.22705 7.47830 7.35375
#
# Compressibility (1/GPa) = 0.01483568
#
# Stress axis : x y z
#
# Youngs Moduli (GPa) = 90.57183 124.57480 81.01107
#
# Poissons Ratio (x) = 0.32960 0.30976
# Poissons Ratio (y) = 0.23963 0.14735
# Poissons Ratio (z) = 0.34631 0.22659
#
# Static dielectric constant tensor:
#      x y z
#    x 4.099310 0.000000 0.161690 
#    y 0.000000 4.225810 0.000000 
#    z 0.161690 0.000000 3.803270 
# 
# 
# High freq. dielectric constant tensor:
#      x y z
#    x 1.872390 0.000000 0.014470 
#    y 0.000000 1.883640 0.000000 
#    z 0.014470 0.000000 1.851090 
# 
# From -- ./inp_files/291579.got.cif
#   From: 2010.06.25/outbox.cif.g09.slc.cpg/sg15_146_cif.got.tgz:291579.got - 2010.06.28 07:06:18.
