data_PCOD8146864
_publ_section_title
;
Structure prediction by ZEFSAII (Michael W. Deem and Ramdas Pophale) SiO2 
 PCOD8146864
Probable space group: C 2/C
;
_chemical_formula_sum "Si O2"
_cell_formula_units_Z 52
_cell_length_a 12.279053
_cell_length_b 7.488407
_cell_length_c 26.701025
_cell_angle_alpha 90.000000
_cell_angle_beta 124.775347
_cell_angle_gamma 90.000000
_cell_volume 2016.666773
_symmetry_space_group_name_H-M "C 2/C"
_symmetry_group_IT_number 15
_symmetry_cell_setting 'monoclinic'
loop_
_space_group_symop_operation_xyz
x,y,z
-x,y,1/2-z
-x,-y,-z
x,-y,1/2+z
1/2+x,1/2+y,z
1/2-x,1/2+y,1/2-z
1/2-x,1/2-y,-z
1/2+x,1/2-y,1/2+z
loop_
_atom_site_type_symbol
_atom_site_label
_atom_site_fract_x
_atom_site_fract_y
_atom_site_fract_z
Si Si1 0.566153 0.318714 0.112597
Si Si2 0.790578 0.166825 0.241084
Si Si3 0.845224 0.583055 0.024186
Si Si4 0.000000 0.416271 0.250000
Si Si5 0.829836 0.992810 0.606055
Si Si6 0.348670 0.700439 0.707651
Si Si7 0.694396 0.093061 0.881059
O O1 0.658008 0.217523 0.176338
O O2 0.494041 0.158405 0.062837
O O3 0.461927 0.454717 0.110331
O O4 0.652826 0.430715 0.095214
O O5 0.750550 0.161655 0.289968
O O6 0.907641 0.306677 0.263322
O O7 0.847967 0.974196 0.242985
O O8 0.824799 0.462103 0.067440
O O9 0.750000 0.750000 0.000000
O O10 0.801128 0.472928 0.963460
O O11 0.100738 0.518645 0.316763
O O12 0.848682 0.801882 0.637913
O O13 0.801590 0.148102 0.639534
O O14 0.500000 0.777551 0.750000
#
# Coordination Sequence:
#
# PCOD8146864 Si02
#       7
#     8   8   8   4   8   8   8
#     4  10  23  44  65  97 137 178 224 283 342 394
#     4  11  23  43  70  95 141 178 217 291 346 404
#     4  10  25  46  66 100 140 177 235 286 328 412
#     4  10  22  42  66 102 132 172 228 278 334 414
#     4  11  22  44  70  96 138 179 228 282 338 414
#     4  12  23  46  66 102 138 179 227 287 350 417
#     4  11  23  45  71  98 138 182 227 282 344 404
#
# _framework density 25.785122000000001
#
# number of rings (size 3 to 8) (size 9 to 14) (size 15 to 20)
#    0.000    1.231    5.385    0.462    2.154    3.077 
#   12.462    6.154    0.000    0.000    0.000    0.000 
#    0.000    0.000    0.000    0.000    0.000    0.000 
#
# Total GULP energy -322365.837177 kJ/mol
# GULP energy per Si atom -12398.686045 kJ/mol
# Density = 2.572643 g / cm^3
# Si number density = 25.785122 Si / 1000 Ang^3
#
#
#
# Elastic Constant Matrix: (Units=GPa)
#
#
# Indices 1 2 3 4 5 6 
#
# 1 157.8082 21.4673 68.3243 0.0000 -2.4228 0.0000
# 2 21.4673 52.0639 23.0941 0.0000 -0.8441 0.0000
# 3 68.3243 23.0941 177.1494 0.0000 -3.2837 0.0000
# 4 0.0000 0.0000 0.0000 39.1726 0.0000 -4.7932
# 5 -2.4228 -0.8441 -3.2837 0.0000 38.7148 0.0000
# 6 0.0000 0.0000 0.0000 -4.7932 0.0000 37.6546
#
#
#
# Elastic Compliance Matrix: (Units=1/GPa)
#
#
# Indices 1 2 3 4 5 6 
#
# 1 0.007800 -0.001995 -0.002744 0.000000 0.000212 0.000000
# 2 -0.001995 0.020898 -0.001952 0.000000 0.000165 0.000000
# 3 -0.002744 -0.001952 0.006965 0.000000 0.000376 0.000000
# 4 0.000000 0.000000 0.000000 0.025932 0.000000 0.003301
# 5 0.000212 0.000165 0.000376 0.000000 0.025879 0.000000
# 6 0.000000 0.000000 0.000000 0.003301 0.000000 0.026977
#
#
# Mechanical properties :
#
#
# Convention : Reuss Voigt Hill
#
# Bulk Modulus (GPa) = 44.88293 68.08808 56.48550
# Shear Modulus (GPa) = 36.96586 41.38413 39.17500
#
# Velocity S-wave (km/s) = 3.79041 4.01054 3.90203
# Velocity P-wave (km/s) = 6.04985 6.92165 6.50038
#
# Compressibility (1/GPa) = 0.02228019
#
# Stress axis : x y z
#
# Youngs Moduli (GPa) = 128.21184 47.85073 143.57992
#
# Poissons Ratio (x) = 0.09548 0.39401
# Poissons Ratio (y) = 0.25582 0.28024
# Poissons Ratio (z) = 0.35183 0.09339
#
# Static dielectric constant tensor:
#      x y z
#    x 5.119080 0.000000 0.150340 
#    y 0.000000 4.856200 0.000000 
#    z 0.150340 0.000000 5.517720 
# 
# 
# High freq. dielectric constant tensor:
#      x y z
#    x 2.042050 0.000000 -0.001470 
#    y 0.000000 2.046390 0.000000 
#    z -0.001470 0.000000 2.039200 
# 
# From -- ./inp_files/291708.got.cif
#   From: 2010.06.25/outbox.cif.g09.slc.cpg/sg15_146_cif.got.tgz:291708.got - 2010.06.28 07:06:18.
