data_PCOD8146747
_publ_section_title
;
Structure prediction by ZEFSAII (Michael W. Deem and Ramdas Pophale) SiO2 
 PCOD8146747
Probable space group: C 2/C
;
_chemical_formula_sum "Si O2"
_cell_formula_units_Z 44
_cell_length_a 8.632211
_cell_length_b 22.583873
_cell_length_c 13.557251
_cell_angle_alpha 90.000000
_cell_angle_beta 130.961415
_cell_angle_gamma 90.000000
_cell_volume 1995.841445
_symmetry_space_group_name_H-M "C 2/C"
_symmetry_group_IT_number 15
_symmetry_cell_setting 'monoclinic'
loop_
_space_group_symop_operation_xyz
x,y,z
-x,y,1/2-z
-x,-y,-z
x,-y,1/2+z
1/2+x,1/2+y,z
1/2-x,1/2+y,1/2-z
1/2-x,1/2-y,-z
1/2+x,1/2-y,1/2+z
loop_
_atom_site_type_symbol
_atom_site_label
_atom_site_fract_x
_atom_site_fract_y
_atom_site_fract_z
Si Si1 0.447017 0.717502 0.538520
Si Si2 0.122730 0.582021 0.578004
Si Si3 0.374573 0.028127 0.296819
Si Si4 0.000000 0.157295 0.750000
Si Si5 0.186730 0.676563 0.068819
Si Si6 0.376213 0.360505 0.833923
O O1 0.250000 0.750000 0.500000
O O2 0.578140 0.695853 0.688489
O O3 0.590541 0.757063 0.524150
O O4 0.360733 0.662084 0.439204
O O5 0.190233 0.537072 0.693152
O O6 0.322190 0.617784 0.629477
O O7 0.032288 0.551066 0.444380
O O8 0.959106 0.630293 0.548891
O O9 0.500000 0.022177 0.250000
O O10 0.169013 0.068352 0.193300
O O11 0.407762 0.662760 0.116847
O O12 0.195112 0.666691 0.190905
#
# Coordination Sequence:
#
# PCOD8146747 Si02
#       6
#     8   8   8   4   8   8
#     4  12  23  40  66  94 131 170 211 264 322 390
#     4  10  23  41  63  93 130 163 215 273 319 374
#     4  10  22  42  68  91 124 173 221 267 319 383
#     4  12  24  40  62 100 128 170 214 264 324 390
#     4  10  22  42  63  95 131 166 212 267 327 381
#     4  10  23  41  67  93 128 174 214 263 328 386
#
# _framework density 22.045839999999998
#
# number of rings (size 3 to 8) (size 9 to 14) (size 15 to 20)
#    0.000    1.455    1.818    2.727    2.545    5.818 
#    0.000    2.727    0.000    0.000    0.000    0.000 
#    0.000    0.000    0.000    0.000    0.000    0.000 
#
# Total GULP energy -272553.299184 kJ/mol
# GULP energy per Si atom -12388.786327 kJ/mol
# Density = 2.199566 g / cm^3
# Si number density = 22.045840 Si / 1000 Ang^3
#
#
#
# Elastic Constant Matrix: (Units=GPa)
#
#
# Indices 1 2 3 4 5 6 
#
# 1 100.7219 48.0572 37.4934 0.0000 -0.2860 0.0000
# 2 48.0572 143.4003 57.0079 0.0000 -6.7195 0.0000
# 3 37.4934 57.0079 85.7721 0.0000 -7.2407 0.0000
# 4 0.0000 0.0000 0.0000 34.8333 0.0000 5.5627
# 5 -0.2860 -6.7195 -7.2407 0.0000 38.1247 0.0000
# 6 0.0000 0.0000 0.0000 5.5627 0.0000 12.7160
#
#
#
# Elastic Compliance Matrix: (Units=1/GPa)
#
#
# Indices 1 2 3 4 5 6 
#
# 1 0.012663 -0.002797 -0.003770 0.000000 -0.001114 0.000000
# 2 -0.002797 0.010104 -0.005432 0.000000 0.000728 0.000000
# 3 -0.003770 -0.005432 0.017108 0.000000 0.002264 0.000000
# 4 0.000000 0.000000 0.000000 0.030864 0.000000 -0.013502
# 5 -0.001114 0.000728 0.002264 0.000000 0.026780 0.000000
# 6 0.000000 0.000000 0.000000 -0.013502 0.000000 0.084547
#
#
# Mechanical properties :
#
#
# Convention : Reuss Voigt Hill
#
# Bulk Modulus (GPa) = 62.98242 68.33459 65.65851
# Shear Modulus (GPa) = 23.65656 29.62384 26.64020
#
# Velocity S-wave (km/s) = 3.27932 3.66968 3.47998
# Velocity P-wave (km/s) = 6.55511 7.00138 6.78191
#
# Compressibility (1/GPa) = 0.01587745
#
# Stress axis : x y z
#
# Youngs Moduli (GPa) = 78.96859 98.96788 58.45173
#
# Poissons Ratio (x) = 0.27682 0.22039
# Poissons Ratio (y) = 0.22088 0.31749
# Poissons Ratio (z) = 0.29775 0.53755
#
# Static dielectric constant tensor:
#      x y z
#    x 3.683850 0.000000 -0.181280 
#    y 0.000000 4.377770 0.000000 
#    z -0.181280 0.000000 4.517350 
# 
# 
# High freq. dielectric constant tensor:
#      x y z
#    x 1.851210 0.000000 -0.003530 
#    y 0.000000 1.873710 0.000000 
#    z -0.003530 0.000000 1.871430 
# 
# From -- ./inp_files/137574.got.cif
#   From: 2010.06.25/outbox.cif.g09.slc.cpg/sg15_69_cif.got.tgz:137574.got - 2010.06.28 07:06:18.
