data_PCOD8146656
_publ_section_title
;
Structure prediction by ZEFSAII (Michael W. Deem and Ramdas Pophale) SiO2 
 PCOD8146656
Probable space group: C 2/C
;
_chemical_formula_sum "Si O2"
_cell_formula_units_Z 56
_cell_length_a 17.934369
_cell_length_b 11.155432
_cell_length_c 14.789733
_cell_angle_alpha 90.000000
_cell_angle_beta 61.580802
_cell_angle_gamma 90.000000
_cell_volume 2602.335688
_symmetry_space_group_name_H-M "C 2/C"
_symmetry_group_IT_number 15
_symmetry_cell_setting 'monoclinic'
loop_
_space_group_symop_operation_xyz
x,y,z
-x,y,1/2-z
-x,-y,-z
x,-y,1/2+z
1/2+x,1/2+y,z
1/2-x,1/2+y,1/2-z
1/2-x,1/2-y,-z
1/2+x,1/2-y,1/2+z
loop_
_atom_site_type_symbol
_atom_site_label
_atom_site_fract_x
_atom_site_fract_y
_atom_site_fract_z
Si Si1 0.986640 0.964565 0.405223
Si Si2 0.212742 0.712135 0.665917
Si Si3 0.820808 0.839322 0.422673
Si Si4 0.555680 0.885952 0.981430
Si Si5 0.371074 0.720548 0.702486
Si Si6 0.222541 0.423227 0.987844
Si Si7 0.969120 0.776616 0.674030
O O1 0.901365 0.883589 0.437965
O O2 0.068040 0.891776 0.329964
O O3 0.000000 0.000000 0.500000
O O4 0.994712 0.087426 0.343526
O O5 0.287798 0.690959 0.692781
O O6 0.210246 0.592418 0.604012
O O7 0.224698 0.815694 0.585761
O O8 0.131101 0.749311 0.772169
O O9 0.750000 0.750000 0.500000
O O10 0.850896 0.762018 0.319084
O O11 0.772430 0.960272 0.427754
O O12 0.584395 0.837154 0.866681
O O13 0.631488 0.933121 0.997244
O O14 0.507803 0.780993 0.061839
O O15 0.500000 0.000000 0.000000
O O16 0.000000 0.715779 0.750000
#
# Coordination Sequence:
#
# PCOD8146656 Si02
#       7
#     8   8   8   8   8   8   8
#     4  12  25  46  78 103 142 192 244 299 366 448
#     4  10  22  41  74 101 133 180 243 300 356 423
#     4  12  29  46  71 106 149 188 237 306 379 443
#     4  11  26  44  68 100 145 191 235 300 369 441
#     4  11  25  46  68 102 143 185 236 301 371 436
#     4  10  22  45  66 101 138 177 236 298 355 430
#     4  12  23  44  74 105 135 187 251 298 350 434
#
# _framework density 21.519131000000002
#
# number of rings (size 3 to 8) (size 9 to 14) (size 15 to 20)
#    0.000    0.857    2.857    3.857    8.000    1.143 
#    2.571    0.000    0.000    0.000    0.000    0.000 
#    0.000    0.000    0.000    0.000    0.000    0.000 
#
# Total GULP energy -346941.332232 kJ/mol
# GULP energy per Si atom -12390.761865 kJ/mol
# Density = 2.147015 g / cm^3
# Si number density = 21.519131 Si / 1000 Ang^3
#
#
#
# Elastic Constant Matrix: (Units=GPa)
#
#
# Indices 1 2 3 4 5 6 
#
# 1 117.4578 73.8014 77.1176 0.0000 -17.9236 0.0000
# 2 73.8014 91.4252 37.6616 0.0000 -0.9266 0.0000
# 3 77.1176 37.6616 141.7907 0.0000 3.2845 0.0000
# 4 0.0000 0.0000 0.0000 25.1441 0.0000 -4.9154
# 5 -17.9236 -0.9266 3.2845 0.0000 38.3947 0.0000
# 6 0.0000 0.0000 0.0000 -4.9154 0.0000 33.5348
#
#
#
# Elastic Compliance Matrix: (Units=1/GPa)
#
#
# Indices 1 2 3 4 5 6 
#
# 1 0.031617 -0.020366 -0.012141 0.000000 0.015307 0.000000
# 2 -0.020366 0.025413 0.004542 0.000000 -0.009282 0.000000
# 3 -0.012141 0.004542 0.012603 0.000000 -0.006636 0.000000
# 4 0.000000 0.000000 0.000000 0.040944 0.000000 0.006001
# 5 0.015307 -0.009282 -0.006636 0.000000 0.033534 0.000000
# 6 0.000000 0.000000 0.000000 0.006001 0.000000 0.030699
#
#
# Mechanical properties :
#
#
# Convention : Reuss Voigt Hill
#
# Bulk Modulus (GPa) = 72.97793 80.87053 76.92423
# Shear Modulus (GPa) = 21.24862 30.22092 25.73477
#
# Velocity S-wave (km/s) = 3.14575 3.75156 3.46193
# Velocity P-wave (km/s) = 6.86884 7.51186 7.19753
#
# Compressibility (1/GPa) = 0.01370277
#
# Stress axis : x y z
#
# Youngs Moduli (GPa) = 31.62850 39.35010 79.34360
#
# Poissons Ratio (x) = 0.80140 0.96332
# Poissons Ratio (y) = 0.64414 -0.36035
# Poissons Ratio (z) = 0.38401 -0.17871
#
# Static dielectric constant tensor:
#      x y z
#    x 4.494660 0.000000 -0.092050 
#    y 0.000000 3.936140 0.000000 
#    z -0.092050 0.000000 4.174610 
# 
# 
# High freq. dielectric constant tensor:
#      x y z
#    x 1.858660 0.000000 -0.008000 
#    y 0.000000 1.836200 0.000000 
#    z -0.008000 0.000000 1.859240 
# 
# From -- ./inp_files/161239.got.cif
#   From: 2010.06.25/outbox.cif.g09.slc.cpg/sg15_81_cif.got.tgz:161239.got - 2010.06.28 07:06:18.
