data_PCOD8146126
_publ_section_title
;
Structure prediction by ZEFSAII (Michael W. Deem and Ramdas Pophale) SiO2 
 PCOD8146126
Probable space group: C 2/C
;
_chemical_formula_sum "Si O2"
_cell_formula_units_Z 52
_cell_length_a 13.955249
_cell_length_b 5.720255
_cell_length_c 28.186200
_cell_angle_alpha 90.000000
_cell_angle_beta 105.305674
_cell_angle_gamma 90.000000
_cell_volume 2170.230317
_symmetry_space_group_name_H-M "C 2/C"
_symmetry_group_IT_number 15
_symmetry_cell_setting 'monoclinic'
loop_
_space_group_symop_operation_xyz
x,y,z
-x,y,1/2-z
-x,-y,-z
x,-y,1/2+z
1/2+x,1/2+y,z
1/2-x,1/2+y,1/2-z
1/2-x,1/2-y,-z
1/2+x,1/2-y,1/2+z
loop_
_atom_site_type_symbol
_atom_site_label
_atom_site_fract_x
_atom_site_fract_y
_atom_site_fract_z
Si Si1 0.158271 0.718377 0.128400
Si Si2 0.477917 0.028958 0.647624
Si Si3 0.508720 0.402612 0.582926
Si Si4 0.856384 0.285706 0.557922
Si Si5 0.500000 0.189753 0.750000
Si Si6 0.645030 0.908853 0.040743
Si Si7 0.285832 0.685003 0.232396
O O1 0.105590 0.965983 0.115914
O O2 0.177027 0.628380 0.077086
O O3 0.257808 0.727890 0.173169
O O4 0.089033 0.541289 0.148214
O O5 0.459092 0.282631 0.622436
O O6 0.466116 0.023300 0.702474
O O7 0.397426 0.856376 0.614513
O O8 0.421186 0.560929 0.549189
O O9 0.547726 0.218165 0.549053
O O10 0.739633 0.261572 0.550029
O O11 0.876550 0.474022 0.517657
O O12 0.594884 0.346083 0.747695
O O13 0.244156 0.433297 0.245631
#
# Coordination Sequence:
#
# PCOD8146126 Si02
#       7
#     8   8   8   8   4   8   8
#     4  10  23  44  67  98 139 178 231 296 356 425
#     4  10  23  45  64 100 133 178 239 286 359 431
#     4  10  22  40  67  92 132 177 225 289 348 426
#     4  10  23  41  65  99 135 173 233 285 349 438
#     4  12  26  46  76 104 142 202 242 310 378 434
#     4  10  23  41  65  98 134 180 224 286 358 425
#     4  12  28  50  76 110 150 194 251 313 365 446
#
# _framework density 23.960588999999999
#
# number of rings (size 3 to 8) (size 9 to 14) (size 15 to 20)
#    0.000    1.538    1.538    1.385    6.462    7.385 
#    2.769    3.077    0.000    0.000    0.000    0.000 
#    0.000    0.000    0.000    0.000    0.000    0.000 
#
# Total GULP energy -322143.856990 kJ/mol
# GULP energy per Si atom -12390.148346 kJ/mol
# Density = 2.390605 g / cm^3
# Si number density = 23.960589 Si / 1000 Ang^3
#
#
#
# Elastic Constant Matrix: (Units=GPa)
#
#
# Indices 1 2 3 4 5 6 
#
# 1 102.6776 14.6976 22.9666 0.0000 8.5886 0.0000
# 2 14.6976 59.7474 -14.0763 0.0000 -6.4959 0.0000
# 3 22.9666 -14.0763 107.6110 0.0000 -9.4968 0.0000
# 4 0.0000 0.0000 0.0000 28.5906 0.0000 -0.5210
# 5 8.5886 -6.4959 -9.4968 0.0000 37.4373 0.0000
# 6 0.0000 0.0000 0.0000 -0.5210 0.0000 6.1797
#
#
#
# Elastic Compliance Matrix: (Units=1/GPa)
#
#
# Indices 1 2 3 4 5 6 
#
# 1 0.011412 -0.004045 -0.003332 0.000000 -0.004165 0.000000
# 2 -0.004045 0.019205 0.003837 0.000000 0.005234 0.000000
# 3 -0.003332 0.003837 0.010876 0.000000 0.004189 0.000000
# 4 0.000000 0.000000 0.000000 0.035030 0.000000 0.002953
# 5 -0.004165 0.005234 0.004189 0.000000 0.029638 0.000000
# 6 0.000000 0.000000 0.000000 0.002953 0.000000 0.162069
#
#
# Mechanical properties :
#
#
# Convention : Reuss Voigt Hill
#
# Bulk Modulus (GPa) = 29.05897 35.24572 32.15235
# Shear Modulus (GPa) = 17.43491 30.87140 24.15315
#
# Velocity S-wave (km/s) = 2.70042 3.59336 3.17840
# Velocity P-wave (km/s) = 4.67731 5.65315 5.18822
#
# Compressibility (1/GPa) = 0.03441278
#
# Stress axis : x y z
#
# Youngs Moduli (GPa) = 87.62667 52.06870 91.94903
#
# Poissons Ratio (x) = 0.21063 0.30640
# Poissons Ratio (y) = 0.35447 -0.35285
# Poissons Ratio (z) = 0.29200 -0.19981
#
# Static dielectric constant tensor:
#      x y z
#    x 4.254450 0.000000 0.093630 
#    y 0.000000 4.151360 0.000000 
#    z 0.093630 0.000000 4.682060 
# 
# 
# High freq. dielectric constant tensor:
#      x y z
#    x 1.951870 0.000000 0.010170 
#    y 0.000000 1.927040 0.000000 
#    z 0.010170 0.000000 1.966060 
# 
# From -- ./inp_files/312309.got.cif
#   From: 2010.06.25/outbox.cif.g09.slc.cpg/sg15_157_cif.got.tgz:312309.got - 2010.06.28 07:06:18.
