data_PCOD8146757
_publ_section_title
;
Structure prediction by ZEFSAII (Michael W. Deem and Ramdas Pophale) SiO2 
 PCOD8146757
Probable space group: C 2/C
;
_chemical_formula_sum "Si O2"
_cell_formula_units_Z 60
_cell_length_a 12.877203
_cell_length_b 28.949483
_cell_length_c 8.389849
_cell_angle_alpha 90.000000
_cell_angle_beta 109.672793
_cell_angle_gamma 90.000000
_cell_volume 2945.079482
_symmetry_space_group_name_H-M "C 2/C"
_symmetry_group_IT_number 15
_symmetry_cell_setting 'monoclinic'
loop_
_space_group_symop_operation_xyz
x,y,z
-x,y,1/2-z
-x,-y,-z
x,-y,1/2+z
1/2+x,1/2+y,z
1/2-x,1/2+y,1/2-z
1/2-x,1/2-y,-z
1/2+x,1/2-y,1/2+z
loop_
_atom_site_type_symbol
_atom_site_label
_atom_site_fract_x
_atom_site_fract_y
_atom_site_fract_z
Si Si1 0.947072 0.146468 0.564141
Si Si2 0.766466 0.701600 0.090064
Si Si3 0.000000 0.658469 0.750000
Si Si4 0.192087 0.941630 0.498696
Si Si5 0.804757 0.296375 0.963378
Si Si6 0.333857 0.373688 0.469661
Si Si7 0.669593 0.124758 0.602243
Si Si8 0.368358 0.538149 0.178361
O O1 0.852970 0.178817 0.442542
O O2 0.900594 0.096233 0.587390
O O3 0.000000 0.169153 0.750000
O O4 0.038451 0.140452 0.474997
O O5 0.830104 0.709039 0.289421
O O6 0.750000 0.750000 0.000000
O O7 0.841049 0.669419 0.016084
O O8 0.060390 0.623842 0.655940
O O9 0.915825 0.692553 0.617669
O O10 0.310748 0.920991 0.497484
O O11 0.191801 0.951571 0.686157
O O12 0.165197 0.987095 0.387222
O O13 0.750000 0.250000 0.000000
O O14 0.721556 0.339089 0.934886
O O15 0.277659 0.369440 0.268123
O O16 0.320692 0.425814 0.525984
O O17 0.500000 0.542237 0.250000
#
# Coordination Sequence:
#
# PCOD8146757 Si02
#       8
#     8   8   4   8   8   8   8   8
#     4  11  21  37  62  89 133 171 207 254 325 396
#     4  11  23  40  60  94 129 165 216 265 324 392
#     4  10  24  48  68  90 122 174 220 280 332 378
#     4  11  22  36  57  93 133 176 215 264 322 403
#     4  11  26  44  66  95 127 168 221 270 328 389
#     4  11  21  38  60  91 128 170 205 261 321 392
#     4  10  22  42  64  86 125 168 223 267 325 384
#     4  12  23  33  59  95 140 174 213 260 337 395
#
# _framework density 20.372965000000001
#
# number of rings (size 3 to 8) (size 9 to 14) (size 15 to 20)
#    0.000    1.067    4.000    4.800    0.000    2.667 
#    0.000    0.000    0.000    7.200    0.000    0.000 
#    0.000    0.000    0.000    0.000    0.000    0.000 
#
# Total GULP energy -371998.641009 kJ/mol
# GULP energy per Si atom -12399.954700 kJ/mol
# Density = 2.032660 g / cm^3
# Si number density = 20.372965 Si / 1000 Ang^3
#
#
#
# Elastic Constant Matrix: (Units=GPa)
#
#
# Indices 1 2 3 4 5 6 
#
# 1 133.2334 49.4984 42.3951 0.0000 -15.9136 0.0000
# 2 49.4984 135.0101 43.3924 0.0000 -5.4534 0.0000
# 3 42.3951 43.3924 121.3821 0.0000 -19.6891 0.0000
# 4 0.0000 0.0000 0.0000 36.4594 0.0000 -8.3929
# 5 -15.9136 -5.4534 -19.6891 0.0000 33.5620 0.0000
# 6 0.0000 0.0000 0.0000 -8.3929 0.0000 24.9133
#
#
#
# Elastic Compliance Matrix: (Units=1/GPa)
#
#
# Indices 1 2 3 4 5 6 
#
# 1 0.009471 -0.002761 -0.001840 0.000000 0.002962 0.000000
# 2 -0.002761 0.009179 -0.002528 0.000000 -0.001301 0.000000
# 3 -0.001840 -0.002528 0.010584 0.000000 0.004926 0.000000
# 4 0.000000 0.000000 0.000000 0.029734 0.000000 0.010017
# 5 0.002962 -0.001301 0.004926 0.000000 0.033879 0.000000
# 6 0.000000 0.000000 0.000000 0.010017 0.000000 0.043514
#
#
# Mechanical properties :
#
#
# Convention : Reuss Voigt Hill
#
# Bulk Modulus (GPa) = 66.77799 73.35527 70.06663
# Shear Modulus (GPa) = 32.13150 35.94290 34.03720
#
# Velocity S-wave (km/s) = 3.97566 4.20485 4.09186
# Velocity P-wave (km/s) = 7.34326 7.72390 7.53598
#
# Compressibility (1/GPa) = 0.01497499
#
# Stress axis : x y z
#
# Youngs Moduli (GPa) = 105.58706 108.94267 94.48298
#
# Poissons Ratio (x) = 0.30081 0.17388
# Poissons Ratio (y) = 0.29154 0.23886
# Poissons Ratio (z) = 0.19431 0.27541
#
# Static dielectric constant tensor:
#      x y z
#    x 3.813470 0.000000 -0.229060 
#    y 0.000000 4.337990 0.000000 
#    z -0.229060 0.000000 3.644210 
# 
# 
# High freq. dielectric constant tensor:
#      x y z
#    x 1.783740 0.000000 -0.024170 
#    y 0.000000 1.795620 0.000000 
#    z -0.024170 0.000000 1.804480 
# 
# From -- ./inp_files/44311.got.cif
#   From: 2010.06.25/outbox.cif.g09.slc.cpg/sg15_23_cif.got.tgz:44311.got - 2010.06.28 07:06:18.
