data_PCOD8146513
_publ_section_title
;
Structure prediction by ZEFSAII (Michael W. Deem and Ramdas Pophale) SiO2 
 PCOD8146513
Probable space group: C 2/C
;
_chemical_formula_sum "Si O2"
_cell_formula_units_Z 48
_cell_length_a 28.481400
_cell_length_b 9.120890
_cell_length_c 18.516833
_cell_angle_alpha 90.000000
_cell_angle_beta 27.366072
_cell_angle_gamma 90.000000
_cell_volume 2211.134606
_symmetry_space_group_name_H-M "C 2/C"
_symmetry_group_IT_number 15
_symmetry_cell_setting 'monoclinic'
loop_
_space_group_symop_operation_xyz
x,y,z
-x,y,1/2-z
-x,-y,-z
x,-y,1/2+z
1/2+x,1/2+y,z
1/2-x,1/2+y,1/2-z
1/2-x,1/2-y,-z
1/2+x,1/2-y,1/2+z
loop_
_atom_site_type_symbol
_atom_site_label
_atom_site_fract_x
_atom_site_fract_y
_atom_site_fract_z
Si Si1 0.439345 0.432230 0.736315
Si Si2 0.382277 0.892823 0.007951
Si Si3 0.320491 0.890338 0.250745
Si Si4 0.753317 0.084052 0.394049
Si Si5 0.073141 0.405398 0.249910
Si Si6 0.130736 0.070908 0.519283
O O1 0.366352 0.459608 0.767238
O O2 0.458702 0.260645 0.723390
O O3 0.549912 0.504873 0.571655
O O4 0.389750 0.508130 0.873510
O O5 0.379818 0.854743 0.095970
O O6 0.279781 0.982370 0.127296
O O7 0.382537 0.745316 0.960897
O O8 0.481207 0.988820 0.851888
O O9 0.252965 0.752462 0.369263
O O10 0.404614 0.930290 0.195813
O O11 0.245122 0.027353 0.340096
O O12 0.675089 0.057989 0.566495
#
# Coordination Sequence:
#
# PCOD8146513 Si02
#       6
#     8   8   8   8   8   8
#     4  10  22  41  67  89 122 169 222 271 301 388
#     4  12  27  37  65 102 139 162 210 280 335 382
#     4  11  22  47  65  93 134 177 212 265 331 393
#     4  11  22  43  68  94 124 177 228 255 321 396
#     4  11  22  43  69  95 121 178 231 256 312 404
#     4  11  23  40  62  97 131 162 212 274 333 367
#
# _framework density 21.708313
#
# number of rings (size 3 to 8) (size 9 to 14) (size 15 to 20)
#    0.000    1.000    3.333    4.000    7.000    2.000 
#    0.000    9.167    0.000    0.000    0.000    0.000 
#    0.000    0.000    0.000    0.000    0.000    0.000 
#
# Total GULP energy -297685.543414 kJ/mol
# GULP energy per Si atom -12403.564309 kJ/mol
# Density = 2.165890 g / cm^3
# Si number density = 21.708313 Si / 1000 Ang^3
#
#
#
# Elastic Constant Matrix: (Units=GPa)
#
#
# Indices 1 2 3 4 5 6 
#
# 1 115.3695 57.0068 17.2219 0.0003 -8.2419 -0.0004
# 2 57.0068 142.5033 30.2519 -0.0022 -18.3066 0.0000
# 3 17.2219 30.2519 48.7319 -0.0015 2.8488 0.0001
# 4 0.0003 -0.0022 -0.0015 17.3273 0.0001 0.4877
# 5 -8.2419 -18.3066 2.8488 0.0001 40.8585 0.0004
# 6 -0.0004 0.0000 0.0001 0.4877 0.0004 26.3328
#
#
#
# Elastic Compliance Matrix: (Units=1/GPa)
#
#
# Indices 1 2 3 4 5 6 
#
# 1 0.010886 -0.003993 -0.001398 -0.000001 0.000504 0.000000
# 2 -0.003993 0.010251 -0.005195 0.000001 0.004150 0.000000
# 3 -0.001398 -0.005195 0.024492 0.000002 -0.004317 0.000000
# 4 -0.000001 0.000001 0.000002 0.057743 0.000000 -0.001070
# 5 0.000504 0.004150 -0.004317 0.000000 0.026737 0.000000
# 6 0.000000 0.000000 0.000000 -0.001070 0.000000 0.037995
#
#
# Mechanical properties :
#
#
# Convention : Reuss Voigt Hill
#
# Bulk Modulus (GPa) = 40.88861 57.28509 49.08685
# Shear Modulus (GPa) = 25.32600 30.37865 27.85233
#
# Velocity S-wave (km/s) = 3.41933 3.74492 3.58582
# Velocity P-wave (km/s) = 5.87073 6.71901 6.30914
#
# Compressibility (1/GPa) = 0.02445669
#
# Stress axis : x y z
#
# Youngs Moduli (GPa) = 91.86478 97.55444 40.83042
#
# Poissons Ratio (x) = 0.38955 0.05706
# Poissons Ratio (y) = 0.36683 0.21211
# Poissons Ratio (z) = 0.12838 0.50678
#
# Static dielectric constant tensor:
#      x y z
#    x 4.145630 0.000000 -0.196870 
#    y 0.000000 3.855240 0.000000 
#    z -0.196870 0.000000 3.671760 
# 
# 
# High freq. dielectric constant tensor:
#      x y z
#    x 1.867250 0.000000 -0.008790 
#    y 0.000000 1.849430 0.000000 
#    z -0.008790 0.000000 1.837370 
# 
# From -- ./inp_files/224527.got.cif
#   From: 2010.06.25/outbox.cif.g09.slc.cpg/sg15_113_cif.got.tgz:224527.got - 2010.06.28 07:06:18.
