data_PCOD8146347
_publ_section_title
;
Structure prediction by ZEFSAII (Michael W. Deem and Ramdas Pophale) SiO2 
 PCOD8146347
Probable space group: C 2/C
;
_chemical_formula_sum "Si O2"
_cell_formula_units_Z 56
_cell_length_a 18.791226
_cell_length_b 14.899496
_cell_length_c 10.151037
_cell_angle_alpha 90.000000
_cell_angle_beta 71.966779
_cell_angle_gamma 90.000000
_cell_volume 2702.474041
_symmetry_space_group_name_H-M "C 2/C"
_symmetry_group_IT_number 15
_symmetry_cell_setting 'monoclinic'
loop_
_space_group_symop_operation_xyz
x,y,z
-x,y,1/2-z
-x,-y,-z
x,-y,1/2+z
1/2+x,1/2+y,z
1/2-x,1/2+y,1/2-z
1/2-x,1/2-y,-z
1/2+x,1/2-y,1/2+z
loop_
_atom_site_type_symbol
_atom_site_label
_atom_site_fract_x
_atom_site_fract_y
_atom_site_fract_z
Si Si1 0.008237 0.264670 0.596573
Si Si2 0.215172 0.440851 0.987894
Si Si3 0.845759 0.360828 0.977224
Si Si4 0.842974 0.689824 0.182388
Si Si5 0.011404 0.096443 0.434089
Si Si6 0.293822 0.799263 0.286412
Si Si7 0.126004 0.874857 0.653211
O O1 0.928053 0.296098 0.589256
O O2 0.041542 0.174796 0.511904
O O3 0.000000 0.235192 0.750000
O O4 0.065369 0.348556 0.546232
O O5 0.179690 0.537713 0.026176
O O6 0.182436 0.402791 0.870254
O O7 0.305494 0.440845 0.923970
O O8 0.191246 0.385596 0.131820
O O9 0.804227 0.317560 0.125625
O O10 0.828146 0.311867 0.848350
O O11 0.792617 0.768902 0.146848
O O12 0.931335 0.136251 0.434288
O O13 0.075785 0.077298 0.291855
O O14 0.000000 0.000000 0.500000
O O15 0.347633 0.721557 0.309235
#
# Coordination Sequence:
#
# PCOD8146347 Si02
#       7
#     8   8   8   8   8   8   8
#     4  10  22  41  63  89 130 168 206 264 330 384
#     4  11  23  40  65  95 132 167 221 270 318 387
#     4  11  23  40  63  97 129 170 221 268 324 389
#     4  10  22  41  65  90 128 172 215 263 327 390
#     4  11  23  40  65  95 126 162 217 267 330 394
#     4  11  21  42  66  92 128 177 217 264 329 389
#     4  10  23  41  63  93 127 170 213 267 331 390
#
# _framework density 20.721754000000001
#
# number of rings (size 3 to 8) (size 9 to 14) (size 15 to 20)
#    0.000    1.429    1.429    4.714    2.000    5.143 
#    2.571    1.429    0.000    0.000    0.000    0.000 
#    0.000    0.000    0.000    0.000    0.000    0.000 
#
# Total GULP energy -347061.874651 kJ/mol
# GULP energy per Si atom -12395.066952 kJ/mol
# Density = 2.067459 g / cm^3
# Si number density = 20.721754 Si / 1000 Ang^3
#
#
#
# Elastic Constant Matrix: (Units=GPa)
#
#
# Indices 1 2 3 4 5 6 
#
# 1 114.7917 57.2409 34.2379 0.0000 -12.0642 0.0000
# 2 57.2409 134.7300 35.7363 0.0000 -5.9582 0.0000
# 3 34.2379 35.7363 72.2314 0.0000 -1.3625 0.0000
# 4 0.0000 0.0000 0.0000 38.2135 0.0000 1.4309
# 5 -12.0642 -5.9582 -1.3625 0.0000 28.7052 0.0000
# 6 0.0000 0.0000 0.0000 1.4309 0.0000 26.4097
#
#
#
# Elastic Compliance Matrix: (Units=1/GPa)
#
#
# Indices 1 2 3 4 5 6 
#
# 1 0.012278 -0.004040 -0.003743 0.000000 0.004144 0.000000
# 2 -0.004040 0.009945 -0.003001 0.000000 0.000224 0.000000
# 3 -0.003743 -0.003001 0.017077 0.000000 -0.001385 0.000000
# 4 0.000000 0.000000 0.000000 0.026222 0.000000 -0.001421
# 5 0.004144 0.000224 -0.001385 0.000000 0.036559 0.000000
# 6 0.000000 0.000000 0.000000 -0.001421 0.000000 0.037942
#
#
# Mechanical properties :
#
#
# Convention : Reuss Voigt Hill
#
# Bulk Modulus (GPa) = 56.39526 64.02035 60.20780
# Shear Modulus (GPa) = 29.85061 31.63487 30.74274
#
# Velocity S-wave (km/s) = 3.79957 3.91148 3.85593
# Velocity P-wave (km/s) = 6.82082 7.16672 6.99590
#
# Compressibility (1/GPa) = 0.01773199
#
# Stress axis : x y z
#
# Youngs Moduli (GPa) = 81.44667 100.55656 58.55866
#
# Poissons Ratio (x) = 0.40629 0.21917
# Poissons Ratio (y) = 0.32908 0.17572
# Poissons Ratio (z) = 0.30483 0.30174
#
# Static dielectric constant tensor:
#      x y z
#    x 4.064580 0.000000 -0.096780 
#    y 0.000000 3.490050 0.000000 
#    z -0.096780 0.000000 4.342040 
# 
# 
# High freq. dielectric constant tensor:
#      x y z
#    x 1.821020 0.000000 0.002080 
#    y 0.000000 1.793910 0.000000 
#    z 0.002080 0.000000 1.827910 
# 
# From -- ./inp_files/105303.got.cif
#   From: 2010.06.25/outbox.cif.g09.slc.cpg/sg15_53_cif.got.tgz:105303.got - 2010.06.28 07:06:18.
