data_PCOD8146839
_publ_section_title
;
Structure prediction by ZEFSAII (Michael W. Deem and Ramdas Pophale) SiO2 
 PCOD8146839
Probable space group: C 2/C
;
_chemical_formula_sum "Si O2"
_cell_formula_units_Z 48
_cell_length_a 24.021118
_cell_length_b 8.328654
_cell_length_c 11.007241
_cell_angle_alpha 90.000000
_cell_angle_beta 98.583778
_cell_angle_gamma 90.000000
_cell_volume 2177.481079
_symmetry_space_group_name_H-M "C 2/C"
_symmetry_group_IT_number 15
_symmetry_cell_setting 'monoclinic'
loop_
_space_group_symop_operation_xyz
x,y,z
-x,y,1/2-z
-x,-y,-z
x,-y,1/2+z
1/2+x,1/2+y,z
1/2-x,1/2+y,1/2-z
1/2-x,1/2-y,-z
1/2+x,1/2-y,1/2+z
loop_
_atom_site_type_symbol
_atom_site_label
_atom_site_fract_x
_atom_site_fract_y
_atom_site_fract_z
Si Si1 0.854211 0.863047 0.577316
Si Si2 0.649502 0.968126 0.487202
Si Si3 0.762416 0.921553 0.951444
Si Si4 0.052577 0.096597 0.970690
Si Si5 0.971380 0.566292 0.115215
Si Si6 0.852482 0.759055 0.838885
O O1 0.853218 0.721307 0.473573
O O2 0.857201 0.750548 0.696975
O O3 0.798075 0.969113 0.556415
O O4 0.908632 0.976121 0.593710
O O5 0.702382 0.992703 0.410723
O O6 0.592832 0.010995 0.398151
O O7 0.658424 0.081933 0.608150
O O8 0.802109 0.888344 0.848002
O O9 0.750000 0.750000 0.000000
O O10 0.027981 0.240427 0.881332
O O11 0.089021 0.170959 0.091583
O O12 0.000000 0.000000 0.000000
O O13 0.000000 0.503712 0.250000
O O14 0.000000 0.500000 0.000000
#
# Coordination Sequence:
#
# PCOD8146839 Si02
#       6
#     8   8   8   8   8   8
#     4  11  22  40  68  98 131 180 225 287 347 413
#     4  10  22  42  65  93 139 178 227 281 347 412
#     4   9  20  42  63  96 136 167 224 280 341 418
#     4  10  23  43  65  95 135 178 227 286 347 418
#     4  11  26  46  70 104 140 184 236 292 351 419
#     4   9  22  40  62  97 132 173 228 283 340 412
#
# _framework density 22.043818999999999
#
# number of rings (size 3 to 8) (size 9 to 14) (size 15 to 20)
#    0.000    2.000    0.000    2.500    7.000    2.667 
#    0.000    3.333    0.000    0.000    0.000    0.000 
#    0.000    0.000    0.000    0.000    0.000    0.000 
#
# Total GULP energy -297373.326333 kJ/mol
# GULP energy per Si atom -12390.555264 kJ/mol
# Density = 2.199365 g / cm^3
# Si number density = 22.043819 Si / 1000 Ang^3
#
#
#
# Elastic Constant Matrix: (Units=GPa)
#
#
# Indices 1 2 3 4 5 6 
#
# 1 162.5149 46.2030 39.8026 0.0000 1.1616 0.0000
# 2 46.2030 164.4623 42.8353 0.0000 -1.0143 0.0000
# 3 39.8026 42.8353 100.7297 0.0000 2.0785 0.0000
# 4 0.0000 0.0000 0.0000 24.2070 0.0000 -1.2339
# 5 1.1616 -1.0143 2.0785 0.0000 15.2227 0.0000
# 6 0.0000 0.0000 0.0000 -1.2339 0.0000 45.3861
#
#
#
# Elastic Compliance Matrix: (Units=1/GPa)
#
#
# Indices 1 2 3 4 5 6 
#
# 1 0.007098 -0.001425 -0.002192 0.000000 -0.000337 0.000000
# 2 -0.001425 0.007135 -0.002490 0.000000 0.000924 0.000000
# 3 -0.002192 -0.002490 0.011886 0.000000 -0.001622 0.000000
# 4 0.000000 0.000000 0.000000 0.041368 0.000000 0.001125
# 5 -0.000337 0.000924 -0.001622 0.000000 0.066000 0.000000
# 6 0.000000 0.000000 0.000000 0.001125 0.000000 0.022064
#
#
# Mechanical properties :
#
#
# Convention : Reuss Voigt Hill
#
# Bulk Modulus (GPa) = 71.91718 76.15431 74.03575
# Shear Modulus (GPa) = 29.00255 36.88758 32.94506
#
# Velocity S-wave (km/s) = 3.63116 4.09513 3.87010
# Velocity P-wave (km/s) = 7.09055 7.54863 7.32318
#
# Compressibility (1/GPa) = 0.01390488
#
# Stress axis : x y z
#
# Youngs Moduli (GPa) = 140.89208 140.15260 84.13328
#
# Poissons Ratio (x) = 0.19975 0.18438
# Poissons Ratio (y) = 0.20081 0.20950
# Poissons Ratio (z) = 0.30877 0.34899
#
# Static dielectric constant tensor:
#      x y z
#    x 4.565780 0.000000 -0.049050 
#    y 0.000000 4.345160 0.000000 
#    z -0.049050 0.000000 3.437710 
# 
# 
# High freq. dielectric constant tensor:
#      x y z
#    x 1.889770 0.000000 -0.000760 
#    y 0.000000 1.891450 0.000000 
#    z -0.000760 0.000000 1.820790 
# 
# From -- ./inp_files/116368.got.cif
#   From: 2010.06.25/outbox.cif.g09.slc.cpg/sg15_59_cif.got.tgz:116368.got - 2010.06.28 07:06:18.
