data_PCOD8146603
_publ_section_title
;
Structure prediction by ZEFSAII (Michael W. Deem and Ramdas Pophale) SiO2 
 PCOD8146603
Probable space group: C 2/C
;
_chemical_formula_sum "Si O2"
_cell_formula_units_Z 56
_cell_length_a 9.575575
_cell_length_b 22.054168
_cell_length_c 14.341519
_cell_angle_alpha 90.000000
_cell_angle_beta 119.546858
_cell_angle_gamma 90.000000
_cell_volume 2634.791949
_symmetry_space_group_name_H-M "C 2/C"
_symmetry_group_IT_number 15
_symmetry_cell_setting 'monoclinic'
loop_
_space_group_symop_operation_xyz
x,y,z
-x,y,1/2-z
-x,-y,-z
x,-y,1/2+z
1/2+x,1/2+y,z
1/2-x,1/2+y,1/2-z
1/2-x,1/2-y,-z
1/2+x,1/2-y,1/2+z
loop_
_atom_site_type_symbol
_atom_site_label
_atom_site_fract_x
_atom_site_fract_y
_atom_site_fract_z
Si Si1 0.783246 0.434579 0.555133
Si Si2 0.800157 0.341070 0.045838
Si Si3 0.125239 0.590817 0.106351
Si Si4 0.816616 0.327793 0.700260
Si Si5 0.493084 0.723583 0.143471
Si Si6 0.323580 0.524471 0.666802
Si Si7 0.312883 0.048592 0.683863
O O1 0.768852 0.368509 0.596037
O O2 0.676428 0.433967 0.426159
O O3 0.734146 0.488721 0.609995
O O4 0.965784 0.444484 0.583193
O O5 0.918898 0.290582 0.126441
O O6 0.765911 0.391390 0.112221
O O7 0.899098 0.366139 0.990338
O O8 0.624670 0.316592 0.959253
O O9 0.194073 0.629578 0.213726
O O10 0.245504 0.539082 0.113767
O O11 0.676647 0.276721 0.662666
O O12 0.000000 0.300960 0.750000
O O13 0.500000 0.696363 0.250000
O O14 0.500000 0.506729 0.750000
O O15 0.244137 0.557678 0.728909
O O16 0.500000 0.037755 0.750000
#
# Coordination Sequence:
#
# PCOD8146603 Si02
#       7
#     8   8   8   8   8   8   8
#     4  11  22  40  64  95 135 176 215 259 340 414
#     4  11  25  39  71  96 129 178 220 284 333 380
#     4  11  20  41  66  96 129 176 215 261 339 410
#     4  10  22  41  69  95 130 175 219 272 335 405
#     4  11  24  45  67  97 129 168 239 281 322 388
#     4  12  26  36  60 104 139 170 216 270 329 404
#     4  12  22  41  65  95 137 175 215 263 335 409
#
# _framework density 21.254048999999998
#
# number of rings (size 3 to 8) (size 9 to 14) (size 15 to 20)
#    0.000    0.857    5.714    2.143    4.000    0.571 
#    0.000    2.857    0.000    1.714    0.000    0.000 
#    0.000    0.000    0.000    0.000    0.000    0.000 
#
# Total GULP energy -347172.493459 kJ/mol
# GULP energy per Si atom -12399.017624 kJ/mol
# Density = 2.120567 g / cm^3
# Si number density = 21.254049 Si / 1000 Ang^3
#
#
#
# Elastic Constant Matrix: (Units=GPa)
#
#
# Indices 1 2 3 4 5 6 
#
# 1 82.8633 28.3204 30.8888 0.0000 9.5721 0.0000
# 2 28.3204 51.9487 14.9682 0.0000 9.6673 0.0000
# 3 30.8888 14.9682 99.3908 0.0000 -6.6087 0.0000
# 4 0.0000 0.0000 0.0000 25.0728 0.0000 0.3091
# 5 9.5721 9.6673 -6.6087 0.0000 39.7087 0.0000
# 6 0.0000 0.0000 0.0000 0.3091 0.0000 17.0682
#
#
#
# Elastic Compliance Matrix: (Units=1/GPa)
#
#
# Indices 1 2 3 4 5 6 
#
# 1 0.016439 -0.007205 -0.004217 0.000000 -0.002911 0.000000
# 2 -0.007205 0.024526 -0.001755 0.000000 -0.004526 0.000000
# 3 -0.004217 -0.001755 0.011864 0.000000 0.003418 0.000000
# 4 0.000000 0.000000 0.000000 0.039893 0.000000 -0.000723
# 5 -0.002911 -0.004526 0.003418 0.000000 0.027556 0.000000
# 6 0.000000 0.000000 0.000000 -0.000723 0.000000 0.058602
#
#
# Mechanical properties :
#
#
# Convention : Reuss Voigt Hill
#
# Bulk Modulus (GPa) = 37.77462 42.50638 40.14050
# Shear Modulus (GPa) = 23.35813 27.03830 25.19821
#
# Velocity S-wave (km/s) = 3.31871 3.57059 3.44695
# Velocity P-wave (km/s) = 5.70058 6.08617 5.89652
#
# Compressibility (1/GPa) = 0.02647280
#
# Stress axis : x y z
#
# Youngs Moduli (GPa) = 60.83147 40.77351 84.29132
#
# Poissons Ratio (x) = 0.29377 0.35549
# Poissons Ratio (y) = 0.43829 0.14796
# Poissons Ratio (z) = 0.25655 0.07157
#
# Static dielectric constant tensor:
#      x y z
#    x 3.638020 0.000000 0.150960 
#    y 0.000000 3.594220 0.000000 
#    z 0.150960 0.000000 3.983350 
# 
# 
# High freq. dielectric constant tensor:
#      x y z
#    x 1.829620 0.000000 -0.006670 
#    y 0.000000 1.808290 0.000000 
#    z -0.006670 0.000000 1.852040 
# 
# From -- ./inp_files/137920.got.cif
#   From: 2010.06.25/outbox.cif.g09.slc.cpg/sg15_69_cif.got.tgz:137920.got - 2010.06.28 07:06:18.
