data_PCOD8146408
_publ_section_title
;
Structure prediction by ZEFSAII (Michael W. Deem and Ramdas Pophale) SiO2 
 PCOD8146408
Probable space group: C 2/C
;
_chemical_formula_sum "Si O2"
_cell_formula_units_Z 56
_cell_length_a 28.197507
_cell_length_b 8.386347
_cell_length_c 16.821959
_cell_angle_alpha 90.000000
_cell_angle_beta 41.280086
_cell_angle_gamma 90.000000
_cell_volume 2624.419564
_symmetry_space_group_name_H-M "C 2/C"
_symmetry_group_IT_number 15
_symmetry_cell_setting 'monoclinic'
loop_
_space_group_symop_operation_xyz
x,y,z
-x,y,1/2-z
-x,-y,-z
x,-y,1/2+z
1/2+x,1/2+y,z
1/2-x,1/2+y,1/2-z
1/2-x,1/2-y,-z
1/2+x,1/2-y,1/2+z
loop_
_atom_site_type_symbol
_atom_site_label
_atom_site_fract_x
_atom_site_fract_y
_atom_site_fract_z
Si Si1 0.196859 0.006962 0.426989
Si Si2 0.409712 0.734082 0.508087
Si Si3 0.078166 0.541432 0.658731
Si Si4 0.846095 0.514796 0.670889
Si Si5 0.425937 0.767616 0.178195
Si Si6 0.799229 0.900678 0.909425
Si Si7 0.302040 0.873094 0.059675
O O1 0.206477 0.193753 0.401203
O O2 0.140118 0.924837 0.437087
O O3 0.279494 0.948889 0.313779
O O4 0.168701 0.974167 0.550626
O O5 0.406117 0.824001 0.427774
O O6 0.493549 0.693934 0.422141
O O7 0.380071 0.836644 0.620857
O O8 0.088635 0.609205 0.732685
O O9 0.128651 0.388984 0.584243
O O10 0.000000 0.468452 0.750000
O O11 0.909715 0.637096 0.616210
O O12 0.813835 0.530670 0.624539
O O13 0.365871 0.633419 0.266924
O O14 0.760476 0.042847 0.911308
O O15 0.750000 0.750000 0.000000
#
# Coordination Sequence:
#
# PCOD8146408 Si02
#       7
#     8   8   8   8   8   8   8
#     4  12  23  40  65  94 131 171 224 274 336 399
#     4  10  22  41  64  98 128 175 218 274 338 399
#     4   9  18  38  62  88 124 166 216 269 328 393
#     4  11  23  40  66  91 130 178 219 272 332 408
#     4  11  21  39  71  94 128 171 227 277 339 396
#     4  12  21  40  67  93 125 169 226 275 328 390
#     4  11  24  38  61  96 129 168 221 272 330 401
#
# _framework density 21.338051
#
# number of rings (size 3 to 8) (size 9 to 14) (size 15 to 20)
#    0.000    1.143    4.286    2.571    2.000    0.000 
#    2.571    0.714    3.143    0.000    0.000    0.000 
#    0.000    0.000    0.000    0.000    0.000    0.000 
#
# Total GULP energy -346880.369374 kJ/mol
# GULP energy per Si atom -12388.584621 kJ/mol
# Density = 2.128948 g / cm^3
# Si number density = 21.338051 Si / 1000 Ang^3
#
#
#
# Elastic Constant Matrix: (Units=GPa)
#
#
# Indices 1 2 3 4 5 6 
#
# 1 93.7260 47.3513 40.8010 0.0096 -26.6382 0.0035
# 2 47.3513 92.0408 35.6363 0.0064 -23.5558 0.0117
# 3 40.8010 35.6363 94.3072 0.0003 -26.8779 0.0058
# 4 0.0096 0.0064 0.0003 113.4866 0.0015 19.0133
# 5 -26.6382 -23.5558 -26.8779 0.0015 38.8805 -0.0013
# 6 0.0035 0.0117 0.0058 19.0133 -0.0013 39.4828
#
#
#
# Elastic Compliance Matrix: (Units=1/GPa)
#
#
# Indices 1 2 3 4 5 6 
#
# 1 0.016685 -0.005840 -0.003440 -0.000001 0.005515 0.000002
# 2 -0.005840 0.015776 -0.002305 0.000000 0.003963 -0.000004
# 3 -0.003440 -0.002305 0.014811 0.000001 0.006486 -0.000001
# 4 -0.000001 0.000000 0.000001 0.009585 -0.000001 -0.004616
# 5 0.005515 0.003963 0.006486 -0.000001 0.036383 -0.000001
# 6 0.000002 -0.000004 -0.000001 -0.004616 -0.000001 0.027550
#
#
# Mechanical properties :
#
#
# Convention : Reuss Voigt Hill
#
# Bulk Modulus (GPa) = 41.49094 58.62791 50.05943
# Shear Modulus (GPa) = 32.89579 48.78900 40.84239
#
# Velocity S-wave (km/s) = 3.93064 4.78690 4.37975
# Velocity P-wave (km/s) = 6.33141 7.62155 7.00624
#
# Compressibility (1/GPa) = 0.02410165
#
# Stress axis : x y z
#
# Youngs Moduli (GPa) = 59.93434 63.38667 67.51579
#
# Poissons Ratio (x) = 0.37021 0.23224
# Poissons Ratio (y) = 0.35005 0.15563
# Poissons Ratio (z) = 0.20616 0.14611
#
# Static dielectric constant tensor:
#      x y z
#    x 4.256320 -0.000050 -0.789540 
#    y -0.000050 3.673740 0.000090 
#    z -0.789540 0.000090 5.218690 
# 
# 
# High freq. dielectric constant tensor:
#      x y z
#    x 1.845370 0.000000 -0.005660 
#    y 0.000000 1.808560 0.000000 
#    z -0.005660 0.000000 1.840180 
# 
# From -- ./inp_files/224401.got.cif
#   From: 2010.06.25/outbox.cif.g09.slc.cpg/sg15_113_cif.got.tgz:224401.got - 2010.06.28 07:06:18.
