data_PCOD8146433
_publ_section_title
;
Structure prediction by ZEFSAII (Michael W. Deem and Ramdas Pophale) SiO2 
 PCOD8146433
Probable space group: C 2/C
;
_chemical_formula_sum "Si O2"
_cell_formula_units_Z 48
_cell_length_a 16.453240
_cell_length_b 15.204121
_cell_length_c 8.633552
_cell_angle_alpha 90.000000
_cell_angle_beta 89.999988
_cell_angle_gamma 90.000000
_cell_volume 2159.743915
_symmetry_space_group_name_H-M "C 2/C"
_symmetry_group_IT_number 15
_symmetry_cell_setting 'monoclinic'
loop_
_space_group_symop_operation_xyz
x,y,z
-x,y,1/2-z
-x,-y,-z
x,-y,1/2+z
1/2+x,1/2+y,z
1/2-x,1/2+y,1/2-z
1/2-x,1/2-y,-z
1/2+x,1/2-y,1/2+z
loop_
_atom_site_type_symbol
_atom_site_label
_atom_site_fract_x
_atom_site_fract_y
_atom_site_fract_z
Si Si1 0.911271 0.912803 0.189779
Si Si2 0.342537 0.069478 0.137522
Si Si3 0.157463 0.069478 0.137522
Si Si4 0.345078 0.741002 0.175661
Si Si5 0.345078 0.241002 0.324339
Si Si6 0.411271 0.087197 0.810221
O O1 0.892211 0.811333 0.221162
O O2 0.000000 0.938496 0.250000
O O3 0.848054 0.975678 0.278421
O O4 0.903986 0.927239 0.006242
O O5 0.250000 0.082958 0.079197
O O6 0.366873 0.144562 0.260960
O O7 0.348054 0.975678 0.221579
O O8 0.403986 0.072761 0.993758
O O9 0.133127 0.144562 0.260960
O O10 0.250000 0.760818 0.186882
O O11 0.392211 0.811333 0.278838
O O12 0.376214 0.750000 0.000000
O O13 0.500000 0.061504 0.750000
#
# Coordination Sequence:
#
# PCOD8146433 Si02
#       6
#     8   8   8   8   8   8
#     4  12  25  40  62  94 129 164 206 266 329 380
#     4  11  23  42  67  91 124 170 218 262 310 379
#     4  11  23  42  67  91 124 170 218 262 310 379
#     4  10  22  41  65  92 123 165 216 264 312 375
#     4  10  22  41  65  92 123 165 216 264 312 375
#     4  12  25  40  62  94 129 164 206 266 329 380
#
# _framework density 22.224857
#
# number of rings (size 3 to 8) (size 9 to 14) (size 15 to 20)
#    0.000    1.000    0.000    7.000    0.000    9.333 
#    0.000    0.000    0.000    0.000    0.000    0.000 
#    0.000    0.000    0.000    0.000    0.000    0.000 
#
# Total GULP energy -297806.591151 kJ/mol
# GULP energy per Si atom -12408.607965 kJ/mol
# Density = 2.217427 g / cm^3
# Si number density = 22.224857 Si / 1000 Ang^3
#
#
#
# Elastic Constant Matrix: (Units=GPa)
#
#
# Indices 1 2 3 4 5 6 
#
# 1 68.2332 27.2799 44.0516 0.0000 0.0000 0.0000
# 2 27.2799 98.8574 14.9789 0.0000 0.0000 0.0000
# 3 44.0516 14.9789 132.3190 0.0000 0.0000 0.0000
# 4 0.0000 0.0000 0.0000 44.3515 0.0000 0.0000
# 5 0.0000 0.0000 0.0000 0.0000 29.6576 0.0000
# 6 0.0000 0.0000 0.0000 0.0000 0.0000 10.5740
#
#
#
# Elastic Compliance Matrix: (Units=1/GPa)
#
#
# Indices 1 2 3 4 5 6 
#
# 1 0.020639 -0.004735 -0.006335 0.000000 0.000000 0.000000
# 2 -0.004735 0.011379 0.000288 0.000000 0.000000 0.000000
# 3 -0.006335 0.000288 0.009634 0.000000 0.000000 0.000000
# 4 0.000000 0.000000 0.000000 0.022547 0.000000 0.000000
# 5 0.000000 0.000000 0.000000 0.000000 0.033718 0.000000
# 6 0.000000 0.000000 0.000000 0.000000 0.000000 0.094572
#
#
# Mechanical properties :
#
#
# Convention : Reuss Voigt Hill
#
# Bulk Modulus (GPa) = 49.78274 52.44783 51.11528
# Shear Modulus (GPa) = 22.65024 31.12323 26.88673
#
# Velocity S-wave (km/s) = 3.19586 3.74622 3.48193
# Velocity P-wave (km/s) = 6.00552 6.50863 6.26213
#
# Compressibility (1/GPa) = 0.02008728
#
# Stress axis : x y z
#
# Youngs Moduli (GPa) = 48.45257 87.88405 103.80034
#
# Poissons Ratio (x) = 0.41617 0.65757
# Poissons Ratio (y) = 0.22944 -0.02994
# Poissons Ratio (z) = 0.30695 -0.02535
#
# Static dielectric constant tensor:
#      x y z
#    x 3.756760 0.000000 0.000000 
#    y 0.000000 4.015420 0.000000 
#    z 0.000000 0.000000 4.031550 
# 
# 
# High freq. dielectric constant tensor:
#      x y z
#    x 1.862480 0.000000 0.000000 
#    y 0.000000 1.888330 0.000000 
#    z 0.000000 0.000000 1.884020 
# 
# From -- ./inp_files/47486.got.cif
#   From: 2010.06.25/outbox.cif.g09.slc.cpg/sg15_24_cif.got.tgz:47486.got - 2010.06.28 07:06:18.
