data_PCOD8146154
_publ_section_title
;
Structure prediction by ZEFSAII (Michael W. Deem and Ramdas Pophale) SiO2 
 PCOD8146154
Probable space group: C 2/C
;
_chemical_formula_sum "Si O2"
_cell_formula_units_Z 36
_cell_length_a 6.161333
_cell_length_b 21.877012
_cell_length_c 11.605356
_cell_angle_alpha 90.000000
_cell_angle_beta 80.593846
_cell_angle_gamma 90.000000
_cell_volume 1543.271321
_symmetry_space_group_name_H-M "C 2/C"
_symmetry_group_IT_number 15
_symmetry_cell_setting 'monoclinic'
loop_
_space_group_symop_operation_xyz
x,y,z
-x,y,1/2-z
-x,-y,-z
x,-y,1/2+z
1/2+x,1/2+y,z
1/2-x,1/2+y,1/2-z
1/2-x,1/2-y,-z
1/2+x,1/2-y,1/2+z
loop_
_atom_site_type_symbol
_atom_site_label
_atom_site_fract_x
_atom_site_fract_y
_atom_site_fract_z
Si Si1 0.594077 0.418979 0.084665
Si Si2 0.717542 0.831833 0.169674
Si Si3 0.992446 0.354246 0.538902
Si Si4 0.135910 0.947423 0.630728
Si Si5 0.500000 0.229979 0.250000
O O1 0.399970 0.384685 0.171070
O O2 0.675191 0.479907 0.143798
O O3 0.514777 0.436729 0.965551
O O4 0.796282 0.372702 0.054104
O O5 0.500000 0.856740 0.250000
O O6 0.792755 0.769836 0.226338
O O7 0.672505 0.820522 0.036950
O O8 0.870814 0.413610 0.602652
O O9 0.072872 0.310498 0.634592
O O10 0.000000 0.920525 0.750000
#
# Coordination Sequence:
#
# PCOD8146154 Si02
#       5
#     8   8   8   8   4
#     4  10  23  44  65 101 136 173 227 277 337 404
#     4  11  26  43  67 100 134 186 227 278 335 402
#     4  11  24  44  69  98 138 178 227 279 341 401
#     4  10  22  40  68 100 133 177 218 278 339 406
#     4  12  26  44  68 100 138 180 230 282 334 400
#
# _framework density 23.327071
#
# number of rings (size 3 to 8) (size 9 to 14) (size 15 to 20)
#    0.000    1.333    0.000    4.000    4.667    8.000 
#    0.000    0.000    0.000    0.000    0.000    0.000 
#    0.000    0.000    0.000    0.000    0.000    0.000 
#
# Total GULP energy -223254.597472 kJ/mol
# GULP energy per Si atom -12403.033193 kJ/mol
# Density = 2.327398 g / cm^3
# Si number density = 23.327071 Si / 1000 Ang^3
#
#
#
# Elastic Constant Matrix: (Units=GPa)
#
#
# Indices 1 2 3 4 5 6 
#
# 1 128.9154 72.5503 55.9398 0.0000 -25.8705 0.0000
# 2 72.5503 139.7100 58.5425 0.0000 0.5283 0.0000
# 3 55.9398 58.5425 104.3973 0.0000 -6.9010 0.0000
# 4 0.0000 0.0000 0.0000 41.4570 0.0000 3.9880
# 5 -25.8705 0.5283 -6.9010 0.0000 53.1075 0.0000
# 6 0.0000 0.0000 0.0000 3.9880 0.0000 32.2577
#
#
#
# Elastic Compliance Matrix: (Units=1/GPa)
#
#
# Indices 1 2 3 4 5 6 
#
# 1 0.013847 -0.005594 -0.003866 0.000000 0.006299 0.000000
# 2 -0.005594 0.011649 -0.003755 0.000000 -0.003329 0.000000
# 3 -0.003866 -0.003755 0.013752 0.000000 -0.000059 0.000000
# 4 0.000000 0.000000 0.000000 0.024412 0.000000 -0.003018
# 5 0.006299 -0.003329 -0.000059 0.000000 0.021923 0.000000
# 6 0.000000 0.000000 0.000000 -0.003018 0.000000 0.031373
#
#
# Mechanical properties :
#
#
# Convention : Reuss Voigt Hill
#
# Bulk Modulus (GPa) = 78.01945 83.00976 80.51461
# Shear Modulus (GPa) = 33.86174 37.76379 35.81276
#
# Velocity S-wave (km/s) = 3.81413 4.02790 3.92247
# Velocity P-wave (km/s) = 7.27429 7.56930 7.42326
#
# Compressibility (1/GPa) = 0.01281732
#
# Stress axis : x y z
#
# Youngs Moduli (GPa) = 72.21727 85.84655 72.71677
#
# Poissons Ratio (x) = 0.48026 0.28114
# Poissons Ratio (y) = 0.40402 0.27302
# Poissons Ratio (z) = 0.27921 0.32232
#
# Static dielectric constant tensor:
#      x y z
#    x 4.078610 0.000000 0.190120 
#    y 0.000000 4.204850 0.000000 
#    z 0.190120 0.000000 4.318940 
# 
# 
# High freq. dielectric constant tensor:
#      x y z
#    x 1.918770 0.000000 0.011250 
#    y 0.000000 1.913660 0.000000 
#    z 0.011250 0.000000 1.947450 
# 
# From -- ./inp_files/72448.got.cif
#   From: 2010.06.25/outbox.cif.g09.slc.cpg/sg15_37_cif.got.tgz:72448.got - 2010.06.28 07:06:18.
