data_PCOD8146285
_publ_section_title
;
Structure prediction by ZEFSAII (Michael W. Deem and Ramdas Pophale) SiO2 
 PCOD8146285
Probable space group: C 2/C
;
_chemical_formula_sum "Si O2"
_cell_formula_units_Z 40
_cell_length_a 11.124354
_cell_length_b 24.861589
_cell_length_c 14.119847
_cell_angle_alpha 90.000000
_cell_angle_beta 29.976330
_cell_angle_gamma 90.000000
_cell_volume 1951.159502
_symmetry_space_group_name_H-M "C 2/C"
_symmetry_group_IT_number 15
_symmetry_cell_setting 'monoclinic'
loop_
_space_group_symop_operation_xyz
x,y,z
-x,y,1/2-z
-x,-y,-z
x,-y,1/2+z
1/2+x,1/2+y,z
1/2-x,1/2+y,1/2-z
1/2-x,1/2-y,-z
1/2+x,1/2-y,1/2+z
loop_
_atom_site_type_symbol
_atom_site_label
_atom_site_fract_x
_atom_site_fract_y
_atom_site_fract_z
Si Si1 0.210520 0.812845 0.535671
Si Si2 0.051556 0.885418 0.914674
Si Si3 0.072338 0.601317 0.499950
Si Si4 0.755407 0.023724 0.528301
Si Si5 0.526779 0.413220 0.333096
O O1 0.250000 0.750000 0.500000
O O2 0.438366 0.845145 0.424235
O O3 0.000000 0.827808 0.750000
O O4 0.126513 0.836284 0.492209
O O5 0.302341 0.885304 0.686239
O O6 0.911696 0.941480 0.995121
O O7 0.099822 0.880307 0.994597
O O8 0.225823 0.555830 0.449590
O O9 0.807850 0.579379 0.663166
O O10 0.500000 0.010427 0.750000
O O11 0.895174 0.969746 0.409715
O O12 0.500000 0.382365 0.250000
#
# Coordination Sequence:
#
# PCOD8146285 Si02
#       5
#     8   8   8   8   8
#     4   9  20  37  68  98 112 143 190 254 322 348
#     4  10  22  41  57  88 125 151 198 259 292 353
#     4  10  23  42  57  88 127 148 206 258 285 358
#     4  11  22  37  59  86 119 163 204 249 300 344
#     4  12  26  37  58  84 119 179 199 236 297 354
#
# _framework density 20.500630999999998
#
# number of rings (size 3 to 8) (size 9 to 14) (size 15 to 20)
#    0.000    1.600    2.000    3.600    5.600    1.600 
#    0.000    0.000    0.000    1.200    0.000    0.000 
#    0.000    0.000    0.000    0.000    0.000    0.000 
#
# Total GULP energy -247917.703032 kJ/mol
# GULP energy per Si atom -12395.885152 kJ/mol
# Density = 2.045397 g / cm^3
# Si number density = 20.500631 Si / 1000 Ang^3
#
#
#
# Elastic Constant Matrix: (Units=GPa)
#
#
# Indices 1 2 3 4 5 6 
#
# 1 106.3065 44.5312 32.9649 -0.0034 34.4407 0.0050
# 2 44.5312 102.9676 29.8589 -0.0024 5.6478 0.0009
# 3 32.9649 29.8589 98.4436 -0.0010 13.2639 0.0080
# 4 -0.0034 -0.0024 -0.0010 22.6121 0.0027 1.3530
# 5 34.4407 5.6478 13.2639 0.0027 44.1171 -0.0049
# 6 0.0050 0.0009 0.0080 1.3530 -0.0049 11.4678
#
#
#
# Elastic Compliance Matrix: (Units=1/GPa)
#
#
# Indices 1 2 3 4 5 6 
#
# 1 0.016094 -0.005725 -0.002146 0.000004 -0.011186 -0.000010
# 2 -0.005725 0.012692 -0.002414 0.000000 0.003570 0.000005
# 3 -0.002146 -0.002414 0.011820 0.000001 -0.001570 -0.000008
# 4 0.000004 0.000000 0.000001 0.044539 -0.000006 -0.005255
# 5 -0.011186 0.003570 -0.001570 -0.000006 0.031415 0.000020
# 6 -0.000010 0.000005 -0.000008 -0.005255 0.000020 0.087821
#
#
# Mechanical properties :
#
#
# Convention : Reuss Voigt Hill
#
# Bulk Modulus (GPa) = 49.90480 58.04754 53.97617
# Shear Modulus (GPa) = 21.58640 28.99690 25.29165
#
# Velocity S-wave (km/s) = 3.24846 3.76498 3.51622
# Velocity P-wave (km/s) = 6.20209 6.87580 6.54761
#
# Compressibility (1/GPa) = 0.02003815
#
# Stress axis : x y z
#
# Youngs Moduli (GPa) = 62.13415 78.79212 84.60100
#
# Poissons Ratio (x) = 0.45105 0.18154
# Poissons Ratio (y) = 0.35569 0.20419
# Poissons Ratio (z) = 0.13333 0.19017
#
# Static dielectric constant tensor:
#      x y z
#    x 4.198280 0.000040 0.161330 
#    y 0.000040 3.881810 -0.000030 
#    z 0.161330 -0.000030 3.948150 
# 
# 
# High freq. dielectric constant tensor:
#      x y z
#    x 1.792160 0.000000 0.015630 
#    y 0.000000 1.759280 0.000000 
#    z 0.015630 0.000000 1.825090 
# 
# From -- ./inp_files/91033.got.cif
#   From: 2010.06.25/outbox.cif.g09.slc.cpg/sg15_46_cif.got.tgz:91033.got - 2010.06.28 07:06:18.
