data_PCOD8146728
_publ_section_title
;
Structure prediction by ZEFSAII (Michael W. Deem and Ramdas Pophale) SiO2 
 PCOD8146728
Probable space group: C 2/C
;
_chemical_formula_sum "Si O2"
_cell_formula_units_Z 56
_cell_length_a 15.346231
_cell_length_b 11.309308
_cell_length_c 15.103171
_cell_angle_alpha 90.000000
_cell_angle_beta 99.371435
_cell_angle_gamma 90.000000
_cell_volume 2586.250266
_symmetry_space_group_name_H-M "C 2/C"
_symmetry_group_IT_number 15
_symmetry_cell_setting 'monoclinic'
loop_
_space_group_symop_operation_xyz
x,y,z
-x,y,1/2-z
-x,-y,-z
x,-y,1/2+z
1/2+x,1/2+y,z
1/2-x,1/2+y,1/2-z
1/2-x,1/2-y,-z
1/2+x,1/2-y,1/2+z
loop_
_atom_site_type_symbol
_atom_site_label
_atom_site_fract_x
_atom_site_fract_y
_atom_site_fract_z
Si Si1 0.015488 0.233017 0.617155
Si Si2 0.500000 0.469540 0.250000
Si Si3 0.282001 0.922460 0.469608
Si Si4 0.373870 0.319850 0.963153
Si Si5 0.317882 0.884739 0.827595
Si Si6 0.898145 0.444666 0.657192
Si Si7 0.630618 0.658959 0.233770
Si Si8 0.000000 0.638700 0.750000
O O1 0.112069 0.290479 0.622057
O O2 0.021753 0.110377 0.669462
O O3 0.973426 0.204623 0.514005
O O4 0.949267 0.320636 0.658024
O O5 0.583802 0.555273 0.283011
O O6 0.322872 0.802721 0.438589
O O7 0.178487 0.900156 0.473598
O O8 0.327955 0.961774 0.568427
O O9 0.294534 0.022147 0.399083
O O10 0.373993 0.384975 0.868875
O O11 0.353021 0.950162 0.745988
O O12 0.228573 0.816788 0.785964
O O13 0.967321 0.553663 0.663994
O O14 0.580696 0.783257 0.229752
#
# Coordination Sequence:
#
# PCOD8146728 Si02
#       8
#     8   4   8   8   8   8   8   4
#     4  11  23  40  70  98 132 175 227 280 333 400
#     4  11  23  46  64  92 133 181 226 270 338 415
#     4  10  23  38  69 102 138 170 228 280 329 410
#     4  10  22  42  63 101 137 177 222 276 344 398
#     4  12  22  42  67 105 127 178 230 273 334 394
#     4  11  21  42  67 102 133 171 221 285 337 388
#     4  11  26  41  67  94 134 187 220 273 342 398
#     4  11  23  42  64  94 139 173 220 276 342 397
#
# _framework density 21.65297
#
# number of rings (size 3 to 8) (size 9 to 14) (size 15 to 20)
#    0.000    1.143    4.286    1.714    2.000    4.000 
#    0.000    0.714    0.000    0.000    0.000    0.000 
#    0.000    0.000    0.000    0.000    0.000    0.000 
#
# Total GULP energy -347231.910449 kJ/mol
# GULP energy per Si atom -12401.139659 kJ/mol
# Density = 2.160369 g / cm^3
# Si number density = 21.652970 Si / 1000 Ang^3
#
#
#
# Elastic Constant Matrix: (Units=GPa)
#
#
# Indices 1 2 3 4 5 6 
#
# 1 147.1756 48.6521 51.7133 0.0000 24.4007 0.0000
# 2 48.6521 104.9079 34.7118 0.0000 5.3211 0.0000
# 3 51.7133 34.7118 101.0098 0.0000 14.1978 0.0000
# 4 0.0000 0.0000 0.0000 31.2412 0.0000 2.1027
# 5 24.4007 5.3211 14.1978 0.0000 27.2778 0.0000
# 6 0.0000 0.0000 0.0000 2.1027 0.0000 24.7848
#
#
#
# Elastic Compliance Matrix: (Units=1/GPa)
#
#
# Indices 1 2 3 4 5 6 
#
# 1 0.010098 -0.003321 -0.003075 0.000000 -0.006784 0.000000
# 2 -0.003321 0.011849 -0.002658 0.000000 0.002044 0.000000
# 3 -0.003075 -0.002658 0.012870 0.000000 -0.003430 0.000000
# 4 0.000000 0.000000 0.000000 0.032193 0.000000 -0.002731
# 5 -0.006784 0.002044 -0.003430 0.000000 0.044115 0.000000
# 6 0.000000 0.000000 0.000000 -0.002731 0.000000 0.040579
#
#
# Mechanical properties :
#
#
# Convention : Reuss Voigt Hill
#
# Bulk Modulus (GPa) = 59.85573 69.24974 64.55274
# Shear Modulus (GPa) = 28.50932 31.19516 29.85224
#
# Velocity S-wave (km/s) = 3.63250 3.79976 3.71707
# Velocity P-wave (km/s) = 6.73028 7.16254 6.94977
#
# Compressibility (1/GPa) = 0.01670684
#
# Stress axis : x y z
#
# Youngs Moduli (GPa) = 99.03201 84.39867 77.70143
#
# Poissons Ratio (x) = 0.28033 0.23890
# Poissons Ratio (y) = 0.32893 0.20657
# Poissons Ratio (z) = 0.30449 0.22437
#
# Static dielectric constant tensor:
#      x y z
#    x 4.095630 0.000000 0.167850 
#    y 0.000000 3.775340 0.000000 
#    z 0.167850 0.000000 3.821190 
# 
# 
# High freq. dielectric constant tensor:
#      x y z
#    x 1.856910 0.000000 0.011130 
#    y 0.000000 1.845180 0.000000 
#    z 0.011130 0.000000 1.842990 
# 
# From -- ./inp_files/152652.got.cif
#   From: 2010.06.25/outbox.cif.g09.slc.cpg/sg15_77_cif.got.tgz:152652.got - 2010.06.28 07:06:18.
