data_PCOD8146265
_publ_section_title
;
Structure prediction by ZEFSAII (Michael W. Deem and Ramdas Pophale) SiO2 
 PCOD8146265
Probable space group: C 2/C
;
_chemical_formula_sum "Si O2"
_cell_formula_units_Z 52
_cell_length_a 18.095737
_cell_length_b 14.596698
_cell_length_c 18.548095
_cell_angle_alpha 90.000000
_cell_angle_beta 27.669095
_cell_angle_gamma 90.000000
_cell_volume 2275.040486
_symmetry_space_group_name_H-M "C 2/C"
_symmetry_group_IT_number 15
_symmetry_cell_setting 'monoclinic'
loop_
_space_group_symop_operation_xyz
x,y,z
-x,y,1/2-z
-x,-y,-z
x,-y,1/2+z
1/2+x,1/2+y,z
1/2-x,1/2+y,1/2-z
1/2-x,1/2-y,-z
1/2+x,1/2-y,1/2+z
loop_
_atom_site_type_symbol
_atom_site_label
_atom_site_fract_x
_atom_site_fract_y
_atom_site_fract_z
Si Si1 0.777854 0.349131 0.656768
Si Si2 0.884377 0.870316 0.496893
Si Si3 0.000000 0.924653 0.250000
Si Si4 0.793336 0.556657 0.003724
Si Si5 0.371331 0.207705 0.611650
Si Si6 0.651838 0.021884 0.700347
Si Si7 0.675107 0.456148 0.307720
O O1 0.760413 0.355794 0.584476
O O2 0.673319 0.266500 0.778351
O O3 0.724178 0.444921 0.737755
O O4 0.958254 0.335625 0.523408
O O5 0.963846 0.861386 0.349867
O O6 0.870772 0.770577 0.541393
O O7 0.711458 0.917119 0.638487
O O8 0.983926 0.939622 0.465290
O O9 0.849201 0.986516 0.358870
O O10 0.805785 0.581527 0.908130
O O11 0.964728 0.515055 0.879042
O O12 0.248471 0.127304 0.697090
O O13 0.750152 0.069209 0.679164
#
# Coordination Sequence:
#
# PCOD8146265 Si02
#       7
#     8   8   4   8   8   8   8
#     4  12  25  45  72 102 143 191 235 302 354 424
#     4  11  23  43  71 107 141 185 241 298 349 430
#     4  10  22  44  74 104 142 190 240 288 374 424
#     4  10  22  42  70 106 139 189 236 289 361 435
#     4  12  26  42  70 110 140 180 252 291 351 429
#     4  10  22  40  73 102 138 189 240 283 361 422
#     4  12  23  43  74  99 142 193 235 296 360 418
#
# _framework density 22.856736000000001
#
# number of rings (size 3 to 8) (size 9 to 14) (size 15 to 20)
#    0.000    0.923    6.154    0.923    0.000    0.000 
#    0.000    1.538    6.769    0.000    0.000    0.000 
#    0.000    0.000    0.000    0.000    0.000    0.000 
#
# Total GULP energy -322339.741898 kJ/mol
# GULP energy per Si atom -12397.682381 kJ/mol
# Density = 2.280471 g / cm^3
# Si number density = 22.856736 Si / 1000 Ang^3
#
#
#
# Elastic Constant Matrix: (Units=GPa)
#
#
# Indices 1 2 3 4 5 6 
#
# 1 97.2109 -5.9000 27.1975 -0.0240 2.8896 0.0058
# 2 -5.9000 75.5574 28.1022 -0.0332 -3.6503 0.0028
# 3 27.1975 28.1022 122.9454 -0.0303 -8.8136 0.0014
# 4 -0.0240 -0.0332 -0.0303 31.7543 0.0069 -0.0751
# 5 2.8896 -3.6503 -8.8136 0.0069 30.8823 -0.0004
# 6 0.0058 0.0028 0.0014 -0.0751 -0.0004 30.0850
#
#
#
# Elastic Compliance Matrix: (Units=1/GPa)
#
#
# Indices 1 2 3 4 5 6 
#
# 1 0.011314 0.001943 -0.003069 0.000008 -0.001705 -0.000002
# 2 0.001943 0.014817 -0.003781 0.000013 0.000490 -0.000002
# 3 -0.003069 -0.003781 0.009867 0.000003 0.002656 0.000001
# 4 0.000008 0.000013 0.000003 0.031492 -0.000006 0.000079
# 5 -0.001705 0.000490 0.002656 -0.000006 0.033357 0.000001
# 6 -0.000002 -0.000002 0.000001 0.000079 0.000001 0.033239
#
#
# Mechanical properties :
#
#
# Convention : Reuss Voigt Hill
#
# Bulk Modulus (GPa) = 38.19324 43.83480 41.01402
# Shear Modulus (GPa) = 32.75908 34.96526 33.86217
#
# Velocity S-wave (km/s) = 3.78992 3.91545 3.85320
# Velocity P-wave (km/s) = 5.99144 6.29768 6.14647
#
# Compressibility (1/GPa) = 0.02618265
#
# Stress axis : x y z
#
# Youngs Moduli (GPa) = 88.38476 67.49121 101.34419
#
# Poissons Ratio (x) = -0.13111 0.31104
# Poissons Ratio (y) = -0.17170 0.38321
# Poissons Ratio (z) = 0.27126 0.25521
#
# Static dielectric constant tensor:
#      x y z
#    x 4.468250 0.000000 0.143660 
#    y 0.000000 3.847230 0.000020 
#    z 0.143660 0.000020 4.531000 
# 
# 
# High freq. dielectric constant tensor:
#      x y z
#    x 1.911050 0.000000 0.004750 
#    y 0.000000 1.872640 0.000000 
#    z 0.004750 0.000000 1.928180 
# 
# From -- ./inp_files/249097.got.cif
#   From: 2010.06.25/outbox.cif.g09.slc.cpg/sg15_125_cif.got.tgz:249097.got - 2010.06.28 07:06:18.
