data_PCOD8146490
_publ_section_title
;
Structure prediction by ZEFSAII (Michael W. Deem and Ramdas Pophale) SiO2 
 PCOD8146490
Probable space group: C 2/C
;
_chemical_formula_sum "Si O2"
_cell_formula_units_Z 64
_cell_length_a 28.844286
_cell_length_b 11.380893
_cell_length_c 9.837595
_cell_angle_alpha 90.000000
_cell_angle_beta 86.722697
_cell_angle_gamma 90.000000
_cell_volume 3224.142442
_symmetry_space_group_name_H-M "C 2/C"
_symmetry_group_IT_number 15
_symmetry_cell_setting 'monoclinic'
loop_
_space_group_symop_operation_xyz
x,y,z
-x,y,1/2-z
-x,-y,-z
x,-y,1/2+z
1/2+x,1/2+y,z
1/2-x,1/2+y,1/2-z
1/2-x,1/2-y,-z
1/2+x,1/2-y,1/2+z
loop_
_atom_site_type_symbol
_atom_site_label
_atom_site_fract_x
_atom_site_fract_y
_atom_site_fract_z
Si Si1 0.769524 0.870138 0.435084
Si Si2 0.891047 0.657313 0.235544
Si Si3 0.892349 0.666702 0.541121
Si Si4 0.664703 0.631974 0.335754
Si Si5 0.159720 0.123816 0.812600
Si Si6 0.818347 0.473995 0.585173
Si Si7 0.533257 0.008555 0.869290
Si Si8 0.697568 0.743895 0.055977
O O1 0.750000 0.750000 0.500000
O O2 0.800429 0.916145 0.554752
O O3 0.799037 0.837806 0.296744
O O4 0.734255 0.975137 0.393894
O O5 0.909929 0.653957 0.385046
O O6 0.884925 0.794472 0.204557
O O7 0.841655 0.587726 0.215647
O O8 0.932661 0.604261 0.138182
O O9 0.877693 0.796432 0.590719
O O10 0.846238 0.589846 0.547473
O O11 0.933460 0.622787 0.631600
O O12 0.644560 0.509756 0.281182
O O13 0.690478 0.709286 0.215070
O O14 0.173555 0.145489 0.967002
O O15 0.822856 0.375489 0.465291
O O16 0.500000 0.023300 0.750000
O O17 0.500000 0.000000 0.000000
O O18 0.750000 0.750000 0.000000
#
# Coordination Sequence:
#
# PCOD8146490 Si02
#       8
#     8   8   8   8   8   8   8   8
#     4  12  22  38  60  85 125 178 230 272 314 375
#     4  10  22  41  66  93 129 172 209 272 331 391
#     4  11  23  39  66  94 127 164 210 265 338 390
#     4  12  24  39  61  89 127 178 225 269 320 388
#     4  11  23  40  59  87 126 174 223 263 317 379
#     4  10  23  37  58  86 128 165 225 271 321 370
#     4  11  23  42  73 107 131 157 202 271 348 415
#     4  11  24  37  54  82 121 171 222 281 318 351
#
# _framework density 19.850241
#
# number of rings (size 3 to 8) (size 9 to 14) (size 15 to 20)
#    0.000    1.000    3.750    3.000    3.500    4.000 
#    0.000    0.000    0.000    1.500    0.000    0.000 
#    0.000    0.000    0.000    0.000    0.000    0.000 
#
# Total GULP energy -396529.561297 kJ/mol
# GULP energy per Si atom -12391.548791 kJ/mol
# Density = 1.980506 g / cm^3
# Si number density = 19.850241 Si / 1000 Ang^3
#
#
#
# Elastic Constant Matrix: (Units=GPa)
#
#
# Indices 1 2 3 4 5 6 
#
# 1 108.8877 53.3450 46.8926 0.0000 7.0669 0.0000
# 2 53.3450 137.4732 22.7221 0.0000 -3.4438 0.0000
# 3 46.8926 22.7221 100.0471 0.0000 -2.3254 0.0000
# 4 0.0000 0.0000 0.0000 22.6328 0.0000 -2.5097
# 5 7.0669 -3.4438 -2.3254 0.0000 33.9486 0.0000
# 6 0.0000 0.0000 0.0000 -2.5097 0.0000 24.4566
#
#
#
# Elastic Compliance Matrix: (Units=1/GPa)
#
#
# Indices 1 2 3 4 5 6 
#
# 1 0.014147 -0.004649 -0.005663 0.000000 -0.003804 0.000000
# 2 -0.004649 0.009100 0.000156 0.000000 0.001902 0.000000
# 3 -0.005663 0.000156 0.012662 0.000000 0.002062 0.000000
# 4 0.000000 0.000000 0.000000 0.044692 0.000000 0.004586
# 5 -0.003804 0.001902 0.002062 0.000000 0.030582 0.000000
# 6 0.000000 0.000000 0.000000 0.004586 0.000000 0.041359
#
#
# Mechanical properties :
#
#
# Convention : Reuss Voigt Hill
#
# Bulk Modulus (GPa) = 64.11308 65.81415 64.96362
# Shear Modulus (GPa) = 28.08132 31.10415 29.59274
#
# Velocity S-wave (km/s) = 3.76528 3.96275 3.86528
# Velocity P-wave (km/s) = 7.16042 7.35970 7.26074
#
# Compressibility (1/GPa) = 0.01559744
#
# Stress axis : x y z
#
# Youngs Moduli (GPa) = 70.68544 109.89170 78.97535
#
# Poissons Ratio (x) = 0.51087 0.44727
# Poissons Ratio (y) = 0.32861 -0.01236
# Poissons Ratio (z) = 0.40032 -0.01719
#
# Static dielectric constant tensor:
#      x y z
#    x 3.500110 0.000000 0.168880 
#    y 0.000000 3.795960 0.000000 
#    z 0.168880 0.000000 3.940970 
# 
# 
# High freq. dielectric constant tensor:
#      x y z
#    x 1.737620 0.000000 0.011300 
#    y 0.000000 1.783620 0.000000 
#    z 0.011300 0.000000 1.782850 
# 
# From -- ./inp_files/69381.got.cif
#   From: 2010.06.25/outbox.cif.g09.slc.cpg/sg15_35_cif.got.tgz:69381.got - 2010.06.28 07:06:18.
