data_PCOD8146639
_publ_section_title
;
Structure prediction by ZEFSAII (Michael W. Deem and Ramdas Pophale) SiO2 
 PCOD8146639
Probable space group: C 2/C
;
_chemical_formula_sum "Si O2"
_cell_formula_units_Z 60
_cell_length_a 27.592365
_cell_length_b 5.011157
_cell_length_c 18.799085
_cell_angle_alpha 90.000000
_cell_angle_beta 75.904996
_cell_angle_gamma 90.000000
_cell_volume 2521.085566
_symmetry_space_group_name_H-M "C 2/C"
_symmetry_group_IT_number 15
_symmetry_cell_setting 'monoclinic'
loop_
_space_group_symop_operation_xyz
x,y,z
-x,y,1/2-z
-x,-y,-z
x,-y,1/2+z
1/2+x,1/2+y,z
1/2-x,1/2+y,1/2-z
1/2-x,1/2-y,-z
1/2+x,1/2-y,1/2+z
loop_
_atom_site_type_symbol
_atom_site_label
_atom_site_fract_x
_atom_site_fract_y
_atom_site_fract_z
Si Si1 0.420065 0.147898 0.373294
Si Si2 0.624065 0.696055 0.746794
Si Si3 0.000000 0.656148 0.750000
Si Si4 0.755034 0.020648 0.414915
Si Si5 0.263508 0.787372 0.781640
Si Si6 0.918876 0.719925 0.673502
Si Si7 0.812232 0.498208 0.935315
Si Si8 0.965015 0.751477 0.506991
O O1 0.400316 0.362428 0.322103
O O2 0.466077 0.004544 0.318430
O O3 0.371990 0.961046 0.407640
O O4 0.436577 0.275687 0.441974
O O5 0.679081 0.812498 0.714007
O O6 0.626090 0.421892 0.790746
O O7 0.592617 0.915841 0.801989
O O8 0.034676 0.823200 0.792851
O O9 0.733282 0.888785 0.350656
O O10 0.794098 0.807163 0.434192
O O11 0.706740 0.089677 0.479856
O O12 0.785412 0.296962 0.389546
O O13 0.259456 0.584464 0.715722
O O14 0.926975 0.744265 0.586551
O O15 0.000000 0.500000 0.500000
O O16 0.000000 0.000000 0.500000
#
# Coordination Sequence:
#
# PCOD8146639 Si02
#       8
#     8   8   4   8   8   8   8   8
#     4  11  25  45  75 103 139 190 240 290 348 424
#     4  11  26  44  72 105 137 187 244 280 355 429
#     4  10  24  40  74 102 142 180 236 292 352 410
#     4  10  22  43  65 102 136 168 233 283 348 411
#     4  12  25  42  70 101 145 181 225 294 355 420
#     4  11  25  46  69 101 147 181 237 293 350 428
#     4  10  22  41  71  96 132 180 225 293 337 416
#     4  12  27  47  68 103 145 187 235 299 360 412
#
# _framework density 23.799272999999999
#
# number of rings (size 3 to 8) (size 9 to 14) (size 15 to 20)
#    0.000    1.067    2.667    2.400    7.467    3.733 
#    0.000    0.000    0.000    0.000    0.000    0.000 
#    0.000    0.000    0.000    0.000    0.000    0.000 
#
# Total GULP energy -371738.393372 kJ/mol
# GULP energy per Si atom -12391.279779 kJ/mol
# Density = 2.374510 g / cm^3
# Si number density = 23.799273 Si / 1000 Ang^3
#
#
#
# Elastic Constant Matrix: (Units=GPa)
#
#
# Indices 1 2 3 4 5 6 
#
# 1 79.3802 11.4371 42.1277 0.0000 -0.1663 0.0000
# 2 11.4371 85.7444 13.6552 0.0000 -0.4747 0.0000
# 3 42.1277 13.6552 155.4996 0.0000 2.3949 0.0000
# 4 0.0000 0.0000 0.0000 29.5785 0.0000 -2.0238
# 5 -0.1663 -0.4747 2.3949 0.0000 48.0319 0.0000
# 6 0.0000 0.0000 0.0000 -2.0238 0.0000 34.6999
#
#
#
# Elastic Compliance Matrix: (Units=1/GPa)
#
#
# Indices 1 2 3 4 5 6 
#
# 1 0.014871 -0.001359 -0.003913 0.000000 0.000233 0.000000
# 2 -0.001359 0.011954 -0.000684 0.000000 0.000148 0.000000
# 3 -0.003913 -0.000684 0.007557 0.000000 -0.000397 0.000000
# 4 0.000000 0.000000 0.000000 0.033944 0.000000 0.001980
# 5 0.000233 0.000148 -0.000397 0.000000 0.020842 0.000000
# 6 0.000000 0.000000 0.000000 0.001980 0.000000 0.028934
#
#
# Mechanical properties :
#
#
# Convention : Reuss Voigt Hill
#
# Bulk Modulus (GPa) = 44.50450 50.56268 47.53359
# Shear Modulus (GPa) = 36.36308 39.35567 37.85938
#
# Velocity S-wave (km/s) = 3.91309 4.07092 3.99278
# Velocity P-wave (km/s) = 6.25754 6.58697 6.42437
#
# Compressibility (1/GPa) = 0.02246964
#
# Stress axis : x y z
#
# Youngs Moduli (GPa) = 67.24709 83.65708 132.32535
#
# Poissons Ratio (x) = 0.11370 0.51778
# Poissons Ratio (y) = 0.09139 0.09048
# Poissons Ratio (z) = 0.26313 0.05720
#
# Static dielectric constant tensor:
#      x y z
#    x 4.243100 0.000000 -0.029730 
#    y 0.000000 4.212050 0.000000 
#    z -0.029730 0.000000 4.755480 
# 
# 
# High freq. dielectric constant tensor:
#      x y z
#    x 1.929200 0.000000 -0.004850 
#    y 0.000000 1.937120 0.000000 
#    z -0.004850 0.000000 1.965470 
# 
# From -- ./inp_files/223862.got.cif
#   From: 2010.06.25/outbox.cif.g09.slc.cpg/sg15_112_cif.got.tgz:223862.got - 2010.06.28 07:06:18.
