data_PCOD8146946
_publ_section_title
;
Structure prediction by ZEFSAII (Michael W. Deem and Ramdas Pophale) SiO2 
 PCOD8146946
Probable space group: C 2/C
;
_chemical_formula_sum "Si O2"
_cell_formula_units_Z 40
_cell_length_a 13.976743
_cell_length_b 12.138257
_cell_length_c 16.805084
_cell_angle_alpha 90.000000
_cell_angle_beta 141.408394
_cell_angle_gamma 90.000000
_cell_volume 1778.377947
_symmetry_space_group_name_H-M "C 2/C"
_symmetry_group_IT_number 15
_symmetry_cell_setting 'monoclinic'
loop_
_space_group_symop_operation_xyz
x,y,z
-x,y,1/2-z
-x,-y,-z
x,-y,1/2+z
1/2+x,1/2+y,z
1/2-x,1/2+y,1/2-z
1/2-x,1/2-y,-z
1/2+x,1/2-y,1/2+z
loop_
_atom_site_type_symbol
_atom_site_label
_atom_site_fract_x
_atom_site_fract_y
_atom_site_fract_z
Si Si1 0.162856 0.808486 0.013711
Si Si2 0.121024 0.044908 0.017313
Si Si3 0.041133 0.229076 0.685615
Si Si4 0.343950 0.189815 0.795610
Si Si5 0.569869 0.966136 0.712718
O O1 0.985132 0.771571 0.904718
O O2 0.167785 0.938265 0.994755
O O3 0.250000 0.750000 0.000000
O O4 0.254474 0.783994 0.155010
O O5 0.065721 0.146531 0.931054
O O6 0.264725 0.086574 0.160837
O O7 0.000000 0.000000 0.000000
O O8 0.219273 0.199094 0.784558
O O9 0.989921 0.354829 0.626572
O O10 0.000000 0.211515 0.750000
O O11 0.417284 0.066289 0.841059
O O12 0.500000 0.011821 0.750000
#
# Coordination Sequence:
#
# PCOD8146946 Si02
#       5
#     8   8   8   8   8
#     4  11  23  42  74 103 136 180 233 284 357 408
#     4  11  21  45  67  91 141 183 214 285 362 402
#     4  11  25  41  67  98 129 184 231 276 335 426
#     4  11  23  44  69 100 141 182 227 292 346 412
#     4  10  22  42  67  92 132 176 225 276 353 406
#
# _framework density 22.492407
#
# number of rings (size 3 to 8) (size 9 to 14) (size 15 to 20)
#    0.000    1.200    4.000    4.200    0.000    4.800 
#    0.000    3.000    0.000    0.000    0.000    0.000 
#    0.000    0.000    0.000    0.000    0.000    0.000 
#
# Total GULP energy -247867.530534 kJ/mol
# GULP energy per Si atom -12393.376527 kJ/mol
# Density = 2.244121 g / cm^3
# Si number density = 22.492407 Si / 1000 Ang^3
#
#
#
# Elastic Constant Matrix: (Units=GPa)
#
#
# Indices 1 2 3 4 5 6 
#
# 1 124.9005 11.6120 0.5637 0.0000 -1.8248 0.0000
# 2 11.6120 143.6672 25.8108 0.0000 -20.1118 0.0000
# 3 0.5637 25.8108 95.6778 0.0001 5.7362 0.0000
# 4 0.0000 0.0000 0.0001 36.8760 0.0001 3.7975
# 5 -1.8248 -20.1118 5.7362 0.0001 28.9915 0.0000
# 6 0.0000 0.0000 0.0000 3.7975 0.0000 37.4427
#
#
#
# Elastic Compliance Matrix: (Units=1/GPa)
#
#
# Indices 1 2 3 4 5 6 
#
# 1 0.008069 -0.000674 0.000134 0.000000 0.000014 0.000000
# 2 -0.000674 0.008367 -0.002630 0.000000 0.006282 0.000000
# 3 0.000134 -0.002630 0.011405 0.000000 -0.004072 0.000000
# 4 0.000000 0.000000 0.000000 0.027404 0.000000 -0.002779
# 5 0.000014 0.006282 -0.004072 0.000000 0.039657 0.000000
# 6 0.000000 0.000000 0.000000 -0.002779 0.000000 0.026989
#
#
# Mechanical properties :
#
#
# Convention : Reuss Voigt Hill
#
# Bulk Modulus (GPa) = 46.51346 48.91314 47.71330
# Shear Modulus (GPa) = 36.92805 42.41265 39.67035
#
# Velocity S-wave (km/s) = 4.05631 4.34711 4.20422
# Velocity P-wave (km/s) = 6.53167 6.85494 6.69526
#
# Compressibility (1/GPa) = 0.02149915
#
# Stress axis : x y z
#
# Youngs Moduli (GPa) = 123.93637 119.51842 87.68441
#
# Poissons Ratio (x) = 0.08058 -0.01171
# Poissons Ratio (y) = 0.08356 0.23059
# Poissons Ratio (z) = -0.01655 0.31431
#
# Static dielectric constant tensor:
#      x y z
#    x 4.383060 0.000000 0.322740 
#    y 0.000000 5.038620 0.000000 
#    z 0.322740 0.000000 3.965050 
# 
# 
# High freq. dielectric constant tensor:
#      x y z
#    x 1.899670 0.000000 0.027980 
#    y 0.000000 1.909500 0.000000 
#    z 0.027980 0.000000 1.865600 
# 
# From -- ./inp_files/94523.got.cif
#   From: 2010.06.25/outbox.cif.g09.slc.cpg/sg15_48_cif.got.tgz:94523.got - 2010.06.28 07:06:18.
