data_PCOD8146250
_publ_section_title
;
Structure prediction by ZEFSAII (Michael W. Deem and Ramdas Pophale) SiO2 
 PCOD8146250
Probable space group: C 2/C
;
_chemical_formula_sum "Si O2"
_cell_formula_units_Z 56
_cell_length_a 16.718356
_cell_length_b 17.668304
_cell_length_c 8.865533
_cell_angle_alpha 90.000000
_cell_angle_beta 98.217704
_cell_angle_gamma 90.000000
_cell_volume 2591.856447
_symmetry_space_group_name_H-M "C 2/C"
_symmetry_group_IT_number 15
_symmetry_cell_setting 'monoclinic'
loop_
_space_group_symop_operation_xyz
x,y,z
-x,y,1/2-z
-x,-y,-z
x,-y,1/2+z
1/2+x,1/2+y,z
1/2-x,1/2+y,1/2-z
1/2-x,1/2-y,-z
1/2+x,1/2-y,1/2+z
loop_
_atom_site_type_symbol
_atom_site_label
_atom_site_fract_x
_atom_site_fract_y
_atom_site_fract_z
Si Si1 0.092132 0.456278 0.260626
Si Si2 0.786956 0.019100 0.641839
Si Si3 0.307525 0.125748 0.463633
Si Si4 0.666801 0.642792 0.622666
Si Si5 0.597588 0.781090 0.756256
Si Si6 0.346894 0.089298 0.048664
Si Si7 0.050989 0.947882 0.906308
O O1 0.138178 0.403949 0.388110
O O2 0.110144 0.544288 0.302774
O O3 0.000000 0.436914 0.250000
O O4 0.115858 0.438593 0.097500
O O5 0.789897 0.067185 0.797945
O O6 0.748622 0.070759 0.495934
O O7 0.733380 0.942256 0.646572
O O8 0.878274 0.002120 0.629588
O O9 0.234061 0.174122 0.522290
O O10 0.368361 0.175987 0.381840
O O11 0.637493 0.697996 0.749401
O O12 0.585679 0.623596 0.506925
O O13 0.500000 0.778624 0.750000
O O14 0.635856 0.822062 0.913982
O O15 0.000000 0.917585 0.750000
O O16 0.000000 0.000000 0.000000
#
# Coordination Sequence:
#
# PCOD8146250 Si02
#       7
#     8   8   8   8   8   8   8
#     4  11  20  36  66  96 133 171 238 289 329 397
#     4  10  22  40  71 100 130 177 239 286 336 414
#     4  10  23  44  69  98 135 184 237 282 344 419
#     4  11  24  45  70 100 138 187 228 287 349 422
#     4  12  27  43  67  99 148 186 224 285 359 416
#     4  11  22  39  62 100 132 184 227 280 344 409
#     4  11  23  40  72 105 132 173 232 296 346 393
#
# _framework density 21.606134000000001
#
# number of rings (size 3 to 8) (size 9 to 14) (size 15 to 20)
#    0.000    1.143    2.857    3.857    6.000    0.571 
#    0.000    2.143    3.143    0.000    0.000    0.000 
#    0.000    0.000    0.000    0.000    0.000    0.000 
#
# Total GULP energy -346957.848009 kJ/mol
# GULP energy per Si atom -12391.351715 kJ/mol
# Density = 2.155696 g / cm^3
# Si number density = 21.606134 Si / 1000 Ang^3
#
#
#
# Elastic Constant Matrix: (Units=GPa)
#
#
# Indices 1 2 3 4 5 6 
#
# 1 153.8821 42.4478 46.8496 0.0000 -1.3555 0.0000
# 2 42.4478 76.9008 42.0498 0.0000 1.6150 0.0000
# 3 46.8496 42.0498 110.9770 0.0000 2.8482 0.0000
# 4 0.0000 0.0000 0.0000 35.2069 0.0000 -7.5405
# 5 -1.3555 1.6150 2.8482 0.0000 40.8104 0.0000
# 6 0.0000 0.0000 0.0000 -7.5405 0.0000 29.4597
#
#
#
# Elastic Compliance Matrix: (Units=1/GPa)
#
#
# Indices 1 2 3 4 5 6 
#
# 1 0.008070 -0.003274 -0.002181 0.000000 0.000550 0.000000
# 2 -0.003274 0.017732 -0.005325 0.000000 -0.000439 0.000000
# 3 -0.002181 -0.005325 0.011967 0.000000 -0.000697 0.000000
# 4 0.000000 0.000000 0.000000 0.030051 0.000000 0.007692
# 5 0.000550 -0.000439 -0.000697 0.000000 0.024588 0.000000
# 6 0.000000 0.000000 0.000000 0.007692 0.000000 0.035913
#
#
# Mechanical properties :
#
#
# Convention : Reuss Voigt Hill
#
# Bulk Modulus (GPa) = 61.69107 67.16158 64.42633
# Shear Modulus (GPa) = 32.19896 35.12293 33.66094
#
# Velocity S-wave (km/s) = 3.86459 4.03625 3.95135
# Velocity P-wave (km/s) = 6.96620 7.27143 7.12045
#
# Compressibility (1/GPa) = 0.01620980
#
# Stress axis : x y z
#
# Youngs Moduli (GPa) = 123.91148 56.39499 83.56229
#
# Poissons Ratio (x) = 0.18463 0.18221
# Poissons Ratio (y) = 0.40567 0.44501
# Poissons Ratio (z) = 0.27019 0.30033
#
# Static dielectric constant tensor:
#      x y z
#    x 4.009060 0.000000 -0.062440 
#    y 0.000000 3.783730 0.000000 
#    z -0.062440 0.000000 3.958640 
# 
# 
# High freq. dielectric constant tensor:
#      x y z
#    x 1.873240 0.000000 -0.005670 
#    y 0.000000 1.820850 0.000000 
#    z -0.005670 0.000000 1.853610 
# 
# From -- ./inp_files/49134.got.cif
#   From: 2010.06.25/outbox.cif.g09.slc.cpg/sg15_25_cif.got.tgz:49134.got - 2010.06.28 07:06:18.
