data_PCOD8146838
_publ_section_title
;
Structure prediction by ZEFSAII (Michael W. Deem and Ramdas Pophale) SiO2 
 PCOD8146838
Probable space group: C 2/C
;
_chemical_formula_sum "Si O2"
_cell_formula_units_Z 60
_cell_length_a 28.942840
_cell_length_b 8.623282
_cell_length_c 23.883448
_cell_angle_alpha 90.000000
_cell_angle_beta 151.032688
_cell_angle_gamma 90.000000
_cell_volume 2886.919643
_symmetry_space_group_name_H-M "C 2/C"
_symmetry_group_IT_number 15
_symmetry_cell_setting 'monoclinic'
loop_
_space_group_symop_operation_xyz
x,y,z
-x,y,1/2-z
-x,-y,-z
x,-y,1/2+z
1/2+x,1/2+y,z
1/2-x,1/2+y,1/2-z
1/2-x,1/2-y,-z
1/2+x,1/2-y,1/2+z
loop_
_atom_site_type_symbol
_atom_site_label
_atom_site_fract_x
_atom_site_fract_y
_atom_site_fract_z
Si Si1 0.258889 0.171221 0.298021
Si Si2 0.060311 0.878373 0.528430
Si Si3 0.751137 0.412732 0.378808
Si Si4 0.373296 0.381280 0.022517
Si Si5 0.204861 0.588573 0.825033
Si Si6 0.321766 0.338243 0.616561
Si Si7 0.112410 0.313372 0.672713
Si Si8 0.000000 0.989593 0.750000
O O1 0.154179 0.159423 0.161734
O O2 0.262801 0.331909 0.335855
O O3 0.336004 0.182301 0.331834
O O4 0.284256 0.026930 0.364557
O O5 0.086647 0.939390 0.494621
O O6 0.998366 0.721797 0.454878
O O7 0.000000 0.000000 0.500000
O O8 0.839105 0.297185 0.484229
O O9 0.726291 0.506518 0.409092
O O10 0.657723 0.319870 0.259939
O O11 0.455246 0.398267 0.155676
O O12 0.282724 0.489358 0.942681
O O13 0.153103 0.719471 0.806833
O O14 0.121842 0.478018 0.713482
O O15 0.250000 0.250000 0.500000
O O16 0.419934 0.377286 0.690166
#
# Coordination Sequence:
#
# PCOD8146838 Si02
#       8
#     8   8   8   8   8   8   8   4
#     4  11  21  40  66  96 139 179 214 268 344 404
#     4  12  23  38  67 101 137 181 221 272 335 409
#     4  10  22  43  68  95 133 177 221 282 343 405
#     4  11  24  45  69  98 134 176 236 276 338 403
#     4  10  22  42  65  93 135 178 216 283 338 403
#     4  11  24  48  69  94 130 179 230 290 352 394
#     4  11  21  39  62  99 138 174 220 270 332 411
#     4  12  26  46  72 100 132 180 234 288 342 418
#
# _framework density 20.783397000000001
#
# number of rings (size 3 to 8) (size 9 to 14) (size 15 to 20)
#    0.000    1.067    5.333    2.400    1.867    1.067 
#    4.800    0.000    0.000    0.000    0.000    0.000 
#    0.000    0.000    0.000    0.000    0.000    0.000 
#
# Total GULP energy -372078.978842 kJ/mol
# GULP energy per Si atom -12402.632628 kJ/mol
# Density = 2.073609 g / cm^3
# Si number density = 20.783397 Si / 1000 Ang^3
#
#
#
# Elastic Constant Matrix: (Units=GPa)
#
#
# Indices 1 2 3 4 5 6 
#
# 1 120.0714 53.2638 49.0505 0.0000 1.3886 0.0000
# 2 53.2638 114.4421 44.1318 -0.0001 -8.3605 -0.0001
# 3 49.0505 44.1318 115.6920 0.0000 -6.4064 0.0000
# 4 0.0000 -0.0001 0.0000 52.0683 0.0000 9.3069
# 5 1.3886 -8.3605 -6.4064 0.0000 32.2511 0.0000
# 6 0.0000 -0.0001 0.0000 9.3069 0.0000 33.9003
#
#
#
# Elastic Compliance Matrix: (Units=1/GPa)
#
#
# Indices 1 2 3 4 5 6 
#
# 1 0.011652 -0.004263 -0.003440 0.000000 -0.002290 0.000000
# 2 -0.004263 0.011922 -0.002587 0.000000 0.002760 0.000000
# 3 -0.003440 -0.002587 0.011183 0.000000 0.001699 0.000000
# 4 0.000000 0.000000 0.000000 0.020197 0.000000 -0.005545
# 5 -0.002290 0.002760 0.001699 0.000000 0.032158 0.000000
# 6 0.000000 0.000000 0.000000 -0.005545 0.000000 0.031020
#
#
# Mechanical properties :
#
#
# Convention : Reuss Voigt Hill
#
# Bulk Modulus (GPa) = 70.55018 71.45528 71.00273
# Shear Modulus (GPa) = 34.85801 37.22791 36.04296
#
# Velocity S-wave (km/s) = 4.09981 4.23689 4.16891
# Velocity P-wave (km/s) = 7.51202 7.64137 7.57697
#
# Compressibility (1/GPa) = 0.01417431
#
# Stress axis : x y z
#
# Youngs Moduli (GPa) = 85.82497 83.88076 89.41908
#
# Poissons Ratio (x) = 0.35763 0.30764
# Poissons Ratio (y) = 0.36591 0.23134
# Poissons Ratio (z) = 0.29528 0.21701
#
# Static dielectric constant tensor:
#      x y z
#    x 3.656930 0.000000 -0.303020 
#    y 0.000000 3.878670 0.000000 
#    z -0.303020 0.000000 3.658000 
# 
# 
# High freq. dielectric constant tensor:
#      x y z
#    x 1.817800 0.000000 -0.008340 
#    y 0.000000 1.822170 0.000000 
#    z -0.008340 0.000000 1.807180 
# 
# From -- ./inp_files/283363.got.cif
#   From: 2010.06.25/outbox.cif.g09.slc.cpg/sg15_142_cif.got.tgz:283363.got - 2010.06.28 07:06:18.
