data_PCOD8146660
_publ_section_title
;
Structure prediction by ZEFSAII (Michael W. Deem and Ramdas Pophale) SiO2 
 PCOD8146660
Probable space group: C 2/C
;
_chemical_formula_sum "Si O2"
_cell_formula_units_Z 44
_cell_length_a 11.158189
_cell_length_b 14.223777
_cell_length_c 11.911070
_cell_angle_alpha 90.000000
_cell_angle_beta 91.502516
_cell_angle_gamma 90.000000
_cell_volume 1889.774907
_symmetry_space_group_name_H-M "C 2/C"
_symmetry_group_IT_number 15
_symmetry_cell_setting 'monoclinic'
loop_
_space_group_symop_operation_xyz
x,y,z
-x,y,1/2-z
-x,-y,-z
x,-y,1/2+z
1/2+x,1/2+y,z
1/2-x,1/2+y,1/2-z
1/2-x,1/2-y,-z
1/2+x,1/2-y,1/2+z
loop_
_atom_site_type_symbol
_atom_site_label
_atom_site_fract_x
_atom_site_fract_y
_atom_site_fract_z
Si Si1 0.885133 0.110603 0.673461
Si Si2 0.221564 0.427945 0.639765
Si Si3 0.612912 0.733269 0.024756
Si Si4 0.064251 0.386891 0.432437
Si Si5 0.310255 0.245556 0.735833
Si Si6 0.000000 0.525993 0.250000
O O1 0.931095 0.144399 0.550655
O O2 0.814204 0.198320 0.726299
O O3 0.000000 0.083633 0.750000
O O4 0.801316 0.019982 0.659571
O O5 0.167068 0.428817 0.513860
O O6 0.296634 0.332536 0.651157
O O7 0.123377 0.416573 0.738947
O O8 0.528490 0.823860 0.996860
O O9 0.607691 0.717047 0.158745
O O10 0.750000 0.750000 0.000000
O O11 0.120408 0.333421 0.329248
O O12 0.994645 0.471391 0.369515
#
# Coordination Sequence:
#
# PCOD8146660 Si02
#       6
#     8   8   8   8   8   4
#     4  11  25  47  68 107 149 191 245 295 356 434
#     4  12  28  41  75 106 142 190 244 294 362 424
#     4  10  22  41  75 100 140 191 238 291 361 423
#     4  12  23  48  70 103 145 188 239 302 351 431
#     4  11  24  46  69 104 146 188 238 293 364 425
#     4  12  24  44  72 104 142 176 250 298 352 428
#
# _framework density 23.283194999999999
#
# number of rings (size 3 to 8) (size 9 to 14) (size 15 to 20)
#    0.000    0.727    3.636    3.273    8.909    1.455 
#    0.000    2.727    0.000    0.000    0.000    0.000 
#    0.000    0.000    0.000    0.000    0.000    0.000 
#
# Total GULP energy -272758.227129 kJ/mol
# GULP energy per Si atom -12398.101233 kJ/mol
# Density = 2.323020 g / cm^3
# Si number density = 23.283195 Si / 1000 Ang^3
#
#
#
# Elastic Constant Matrix: (Units=GPa)
#
#
# Indices 1 2 3 4 5 6 
#
# 1 74.8248 12.0561 41.9429 0.0000 20.1383 0.0000
# 2 12.0561 68.9564 26.5516 0.0000 17.5745 0.0000
# 3 41.9429 26.5516 131.1882 0.0000 24.5774 0.0000
# 4 0.0000 0.0000 0.0000 -4.3599 0.0000 21.0273
# 5 20.1383 17.5745 24.5774 0.0000 46.5332 0.0000
# 6 0.0000 0.0000 0.0000 21.0273 0.0000 24.5781
#
#
#
# Elastic Compliance Matrix: (Units=1/GPa)
#
#
# Indices 1 2 3 4 5 6 
#
# 1 0.017296 0.000036 -0.004586 0.000000 -0.005076 0.000000
# 2 0.000036 0.016724 -0.002453 0.000000 -0.005036 0.000000
# 3 -0.004586 -0.002453 0.010033 0.000000 -0.002388 0.000000
# 4 0.000000 0.000000 0.000000 -0.044744 0.000000 0.038280
# 5 -0.005076 -0.005036 -0.002388 0.000000 0.026850 0.000000
# 6 0.000000 0.000000 0.000000 0.038280 0.000000 0.007937
#
#
# Mechanical properties :
#
#
# Convention : Reuss Voigt Hill
#
# Bulk Modulus (GPa) = 33.28214 48.45229 40.86721
# Shear Modulus (GPa) = 86.03449 26.31155 56.17302
#
# Velocity S-wave (km/s) = 6.08535 3.36529 4.91715
# Velocity P-wave (km/s) = 7.98129 5.99628 7.05891
#
# Compressibility (1/GPa) = 0.03004614
#
# Stress axis : x y z
#
# Youngs Moduli (GPa) = 57.81796 59.79573 99.67536
#
# Poissons Ratio (x) = -0.00213 0.45710
# Poissons Ratio (y) = -0.00206 0.24447
# Poissons Ratio (z) = 0.26514 0.14666
#
# Static dielectric constant tensor:
#      x y z
#    x 4.172190 0.000000 0.005950 
#    y 0.000000 4.165970 0.000000 
#    z 0.005950 0.000000 4.607110 
# 
# 
# High freq. dielectric constant tensor:
#      x y z
#    x 1.921940 0.000000 0.004790 
#    y 0.000000 1.913590 0.000000 
#    z 0.004790 0.000000 1.934920 
# 
# From -- ./inp_files/86158.got.cif
#   From: 2010.06.25/outbox.cif.g09.slc.cpg/sg15_44_cif.got.tgz:86158.got - 2010.06.28 07:06:18.
