data_PCOD8146430
_publ_section_title
;
Structure prediction by ZEFSAII (Michael W. Deem and Ramdas Pophale) SiO2 
 PCOD8146430
Probable space group: C 2/C
;
_chemical_formula_sum "Si O2"
_cell_formula_units_Z 48
_cell_length_a 23.905471
_cell_length_b 10.411275
_cell_length_c 26.971885
_cell_angle_alpha 90.000000
_cell_angle_beta 161.395438
_cell_angle_gamma 90.000000
_cell_volume 2141.660078
_symmetry_space_group_name_H-M "C 2/C"
_symmetry_group_IT_number 15
_symmetry_cell_setting 'monoclinic'
loop_
_space_group_symop_operation_xyz
x,y,z
-x,y,1/2-z
-x,-y,-z
x,-y,1/2+z
1/2+x,1/2+y,z
1/2-x,1/2+y,1/2-z
1/2-x,1/2-y,-z
1/2+x,1/2-y,1/2+z
loop_
_atom_site_type_symbol
_atom_site_label
_atom_site_fract_x
_atom_site_fract_y
_atom_site_fract_z
Si Si1 0.273740 0.284322 0.400744
Si Si2 0.132074 0.084806 0.204349
Si Si3 0.297691 0.646082 0.580987
Si Si4 0.897989 0.597120 0.342895
Si Si5 0.445511 0.921157 0.106447
Si Si6 0.261142 0.326994 0.163139
O O1 0.224770 0.200379 0.311484
O O2 0.435489 0.377769 0.523596
O O3 0.318108 0.196138 0.484979
O O4 0.105238 0.370652 0.274707
O O5 0.239771 0.054769 0.244965
O O6 0.123851 0.954692 0.229863
O O7 0.500000 0.603853 0.750000
O O8 0.250000 0.750000 0.500000
O O9 0.172499 0.524843 0.464125
O O10 0.255968 0.702016 0.600124
O O11 0.839217 0.704774 0.255054
O O12 0.967420 0.474070 0.371207
O O13 0.060633 0.649552 0.512565
#
# Coordination Sequence:
#
# PCOD8146430 Si02
#       6
#     8   8   8   8   8   8
#     4  10  22  41  65  90 142 181 220 262 338 397
#     4  11  22  39  64  96 140 189 220 268 330 408
#     4  11  23  47  73  98 133 172 227 291 344 383
#     4  11  23  37  63  97 143 177 229 272 333 398
#     4  10  23  43  65 100 132 178 226 278 334 399
#     4  11  24  41  62 102 135 172 229 282 330 401
#
# _framework density 22.412521000000002
#
# number of rings (size 3 to 8) (size 9 to 14) (size 15 to 20)
#    0.000    1.333    3.333    3.500    7.000    0.667 
#    3.000    0.833    0.000    0.000    0.000    0.000 
#    0.000    0.000    0.000    0.000    0.000    0.000 
#
# Total GULP energy -297664.012340 kJ/mol
# GULP energy per Si atom -12402.667181 kJ/mol
# Density = 2.236151 g / cm^3
# Si number density = 22.412521 Si / 1000 Ang^3
#
#
#
# Elastic Constant Matrix: (Units=GPa)
#
#
# Indices 1 2 3 4 5 6 
#
# 1 73.5064 44.7052 37.9806 -0.0023 8.1831 -0.0012
# 2 44.7052 103.9607 67.7636 0.0004 0.5203 -0.0016
# 3 37.9806 67.7636 171.3890 0.0206 12.2037 0.0155
# 4 -0.0023 0.0004 0.0206 50.6300 0.0148 0.2583
# 5 8.1831 0.5203 12.2037 0.0148 31.6283 0.0050
# 6 -0.0012 -0.0016 0.0155 0.2583 0.0050 24.6889
#
#
#
# Elastic Compliance Matrix: (Units=1/GPa)
#
#
# Indices 1 2 3 4 5 6 
#
# 1 0.019231 -0.007649 -0.000917 0.000003 -0.004496 0.000002
# 2 -0.007649 0.016103 -0.004929 0.000000 0.003616 0.000003
# 3 -0.000917 -0.004929 0.008189 -0.000002 -0.002841 -0.000005
# 4 0.000003 0.000000 -0.000002 0.019752 -0.000009 -0.000207
# 5 -0.004496 0.003616 -0.002841 -0.000009 0.033817 -0.000005
# 6 0.000002 0.000003 -0.000005 -0.000207 -0.000005 0.040506
#
#
# Mechanical properties :
#
#
# Convention : Reuss Voigt Hill
#
# Bulk Modulus (GPa) = 60.48942 72.19501 66.34222
# Shear Modulus (GPa) = 29.39428 34.61653 32.00541
#
# Velocity S-wave (km/s) = 3.62541 3.93430 3.78301
# Velocity P-wave (km/s) = 6.67626 7.27462 6.98186
#
# Compressibility (1/GPa) = 0.01653182
#
# Stress axis : x y z
#
# Youngs Moduli (GPa) = 51.99982 62.09920 122.11259
#
# Poissons Ratio (x) = 0.47502 0.11199
# Poissons Ratio (y) = 0.39776 0.60192
# Poissons Ratio (z) = 0.04769 0.30610
#
# Static dielectric constant tensor:
#      x y z
#    x 3.734970 -0.000050 0.160320 
#    y -0.000050 4.086590 -0.000090 
#    z 0.160320 -0.000090 4.514020 
# 
# 
# High freq. dielectric constant tensor:
#      x y z
#    x 1.851260 0.000000 0.004020 
#    y 0.000000 1.887760 -0.000010 
#    z 0.004020 -0.000010 1.907460 
# 
# From -- ./inp_files/302224.got.cif
#   From: 2010.06.25/outbox.cif.g09.slc.cpg/sg15_152_cif.got.tgz:302224.got - 2010.06.28 07:06:18.
