data_PCOD8146388
_publ_section_title
;
Structure prediction by ZEFSAII (Michael W. Deem and Ramdas Pophale) SiO2 
 PCOD8146388
Probable space group: C 2/C
;
_chemical_formula_sum "Si O2"
_cell_formula_units_Z 48
_cell_length_a 14.678694
_cell_length_b 11.880560
_cell_length_c 18.582827
_cell_angle_alpha 90.000000
_cell_angle_beta 42.976408
_cell_angle_gamma 90.000000
_cell_volume 2209.162174
_symmetry_space_group_name_H-M "C 2/C"
_symmetry_group_IT_number 15
_symmetry_cell_setting 'monoclinic'
loop_
_space_group_symop_operation_xyz
x,y,z
-x,y,1/2-z
-x,-y,-z
x,-y,1/2+z
1/2+x,1/2+y,z
1/2-x,1/2+y,1/2-z
1/2-x,1/2-y,-z
1/2+x,1/2-y,1/2+z
loop_
_atom_site_type_symbol
_atom_site_label
_atom_site_fract_x
_atom_site_fract_y
_atom_site_fract_z
Si Si1 0.500000 0.630316 0.750000
Si Si2 0.415859 0.021705 0.478490
Si Si3 0.216501 0.720581 0.881852
Si Si4 0.852228 0.945294 0.915095
Si Si5 0.362845 0.103726 0.720449
Si Si6 0.500000 0.742759 0.250000
Si Si7 0.652557 0.520053 0.426691
O O1 0.376853 0.706312 0.793786
O O2 0.450624 0.550063 0.843126
O O3 0.363150 0.151209 0.509239
O O4 0.500000 0.000000 0.500000
O O5 0.281488 0.946470 0.556361
O O6 0.512831 0.984730 0.357505
O O7 0.163435 0.677154 0.835528
O O8 0.182873 0.848730 0.915328
O O9 0.926834 0.829843 0.853877
O O10 0.807294 0.954261 0.023835
O O11 0.390970 0.184292 0.771312
O O12 0.232863 0.030556 0.813103
O O13 0.500000 0.500000 0.500000
#
# Coordination Sequence:
#
# PCOD8146388 Si02
#       7
#     4   8   8   8   8   4   8
#     4   9  20  41  66  92 122 163 206 247 308 370
#     4   9  21  41  64  93 124 162 207 249 302 368
#     4  10  23  42  66  90 127 167 199 257 309 354
#     4  10  22  41  64  93 126 161 205 252 306 371
#     4  11  24  40  63  94 124 162 210 252 305 371
#     4  11  24  43  66  90 126 165 200 259 314 356
#     4  12  26  41  62  93 124 161 212 256 305 372
#
# _framework density 21.727695000000001
#
# number of rings (size 3 to 8) (size 9 to 14) (size 15 to 20)
#    0.000    1.667    0.000    3.000    0.000   18.000 
#    0.000    0.000    0.000    0.000    0.000    0.000 
#    0.000    0.000    0.000    0.000    0.000    0.000 
#
# Total GULP energy -297558.099744 kJ/mol
# GULP energy per Si atom -12398.254156 kJ/mol
# Density = 2.167824 g / cm^3
# Si number density = 21.727695 Si / 1000 Ang^3
#
#
#
# Elastic Constant Matrix: (Units=GPa)
#
#
# Indices 1 2 3 4 5 6 
#
# 1 106.1613 42.7091 36.2356 0.0000 -21.5504 0.0000
# 2 42.7091 121.9002 66.1034 0.0000 -9.3651 0.0000
# 3 36.2356 66.1034 134.9021 0.0000 -17.8433 0.0000
# 4 0.0000 0.0000 0.0000 27.0818 0.0000 -1.5856
# 5 -21.5504 -9.3651 -17.8433 0.0000 45.7059 0.0000
# 6 0.0000 0.0000 0.0000 -1.5856 0.0000 29.9498
#
#
#
# Elastic Compliance Matrix: (Units=1/GPa)
#
#
# Indices 1 2 3 4 5 6 
#
# 1 0.012030 -0.003322 -0.000995 0.000000 0.004603 0.000000
# 2 -0.003322 0.012090 -0.005179 0.000000 -0.001111 0.000000
# 3 -0.000995 -0.005179 0.010561 0.000000 0.002593 0.000000
# 4 0.000000 0.000000 0.000000 0.037040 0.000000 0.001961
# 5 0.004603 -0.001111 0.002593 0.000000 0.024834 0.000000
# 6 0.000000 0.000000 0.000000 0.001961 0.000000 0.033493
#
#
# Mechanical properties :
#
#
# Convention : Reuss Voigt Hill
#
# Bulk Modulus (GPa) = 63.73559 72.56220 68.14890
# Shear Modulus (GPa) = 32.41088 35.07521 33.74304
#
# Velocity S-wave (km/s) = 3.86642 4.02221 3.94508
# Velocity P-wave (km/s) = 7.02352 7.41886 7.22390
#
# Compressibility (1/GPa) = 0.01568982
#
# Stress axis : x y z
#
# Youngs Moduli (GPa) = 83.12587 82.71031 94.69059
#
# Poissons Ratio (x) = 0.27474 0.09420
# Poissons Ratio (y) = 0.27612 0.49041
# Poissons Ratio (z) = 0.08269 0.42836
#
# Static dielectric constant tensor:
#      x y z
#    x 3.908370 0.000000 -0.081070 
#    y 0.000000 3.920620 0.000000 
#    z -0.081070 0.000000 4.330850 
# 
# 
# High freq. dielectric constant tensor:
#      x y z
#    x 1.859210 0.000000 -0.013390 
#    y 0.000000 1.849000 0.000000 
#    z -0.013390 0.000000 1.862660 
# 
# From -- ./inp_files/243960.got.cif
#   From: 2010.06.25/outbox.cif.g09.slc.cpg/sg15_122_cif.got.tgz:243960.got - 2010.06.28 07:06:18.
