data_PCOD8146683
_publ_section_title
;
Structure prediction by ZEFSAII (Michael W. Deem and Ramdas Pophale) SiO2 
 PCOD8146683
Probable space group: C 2/C
;
_chemical_formula_sum "Si O2"
_cell_formula_units_Z 44
_cell_length_a 9.803888
_cell_length_b 10.423538
_cell_length_c 19.718011
_cell_angle_alpha 90.000000
_cell_angle_beta 64.230674
_cell_angle_gamma 90.000000
_cell_volume 1814.618046
_symmetry_space_group_name_H-M "C 2/C"
_symmetry_group_IT_number 15
_symmetry_cell_setting 'monoclinic'
loop_
_space_group_symop_operation_xyz
x,y,z
-x,y,1/2-z
-x,-y,-z
x,-y,1/2+z
1/2+x,1/2+y,z
1/2-x,1/2+y,1/2-z
1/2-x,1/2-y,-z
1/2+x,1/2-y,1/2+z
loop_
_atom_site_type_symbol
_atom_site_label
_atom_site_fract_x
_atom_site_fract_y
_atom_site_fract_z
Si Si1 0.500000 0.382453 0.250000
Si Si2 0.715469 0.184213 0.738115
Si Si3 0.311447 0.408959 0.858949
Si Si4 0.283243 0.516725 0.601609
Si Si5 0.040100 0.819653 0.538730
Si Si6 0.022300 0.436584 0.394696
O O1 0.627238 0.291111 0.255601
O O2 0.576342 0.471585 0.176014
O O3 0.667562 0.309598 0.707311
O O4 0.740815 0.059808 0.686046
O O5 0.580197 0.148217 0.818172
O O6 0.345375 0.344227 0.923450
O O7 0.139598 0.459491 0.896570
O O8 0.377821 0.386404 0.585162
O O9 0.382857 0.630795 0.546642
O O10 0.131268 0.489177 0.591810
O O11 0.011743 0.667463 0.538758
#
# Coordination Sequence:
#
# PCOD8146683 Si02
#       6
#     4   8   8   8   8   8
#     4  10  22  42  60  96 130 168 212 264 334 372
#     4  11  23  41  68  95 133 166 218 274 321 389
#     4  11  23  41  67  94 128 172 213 268 323 385
#     4  11  24  44  68  97 132 176 216 268 334 380
#     4  11  24  46  67  93 138 172 216 273 322 396
#     4  11  25  41  69  97 128 174 222 266 325 390
#
# _framework density 24.247527000000002
#
# number of rings (size 3 to 8) (size 9 to 14) (size 15 to 20)
#    0.000    1.091    3.636    2.182    2.545    3.636 
#    0.000    1.818    0.000    0.000    0.000    0.000 
#    0.000    0.000    0.000    0.000    0.000    0.000 
#
# Total GULP energy -272948.618893 kJ/mol
# GULP energy per Si atom -12406.755404 kJ/mol
# Density = 2.419234 g / cm^3
# Si number density = 24.247527 Si / 1000 Ang^3
#
#
#
# Elastic Constant Matrix: (Units=GPa)
#
#
# Indices 1 2 3 4 5 6 
#
# 1 137.1177 30.8641 -3.4851 0.0000 -19.2520 0.0000
# 2 30.8641 49.2950 -4.4636 0.0000 0.4965 0.0000
# 3 -3.4851 -4.4636 42.1916 0.0000 1.9837 0.0000
# 4 0.0000 0.0000 0.0000 23.7504 0.0000 -4.5529
# 5 -19.2520 0.4965 1.9837 0.0000 32.6814 0.0000
# 6 0.0000 0.0000 0.0000 -4.5529 0.0000 31.3597
#
#
#
# Elastic Compliance Matrix: (Units=1/GPa)
#
#
# Indices 1 2 3 4 5 6 
#
# 1 0.009427 -0.005970 -0.000119 0.000000 0.005651 0.000000
# 2 -0.005970 0.024270 0.002264 0.000000 -0.004023 0.000000
# 3 -0.000119 0.002264 0.024004 0.000000 -0.001561 0.000000
# 4 0.000000 0.000000 0.000000 0.043310 0.000000 0.006288
# 5 0.005651 -0.004023 -0.001561 0.000000 0.034083 0.000000
# 6 0.000000 0.000000 0.000000 0.006288 0.000000 0.032801
#
#
# Mechanical properties :
#
#
# Convention : Reuss Voigt Hill
#
# Bulk Modulus (GPa) = 19.97968 30.49280 25.23624
# Shear Modulus (GPa) = 26.01056 31.27090 28.64073
#
# Velocity S-wave (km/s) = 3.27878 3.59507 3.44056
# Velocity P-wave (km/s) = 4.75306 5.46220 5.11992
#
# Compressibility (1/GPa) = 0.05005085
#
# Stress axis : x y z
#
# Youngs Moduli (GPa) = 106.07483 41.20393 41.65888
#
# Poissons Ratio (x) = 0.24600 0.00494
# Poissons Ratio (y) = 0.63329 -0.09430
# Poissons Ratio (z) = 0.01258 -0.09327
#
# Static dielectric constant tensor:
#      x y z
#    x 4.551610 0.000000 -0.143650 
#    y 0.000000 4.041680 0.000000 
#    z -0.143650 0.000000 4.334280 
# 
# 
# High freq. dielectric constant tensor:
#      x y z
#    x 1.980050 0.000000 -0.014860 
#    y 0.000000 1.944920 0.000000 
#    z -0.014860 0.000000 1.966630 
# 
# From -- ./inp_files/230148.got.cif
#   From: 2010.06.25/outbox.cif.g09.slc.cpg/sg15_116_cif.got.tgz:230148.got - 2010.06.28 07:06:18.
