data_PCOD8146808
_publ_section_title
;
Structure prediction by ZEFSAII (Michael W. Deem and Ramdas Pophale) SiO2 
 PCOD8146808
Probable space group: C 2/C
;
_chemical_formula_sum "Si O2"
_cell_formula_units_Z 52
_cell_length_a 19.302117
_cell_length_b 19.134321
_cell_length_c 11.840510
_cell_angle_alpha 90.000000
_cell_angle_beta 34.573067
_cell_angle_gamma 90.000000
_cell_volume 2481.539402
_symmetry_space_group_name_H-M "C 2/C"
_symmetry_group_IT_number 15
_symmetry_cell_setting 'monoclinic'
loop_
_space_group_symop_operation_xyz
x,y,z
-x,y,1/2-z
-x,-y,-z
x,-y,1/2+z
1/2+x,1/2+y,z
1/2-x,1/2+y,1/2-z
1/2-x,1/2-y,-z
1/2+x,1/2-y,1/2+z
loop_
_atom_site_type_symbol
_atom_site_label
_atom_site_fract_x
_atom_site_fract_y
_atom_site_fract_z
Si Si1 0.121188 0.522904 0.771954
Si Si2 0.307628 0.426815 0.418659
Si Si3 0.500000 0.469055 0.750000
Si Si4 0.113394 0.333422 0.166508
Si Si5 0.180758 0.103184 0.857870
Si Si6 0.356703 0.718557 0.942178
Si Si7 0.722710 0.245644 0.705032
O O1 0.173916 0.454077 0.637341
O O2 0.103559 0.583429 0.701296
O O3 0.211979 0.552803 0.743633
O O4 0.000000 0.500000 0.000000
O O5 0.399160 0.489544 0.316336
O O6 0.309593 0.399232 0.289076
O O7 0.355966 0.363874 0.429163
O O8 0.553350 0.423550 0.576661
O O9 0.111167 0.290511 0.286810
O O10 0.000000 0.306181 0.250000
O O11 0.229581 0.310828 0.934249
O O12 0.183289 0.182308 0.899931
O O13 0.500000 0.746751 0.750000
O O14 0.250000 0.750000 0.000000
O O15 0.318712 0.727081 0.120709
#
# Coordination Sequence:
#
# PCOD8146808 Si02
#       7
#     8   8   4   8   8   8   8
#     4  10  25  42  65 101 138 184 239 294 363 432
#     4  11  23  43  67  99 136 186 239 292 362 430
#     4  10  22  42  66  94 132 180 238 292 350 424
#     4  10  24  43  70 101 134 188 238 299 365 420
#     4  10  22  42  64  98 134 181 232 296 354 420
#     4  12  27  47  73 106 147 194 240 298 372 435
#     4  10  24  45  66 104 142 178 244 293 363 437
#
# _framework density 20.954733999999998
#
# number of rings (size 3 to 8) (size 9 to 14) (size 15 to 20)
#    0.000    1.538    2.308    0.462    7.538    2.462 
#    8.308    0.000    0.000    0.000    0.000    0.000 
#    0.000    0.000    0.000    0.000    0.000    0.000 
#
# Total GULP energy -322101.371841 kJ/mol
# GULP energy per Si atom -12388.514302 kJ/mol
# Density = 2.090704 g / cm^3
# Si number density = 20.954734 Si / 1000 Ang^3
#
#
#
# Elastic Constant Matrix: (Units=GPa)
#
#
# Indices 1 2 3 4 5 6 
#
# 1 128.7901 35.3297 54.6292 0.0000 15.2521 0.0000
# 2 35.3297 101.7021 59.1935 0.0000 8.9115 0.0000
# 3 54.6292 59.1935 134.5339 0.0000 6.9511 0.0000
# 4 0.0000 0.0000 0.0000 14.8374 0.0000 18.1290
# 5 15.2521 8.9115 6.9511 0.0000 41.7679 0.0000
# 6 0.0000 0.0000 0.0000 18.1290 0.0000 18.9308
#
#
#
# Elastic Compliance Matrix: (Units=1/GPa)
#
#
# Indices 1 2 3 4 5 6 
#
# 1 0.009837 -0.001254 -0.003299 0.000000 -0.002775 0.000000
# 2 -0.001254 0.013523 -0.005362 0.000000 -0.001535 0.000000
# 3 -0.003299 -0.005362 0.011106 0.000000 0.000500 0.000000
# 4 0.000000 0.000000 0.000000 -0.396248 0.000001 0.379464
# 5 -0.002775 -0.001535 0.000500 0.000001 0.025200 -0.000001
# 6 0.000000 0.000000 0.000000 0.379464 -0.000001 -0.310567
#
#
# Mechanical properties :
#
#
# Convention : Reuss Voigt Hill
#
# Bulk Modulus (GPa) = 68.32160 73.70345 71.01253
# Shear Modulus (GPa) = -8.03289 29.49880 10.73295
#
# Velocity S-wave (km/s) = -1.96004 3.75606 2.26563
# Velocity P-wave (km/s) = 5.24908 7.35253 6.38798
#
# Compressibility (1/GPa) = 0.01463666
#
# Stress axis : x y z
#
# Youngs Moduli (GPa) = 101.66094 73.94626 90.04094
#
# Poissons Ratio (x) = 0.09270 0.29707
# Poissons Ratio (y) = 0.12744 0.48278
# Poissons Ratio (z) = 0.33541 0.39648
#
# Static dielectric constant tensor:
#      x y z
#    x 4.015840 0.000000 -0.058940 
#    y 0.000000 4.012320 0.000000 
#    z -0.058940 0.000000 3.805060 
# 
# 
# High freq. dielectric constant tensor:
#      x y z
#    x 1.834550 0.000000 0.006920 
#    y 0.000000 1.827920 0.000000 
#    z 0.006920 0.000000 1.817390 
# 
# From -- ./inp_files/114362.got.cif
#   From: 2010.06.25/outbox.cif.g09.slc.cpg/sg15_58_cif.got.tgz:114362.got - 2010.06.28 07:06:18.
