data_PCOD8146856
_publ_section_title
;
Structure prediction by ZEFSAII (Michael W. Deem and Ramdas Pophale) SiO2 
 PCOD8146856
Probable space group: C 2/C
;
_chemical_formula_sum "Si O2"
_cell_formula_units_Z 52
_cell_length_a 15.942325
_cell_length_b 9.828062
_cell_length_c 28.538646
_cell_angle_alpha 90.000000
_cell_angle_beta 146.506098
_cell_angle_gamma 90.000000
_cell_volume 2467.587522
_symmetry_space_group_name_H-M "C 2/C"
_symmetry_group_IT_number 15
_symmetry_cell_setting 'monoclinic'
loop_
_space_group_symop_operation_xyz
x,y,z
-x,y,1/2-z
-x,-y,-z
x,-y,1/2+z
1/2+x,1/2+y,z
1/2-x,1/2+y,1/2-z
1/2-x,1/2-y,-z
1/2+x,1/2-y,1/2+z
loop_
_atom_site_type_symbol
_atom_site_label
_atom_site_fract_x
_atom_site_fract_y
_atom_site_fract_z
Si Si1 0.995840 0.948460 0.056692
Si Si2 0.167835 0.745898 0.078085
Si Si3 0.500000 0.884170 0.750000
Si Si4 0.885595 0.307915 0.849747
Si Si5 0.275832 0.694705 0.321100
Si Si6 0.338311 0.938842 0.100767
Si Si7 0.483160 0.914270 0.072606
O O1 0.042127 0.870108 0.029008
O O2 0.032395 0.839574 0.115547
O O3 0.097289 0.082376 0.109877
O O4 0.818536 0.979607 0.978849
O O5 0.222336 0.690213 0.154003
O O6 0.314447 0.807768 0.122065
O O7 0.101865 0.627074 0.014666
O O8 0.352345 0.797861 0.697498
O O9 0.538191 0.969589 0.814736
O O10 0.796329 0.345755 0.762033
O O11 0.009575 0.423164 0.919633
O O12 0.351782 0.842793 0.351650
O O13 0.394163 0.872661 0.078231
#
# Coordination Sequence:
#
# PCOD8146856 Si02
#       7
#     8   8   4   8   8   8   8
#     4  10  23  43  71  95 139 176 233 264 338 402
#     4  10  22  42  65  99 130 179 214 276 327 400
#     4  12  24  42  72  96 130 176 246 266 336 398
#     4  10  24  41  66  97 136 179 209 283 337 386
#     4  12  23  45  68 100 131 180 227 285 326 408
#     4  12  23  42  71 107 126 187 225 279 325 417
#     4  12  24  41  69  99 140 166 229 273 344 388
#
# _framework density 21.073215000000001
#
# number of rings (size 3 to 8) (size 9 to 14) (size 15 to 20)
#    0.923    0.000    4.615    3.231    2.154    0.615 
#    0.000    0.000    3.385    0.000    0.000    0.000 
#    0.000    0.000    0.000    0.000    0.000    0.000 
#
# Total GULP energy -322145.066329 kJ/mol
# GULP energy per Si atom -12390.194859 kJ/mol
# Density = 2.102525 g / cm^3
# Si number density = 21.073215 Si / 1000 Ang^3
#
#
#
# Elastic Constant Matrix: (Units=GPa)
#
#
# Indices 1 2 3 4 5 6 
#
# 1 111.2490 17.5817 30.2297 0.0000 -6.6416 0.0000
# 2 17.5817 60.2351 16.1238 0.0000 8.5633 0.0000
# 3 30.2297 16.1238 73.7192 0.0000 -5.4218 -0.0001
# 4 0.0000 0.0000 0.0000 25.7911 0.0000 -3.6943
# 5 -6.6416 8.5633 -5.4218 0.0000 40.8926 0.0000
# 6 0.0000 0.0000 -0.0001 -3.6943 0.0000 30.9308
#
#
#
# Elastic Compliance Matrix: (Units=1/GPa)
#
#
# Indices 1 2 3 4 5 6 
#
# 1 0.010449 -0.002313 -0.003654 0.000000 0.001697 0.000000
# 2 -0.002313 0.018907 -0.003540 0.000000 -0.004804 0.000000
# 3 -0.003654 -0.003540 0.016005 0.000000 0.002270 0.000000
# 4 0.000000 0.000000 0.000000 0.039448 0.000000 0.004712
# 5 0.001697 -0.004804 0.002270 0.000000 0.026037 0.000000
# 6 0.000000 0.000000 0.000000 0.004712 0.000000 0.032893
#
#
# Mechanical properties :
#
#
# Convention : Reuss Voigt Hill
#
# Bulk Modulus (GPa) = 37.95603 41.45266 39.70435
# Shear Modulus (GPa) = 29.14859 31.60744 30.37802
#
# Velocity S-wave (km/s) = 3.72318 3.87704 3.80089
# Velocity P-wave (km/s) = 6.04429 6.30519 6.17611
#
# Compressibility (1/GPa) = 0.02634627
#
# Stress axis : x y z
#
# Youngs Moduli (GPa) = 95.70696 52.88924 62.48199
#
# Poissons Ratio (x) = 0.12233 0.22830
# Poissons Ratio (y) = 0.22136 0.22121
# Poissons Ratio (z) = 0.34970 0.18725
#
# Static dielectric constant tensor:
#      x y z
#    x 4.003670 0.000000 -0.197390 
#    y 0.000000 3.765060 0.000000 
#    z -0.197390 0.000000 3.681500 
# 
# 
# High freq. dielectric constant tensor:
#      x y z
#    x 1.833960 0.000000 -0.018250 
#    y 0.000000 1.818710 0.000000 
#    z -0.018250 0.000000 1.816720 
# 
# From -- ./inp_files/313219.got.cif
#   From: 2010.06.25/outbox.cif.g09.slc.cpg/sg15_157_cif.got.tgz:313219.got - 2010.06.28 07:06:18.
