data_PCOD8146809
_publ_section_title
;
Structure prediction by ZEFSAII (Michael W. Deem and Ramdas Pophale) SiO2 
 PCOD8146809
Probable space group: C 2/C
;
_chemical_formula_sum "Si O2"
_cell_formula_units_Z 60
_cell_length_a 18.826400
_cell_length_b 20.400811
_cell_length_c 8.867984
_cell_angle_alpha 90.000000
_cell_angle_beta 127.723671
_cell_angle_gamma 90.000000
_cell_volume 2694.015423
_symmetry_space_group_name_H-M "C 2/C"
_symmetry_group_IT_number 15
_symmetry_cell_setting 'monoclinic'
loop_
_space_group_symop_operation_xyz
x,y,z
-x,y,1/2-z
-x,-y,-z
x,-y,1/2+z
1/2+x,1/2+y,z
1/2-x,1/2+y,1/2-z
1/2-x,1/2-y,-z
1/2+x,1/2-y,1/2+z
loop_
_atom_site_type_symbol
_atom_site_label
_atom_site_fract_x
_atom_site_fract_y
_atom_site_fract_z
Si Si1 0.485605 0.283030 0.562494
Si Si2 0.339640 0.216607 0.185363
Si Si3 0.500000 0.524343 0.750000
Si Si4 0.767304 0.585640 0.724584
Si Si5 0.073433 0.081603 0.562949
Si Si6 0.410222 0.090288 0.365015
Si Si7 0.654515 0.984751 0.446480
Si Si8 0.077841 0.320297 0.006803
O O1 0.500000 0.258709 0.750000
O O2 0.386988 0.263493 0.369084
O O3 0.498842 0.361293 0.566233
O O4 0.565483 0.247688 0.577498
O O5 0.327112 0.143336 0.240992
O O6 0.250000 0.250000 0.000000
O O7 0.417597 0.200367 0.162957
O O8 0.568250 0.567468 0.736408
O O9 0.443275 0.482804 0.557347
O O10 0.667800 0.610186 0.630650
O O11 0.780240 0.559925 0.571001
O O12 0.826123 0.649790 0.828164
O O13 0.784494 0.526747 0.862834
O O14 0.409255 0.061225 0.533048
O O15 0.505660 0.124875 0.461447
O O16 0.404914 0.032170 0.235759
#
# Coordination Sequence:
#
# PCOD8146809 Si02
#       8
#     8   8   4   8   8   8   8   8
#     4  11  25  44  70  98 137 177 235 285 340 407
#     4  11  24  47  69  96 134 187 237 288 340 409
#     4  10  24  44  78  94 132 176 222 284 358 426
#     4  11  23  40  66  98 142 171 229 284 347 399
#     4  11  23  47  69 102 130 174 226 288 351 414
#     4  10  22  42  64  98 139 179 237 268 349 417
#     4  10  23  39  65 101 137 186 216 285 341 415
#     4  11  25  43  66  98 137 184 231 281 333 426
#
# _framework density 22.271587
#
# number of rings (size 3 to 8) (size 9 to 14) (size 15 to 20)
#    0.000    1.333    2.000    3.200    5.600    3.200 
#    2.400    1.333    0.000    0.000    0.000    0.000 
#    0.000    0.000    0.000    0.000    0.000    0.000 
#
# Total GULP energy -371860.144287 kJ/mol
# GULP energy per Si atom -12395.338143 kJ/mol
# Density = 2.222090 g / cm^3
# Si number density = 22.271587 Si / 1000 Ang^3
#
#
#
# Elastic Constant Matrix: (Units=GPa)
#
#
# Indices 1 2 3 4 5 6 
#
# 1 133.8812 56.0300 52.6466 0.0000 -14.5610 0.0000
# 2 56.0300 110.7885 32.3242 0.0000 -9.9290 0.0000
# 3 52.6466 32.3242 100.5610 0.0000 -19.0414 0.0000
# 4 0.0000 0.0000 0.0000 28.4610 0.0000 -4.1266
# 5 -14.5610 -9.9290 -19.0414 0.0000 46.1446 0.0000
# 6 0.0000 0.0000 0.0000 -4.1266 0.0000 32.3865
#
#
#
# Elastic Compliance Matrix: (Units=1/GPa)
#
#
# Indices 1 2 3 4 5 6 
#
# 1 0.011006 -0.004257 -0.004241 0.000000 0.000807 0.000000
# 2 -0.004257 0.011640 -0.001403 0.000000 0.000583 0.000000
# 3 -0.004241 -0.001403 0.013348 0.000000 0.003868 0.000000
# 4 0.000000 0.000000 0.000000 0.035797 0.000000 0.004561
# 5 0.000807 0.000583 0.003868 0.000000 0.023647 0.000000
# 6 0.000000 0.000000 0.000000 0.004561 0.000000 0.031458
#
#
# Mechanical properties :
#
#
# Convention : Reuss Voigt Hill
#
# Bulk Modulus (GPa) = 61.75328 69.69247 65.72287
# Shear Modulus (GPa) = 32.87403 35.01375 33.94389
#
# Velocity S-wave (km/s) = 3.84611 3.96931 3.90819
# Velocity P-wave (km/s) = 6.89282 7.23652 7.06676
#
# Compressibility (1/GPa) = 0.01619347
#
# Stress axis : x y z
#
# Youngs Moduli (GPa) = 90.85800 85.90735 74.91851
#
# Poissons Ratio (x) = 0.36567 0.31773
# Poissons Ratio (y) = 0.38674 0.10511
# Poissons Ratio (z) = 0.38533 0.12052
#
# Static dielectric constant tensor:
#      x y z
#    x 4.070700 0.000000 -0.340070 
#    y 0.000000 4.269780 0.000000 
#    z -0.340070 0.000000 3.927180 
# 
# 
# High freq. dielectric constant tensor:
#      x y z
#    x 1.869770 0.000000 -0.021210 
#    y 0.000000 1.887950 0.000000 
#    z -0.021210 0.000000 1.872130 
# 
# From -- ./inp_files/58119.got.cif
#   From: 2010.06.25/outbox.cif.g09.slc.cpg/sg15_30_cif.got.tgz:58119.got - 2010.06.28 07:06:18.
