data_PCOD8146402
_publ_section_title
;
Structure prediction by ZEFSAII (Michael W. Deem and Ramdas Pophale) SiO2 
 PCOD8146402
Probable space group: C 2/C
;
_chemical_formula_sum "Si O2"
_cell_formula_units_Z 48
_cell_length_a 13.941304
_cell_length_b 15.266812
_cell_length_c 15.886214
_cell_angle_alpha 90.000000
_cell_angle_beta 40.015328
_cell_angle_gamma 90.000000
_cell_volume 2174.092839
_symmetry_space_group_name_H-M "C 2/C"
_symmetry_group_IT_number 15
_symmetry_cell_setting 'monoclinic'
loop_
_space_group_symop_operation_xyz
x,y,z
-x,y,1/2-z
-x,-y,-z
x,-y,1/2+z
1/2+x,1/2+y,z
1/2-x,1/2+y,1/2-z
1/2-x,1/2-y,-z
1/2+x,1/2-y,1/2+z
loop_
_atom_site_type_symbol
_atom_site_label
_atom_site_fract_x
_atom_site_fract_y
_atom_site_fract_z
Si Si1 0.433577 0.066262 0.705249
Si Si2 0.426166 0.270121 0.390258
Si Si3 0.124238 0.389404 0.820442
Si Si4 0.193860 0.344151 0.954684
Si Si5 0.676214 0.648116 0.966655
Si Si6 0.573034 0.404271 0.966262
O O1 0.500000 0.040943 0.750000
O O2 0.522612 0.146067 0.601786
O O3 0.261322 0.092222 0.836815
O O4 0.458361 0.982734 0.627947
O O5 0.500000 0.284689 0.250000
O O6 0.250000 0.250000 0.500000
O O7 0.508746 0.189436 0.382196
O O8 0.457425 0.359284 0.422326
O O9 0.249779 0.396355 0.663652
O O10 0.209402 0.384657 0.852165
O O11 0.299503 0.390983 0.954841
O O12 0.246486 0.244277 0.916383
O O13 0.503773 0.652951 0.056218
O O14 0.500000 0.500000 0.000000
#
# Coordination Sequence:
#
# PCOD8146402 Si02
#       6
#     8   8   8   8   8   8
#     4  10  22  41  64  96 140 183 239 299 369 439
#     4  12  27  50  80 109 150 202 257 313 385 464
#     4  12  24  43  71 103 141 190 244 310 372 452
#     4  10  23  39  68  99 131 181 236 291 357 449
#     4  10  22  43  65  96 137 179 223 295 366 432
#     4  12  26  47  70 103 150 189 243 312 376 443
#
# _framework density 22.078174000000001
#
# number of rings (size 3 to 8) (size 9 to 14) (size 15 to 20)
#    0.000    1.000    5.000    1.000    2.333    2.000 
#    6.000    0.000    0.000    0.000    0.000    0.000 
#    0.000    0.000    0.000    0.000    0.000    0.000 
#
# Total GULP energy -297359.796501 kJ/mol
# GULP energy per Si atom -12389.991521 kJ/mol
# Density = 2.202792 g / cm^3
# Si number density = 22.078174 Si / 1000 Ang^3
#
#
#
# Elastic Constant Matrix: (Units=GPa)
#
#
# Indices 1 2 3 4 5 6 
#
# 1 110.1386 40.0304 51.3244 0.0001 8.8270 0.0000
# 2 40.0304 112.8198 35.7589 0.0003 11.8221 -0.0002
# 3 51.3244 35.7589 95.1038 0.0002 8.9399 -0.0001
# 4 0.0001 0.0003 0.0002 32.5940 -0.0001 3.7136
# 5 8.8270 11.8221 8.9399 -0.0001 45.3022 0.0000
# 6 0.0000 -0.0002 -0.0001 3.7136 0.0000 35.8327
#
#
#
# Elastic Compliance Matrix: (Units=1/GPa)
#
#
# Indices 1 2 3 4 5 6 
#
# 1 0.012820 -0.002619 -0.005872 0.000000 -0.000656 0.000000
# 2 -0.002619 0.010764 -0.002463 0.000000 -0.001812 0.000000
# 3 -0.005872 -0.002463 0.014715 0.000000 -0.001117 0.000000
# 4 0.000000 0.000000 0.000000 0.031047 0.000000 -0.003218
# 5 -0.000656 -0.001812 -0.001117 0.000000 0.022895 0.000000
# 6 0.000000 0.000000 0.000000 -0.003218 0.000000 0.028241
#
#
# Mechanical properties :
#
#
# Convention : Reuss Voigt Hill
#
# Bulk Modulus (GPa) = 61.01349 63.58773 62.30061
# Shear Modulus (GPa) = 33.81692 35.47569 34.64630
#
# Velocity S-wave (km/s) = 3.91793 4.01287 3.96568
# Velocity P-wave (km/s) = 6.93989 7.09468 7.01771
#
# Compressibility (1/GPa) = 0.01638982
#
# Stress axis : x y z
#
# Youngs Moduli (GPa) = 78.00070 92.90533 67.95703
#
# Poissons Ratio (x) = 0.24331 0.39907
# Poissons Ratio (y) = 0.20428 0.16741
# Poissons Ratio (z) = 0.45805 0.22886
#
# Static dielectric constant tensor:
#      x y z
#    x 4.320610 0.000000 0.048060 
#    y 0.000000 3.971430 0.000000 
#    z 0.048060 0.000000 3.931900 
# 
# 
# High freq. dielectric constant tensor:
#      x y z
#    x 1.885580 0.000000 0.003280 
#    y 0.000000 1.864790 0.000000 
#    z 0.003280 0.000000 1.856630 
# 
# From -- ./inp_files/155087.got.cif
#   From: 2010.06.25/outbox.cif.g09.slc.cpg/sg15_78_cif.got.tgz:155087.got - 2010.06.28 07:06:18.
