data_PCOD8146576
_publ_section_title
;
Structure prediction by ZEFSAII (Michael W. Deem and Ramdas Pophale) SiO2 
 PCOD8146576
Probable space group: C 2/C
;
_chemical_formula_sum "Si O2"
_cell_formula_units_Z 60
_cell_length_a 27.072828
_cell_length_b 14.335356
_cell_length_c 21.490471
_cell_angle_alpha 90.000000
_cell_angle_beta 18.494691
_cell_angle_gamma 90.000000
_cell_volume 2645.721936
_symmetry_space_group_name_H-M "C 2/C"
_symmetry_group_IT_number 15
_symmetry_cell_setting 'monoclinic'
loop_
_space_group_symop_operation_xyz
x,y,z
-x,y,1/2-z
-x,-y,-z
x,-y,1/2+z
1/2+x,1/2+y,z
1/2-x,1/2+y,1/2-z
1/2-x,1/2-y,-z
1/2+x,1/2-y,1/2+z
loop_
_atom_site_type_symbol
_atom_site_label
_atom_site_fract_x
_atom_site_fract_y
_atom_site_fract_z
Si Si1 0.772232 0.358863 0.470772
Si Si2 0.141117 0.880262 0.758990
Si Si3 0.486962 0.800828 0.034887
Si Si4 0.958271 0.940375 0.168276
Si Si5 0.500000 0.525711 0.250000
Si Si6 0.337247 0.733031 0.096765
Si Si7 0.891165 0.387087 0.939696
Si Si8 0.546821 0.071387 0.567909
O O1 0.750000 0.250000 0.500000
O O2 0.736337 0.398529 0.581476
O O3 0.652171 0.407944 0.566389
O O4 0.948248 0.381726 0.241248
O O5 0.278292 0.885299 0.646365
O O6 0.022487 0.968420 0.899866
O O7 0.048470 0.783802 0.874203
O O8 0.656109 0.786472 0.803279
O O9 0.363118 0.797601 0.126968
O O10 0.471049 0.898546 0.091863
O O11 0.781883 0.905116 0.377117
O O12 0.007838 0.960275 0.180044
O O13 0.069967 0.863122 0.004980
O O14 0.401611 0.786011 0.959100
O O15 0.946203 0.461197 0.927027
O O16 0.000000 0.389930 0.750000
#
# Coordination Sequence:
#
# PCOD8146576 Si02
#       8
#     8   8   8   8   4   8   8   8
#     4  11  22  36  66 105 142 177 230 296 358 412
#     4  10  22  41  68  97 144 184 228 286 354 427
#     4  12  25  43  69 105 140 190 236 282 358 436
#     4  10  24  46  68  99 138 186 227 301 353 425
#     4  10  24  40  66 104 136 180 240 282 370 422
#     4  12  27  46  70 102 138 186 250 287 356 419
#     4  11  25  48  74 103 137 183 242 304 363 411
#     4  11  23  42  70 101 142 182 233 290 355 431
#
# _framework density 22.67812
#
# number of rings (size 3 to 8) (size 9 to 14) (size 15 to 20)
#    0.000    1.067    4.000    2.800    2.800    6.933 
#    0.000    0.000    0.000    0.000    0.000    0.000 
#    0.000    0.000    0.000    0.000    0.000    0.000 
#
# Total GULP energy -371998.206873 kJ/mol
# GULP energy per Si atom -12399.940229 kJ/mol
# Density = 2.262650 g / cm^3
# Si number density = 22.678120 Si / 1000 Ang^3
#
#
#
# Elastic Constant Matrix: (Units=GPa)
#
#
# Indices 1 2 3 4 5 6 
#
# 1 74.9447 12.8426 -4.7908 -0.0051 2.5333 0.0017
# 2 12.8426 88.8113 23.1113 0.0012 2.3491 -0.0018
# 3 -4.7908 23.1113 82.3451 -0.0052 3.8261 0.0043
# 4 -0.0051 0.0012 -0.0052 29.3368 0.0008 0.2106
# 5 2.5333 2.3491 3.8261 0.0008 26.3003 -0.0008
# 6 0.0017 -0.0018 0.0043 0.2106 -0.0008 31.6895
#
#
#
# Elastic Compliance Matrix: (Units=1/GPa)
#
#
# Indices 1 2 3 4 5 6 
#
# 1 0.013894 -0.002373 0.001537 0.000003 -0.001350 -0.000001
# 2 -0.002373 0.012562 -0.003647 -0.000002 -0.000363 0.000001
# 3 0.001537 -0.003647 0.013339 0.000003 -0.001763 -0.000002
# 4 0.000003 -0.000002 0.000003 0.034088 -0.000002 -0.000227
# 5 -0.001350 -0.000363 -0.001763 -0.000002 0.038441 0.000001
# 6 -0.000001 0.000001 -0.000002 -0.000227 0.000001 0.031558
#
#
# Mechanical properties :
#
#
# Convention : Reuss Voigt Hill
#
# Bulk Modulus (GPa) = 32.43784 34.26970 33.35377
# Shear Modulus (GPa) = 30.65154 31.79453 31.22304
#
# Velocity S-wave (km/s) = 3.68039 3.74838 3.71454
# Velocity P-wave (km/s) = 5.69166 5.82048 5.75643
#
# Compressibility (1/GPa) = 0.03082819
#
# Stress axis : x y z
#
# Youngs Moduli (GPa) = 71.97467 79.60739 74.96872
#
# Poissons Ratio (x) = 0.18894 -0.11524
# Poissons Ratio (y) = 0.17083 0.27340
# Poissons Ratio (z) = -0.11064 0.29031
#
# Static dielectric constant tensor:
#      x y z
#    x 4.090940 -0.000010 0.049670 
#    y -0.000010 4.406030 0.000010 
#    z 0.049670 0.000010 4.234940 
# 
# 
# High freq. dielectric constant tensor:
#      x y z
#    x 1.892610 0.000000 -0.002410 
#    y 0.000000 1.893780 0.000000 
#    z -0.002410 0.000000 1.896120 
# 
# From -- ./inp_files/257859.got.cif
#   From: 2010.06.25/outbox.cif.g09.slc.cpg/sg15_129_cif.got.tgz:257859.got - 2010.06.28 07:06:18.
