data_PCOD8146993
_publ_section_title
;
Structure prediction by ZEFSAII (Michael W. Deem and Ramdas Pophale) SiO2 
 PCOD8146993
Probable space group: C 2/C
;
_chemical_formula_sum "Si O2"
_cell_formula_units_Z 52
_cell_length_a 17.791425
_cell_length_b 16.687998
_cell_length_c 8.593041
_cell_angle_alpha 90.000000
_cell_angle_beta 71.736480
_cell_angle_gamma 90.000000
_cell_volume 2422.780611
_symmetry_space_group_name_H-M "C 2/C"
_symmetry_group_IT_number 15
_symmetry_cell_setting 'monoclinic'
loop_
_space_group_symop_operation_xyz
x,y,z
-x,y,1/2-z
-x,-y,-z
x,-y,1/2+z
1/2+x,1/2+y,z
1/2-x,1/2+y,1/2-z
1/2-x,1/2-y,-z
1/2+x,1/2-y,1/2+z
loop_
_atom_site_type_symbol
_atom_site_label
_atom_site_fract_x
_atom_site_fract_y
_atom_site_fract_z
Si Si1 0.620894 0.196616 0.727339
Si Si2 0.412230 0.964579 0.369769
Si Si3 0.720973 0.700802 0.369996
Si Si4 0.876732 0.610965 0.212856
Si Si5 0.471505 0.241003 0.012524
Si Si6 0.500000 0.477308 0.750000
Si Si7 0.562574 0.392314 0.991175
O O1 0.641114 0.103491 0.680874
O O2 0.699243 0.238996 0.743244
O O3 0.592094 0.240499 0.587430
O O4 0.553472 0.202648 0.902511
O O5 0.500000 0.949668 0.250000
O O6 0.404010 0.949094 0.558296
O O7 0.384677 0.056009 0.361149
O O8 0.750000 0.750000 0.500000
O O9 0.787288 0.641501 0.259899
O O10 0.646193 0.648187 0.469423
O O11 0.935484 0.687760 0.177059
O O12 0.489031 0.330329 0.065076
O O13 0.442627 0.421490 0.684408
O O14 0.443994 0.531960 0.892561
#
# Coordination Sequence:
#
# PCOD8146993 Si02
#       7
#     8   8   8   8   8   4   8
#     4   9  18  40  63  89 127 166 221 264 312 388
#     4  11  22  40  66  97 126 167 217 271 326 385
#     4  11  26  41  60  95 136 173 216 271 328 399
#     4  11  25  39  62  99 132 173 209 261 340 386
#     4   9  18  38  69  92 118 170 219 267 312 382
#     4  10  22  42  70  98 116 168 220 282 324 374
#     4  10  22  42  68  94 127 164 223 272 327 383
#
# _framework density 21.462942999999999
#
# number of rings (size 3 to 8) (size 9 to 14) (size 15 to 20)
#    0.000    1.846    3.077    2.308    4.308    4.923 
#    0.000    0.000    0.000    0.000    0.000    0.000 
#    0.000    0.000    0.000    0.000    0.000    0.000 
#
# Total GULP energy -322351.498646 kJ/mol
# GULP energy per Si atom -12398.134563 kJ/mol
# Density = 2.141409 g / cm^3
# Si number density = 21.462943 Si / 1000 Ang^3
#
#
#
# Elastic Constant Matrix: (Units=GPa)
#
#
# Indices 1 2 3 4 5 6 
#
# 1 104.7642 56.4470 34.7661 0.0000 1.0799 0.0000
# 2 56.4470 124.1814 26.0607 0.0000 7.9110 0.0000
# 3 34.7661 26.0607 54.4437 0.0000 1.9624 0.0000
# 4 0.0000 0.0000 0.0000 29.9294 0.0000 4.0666
# 5 1.0799 7.9110 1.9624 0.0000 23.0254 0.0000
# 6 0.0000 0.0000 0.0000 4.0666 0.0000 40.2837
#
#
#
# Elastic Compliance Matrix: (Units=1/GPa)
#
#
# Indices 1 2 3 4 5 6 
#
# 1 0.014692 -0.005343 -0.006886 0.000000 0.001734 0.000000
# 2 -0.005343 0.011068 -0.001763 0.000000 -0.003402 0.000000
# 3 -0.006886 -0.001763 0.023648 0.000000 -0.001087 0.000000
# 4 0.000000 0.000000 0.000000 0.033877 0.000000 -0.003420
# 5 0.001734 -0.003402 -0.001087 0.000000 0.044611 0.000000
# 6 0.000000 0.000000 0.000000 -0.003420 0.000000 0.025169
#
#
# Mechanical properties :
#
#
# Convention : Reuss Voigt Hill
#
# Bulk Modulus (GPa) = 46.68102 57.54854 52.11478
# Shear Modulus (GPa) = 26.56867 29.72206 28.14537
#
# Velocity S-wave (km/s) = 3.52218 3.72534 3.62518
# Velocity P-wave (km/s) = 6.19175 6.73613 6.46967
#
# Compressibility (1/GPa) = 0.02142198
#
# Stress axis : x y z
#
# Youngs Moduli (GPa) = 68.06580 90.34747 42.28637
#
# Poissons Ratio (x) = 0.48276 0.29120
# Poissons Ratio (y) = 0.36370 0.07457
# Poissons Ratio (z) = 0.46873 0.15932
#
# Static dielectric constant tensor:
#      x y z
#    x 3.725740 0.000000 0.137280 
#    y 0.000000 4.272100 0.000000 
#    z 0.137280 0.000000 3.795590 
# 
# 
# High freq. dielectric constant tensor:
#      x y z
#    x 1.816260 0.000000 0.011880 
#    y 0.000000 1.856980 0.000000 
#    z 0.011880 0.000000 1.838540 
# 
# From -- ./inp_files/48537.got.cif
#   From: 2010.06.25/outbox.cif.g09.slc.cpg/sg15_25_cif.got.tgz:48537.got - 2010.06.28 07:06:18.
