data_PCOD8146687
_publ_section_title
;
Structure prediction by ZEFSAII (Michael W. Deem and Ramdas Pophale) SiO2 
 PCOD8146687
Probable space group: C 2/C
;
_chemical_formula_sum "Si O2"
_cell_formula_units_Z 36
_cell_length_a 5.083705
_cell_length_b 27.399898
_cell_length_c 13.051159
_cell_angle_alpha 90.000000
_cell_angle_beta 65.651213
_cell_angle_gamma 90.000000
_cell_volume 1656.234371
_symmetry_space_group_name_H-M "C 2/C"
_symmetry_group_IT_number 15
_symmetry_cell_setting 'monoclinic'
loop_
_space_group_symop_operation_xyz
x,y,z
-x,y,1/2-z
-x,-y,-z
x,-y,1/2+z
1/2+x,1/2+y,z
1/2-x,1/2+y,1/2-z
1/2-x,1/2-y,-z
1/2+x,1/2-y,1/2+z
loop_
_atom_site_type_symbol
_atom_site_label
_atom_site_fract_x
_atom_site_fract_y
_atom_site_fract_z
Si Si1 0.632202 0.421637 0.966431
Si Si2 0.325436 0.483545 0.176989
Si Si3 0.432104 0.768346 0.066451
Si Si4 0.500000 0.288159 0.750000
Si Si5 0.149282 0.358123 0.945097
O O1 0.484878 0.439317 0.094547
O O2 0.675956 0.466951 0.885823
O O3 0.437082 0.379454 0.949450
O O4 0.953284 0.401608 0.933886
O O5 0.500000 0.495493 0.250000
O O6 0.000000 0.466250 0.250000
O O7 0.336449 0.746692 0.192335
O O8 0.250000 0.750000 0.000000
O O9 0.453640 0.827590 0.058660
O O10 0.750000 0.750000 0.000000
O O11 0.249325 0.322005 0.838059
#
# Coordination Sequence:
#
# PCOD8146687 Si02
#       5
#     8   8   8   4   8
#     4  11  25  43  66 105 131 169 224 283 313 401
#     4  11  24  45  69  94 141 174 209 268 353 394
#     4  10  22  42  61  93 136 173 213 278 335 385
#     4  10  24  42  70  96 136 184 222 276 348 384
#     4  11  23  41  68  99 133 169 233 273 316 405
#
# _framework density 21.736052999999998
#
# number of rings (size 3 to 8) (size 9 to 14) (size 15 to 20)
#    0.000    1.333    0.000    5.333    4.667   10.667 
#    6.000    0.000    0.000    0.000    0.000    0.000 
#    0.000    0.000    0.000    0.000    0.000    0.000 
#
# Total GULP energy -223173.565526 kJ/mol
# GULP energy per Si atom -12398.531418 kJ/mol
# Density = 2.168658 g / cm^3
# Si number density = 21.736053 Si / 1000 Ang^3
#
#
#
# Elastic Constant Matrix: (Units=GPa)
#
#
# Indices 1 2 3 4 5 6 
#
# 1 115.4353 21.4630 31.1371 0.0000 7.3079 0.0000
# 2 21.4630 91.4696 50.2539 0.0000 1.3355 0.0000
# 3 31.1371 50.2539 118.8825 0.0000 5.9647 0.0000
# 4 0.0000 0.0000 0.0000 37.3206 0.0000 -8.0360
# 5 7.3079 1.3355 5.9647 0.0000 34.9581 0.0000
# 6 0.0000 0.0000 0.0000 -8.0360 0.0000 34.6882
#
#
#
# Elastic Compliance Matrix: (Units=1/GPa)
#
#
# Indices 1 2 3 4 5 6 
#
# 1 0.009497 -0.001150 -0.001920 0.000000 -0.001614 0.000000
# 2 -0.001150 0.014387 -0.005815 0.000000 0.000683 0.000000
# 3 -0.001920 -0.005815 0.011439 0.000000 -0.001328 0.000000
# 4 0.000000 0.000000 0.000000 0.028202 0.000000 0.006533
# 5 -0.001614 0.000683 -0.001328 0.000000 0.029144 0.000000
# 6 0.000000 0.000000 0.000000 0.006533 0.000000 0.030342
#
#
# Mechanical properties :
#
#
# Convention : Reuss Voigt Hill
#
# Bulk Modulus (GPa) = 56.96931 59.05504 58.01218
# Shear Modulus (GPa) = 34.09914 36.25558 35.17736
#
# Velocity S-wave (km/s) = 3.96508 4.08854 4.02728
# Velocity P-wave (km/s) = 6.87234 7.03678 6.95505
#
# Compressibility (1/GPa) = 0.01755331
#
# Stress axis : x y z
#
# Youngs Moduli (GPa) = 105.29874 69.50663 87.41778
#
# Poissons Ratio (x) = 0.07992 0.16787
# Poissons Ratio (y) = 0.12107 0.50832
# Poissons Ratio (z) = 0.20221 0.40417
#
# Static dielectric constant tensor:
#      x y z
#    x 4.015450 0.000000 0.369340 
#    y 0.000000 4.689630 0.000000 
#    z 0.369340 0.000000 5.148190 
# 
# 
# High freq. dielectric constant tensor:
#      x y z
#    x 1.867270 0.000000 0.004160 
#    y 0.000000 1.864080 0.000000 
#    z 0.004160 0.000000 1.851090 
# 
# From -- ./inp_files/73016.got.cif
#   From: 2010.06.25/outbox.cif.g09.slc.cpg/sg15_37_cif.got.tgz:73016.got - 2010.06.28 07:06:18.
