data_PCOD8146596
_publ_section_title
;
Structure prediction by ZEFSAII (Michael W. Deem and Ramdas Pophale) SiO2 
 PCOD8146596
Probable space group: C 2/C
;
_chemical_formula_sum "Si O2"
_cell_formula_units_Z 52
_cell_length_a 8.190678
_cell_length_b 15.422906
_cell_length_c 19.661265
_cell_angle_alpha 90.000000
_cell_angle_beta 98.457326
_cell_angle_gamma 90.000000
_cell_volume 2456.682304
_symmetry_space_group_name_H-M "C 2/C"
_symmetry_group_IT_number 15
_symmetry_cell_setting 'monoclinic'
loop_
_space_group_symop_operation_xyz
x,y,z
-x,y,1/2-z
-x,-y,-z
x,-y,1/2+z
1/2+x,1/2+y,z
1/2-x,1/2+y,1/2-z
1/2-x,1/2-y,-z
1/2+x,1/2-y,1/2+z
loop_
_atom_site_type_symbol
_atom_site_label
_atom_site_fract_x
_atom_site_fract_y
_atom_site_fract_z
Si Si1 0.818613 0.462170 0.094958
Si Si2 0.690531 0.138363 0.775575
Si Si3 0.967037 0.076533 0.376657
Si Si4 0.046171 0.613474 0.150839
Si Si5 0.732237 0.177798 0.276362
Si Si6 0.500000 0.463319 0.250000
Si Si7 0.274237 0.155341 0.469376
O O1 0.779528 0.383841 0.143900
O O2 0.664616 0.528270 0.082759
O O3 0.976042 0.518253 0.129720
O O4 0.852411 0.414982 0.025841
O O5 0.500000 0.112783 0.750000
O O6 0.727885 0.237746 0.763960
O O7 0.827937 0.088676 0.740333
O O8 0.890396 0.156980 0.331005
O O9 0.102707 0.115086 0.434548
O O10 0.031624 0.013993 0.321912
O O11 0.919771 0.680591 0.179608
O O12 0.194624 0.603787 0.215951
O O13 0.100946 0.662123 0.085822
O O14 0.250000 0.250000 0.500000
#
# Coordination Sequence:
#
# PCOD8146596 Si02
#       7
#     8   8   8   8   8   4   8
#     4  10  24  43  63  95 130 174 222 264 329 405
#     4  11  25  39  69 100 135 165 218 279 333 394
#     4  10  23  41  65  90 129 177 213 271 332 392
#     4  10  22  41  69  91 129 170 217 273 323 393
#     4  10  22  42  65  97 128 164 217 273 338 377
#     4  10  22  42  64 100 128 172 220 274 336 386
#     4  12  25  41  64  93 132 176 222 268 331 397
#
# _framework density 21.166758000000002
#
# number of rings (size 3 to 8) (size 9 to 14) (size 15 to 20)
#    0.000    1.538    0.000    3.692   14.000    1.231 
#    0.000    3.077    0.000    0.000    0.000    0.000 
#    0.000    0.000    0.000    0.000    0.000    0.000 
#
# Total GULP energy -322188.274176 kJ/mol
# GULP energy per Si atom -12391.856699 kJ/mol
# Density = 2.111858 g / cm^3
# Si number density = 21.166758 Si / 1000 Ang^3
#
#
#
# Elastic Constant Matrix: (Units=GPa)
#
#
# Indices 1 2 3 4 5 6 
#
# 1 96.3966 39.8455 36.5379 0.0000 -6.8935 0.0000
# 2 39.8455 105.4863 46.4254 0.0000 -3.6526 0.0000
# 3 36.5379 46.4254 111.6914 0.0000 -11.2261 0.0000
# 4 0.0000 0.0000 0.0000 34.1224 0.0000 0.8719
# 5 -6.8935 -3.6526 -11.2261 0.0000 39.5508 0.0000
# 6 0.0000 0.0000 0.0000 0.8719 0.0000 23.5941
#
#
#
# Elastic Compliance Matrix: (Units=1/GPa)
#
#
# Indices 1 2 3 4 5 6 
#
# 1 0.012976 -0.003726 -0.002577 0.000000 0.001186 0.000000
# 2 -0.003726 0.012676 -0.004115 0.000000 -0.000647 0.000000
# 3 -0.002577 -0.004115 0.011759 0.000000 0.002508 0.000000
# 4 0.000000 0.000000 0.000000 0.029334 0.000000 -0.001084
# 5 0.001186 -0.000647 0.002508 0.000000 0.026143 0.000000
# 6 0.000000 0.000000 0.000000 -0.001084 0.000000 0.042424
#
#
# Mechanical properties :
#
#
# Convention : Reuss Voigt Hill
#
# Bulk Modulus (GPa) = 60.33321 62.13244 61.23283
# Shear Modulus (GPa) = 30.92698 32.17115 31.54907
#
# Velocity S-wave (km/s) = 3.82660 3.90281 3.86489
# Velocity P-wave (km/s) = 6.93465 7.05172 6.99343
#
# Compressibility (1/GPa) = 0.01657462
#
# Stress axis : x y z
#
# Youngs Moduli (GPa) = 77.06831 78.88911 85.04349
#
# Poissons Ratio (x) = 0.29395 0.21913
# Poissons Ratio (y) = 0.28717 0.34995
# Poissons Ratio (z) = 0.19858 0.32462
#
# Static dielectric constant tensor:
#      x y z
#    x 4.102810 0.000000 -0.051990 
#    y 0.000000 3.712140 0.000000 
#    z -0.051990 0.000000 3.864480 
# 
# 
# High freq. dielectric constant tensor:
#      x y z
#    x 1.841170 0.000000 -0.006170 
#    y 0.000000 1.823250 0.000000 
#    z -0.006170 0.000000 1.832240 
# 
# From -- ./inp_files/231302.got.cif
#   From: 2010.06.25/outbox.cif.g09.slc.cpg/sg15_116_cif.got.tgz:231302.got - 2010.06.28 07:06:18.
