data_PCOD8146278
_publ_section_title
;
Structure prediction by ZEFSAII (Michael W. Deem and Ramdas Pophale) SiO2 
 PCOD8146278
Probable space group: C 2/C
;
_chemical_formula_sum "Si O2"
_cell_formula_units_Z 44
_cell_length_a 29.956748
_cell_length_b 7.547022
_cell_length_c 28.607341
_cell_angle_alpha 90.000000
_cell_angle_beta 163.575847
_cell_angle_gamma 90.000000
_cell_volume 1828.706394
_symmetry_space_group_name_H-M "C 2/C"
_symmetry_group_IT_number 15
_symmetry_cell_setting 'monoclinic'
loop_
_space_group_symop_operation_xyz
x,y,z
-x,y,1/2-z
-x,-y,-z
x,-y,1/2+z
1/2+x,1/2+y,z
1/2-x,1/2+y,1/2-z
1/2-x,1/2-y,-z
1/2+x,1/2-y,1/2+z
loop_
_atom_site_type_symbol
_atom_site_label
_atom_site_fract_x
_atom_site_fract_y
_atom_site_fract_z
Si Si1 0.062759 0.430404 0.176134
Si Si2 0.219628 0.412520 0.908834
Si Si3 0.829430 0.792163 0.386848
Si Si4 0.500000 0.333848 0.250000
Si Si5 0.369438 0.441584 0.329224
Si Si6 0.868884 0.222231 0.464381
O O1 0.126369 0.413643 0.294414
O O2 0.215829 0.439943 0.295587
O O3 0.983209 0.617504 0.091225
O O4 0.952453 0.268346 0.050588
O O5 0.094063 0.289033 0.808607
O O6 0.370864 0.457065 0.093562
O O7 0.279998 0.315437 0.923107
O O8 0.721227 0.627793 0.262665
O O9 0.921800 0.879208 0.434877
O O10 0.521356 0.438617 0.446229
O O11 0.249855 0.286994 0.194837
#
# Coordination Sequence:
#
# PCOD8146278 Si02
#       6
#     8   8   8   4   8   8
#     4  11  24  43  62  98 137 175 226 270 334 392
#     4  11  21  42  69 107 127 162 217 283 342 401
#     4  11  26  41  63  97 138 192 225 273 315 385
#     4  10  22  40  76 106 124 160 216 290 344 410
#     4  11  23  38  62  95 136 182 235 262 320 372
#     4  11  21  39  66  96 134 175 218 285 318 391
#
# _framework density 24.060722999999999
#
# number of rings (size 3 to 8) (size 9 to 14) (size 15 to 20)
#    0.000    1.091    3.636    2.182    2.545    4.364 
#    0.000    0.000    0.000    3.273    0.000    0.000 
#    0.000    0.000    0.000    0.000    0.000    0.000 
#
# Total GULP energy -272696.053682 kJ/mol
# GULP energy per Si atom -12395.275167 kJ/mol
# Density = 2.400596 g / cm^3
# Si number density = 24.060723 Si / 1000 Ang^3
#
#
#
# Elastic Constant Matrix: (Units=GPa)
#
#
# Indices 1 2 3 4 5 6 
#
# 1 155.3097 60.4881 67.2886 0.0001 -0.1166 0.0001
# 2 60.4881 78.1838 39.8922 -0.0152 -1.3306 -0.0064
# 3 67.2886 39.8922 153.2967 -0.0236 -22.9828 -0.0058
# 4 0.0001 -0.0152 -0.0236 36.8978 -0.0085 -4.1757
# 5 -0.1166 -1.3306 -22.9828 -0.0085 64.9603 -0.0024
# 6 0.0001 -0.0064 -0.0058 -4.1757 -0.0024 31.1284
#
#
#
# Elastic Compliance Matrix: (Units=1/GPa)
#
#
# Indices 1 2 3 4 5 6 
#
# 1 0.010233 -0.006406 -0.003001 -0.000005 -0.001174 -0.000003
# 2 -0.006406 0.018835 -0.002148 0.000007 -0.000386 0.000004
# 3 -0.003001 -0.002148 0.008862 0.000006 0.003086 0.000002
# 4 -0.000005 0.000007 0.000006 0.027520 0.000006 0.003692
# 5 -0.001174 -0.000386 0.003086 0.000006 0.016476 0.000003
# 6 -0.000003 0.000004 0.000002 0.003692 0.000003 0.032620
#
#
# Mechanical properties :
#
#
# Convention : Reuss Voigt Hill
#
# Bulk Modulus (GPa) = 67.46646 80.23646 73.85146
# Shear Modulus (GPa) = 35.06447 41.20538 38.13492
#
# Velocity S-wave (km/s) = 3.82164 4.14280 3.98546
# Velocity P-wave (km/s) = 6.89741 7.50357 7.20686
#
# Compressibility (1/GPa) = 0.01482218
#
# Stress axis : x y z
#
# Youngs Moduli (GPa) = 97.72571 53.09157 112.84143
#
# Poissons Ratio (x) = 0.34008 0.33861
# Poissons Ratio (y) = 0.62599 0.24234
# Poissons Ratio (z) = 0.29325 0.11402
#
# Static dielectric constant tensor:
#      x y z
#    x 4.485540 0.000000 -0.226390 
#    y 0.000000 4.414150 -0.000010 
#    z -0.226390 -0.000010 5.588980 
# 
# 
# High freq. dielectric constant tensor:
#      x y z
#    x 1.948850 0.000000 0.003030 
#    y 0.000000 1.945260 0.000000 
#    z 0.003030 0.000000 2.011750 
# 
# From -- ./inp_files/68311.got.cif
#   From: 2010.06.25/outbox.cif.g09.slc.cpg/sg15_35_cif.got.tgz:68311.got - 2010.06.28 07:06:18.
