data_PCOD8146972
_publ_section_title
;
Structure prediction by ZEFSAII (Michael W. Deem and Ramdas Pophale) SiO2 
 PCOD8146972
Probable space group: C 2/C
;
_chemical_formula_sum "Si O2"
_cell_formula_units_Z 56
_cell_length_a 14.620392
_cell_length_b 23.466845
_cell_length_c 13.993110
_cell_angle_alpha 90.000000
_cell_angle_beta 150.066378
_cell_angle_gamma 90.000000
_cell_volume 2395.660923
_symmetry_space_group_name_H-M "C 2/C"
_symmetry_group_IT_number 15
_symmetry_cell_setting 'monoclinic'
loop_
_space_group_symop_operation_xyz
x,y,z
-x,y,1/2-z
-x,-y,-z
x,-y,1/2+z
1/2+x,1/2+y,z
1/2-x,1/2+y,1/2-z
1/2-x,1/2-y,-z
1/2+x,1/2-y,1/2+z
loop_
_atom_site_type_symbol
_atom_site_label
_atom_site_fract_x
_atom_site_fract_y
_atom_site_fract_z
Si Si1 0.970774 0.053006 0.832011
Si Si2 0.139596 0.871945 0.043289
Si Si3 0.477108 0.133069 0.511900
Si Si4 0.914378 0.697854 0.271951
Si Si5 0.992644 0.821136 0.400458
Si Si6 0.184483 0.955492 0.703690
Si Si7 0.805973 0.686157 0.529793
O O1 0.913607 0.119887 0.784036
O O2 0.000000 0.033357 0.750000
O O3 0.153466 0.039920 0.060888
O O4 0.807482 0.015806 0.733028
O O5 0.341547 0.885851 0.268189
O O6 0.155279 0.853040 0.947100
O O7 0.062425 0.819078 0.037405
O O8 0.998803 0.923924 0.922037
O O9 0.526391 0.171180 0.462886
O O10 0.376262 0.074975 0.393014
O O11 0.327316 0.169872 0.437948
O O12 0.000000 0.677070 0.250000
O O13 0.912366 0.766765 0.272788
O O14 0.710079 0.675054 0.090116
O O15 0.750000 0.750000 0.500000
O O16 0.000000 0.672784 0.750000
#
# Coordination Sequence:
#
# PCOD8146972 Si02
#       7
#     8   8   8   8   8   8   8
#     4  10  22  43  71  99 137 179 229 284 341 406
#     4  10  22  42  67  98 138 177 225 281 334 404
#     4  11  23  43  66 103 140 176 235 280 336 413
#     4  12  24  40  67 100 137 181 223 279 348 408
#     4  11  23  44  66 101 139 171 230 276 341 418
#     4  10  23  44  70  99 134 183 230 277 345 405
#     4  10  23  36  60  98 138 179 227 272 337 403
#
# _framework density 23.375596000000002
#
# number of rings (size 3 to 8) (size 9 to 14) (size 15 to 20)
#    0.000    1.429    2.857    2.571    4.000    4.571 
#    0.000    6.429    3.143    0.000    0.000    0.000 
#    0.000    0.000    0.000    0.000    0.000    0.000 
#
# Total GULP energy -347063.882104 kJ/mol
# GULP energy per Si atom -12395.138647 kJ/mol
# Density = 2.332239 g / cm^3
# Si number density = 23.375596 Si / 1000 Ang^3
#
#
#
# Elastic Constant Matrix: (Units=GPa)
#
#
# Indices 1 2 3 4 5 6 
#
# 1 134.5356 6.1951 33.6684 0.0000 -13.6990 0.0000
# 2 6.1951 86.3667 32.2469 0.0000 -7.2221 0.0000
# 3 33.6684 32.2469 64.0404 0.0000 4.1644 0.0000
# 4 0.0000 0.0000 0.0000 27.5239 0.0000 5.4848
# 5 -13.6990 -7.2221 4.1644 0.0000 36.5460 0.0000
# 6 0.0000 0.0000 0.0000 5.4848 0.0000 27.6655
#
#
#
# Elastic Compliance Matrix: (Units=1/GPa)
#
#
# Indices 1 2 3 4 5 6 
#
# 1 0.009379 0.002055 -0.006267 0.000000 0.004636 0.000000
# 2 0.002055 0.015214 -0.009054 0.000000 0.004808 0.000000
# 3 -0.006267 -0.009054 0.023915 0.000000 -0.006863 0.000000
# 4 0.000000 0.000000 0.000000 0.037827 0.000000 -0.007499
# 5 0.004636 0.004808 -0.006863 0.000000 0.030833 0.000000
# 6 0.000000 0.000000 0.000000 -0.007499 0.000000 0.037633
#
#
# Mechanical properties :
#
#
# Convention : Reuss Voigt Hill
#
# Bulk Modulus (GPa) = 45.50426 47.68485 46.59456
# Shear Modulus (GPa) = 26.50325 32.53588 29.51957
#
# Velocity S-wave (km/s) = 3.37085 3.73483 3.55750
# Velocity P-wave (km/s) = 5.88719 6.24838 6.07047
#
# Compressibility (1/GPa) = 0.02197597
#
# Stress axis : x y z
#
# Youngs Moduli (GPa) = 106.62462 65.73073 41.81473
#
# Poissons Ratio (x) = -0.13506 0.26205
# Poissons Ratio (y) = -0.21909 0.37857
# Poissons Ratio (z) = 0.66820 0.59510
#
# Static dielectric constant tensor:
#      x y z
#    x 4.787170 0.000000 -0.062560 
#    y 0.000000 4.195830 0.000000 
#    z -0.062560 0.000000 4.028050 
# 
# 
# High freq. dielectric constant tensor:
#      x y z
#    x 1.933570 0.000000 -0.001270 
#    y 0.000000 1.917710 0.000000 
#    z -0.001270 0.000000 1.914460 
# 
# From -- ./inp_files/157249.got.cif
#   From: 2010.06.25/outbox.cif.g09.slc.cpg/sg15_79_cif.got.tgz:157249.got - 2010.06.28 07:06:18.
