data_PCOD8146981
_publ_section_title
;
Structure prediction by ZEFSAII (Michael W. Deem and Ramdas Pophale) SiO2 
 PCOD8146981
Probable space group: C 2/C
;
_chemical_formula_sum "Si O2"
_cell_formula_units_Z 48
_cell_length_a 5.639370
_cell_length_b 22.273079
_cell_length_c 18.295112
_cell_angle_alpha 90.000000
_cell_angle_beta 70.101019
_cell_angle_gamma 90.000000
_cell_volume 2160.775604
_symmetry_space_group_name_H-M "C 2/C"
_symmetry_group_IT_number 15
_symmetry_cell_setting 'monoclinic'
loop_
_space_group_symop_operation_xyz
x,y,z
-x,y,1/2-z
-x,-y,-z
x,-y,1/2+z
1/2+x,1/2+y,z
1/2-x,1/2+y,1/2-z
1/2-x,1/2-y,-z
1/2+x,1/2-y,1/2+z
loop_
_atom_site_type_symbol
_atom_site_label
_atom_site_fract_x
_atom_site_fract_y
_atom_site_fract_z
Si Si1 0.117840 0.971060 0.058721
Si Si2 0.564988 0.162888 0.161230
Si Si3 0.564119 0.315960 0.550353
Si Si4 0.586129 0.086559 0.449208
Si Si5 0.374433 0.276469 0.105794
Si Si6 0.797923 0.104536 0.702902
O O1 0.905004 0.945119 0.135075
O O2 0.281684 0.023010 0.079628
O O3 0.307989 0.918824 0.013018
O O4 0.000000 0.000000 0.000000
O O5 0.500000 0.150679 0.250000
O O6 0.401835 0.117171 0.131308
O O7 0.526712 0.231961 0.141948
O O8 0.857040 0.148572 0.118608
O O9 0.777473 0.366073 0.511395
O O10 0.457233 0.298090 0.481179
O O11 0.642493 0.257811 0.590048
O O12 0.283174 0.330601 0.166318
O O13 0.500000 0.087919 0.750000
O O14 0.000000 0.105722 0.750000
#
# Coordination Sequence:
#
# PCOD8146981 Si02
#       6
#     8   8   8   8   8   8
#     4  11  25  49  74  96 138 191 251 300 367 431
#     4  11  23  40  63 103 142 181 230 296 367 427
#     4  10  22  42  68 103 132 188 246 290 356 439
#     4  10  23  43  73  98 130 188 243 305 349 436
#     4  10  23  40  71  96 143 187 236 288 364 443
#     4  12  30  48  73 113 153 191 241 308 381 443
#
# _framework density 22.214245999999999
#
# number of rings (size 3 to 8) (size 9 to 14) (size 15 to 20)
#    0.000    1.333    0.000    4.000   11.667    3.333 
#    6.000    0.000    0.000    0.000    0.000    0.000 
#    0.000    0.000    0.000    0.000    0.000    0.000 
#
# Total GULP energy -297413.378078 kJ/mol
# GULP energy per Si atom -12392.224087 kJ/mol
# Density = 2.216369 g / cm^3
# Si number density = 22.214246 Si / 1000 Ang^3
#
#
#
# Elastic Constant Matrix: (Units=GPa)
#
#
# Indices 1 2 3 4 5 6 
#
# 1 103.9256 32.9066 51.8573 0.0000 -13.1342 0.0000
# 2 32.9066 110.4637 50.5529 0.0000 -8.3079 0.0000
# 3 51.8573 50.5529 138.3202 0.0000 -7.4283 0.0000
# 4 0.0000 0.0000 0.0000 37.1835 0.0000 -2.3936
# 5 -13.1342 -8.3079 -7.4283 0.0000 39.4014 0.0000
# 6 0.0000 0.0000 0.0000 -2.3936 0.0000 22.9315
#
#
#
# Elastic Compliance Matrix: (Units=1/GPa)
#
#
# Indices 1 2 3 4 5 6 
#
# 1 0.012495 -0.001709 -0.003895 0.000000 0.003070 0.000000
# 2 -0.001709 0.011200 -0.003391 0.000000 0.001153 0.000000
# 3 -0.003895 -0.003391 0.009922 0.000000 -0.000143 0.000000
# 4 0.000000 0.000000 0.000000 0.027076 0.000000 0.002826
# 5 0.003070 0.001153 -0.000143 0.000000 0.026619 0.000000
# 6 0.000000 0.000000 0.000000 0.002826 0.000000 0.043903
#
#
# Mechanical properties :
#
#
# Convention : Reuss Voigt Hill
#
# Bulk Modulus (GPa) = 63.99037 69.26034 66.62535
# Shear Modulus (GPa) = 32.38062 34.39614 33.38838
#
# Velocity S-wave (km/s) = 3.82206 3.93922 3.88108
# Velocity P-wave (km/s) = 6.95313 7.20666 7.08103
#
# Compressibility (1/GPa) = 0.01562735
#
# Stress axis : x y z
#
# Youngs Moduli (GPa) = 80.03250 89.28326 100.79096
#
# Poissons Ratio (x) = 0.15256 0.39259
# Poissons Ratio (y) = 0.13675 0.34178
# Poissons Ratio (z) = 0.31173 0.30275
#
# Static dielectric constant tensor:
#      x y z
#    x 4.267850 0.000000 0.060000 
#    y 0.000000 4.242900 0.000000 
#    z 0.060000 0.000000 3.954970 
# 
# 
# High freq. dielectric constant tensor:
#      x y z
#    x 1.880250 0.000000 0.006040 
#    y 0.000000 1.887540 0.000000 
#    z 0.006040 0.000000 1.866870 
# 
# From -- ./inp_files/185478.got.cif
#   From: 2010.06.25/outbox.cif.g09.slc.cpg/sg15_93_cif.got.tgz:185478.got - 2010.06.28 07:06:18.
