data_PCOD8146115
_publ_section_title
;
Structure prediction by ZEFSAII (Michael W. Deem and Ramdas Pophale) SiO2 
 PCOD8146115
Probable space group: C 2/C
;
_chemical_formula_sum "Si O2"
_cell_formula_units_Z 56
_cell_length_a 18.880525
_cell_length_b 8.738869
_cell_length_c 14.509913
_cell_angle_alpha 90.000000
_cell_angle_beta 85.538257
_cell_angle_gamma 90.000000
_cell_volume 2386.799707
_symmetry_space_group_name_H-M "C 2/C"
_symmetry_group_IT_number 15
_symmetry_cell_setting 'monoclinic'
loop_
_space_group_symop_operation_xyz
x,y,z
-x,y,1/2-z
-x,-y,-z
x,-y,1/2+z
1/2+x,1/2+y,z
1/2-x,1/2+y,1/2-z
1/2-x,1/2-y,-z
1/2+x,1/2-y,1/2+z
loop_
_atom_site_type_symbol
_atom_site_label
_atom_site_fract_x
_atom_site_fract_y
_atom_site_fract_z
Si Si1 0.723776 0.587814 0.465625
Si Si2 0.960500 0.775277 0.340319
Si Si3 0.081762 0.996055 0.521769
Si Si4 0.783359 0.417358 0.624756
Si Si5 0.427022 0.168411 0.020612
Si Si6 0.284309 0.894181 0.303638
Si Si7 0.937631 0.444660 0.325330
O O1 0.750000 0.750000 0.500000
O O2 0.638815 0.585080 0.450406
O O3 0.733639 0.458887 0.543743
O O4 0.766387 0.538218 0.371093
O O5 0.910857 0.911734 0.382322
O O6 0.918841 0.624409 0.309316
O O7 0.000000 0.851024 0.250000
O O8 0.013497 0.715335 0.413374
O O9 0.105356 0.820277 0.525017
O O10 0.000000 0.000000 0.500000
O O11 0.864694 0.420498 0.580327
O O12 0.764402 0.251750 0.668756
O O13 0.772917 0.551779 0.700336
O O14 0.459905 0.072742 0.931174
O O15 0.366791 0.849400 0.310127
O O16 0.000000 0.389866 0.250000
#
# Coordination Sequence:
#
# PCOD8146115 Si02
#       7
#     8   8   8   8   8   8   8
#     4  12  24  45  73 101 140 186 238 292 356 428
#     4  10  22  40  66  98 139 180 234 290 351 424
#     4  10  23  43  65  96 138 184 230 283 356 422
#     4  12  25  45  72 100 141 183 234 293 353 422
#     4  11  22  44  70  97 141 189 223 297 354 420
#     4  12  25  45  69 102 139 184 236 291 357 423
#     4  11  23  43  67 101 135 177 238 291 355 420
#
# _framework density 23.46238
#
# number of rings (size 3 to 8) (size 9 to 14) (size 15 to 20)
#    0.000    0.857    2.857    5.143    0.000    1.714 
#    7.714    0.000    0.000    0.000    0.000    0.000 
#    0.000    0.000    0.000    0.000    0.000    0.000 
#
# Total GULP energy -347047.206088 kJ/mol
# GULP energy per Si atom -12394.543075 kJ/mol
# Density = 2.340898 g / cm^3
# Si number density = 23.462380 Si / 1000 Ang^3
#
#
#
# Elastic Constant Matrix: (Units=GPa)
#
#
# Indices 1 2 3 4 5 6 
#
# 1 108.3203 3.0115 26.5032 0.0000 -24.9140 0.0000
# 2 3.0115 81.2327 13.8572 0.0000 -20.3778 0.0000
# 3 26.5032 13.8572 127.4547 0.0000 -27.7763 0.0000
# 4 0.0000 0.0000 0.0000 43.5962 0.0000 -10.0851
# 5 -24.9140 -20.3778 -27.7763 0.0000 41.6341 0.0000
# 6 0.0000 0.0000 0.0000 -10.0851 0.0000 23.3809
#
#
#
# Elastic Compliance Matrix: (Units=1/GPa)
#
#
# Indices 1 2 3 4 5 6 
#
# 1 0.010950 0.001415 -0.000997 0.000000 0.006580 0.000000
# 2 0.001415 0.014216 -0.000163 0.000000 0.007696 0.000000
# 3 -0.000997 -0.000163 0.009272 0.000000 0.005509 0.000000
# 4 0.000000 0.000000 0.000000 0.025480 0.000000 0.010991
# 5 0.006580 0.007696 0.005509 0.000000 0.035399 0.000000
# 6 0.000000 0.000000 0.000000 0.010991 0.000000 0.047511
#
#
# Mechanical properties :
#
#
# Convention : Reuss Voigt Hill
#
# Bulk Modulus (GPa) = 28.61367 44.86128 36.73748
# Shear Modulus (GPa) = 32.47470 39.96463 36.21967
#
# Velocity S-wave (km/s) = 3.72441 4.13164 3.93330
# Velocity P-wave (km/s) = 5.54229 6.47477 6.02659
#
# Compressibility (1/GPa) = 0.03494833
#
# Stress axis : x y z
#
# Youngs Moduli (GPa) = 91.32570 70.34203 107.85669
#
# Poissons Ratio (x) = -0.09951 0.10751
# Poissons Ratio (y) = -0.12920 0.01753
# Poissons Ratio (z) = 0.09103 0.01143
#
# Static dielectric constant tensor:
#      x y z
#    x 4.232760 0.000000 -0.246920 
#    y 0.000000 4.661920 0.000000 
#    z -0.246920 0.000000 4.403770 
# 
# 
# High freq. dielectric constant tensor:
#      x y z
#    x 1.930770 0.000000 -0.016390 
#    y 0.000000 1.928870 0.000000 
#    z -0.016390 0.000000 1.929430 
# 
# From -- ./inp_files/166667.got.cif
#   From: 2010.06.25/outbox.cif.g09.slc.cpg/sg15_84_cif.got.tgz:166667.got - 2010.06.28 07:06:18.
