data_PCOD8146291
_publ_section_title
;
Structure prediction by ZEFSAII (Michael W. Deem and Ramdas Pophale) SiO2 
 PCOD8146291
Probable space group: C 2/C
;
_chemical_formula_sum "Si O2"
_cell_formula_units_Z 44
_cell_length_a 7.537329
_cell_length_b 27.478686
_cell_length_c 12.960196
_cell_angle_alpha 90.000000
_cell_angle_beta 133.288727
_cell_angle_gamma 90.000000
_cell_volume 1953.895372
_symmetry_space_group_name_H-M "C 2/C"
_symmetry_group_IT_number 15
_symmetry_cell_setting 'monoclinic'
loop_
_space_group_symop_operation_xyz
x,y,z
-x,y,1/2-z
-x,-y,-z
x,-y,1/2+z
1/2+x,1/2+y,z
1/2-x,1/2+y,1/2-z
1/2-x,1/2-y,-z
1/2+x,1/2-y,1/2+z
loop_
_atom_site_type_symbol
_atom_site_label
_atom_site_fract_x
_atom_site_fract_y
_atom_site_fract_z
Si Si1 0.500000 0.477163 0.750000
Si Si2 0.124443 0.776751 0.582682
Si Si3 0.396735 0.901602 0.969050
Si Si4 0.733065 0.357515 0.102332
Si Si5 0.723414 0.948734 0.263784
Si Si6 0.063356 0.696448 0.116482
O O1 0.737293 0.445283 0.862306
O O2 0.578299 0.509673 0.681900
O O3 0.175758 0.789979 0.724074
O O4 0.373109 0.780584 0.619634
O O5 0.947510 0.813736 0.452675
O O6 0.988692 0.724075 0.514201
O O7 0.469282 0.862039 0.909820
O O8 0.235578 0.869819 0.982608
O O9 0.625190 0.927216 0.115769
O O10 0.633543 0.405235 0.122418
O O11 0.000000 0.343813 0.250000
O O12 0.500000 0.966388 0.250000
#
# Coordination Sequence:
#
# PCOD8146291 Si02
#       6
#     4   8   8   8   8   8
#     4  12  22  40  66  92 126 184 210 274 332 378
#     4  10  22  41  62  95 128 170 214 260 339 376
#     4  10  22  41  59  94 128 157 225 259 325 388
#     4   9  21  41  61  92 125 167 214 272 319 390
#     4   9  23  41  61  96 127 169 223 269 320 391
#     4  10  23  40  64  95 128 168 214 273 313 405
#
# _framework density 22.519119
#
# number of rings (size 3 to 8) (size 9 to 14) (size 15 to 20)
#    0.000    2.545    0.000    1.636    7.636    3.636 
#    8.182    0.000    0.000    0.000    0.000    0.000 
#    0.000    0.000    0.000    0.000    0.000    0.000 
#
# Total GULP energy -272573.644409 kJ/mol
# GULP energy per Si atom -12389.711109 kJ/mol
# Density = 2.246786 g / cm^3
# Si number density = 22.519119 Si / 1000 Ang^3
#
#
#
# Elastic Constant Matrix: (Units=GPa)
#
#
# Indices 1 2 3 4 5 6 
#
# 1 37.6107 34.1585 13.7632 0.0000 -4.3343 0.0000
# 2 34.1585 129.4960 45.4325 0.0000 12.9264 0.0000
# 3 13.7632 45.4325 97.0874 0.0000 -8.0083 0.0000
# 4 0.0000 0.0000 0.0000 71.6792 0.0000 -16.4383
# 5 -4.3343 12.9264 -8.0083 0.0000 19.1085 0.0000
# 6 0.0000 0.0000 0.0000 -16.4383 0.0000 42.1698
#
#
#
# Elastic Compliance Matrix: (Units=1/GPa)
#
#
# Indices 1 2 3 4 5 6 
#
# 1 0.039923 -0.013117 0.002027 0.000000 0.018778 0.000000
# 2 -0.013117 0.015043 -0.006489 0.000000 -0.015871 0.000000
# 3 0.002027 -0.006489 0.013931 0.000000 0.010688 0.000000
# 4 0.000000 0.000000 0.000000 0.015321 0.000000 0.005972
# 5 0.018778 -0.015871 0.010688 0.000000 0.071808 0.000000
# 6 0.000000 0.000000 0.000000 0.005972 0.000000 0.026042
#
#
# Mechanical properties :
#
#
# Convention : Reuss Voigt Hill
#
# Bulk Modulus (GPa) = 29.63835 50.10028 39.86932
# Shear Modulus (GPa) = 21.88465 37.98083 29.93274
#
# Velocity S-wave (km/s) = 3.12079 4.11128 3.64979
# Velocity P-wave (km/s) = 5.11623 6.69575 5.95856
#
# Compressibility (1/GPa) = 0.03374006
#
# Stress axis : x y z
#
# Youngs Moduli (GPa) = 25.04825 66.47568 71.78315
#
# Poissons Ratio (x) = 0.87194 -0.14554
# Poissons Ratio (y) = 0.32855 0.46581
# Poissons Ratio (z) = -0.05078 0.43137
#
# Static dielectric constant tensor:
#      x y z
#    x 3.748710 0.000000 -0.170830 
#    y 0.000000 4.096810 0.000000 
#    z -0.170830 0.000000 4.427440 
# 
# 
# High freq. dielectric constant tensor:
#      x y z
#    x 1.860850 0.000000 -0.004310 
#    y 0.000000 1.891870 0.000000 
#    z -0.004310 0.000000 1.891630 
# 
# From -- ./inp_files/138827.got.cif
#   From: 2010.06.25/outbox.cif.g09.slc.cpg/sg15_70_cif.got.tgz:138827.got - 2010.06.28 07:06:18.
