data_PCOD8146919
_publ_section_title
;
Structure prediction by ZEFSAII (Michael W. Deem and Ramdas Pophale) SiO2 
 PCOD8146919
Probable space group: C 2/C
;
_chemical_formula_sum "Si O2"
_cell_formula_units_Z 36
_cell_length_a 17.992242
_cell_length_b 18.792123
_cell_length_c 4.932970
_cell_angle_alpha 90.000000
_cell_angle_beta 99.266991
_cell_angle_gamma 90.000000
_cell_volume 1646.130130
_symmetry_space_group_name_H-M "C 2/C"
_symmetry_group_IT_number 15
_symmetry_cell_setting 'monoclinic'
loop_
_space_group_symop_operation_xyz
x,y,z
-x,y,1/2-z
-x,-y,-z
x,-y,1/2+z
1/2+x,1/2+y,z
1/2-x,1/2+y,1/2-z
1/2-x,1/2-y,-z
1/2+x,1/2-y,1/2+z
loop_
_atom_site_type_symbol
_atom_site_label
_atom_site_fract_x
_atom_site_fract_y
_atom_site_fract_z
Si Si1 0.172620 0.205312 0.465672
Si Si2 0.426163 0.271956 0.102411
Si Si3 0.000000 0.662617 0.750000
Si Si4 0.110708 0.544309 0.868110
Si Si5 0.286414 0.546496 0.973773
O O1 0.250000 0.250000 0.500000
O O2 0.120943 0.246839 0.653317
O O3 0.180009 0.124067 0.569695
O O4 0.131798 0.195875 0.150371
O O5 0.500000 0.318596 0.250000
O O6 0.465540 0.205055 0.982137
O O7 0.066771 0.615590 0.915619
O O8 0.087882 0.519090 0.556019
O O9 0.198243 0.561049 0.937235
O O10 0.313047 0.489278 0.767835
#
# Coordination Sequence:
#
# PCOD8146919 Si02
#       5
#     8   8   4   8   8
#     4  12  25  45  72 103 134 182 237 284 341 406
#     4  12  26  43  65  99 139 177 218 291 342 400
#     4  12  24  40  64  92 142 180 222 260 346 404
#     4  10  23  37  60  93 133 177 221 262 323 414
#     4  10  22  42  66  97 131 172 223 285 338 399
#
# _framework density 21.869474
#
# number of rings (size 3 to 8) (size 9 to 14) (size 15 to 20)
#    0.000    0.889    2.222    4.000    3.111    3.556 
#    0.000    0.000    0.000   13.333    0.000    0.000 
#    0.000    0.000    0.000    0.000    0.000    0.000 
#
# Total GULP energy -223020.527508 kJ/mol
# GULP energy per Si atom -12390.029306 kJ/mol
# Density = 2.181970 g / cm^3
# Si number density = 21.869474 Si / 1000 Ang^3
#
#
#
# Elastic Constant Matrix: (Units=GPa)
#
#
# Indices 1 2 3 4 5 6 
#
# 1 115.0140 43.3726 54.2868 0.0000 -5.2506 0.0000
# 2 43.3726 98.9857 12.5152 0.0000 -3.0581 0.0000
# 3 54.2868 12.5152 119.2266 0.0000 2.2007 0.0000
# 4 0.0000 0.0000 0.0000 -4.0137 0.0000 -16.1641
# 5 -5.2506 -3.0581 2.2007 0.0000 45.1809 0.0000
# 6 0.0000 0.0000 0.0000 -16.1641 0.0000 24.1600
#
#
#
# Elastic Compliance Matrix: (Units=1/GPa)
#
#
# Indices 1 2 3 4 5 6 
#
# 1 0.013296 -0.005079 -0.005548 0.000000 0.001472 0.000000
# 2 -0.005079 0.012204 0.001028 0.000000 0.000186 0.000000
# 3 -0.005548 0.001028 0.010826 0.000000 -0.001102 0.000000
# 4 0.000000 0.000000 0.000000 -0.067439 0.000000 -0.045120
# 5 0.001472 0.000186 -0.001102 0.000000 0.022371 0.000000
# 6 0.000000 0.000000 0.000000 -0.045120 0.000000 0.011204
#
#
# Mechanical properties :
#
#
# Convention : Reuss Voigt Hill
#
# Bulk Modulus (GPa) = 58.38427 61.50839 59.94633
# Shear Modulus (GPa) = 182.69975 27.93555 105.31765
#
# Velocity S-wave (km/s) = 9.14999 3.57792 6.94708
# Velocity P-wave (km/s) = 11.76369 6.72718 9.58226
#
# Compressibility (1/GPa) = 0.01712790
#
# Stress axis : x y z
#
# Youngs Moduli (GPa) = 75.21257 81.94282 92.37110
#
# Poissons Ratio (x) = 0.41618 0.51246
# Poissons Ratio (y) = 0.38199 -0.09497
# Poissons Ratio (z) = 0.41727 -0.08424
#
# Static dielectric constant tensor:
#      x y z
#    x 4.300610 0.000000 0.218100 
#    y 0.000000 4.016860 0.000000 
#    z 0.218100 0.000000 4.342920 
# 
# 
# High freq. dielectric constant tensor:
#      x y z
#    x 1.868970 0.000000 -0.000110 
#    y 0.000000 1.836080 0.000000 
#    z -0.000110 0.000000 1.882160 
# 
# From -- ./inp_files/9729.got.cif
#   From: 2010.06.25/outbox.cif.g09.slc.cpg/sg15_5_cif.got.tgz:9729.got - 2010.06.28 07:06:18.
