data_PCOD8146420
_publ_section_title
;
Structure prediction by ZEFSAII (Michael W. Deem and Ramdas Pophale) SiO2 
 PCOD8146420
Probable space group: C 2/C
;
_chemical_formula_sum "Si O2"
_cell_formula_units_Z 48
_cell_length_a 37.448518
_cell_length_b 7.280659
_cell_length_c 23.021698
_cell_angle_alpha 90.000000
_cell_angle_beta 157.953516
_cell_angle_gamma 90.000000
_cell_volume 2356.075250
_symmetry_space_group_name_H-M "C 2/C"
_symmetry_group_IT_number 15
_symmetry_cell_setting 'monoclinic'
loop_
_space_group_symop_operation_xyz
x,y,z
-x,y,1/2-z
-x,-y,-z
x,-y,1/2+z
1/2+x,1/2+y,z
1/2-x,1/2+y,1/2-z
1/2-x,1/2-y,-z
1/2+x,1/2-y,1/2+z
loop_
_atom_site_type_symbol
_atom_site_label
_atom_site_fract_x
_atom_site_fract_y
_atom_site_fract_z
Si Si1 0.186362 0.944446 0.753964
Si Si2 0.525272 0.335912 0.427238
Si Si3 0.738556 0.963444 0.337546
Si Si4 0.647111 0.000387 0.079651
Si Si5 0.561784 0.636924 0.397565
Si Si6 0.178862 0.247310 0.839119
O O1 0.258044 0.034222 0.815112
O O2 0.186325 0.065483 0.811541
O O3 0.082858 0.920217 0.568789
O O4 0.223730 0.748445 0.830629
O O5 0.584824 0.183380 0.481691
O O6 0.500537 0.505433 0.347386
O O7 0.429293 0.237133 0.302720
O O8 0.675485 0.033869 0.188938
O O9 0.849170 0.986245 0.488778
O O10 0.706093 0.074241 0.344207
O O11 0.590152 0.178329 0.973563
O O12 0.500000 0.699812 0.250000
O O13 0.250000 0.250000 0.000000
#
# Coordination Sequence:
#
# PCOD8146420 Si02
#       6
#     8   8   8   8   8   8
#     4  10  22  41  66  91 118 168 219 263 305 374
#     4  11  23  39  64  92 124 171 208 261 319 382
#     4  10  22  41  65  88 122 169 213 261 312 373
#     4  10  22  41  69  92 120 163 220 272 309 369
#     4  11  22  37  63  95 124 162 216 271 315 367
#     4  12  26  40  59  92 138 171 200 257 324 389
#
# _framework density 20.372864
#
# number of rings (size 3 to 8) (size 9 to 14) (size 15 to 20)
#    0.000    1.333    1.667    3.500    2.333    8.000 
#    0.000    0.000    0.000    0.000    0.000    0.000 
#    0.000    0.000    0.000    0.000    0.000    0.000 
#
# Total GULP energy -297679.295866 kJ/mol
# GULP energy per Si atom -12403.303994 kJ/mol
# Density = 2.032649 g / cm^3
# Si number density = 20.372864 Si / 1000 Ang^3
#
#
#
# Elastic Constant Matrix: (Units=GPa)
#
#
# Indices 1 2 3 4 5 6 
#
# 1 93.5765 53.1611 60.6451 0.0000 -2.6002 0.0000
# 2 53.1611 101.1249 54.9615 0.0001 -4.6428 0.0001
# 3 60.6451 54.9615 106.9699 0.0000 -10.8524 0.0000
# 4 0.0000 0.0001 0.0000 14.0237 0.0000 -4.7821
# 5 -2.6002 -4.6428 -10.8524 0.0000 27.1395 0.0000
# 6 0.0000 0.0001 0.0000 -4.7821 0.0000 48.2173
#
#
#
# Elastic Compliance Matrix: (Units=1/GPa)
#
#
# Indices 1 2 3 4 5 6 
#
# 1 0.019178 -0.005758 -0.008159 0.000000 -0.002410 0.000000
# 2 -0.005758 0.015455 -0.004653 0.000000 0.000232 0.000000
# 3 -0.008159 -0.004653 0.016890 0.000000 0.005176 0.000000
# 4 0.000000 0.000000 0.000000 0.073804 0.000000 0.007320
# 5 -0.002410 0.000232 0.005176 0.000000 0.038725 0.000000
# 6 0.000000 0.000000 0.000000 0.007320 0.000000 0.021465
#
#
# Mechanical properties :
#
#
# Convention : Reuss Voigt Hill
#
# Bulk Modulus (GPa) = 69.52442 71.02298 70.27370
# Shear Modulus (GPa) = 21.98260 26.73634 24.35947
#
# Velocity S-wave (km/s) = 3.28840 3.62657 3.46162
# Velocity P-wave (km/s) = 6.97267 7.24384 7.10955
#
# Compressibility (1/GPa) = 0.01438344
#
# Stress axis : x y z
#
# Youngs Moduli (GPa) = 52.14221 64.70218 59.20770
#
# Poissons Ratio (x) = 0.37258 0.48306
# Poissons Ratio (y) = 0.30025 0.27549
# Poissons Ratio (z) = 0.42541 0.30105
#
# Static dielectric constant tensor:
#      x y z
#    x 3.707260 0.000000 0.052450 
#    y 0.000000 3.715750 0.000000 
#    z 0.052450 0.000000 3.691300 
# 
# 
# High freq. dielectric constant tensor:
#      x y z
#    x 1.794540 0.000000 -0.000530 
#    y 0.000000 1.808700 0.000000 
#    z -0.000530 0.000000 1.795330 
# 
# From -- ./inp_files/224687.got.cif
#   From: 2010.06.25/outbox.cif.g09.slc.cpg/sg15_113_cif.got.tgz:224687.got - 2010.06.28 07:06:18.
