data_PCOD8146548
_publ_section_title
;
Structure prediction by ZEFSAII (Michael W. Deem and Ramdas Pophale) SiO2 
 PCOD8146548
Probable space group: C 2/C
;
_chemical_formula_sum "Si O2"
_cell_formula_units_Z 60
_cell_length_a 8.673487
_cell_length_b 26.238819
_cell_length_c 19.772456
_cell_angle_alpha 90.000000
_cell_angle_beta 142.834861
_cell_angle_gamma 90.000000
_cell_volume 2718.427749
_symmetry_space_group_name_H-M "C 2/C"
_symmetry_group_IT_number 15
_symmetry_cell_setting 'monoclinic'
loop_
_space_group_symop_operation_xyz
x,y,z
-x,y,1/2-z
-x,-y,-z
x,-y,1/2+z
1/2+x,1/2+y,z
1/2-x,1/2+y,1/2-z
1/2-x,1/2-y,-z
1/2+x,1/2-y,1/2+z
loop_
_atom_site_type_symbol
_atom_site_label
_atom_site_fract_x
_atom_site_fract_y
_atom_site_fract_z
Si Si1 0.207530 0.865809 0.706026
Si Si2 0.759336 0.087952 0.533433
Si Si3 0.768266 0.535590 0.303910
Si Si4 0.904218 0.264708 0.986931
Si Si5 0.692805 0.933414 0.256137
Si Si6 0.775228 0.644014 0.847807
Si Si7 0.000000 0.802514 0.750000
Si Si8 0.258914 0.330864 0.920381
O O1 0.242197 0.925503 0.732126
O O2 0.020585 0.840327 0.693874
O O3 0.458949 0.830751 0.800439
O O4 0.102687 0.861897 0.592665
O O5 0.504179 0.056354 0.430259
O O6 0.748448 0.096936 0.609406
O O7 0.790971 0.140929 0.503098
O O8 0.023204 0.057767 0.613627
O O9 0.500000 0.532273 0.250000
O O10 0.863448 0.481500 0.310892
O O11 0.734308 0.267862 0.858350
O O12 0.750000 0.250000 0.000000
O O13 0.017911 0.318436 0.049007
O O14 0.124895 0.225753 0.040813
O O15 0.500000 0.930742 0.250000
O O16 0.657828 0.880487 0.201849
O O17 0.500000 0.672339 0.750000
#
# Coordination Sequence:
#
# PCOD8146548 Si02
#       8
#     8   8   8   8   8   8   4   8
#     4  10  22  41  67  98 137 173 231 293 346 415
#     4  10  24  47  69 100 137 185 228 292 352 418
#     4  11  23  43  73 100 137 185 233 285 354 430
#     4  12  26  41  68 104 136 185 236 290 352 418
#     4  11  27  45  70 105 140 182 233 291 356 422
#     4  10  25  48  70  94 140 185 235 285 354 425
#     4  12  24  42  62 102 138 178 236 282 360 416
#     4  10  23  42  66  95 137 177 231 287 343 408
#
# _framework density 22.071581999999999
#
# number of rings (size 3 to 8) (size 9 to 14) (size 15 to 20)
#    0.000    1.333    2.000    2.800    7.467    6.933 
#    0.000    0.000    0.000    0.000    0.000    0.000 
#    0.000    0.000    0.000    0.000    0.000    0.000 
#
# Total GULP energy -371718.773846 kJ/mol
# GULP energy per Si atom -12390.625795 kJ/mol
# Density = 2.202135 g / cm^3
# Si number density = 22.071582 Si / 1000 Ang^3
#
#
#
# Elastic Constant Matrix: (Units=GPa)
#
#
# Indices 1 2 3 4 5 6 
#
# 1 133.2359 30.7819 38.8151 -0.0001 6.1389 0.0008
# 2 30.7819 87.1393 34.0605 0.0000 10.5287 -0.0002
# 3 38.8151 34.0605 111.4977 -0.0002 6.6863 0.0022
# 4 -0.0001 0.0000 -0.0002 25.6937 0.0000 3.6978
# 5 6.1389 10.5287 6.6863 0.0000 34.8328 0.0008
# 6 0.0008 -0.0002 0.0022 3.6978 0.0008 43.1904
#
#
#
# Elastic Compliance Matrix: (Units=1/GPa)
#
#
# Indices 1 2 3 4 5 6 
#
# 1 0.008698 -0.002096 -0.002361 0.000000 -0.000446 0.000000
# 2 -0.002096 0.013902 -0.003326 0.000000 -0.003194 0.000000
# 3 -0.002361 -0.003326 0.010846 0.000000 -0.000661 -0.000001
# 4 0.000000 0.000000 0.000000 0.039406 0.000000 -0.003374
# 5 -0.000446 -0.003194 -0.000661 0.000000 0.029880 -0.000001
# 6 0.000000 0.000000 -0.000001 -0.003374 -0.000001 0.023442
#
#
# Mechanical properties :
#
#
# Convention : Reuss Voigt Hill
#
# Bulk Modulus (GPa) = 55.92389 59.90975 57.91682
# Shear Modulus (GPa) = 33.85256 35.95773 34.90514
#
# Velocity S-wave (km/s) = 3.92058 4.04064 3.98106
# Velocity P-wave (km/s) = 6.77400 6.99795 6.88689
#
# Compressibility (1/GPa) = 0.01788145
#
# Stress axis : x y z
#
# Youngs Moduli (GPa) = 114.96803 71.93155 92.19752
#
# Poissons Ratio (x) = 0.15075 0.21768
# Poissons Ratio (y) = 0.24095 0.30662
# Poissons Ratio (z) = 0.27144 0.23922
#
# Static dielectric constant tensor:
#      x y z
#    x 5.014460 0.000000 -0.276090 
#    y 0.000000 3.837870 0.000000 
#    z -0.276090 0.000000 4.474690 
# 
# 
# High freq. dielectric constant tensor:
#      x y z
#    x 1.882200 0.000000 -0.001930 
#    y 0.000000 1.855290 0.000000 
#    z -0.001930 0.000000 1.875200 
# 
# From -- ./inp_files/234575.got.cif
#   From: 2010.06.25/outbox.cif.g09.slc.cpg/sg15_118_cif.got.tgz:234575.got - 2010.06.28 07:06:18.
