data_PCOD8146470
_publ_section_title
;
Structure prediction by ZEFSAII (Michael W. Deem and Ramdas Pophale) SiO2 
 PCOD8146470
Probable space group: C 2/C
;
_chemical_formula_sum "Si O2"
_cell_formula_units_Z 48
_cell_length_a 28.890878
_cell_length_b 11.306275
_cell_length_c 21.301300
_cell_angle_alpha 90.000000
_cell_angle_beta 159.997906
_cell_angle_gamma 90.000000
_cell_volume 2380.025907
_symmetry_space_group_name_H-M "C 2/C"
_symmetry_group_IT_number 15
_symmetry_cell_setting 'monoclinic'
loop_
_space_group_symop_operation_xyz
x,y,z
-x,y,1/2-z
-x,-y,-z
x,-y,1/2+z
1/2+x,1/2+y,z
1/2-x,1/2+y,1/2-z
1/2-x,1/2-y,-z
1/2+x,1/2-y,1/2+z
loop_
_atom_site_type_symbol
_atom_site_label
_atom_site_fract_x
_atom_site_fract_y
_atom_site_fract_z
Si Si1 0.485428 0.402041 0.899916
Si Si2 0.101606 0.651014 0.680175
Si Si3 0.052029 0.577277 0.483975
Si Si4 0.221623 0.693371 0.396775
Si Si5 0.305268 0.585745 0.723785
Si Si6 0.876356 0.032498 0.050389
O O1 0.438527 0.266839 0.831370
O O2 0.349998 0.481906 0.733040
O O3 0.576022 0.459358 0.960793
O O4 0.571191 0.398098 0.072066
O O5 0.107471 0.662222 0.611217
O O6 0.986727 0.552736 0.542094
O O7 0.246437 0.615473 0.893214
O O8 0.168514 0.549653 0.583241
O O9 0.926297 0.636085 0.288264
O O10 0.250000 0.750000 0.500000
O O11 0.223623 0.792530 0.347074
O O12 0.336191 0.599730 0.521150
O O13 0.000000 0.080125 0.250000
#
# Coordination Sequence:
#
# PCOD8146470 Si02
#       6
#     8   8   8   8   8   8
#     4  11  24  40  66 102 130 172 227 272 330 399
#     4  10  22  43  67  95 133 174 224 274 327 399
#     4  10  22  41  66 100 130 175 223 268 334 392
#     4  11  25  44  68  99 136 174 220 280 338 395
#     4  11  24  37  67 101 133 171 223 275 328 401
#     4  11  25  44  68  95 133 176 218 280 339 398
#
# _framework density 20.167846999999998
#
# number of rings (size 3 to 8) (size 9 to 14) (size 15 to 20)
#    0.000    1.333    3.333    1.000    7.000    0.667 
#    0.000    0.000    0.000    0.000    0.000    0.000 
#    0.000    0.000    0.000    0.000    0.000    0.000 
#
# Total GULP energy -297567.269868 kJ/mol
# GULP energy per Si atom -12398.636245 kJ/mol
# Density = 2.012194 g / cm^3
# Si number density = 20.167847 Si / 1000 Ang^3
#
#
#
# Elastic Constant Matrix: (Units=GPa)
#
#
# Indices 1 2 3 4 5 6 
#
# 1 97.2074 50.3855 29.8358 0.0001 15.9090 0.0000
# 2 50.3855 116.9178 42.8398 0.0000 10.9667 0.0000
# 3 29.8358 42.8398 104.5568 0.0001 10.7295 0.0001
# 4 0.0001 0.0000 0.0001 22.1689 0.0001 -1.0905
# 5 15.9090 10.9667 10.7295 0.0001 41.4894 0.0000
# 6 0.0000 0.0000 0.0001 -1.0905 0.0000 30.0375
#
#
#
# Elastic Compliance Matrix: (Units=1/GPa)
#
#
# Indices 1 2 3 4 5 6 
#
# 1 0.014011 -0.005142 -0.001520 0.000000 -0.003620 0.000000
# 2 -0.005142 0.012060 -0.003441 0.000000 -0.000326 0.000000
# 3 -0.001520 -0.003441 0.011561 0.000000 -0.001498 0.000000
# 4 0.000000 0.000000 0.000000 0.045189 0.000000 0.001641
# 5 -0.003620 -0.000326 -0.001498 0.000000 0.025964 0.000000
# 6 0.000000 0.000000 0.000000 0.001641 0.000000 0.033351
#
#
# Mechanical properties :
#
#
# Convention : Reuss Voigt Hill
#
# Bulk Modulus (GPa) = 57.37829 62.75603 60.06716
# Shear Modulus (GPa) = 29.73510 31.78057 30.75784
#
# Velocity S-wave (km/s) = 3.84393 3.97395 3.90948
# Velocity P-wave (km/s) = 6.94358 7.22778 7.08710
#
# Compressibility (1/GPa) = 0.01742820
#
# Stress axis : x y z
#
# Youngs Moduli (GPa) = 71.37036 82.91802 86.49524
#
# Poissons Ratio (x) = 0.42634 0.13147
# Poissons Ratio (y) = 0.36696 0.29760
# Poissons Ratio (z) = 0.10848 0.28529
#
# Static dielectric constant tensor:
#      x y z
#    x 3.645570 0.000000 -0.056070 
#    y 0.000000 3.783490 0.000000 
#    z -0.056070 0.000000 4.010310 
# 
# 
# High freq. dielectric constant tensor:
#      x y z
#    x 1.783000 0.000000 0.008540 
#    y 0.000000 1.786780 0.000000 
#    z 0.008540 0.000000 1.797460 
# 
# From -- ./inp_files/103744.got.cif
#   From: 2010.06.25/outbox.cif.g09.slc.cpg/sg15_52_cif.got.tgz:103744.got - 2010.06.28 07:06:18.
