data_PCOD8146671
_publ_section_title
;
Structure prediction by ZEFSAII (Michael W. Deem and Ramdas Pophale) SiO2 
 PCOD8146671
Probable space group: C 2/C
;
_chemical_formula_sum "Si O2"
_cell_formula_units_Z 56
_cell_length_a 9.310298
_cell_length_b 11.809612
_cell_length_c 28.486473
_cell_angle_alpha 90.000000
_cell_angle_beta 119.155803
_cell_angle_gamma 90.000000
_cell_volume 2735.271433
_symmetry_space_group_name_H-M "C 2/C"
_symmetry_group_IT_number 15
_symmetry_cell_setting 'monoclinic'
loop_
_space_group_symop_operation_xyz
x,y,z
-x,y,1/2-z
-x,-y,-z
x,-y,1/2+z
1/2+x,1/2+y,z
1/2-x,1/2+y,1/2-z
1/2-x,1/2-y,-z
1/2+x,1/2-y,1/2+z
loop_
_atom_site_type_symbol
_atom_site_label
_atom_site_fract_x
_atom_site_fract_y
_atom_site_fract_z
Si Si1 0.892140 0.345317 0.276331
Si Si2 0.726831 0.427940 0.063661
Si Si3 0.904843 0.987482 0.556351
Si Si4 0.970946 0.550209 0.350556
Si Si5 0.737401 0.088582 0.615453
Si Si6 0.987428 0.753664 0.612351
Si Si7 0.965594 0.778745 0.296265
O O1 0.941320 0.470822 0.300708
O O2 0.704612 0.345934 0.230036
O O3 0.000000 0.305835 0.250000
O O4 0.922161 0.255633 0.323042
O O5 0.555318 0.432912 0.064343
O O6 0.807755 0.305186 0.085815
O O7 0.846701 0.528031 0.100119
O O8 0.697353 0.441807 0.003719
O O9 0.781907 0.059227 0.569153
O O10 0.976618 0.883778 0.597629
O O11 0.834968 0.521130 0.368714
O O12 0.959306 0.679771 0.333768
O O13 0.598572 0.186541 0.591882
O O14 0.896873 0.129861 0.668935
O O15 0.000000 0.728285 0.250000
#
# Coordination Sequence:
#
# PCOD8146671 Si02
#       7
#     8   8   8   8   8   8   8
#     4  10  23  39  58  92 123 156 208 243 295 369
#     4   9  22  41  62  92 121 156 208 246 310 368
#     4  11  22  40  67  87 121 164 196 259 306 349
#     4  10  23  41  62  88 125 161 199 254 304 353
#     4  10  24  40  59  96 119 152 215 244 289 380
#     4  10  22  42  59  90 126 156 203 252 299 361
#     4  12  22  42  63  89 125 165 199 248 304 355
#
# _framework density 20.473288
#
# number of rings (size 3 to 8) (size 9 to 14) (size 15 to 20)
#    0.000    2.000    2.857    1.714    6.000    3.429 
#    0.000    6.429    0.000    0.000    0.000    0.000 
#    0.000    0.000    0.000    0.000    0.000    0.000 
#
# Total GULP energy -347263.511373 kJ/mol
# GULP energy per Si atom -12402.268263 kJ/mol
# Density = 2.042669 g / cm^3
# Si number density = 20.473288 Si / 1000 Ang^3
#
#
#
# Elastic Constant Matrix: (Units=GPa)
#
#
# Indices 1 2 3 4 5 6 
#
# 1 114.1939 18.5440 19.1871 0.0000 -11.4093 0.0000
# 2 18.5440 39.0978 1.9205 0.0000 -6.8934 0.0000
# 3 19.1871 1.9205 48.6661 0.0000 0.2773 0.0000
# 4 0.0000 0.0000 0.0000 14.3608 0.0000 2.3092
# 5 -11.4093 -6.8934 0.2773 0.0000 42.2143 0.0000
# 6 0.0000 0.0000 0.0000 2.3092 0.0000 19.1752
#
#
#
# Elastic Compliance Matrix: (Units=1/GPa)
#
#
# Indices 1 2 3 4 5 6 
#
# 1 0.010329 -0.004335 -0.003913 0.000000 0.002110 0.000000
# 2 -0.004335 0.028210 0.000576 0.000000 0.003431 0.000000
# 3 -0.003913 0.000576 0.022075 0.000000 -0.001109 0.000000
# 4 0.000000 0.000000 0.000000 0.071009 0.000000 -0.008551
# 5 0.002110 0.003431 -0.001109 0.000000 0.024826 0.000000
# 6 0.000000 0.000000 0.000000 -0.008551 0.000000 0.053180
#
#
# Mechanical properties :
#
#
# Convention : Reuss Voigt Hill
#
# Bulk Modulus (GPa) = 22.08994 31.25122 26.67058
# Shear Modulus (GPa) = 20.82784 25.97048 23.39916
#
# Velocity S-wave (km/s) = 3.19300 3.56547 3.38437
# Velocity P-wave (km/s) = 4.94032 5.67870 5.32233
#
# Compressibility (1/GPa) = 0.04526947
#
# Stress axis : x y z
#
# Youngs Moduli (GPa) = 96.81201 35.44893 45.30085
#
# Poissons Ratio (x) = 0.15367 0.17728
# Poissons Ratio (y) = 0.41968 -0.02611
# Poissons Ratio (z) = 0.37886 -0.02043
#
# Static dielectric constant tensor:
#      x y z
#    x 3.910720 0.000000 0.010340 
#    y 0.000000 3.349380 0.000000 
#    z 0.010340 0.000000 3.761450 
# 
# 
# High freq. dielectric constant tensor:
#      x y z
#    x 1.815430 0.000000 0.004470 
#    y 0.000000 1.775810 0.000000 
#    z 0.004470 0.000000 1.805240 
# 
# From -- ./inp_files/307560.got.cif
#   From: 2010.06.25/outbox.cif.g09.slc.cpg/sg15_154_cif.got.tgz:307560.got - 2010.06.28 07:06:18.
