data_PCOD8146729
_publ_section_title
;
Structure prediction by ZEFSAII (Michael W. Deem and Ramdas Pophale) SiO2 
 PCOD8146729
Probable space group: C 2/C
;
_chemical_formula_sum "Si O2"
_cell_formula_units_Z 48
_cell_length_a 31.421582
_cell_length_b 5.233011
_cell_length_c 12.942952
_cell_angle_alpha 90.000000
_cell_angle_beta 108.283888
_cell_angle_gamma 90.000000
_cell_volume 2020.757910
_symmetry_space_group_name_H-M "C 2/C"
_symmetry_group_IT_number 15
_symmetry_cell_setting 'monoclinic'
loop_
_space_group_symop_operation_xyz
x,y,z
-x,y,1/2-z
-x,-y,-z
x,-y,1/2+z
1/2+x,1/2+y,z
1/2-x,1/2+y,1/2-z
1/2-x,1/2-y,-z
1/2+x,1/2-y,1/2+z
loop_
_atom_site_type_symbol
_atom_site_label
_atom_site_fract_x
_atom_site_fract_y
_atom_site_fract_z
Si Si1 0.914406 0.450123 0.592210
Si Si2 0.948930 0.956564 0.723866
Si Si3 0.598569 0.658590 0.109445
Si Si4 0.762136 0.071567 0.416452
Si Si5 0.342376 0.739217 0.956611
Si Si6 0.810017 0.382942 0.275995
O O1 0.942838 0.689097 0.657579
O O2 0.925384 0.375860 0.480463
O O3 0.861958 0.537679 0.546195
O O4 0.918659 0.195365 0.663980
O O5 0.938538 0.928167 0.837198
O O6 0.000000 0.043053 0.750000
O O7 0.615513 0.439602 0.043409
O O8 0.641382 0.756967 0.208167
O O9 0.750000 0.250000 0.500000
O O10 0.780153 0.215511 0.329879
O O11 0.717567 0.914915 0.350791
O O12 0.802582 0.895478 0.489642
O O13 0.319515 0.843216 0.834845
#
# Coordination Sequence:
#
# PCOD8146729 Si02
#       6
#     8   8   8   8   8   8
#     4  11  25  49  73 111 149 186 253 299 369 460
#     4  12  28  48  78 114 146 190 245 307 384 455
#     4  10  25  46  75 102 149 199 237 308 374 428
#     4  11  23  41  67 100 143 197 245 303 362 418
#     4  10  22  46  67 100 147 196 246 302 361 431
#     4  10  22  42  63 101 143 184 251 301 348 435
#
# _framework density 23.753463
#
# number of rings (size 3 to 8) (size 9 to 14) (size 15 to 20)
#    0.000    1.333    3.333    0.500    4.667    7.333 
#    0.000    0.000    0.000    0.000    0.000    0.000 
#    0.000    0.000    0.000    0.000    0.000    0.000 
#
# Total GULP energy -297463.736384 kJ/mol
# GULP energy per Si atom -12394.322349 kJ/mol
# Density = 2.369940 g / cm^3
# Si number density = 23.753463 Si / 1000 Ang^3
#
#
#
# Elastic Constant Matrix: (Units=GPa)
#
#
# Indices 1 2 3 4 5 6 
#
# 1 74.9851 22.6702 19.6923 0.0000 -7.3298 0.0000
# 2 22.6702 131.8559 40.3963 0.0000 4.1033 0.0000
# 3 19.6923 40.3963 85.4575 0.0000 5.1305 0.0000
# 4 0.0000 0.0000 0.0000 46.1460 0.0000 17.3477
# 5 -7.3298 4.1033 5.1305 0.0000 15.1847 0.0000
# 6 0.0000 0.0000 0.0000 17.3477 0.0000 21.9114
#
#
#
# Elastic Compliance Matrix: (Units=1/GPa)
#
#
# Indices 1 2 3 4 5 6 
#
# 1 0.015685 -0.001995 -0.003223 0.000000 0.009200 0.000000
# 2 -0.001995 0.009137 -0.003729 0.000000 -0.002172 0.000000
# 3 -0.003223 -0.003729 0.014535 0.000000 -0.005459 0.000000
# 4 0.000000 0.000000 0.000000 0.030853 0.000000 -0.024427
# 5 0.009200 -0.002172 -0.005459 0.000000 0.072728 0.000000
# 6 0.000000 0.000000 0.000000 -0.024427 0.000000 0.064978
#
#
# Mechanical properties :
#
#
# Convention : Reuss Voigt Hill
#
# Bulk Modulus (GPa) = 46.59508 50.86845 48.73177
# Shear Modulus (GPa) = 21.46241 30.61775 26.04008
#
# Velocity S-wave (km/s) = 3.00917 3.59413 3.31458
# Velocity P-wave (km/s) = 5.63313 6.21976 5.93370
#
# Compressibility (1/GPa) = 0.02146149
#
# Stress axis : x y z
#
# Youngs Moduli (GPa) = 63.75496 109.44323 68.79968
#
# Poissons Ratio (x) = 0.21839 0.22177
# Poissons Ratio (y) = 0.12722 0.25655
# Poissons Ratio (z) = 0.20551 0.40811
#
# Static dielectric constant tensor:
#      x y z
#    x 4.080510 0.000000 0.204490 
#    y 0.000000 4.586870 0.000000 
#    z 0.204490 0.000000 4.605080 
# 
# 
# High freq. dielectric constant tensor:
#      x y z
#    x 1.917990 0.000000 0.013570 
#    y 0.000000 1.956330 0.000000 
#    z 0.013570 0.000000 1.941120 
# 
# From -- ./inp_files/179779.got.cif
#   From: 2010.06.25/outbox.cif.g09.slc.cpg/sg15_90_cif.got.tgz:179779.got - 2010.06.28 07:06:18.
