data_PCOD8146574
_publ_section_title
;
Structure prediction by ZEFSAII (Michael W. Deem and Ramdas Pophale) SiO2 
 PCOD8146574
Probable space group: C 2/C
;
_chemical_formula_sum "Si O2"
_cell_formula_units_Z 60
_cell_length_a 28.502570
_cell_length_b 18.844078
_cell_length_c 15.617592
_cell_angle_alpha 90.000000
_cell_angle_beta 18.592636
_cell_angle_gamma 90.000000
_cell_volume 2674.498593
_symmetry_space_group_name_H-M "C 2/C"
_symmetry_group_IT_number 15
_symmetry_cell_setting 'monoclinic'
loop_
_space_group_symop_operation_xyz
x,y,z
-x,y,1/2-z
-x,-y,-z
x,-y,1/2+z
1/2+x,1/2+y,z
1/2-x,1/2+y,1/2-z
1/2-x,1/2-y,-z
1/2+x,1/2-y,1/2+z
loop_
_atom_site_type_symbol
_atom_site_label
_atom_site_fract_x
_atom_site_fract_y
_atom_site_fract_z
Si Si1 0.484501 0.235746 0.088744
Si Si2 0.897099 0.489225 0.293991
Si Si3 0.368378 0.372647 0.033817
Si Si4 0.500000 0.891004 0.250000
Si Si5 0.234325 0.746260 0.883080
Si Si6 0.129232 0.407995 0.323562
Si Si7 0.180488 0.150205 0.329164
Si Si8 0.390624 0.501342 0.610452
O O1 0.376898 0.240358 0.194075
O O2 0.397034 0.219685 0.328399
O O3 0.600333 0.175291 0.865136
O O4 0.579773 0.306618 0.936488
O O5 0.820556 0.442249 0.352601
O O6 0.773359 0.516741 0.572281
O O7 0.014654 0.440144 0.140303
O O8 0.976894 0.557063 0.117176
O O9 0.273934 0.312207 0.243913
O O10 0.259761 0.419831 0.164036
O O11 0.441826 0.430146 0.969038
O O12 0.500000 0.337754 0.750000
O O13 0.350490 0.845174 0.503078
O O14 0.178709 0.817068 0.928785
O O15 0.114495 0.070342 0.438660
O O16 0.500000 0.500000 0.500000
#
# Coordination Sequence:
#
# PCOD8146574 Si02
#       8
#     8   8   8   4   8   8   8   8
#     4  11  24  42  67  97 133 184 227 286 344 410
#     4  10  22  41  68  97 132 177 233 276 348 402
#     4  12  26  43  67  97 135 181 224 287 351 407
#     4  10  22  42  64  96 134 182 226 288 344 408
#     4  11  25  44  65  97 138 177 235 280 348 416
#     4  11  22  40  65  96 129 172 225 281 331 416
#     4  11  23  41  68  99 135 181 231 288 348 414
#     4  11  24  45  69 100 138 180 228 288 348 419
#
# _framework density 22.434111999999999
#
# number of rings (size 3 to 8) (size 9 to 14) (size 15 to 20)
#    0.000    1.067    1.333    5.200    0.933    5.333 
#    0.000    6.667    0.000    0.000    0.000    0.000 
#    0.000    0.000    0.000    0.000    0.000    0.000 
#
# Total GULP energy -372035.170479 kJ/mol
# GULP energy per Si atom -12401.172349 kJ/mol
# Density = 2.238305 g / cm^3
# Si number density = 22.434112 Si / 1000 Ang^3
#
#
#
# Elastic Constant Matrix: (Units=GPa)
#
#
# Indices 1 2 3 4 5 6 
#
# 1 126.9951 22.8001 13.6459 -0.0093 -10.3784 0.0046
# 2 22.8001 77.4632 15.8669 -0.0168 6.5141 0.0045
# 3 13.6459 15.8669 70.1105 -0.0132 -2.4084 0.0051
# 4 -0.0093 -0.0168 -0.0132 26.9687 0.0027 -4.7986
# 5 -10.3784 6.5141 -2.4084 0.0027 36.3697 -0.0012
# 6 0.0046 0.0045 0.0051 -4.7986 -0.0012 36.4429
#
#
#
# Elastic Compliance Matrix: (Units=1/GPa)
#
#
# Indices 1 2 3 4 5 6 
#
# 1 0.008683 -0.002592 -0.001005 0.000000 0.002875 0.000000
# 2 -0.002592 0.014567 -0.002914 0.000007 -0.003542 0.000000
# 3 -0.001005 -0.002914 0.015161 0.000005 0.001239 -0.000001
# 4 0.000000 0.000007 0.000005 0.037970 -0.000003 0.005000
# 5 0.002875 -0.003542 0.001239 -0.000003 0.029032 0.000000
# 6 0.000000 0.000000 -0.000001 0.005000 0.000000 0.028099
#
#
# Mechanical properties :
#
#
# Convention : Reuss Voigt Hill
#
# Bulk Modulus (GPa) = 39.38580 42.13274 40.75927
# Shear Modulus (GPa) = 32.25930 34.77332 33.51631
#
# Velocity S-wave (km/s) = 3.79616 3.94130 3.86941
# Velocity P-wave (km/s) = 6.06702 6.28755 6.17827
#
# Compressibility (1/GPa) = 0.02538986
#
# Stress axis : x y z
#
# Youngs Moduli (GPa) = 115.17384 68.64917 65.95978
#
# Poissons Ratio (x) = 0.17791 0.06627
# Poissons Ratio (y) = 0.29848 0.19220
# Poissons Ratio (z) = 0.11571 0.20004
#
# Static dielectric constant tensor:
#      x y z
#    x 4.333110 -0.000010 -0.080280 
#    y -0.000010 3.919150 0.000010 
#    z -0.080280 0.000010 3.928680 
# 
# 
# High freq. dielectric constant tensor:
#      x y z
#    x 1.901070 0.000000 -0.012100 
#    y 0.000000 1.877500 0.000000 
#    z -0.012100 0.000000 1.881830 
# 
# From -- ./inp_files/179089.got.cif
#   From: 2010.06.25/outbox.cif.g09.slc.cpg/sg15_90_cif.got.tgz:179089.got - 2010.06.28 07:06:18.
