data_PCOD8146160
_publ_section_title
;
Structure prediction by ZEFSAII (Michael W. Deem and Ramdas Pophale) SiO2 
 PCOD8146160
Probable space group: C 2/C
;
_chemical_formula_sum "Si O2"
_cell_formula_units_Z 44
_cell_length_a 6.995273
_cell_length_b 17.324733
_cell_length_c 16.670641
_cell_angle_alpha 90.000000
_cell_angle_beta 112.721266
_cell_angle_gamma 90.000000
_cell_volume 1863.547040
_symmetry_space_group_name_H-M "C 2/C"
_symmetry_group_IT_number 15
_symmetry_cell_setting 'monoclinic'
loop_
_space_group_symop_operation_xyz
x,y,z
-x,y,1/2-z
-x,-y,-z
x,-y,1/2+z
1/2+x,1/2+y,z
1/2-x,1/2+y,1/2-z
1/2-x,1/2-y,-z
1/2+x,1/2-y,1/2+z
loop_
_atom_site_type_symbol
_atom_site_label
_atom_site_fract_x
_atom_site_fract_y
_atom_site_fract_z
Si Si1 0.513233 0.707846 0.846060
Si Si2 0.191073 0.833590 0.630819
Si Si3 0.343103 0.039337 0.586229
Si Si4 0.000000 0.557133 0.250000
Si Si5 0.109186 0.923757 0.463466
Si Si6 0.356184 0.786918 0.093882
O O1 0.500000 0.693946 0.750000
O O2 0.619150 0.789592 0.882703
O O3 0.659050 0.638990 0.903616
O O4 0.290499 0.707565 0.852578
O O5 0.292311 0.889416 0.714819
O O6 0.072251 0.880966 0.543362
O O7 0.049226 0.767683 0.649309
O O8 0.425300 0.125455 0.582000
O O9 0.114289 0.038051 0.591573
O O10 0.504870 0.996372 0.671366
O O11 0.299610 0.985803 0.499228
O O12 0.250000 0.750000 0.000000
#
# Coordination Sequence:
#
# PCOD8146160 Si02
#       6
#     8   8   8   4   8   8
#     4  11  23  40  68 108 141 183 234 300 354 410
#     4  11  21  43  71 100 138 188 238 285 352 426
#     4   9  19  39  69 103 138 188 228 295 351 415
#     4  10  22  40  68 104 148 188 220 304 368 406
#     4   9  19  38  71  96 141 186 234 282 353 425
#     4  11  23  42  76 105 133 187 248 290 345 429
#
# _framework density 23.610887000000002
#
# number of rings (size 3 to 8) (size 9 to 14) (size 15 to 20)
#    0.000    1.818    4.545    0.545    0.000    3.636 
#    0.000    0.909    8.000    0.000    0.000    0.000 
#    0.000    0.000    0.000    0.000    0.000    0.000 
#
# Total GULP energy -272607.844499 kJ/mol
# GULP energy per Si atom -12391.265659 kJ/mol
# Density = 2.355715 g / cm^3
# Si number density = 23.610887 Si / 1000 Ang^3
#
#
#
# Elastic Constant Matrix: (Units=GPa)
#
#
# Indices 1 2 3 4 5 6 
#
# 1 57.8732 44.7711 33.5749 0.0000 7.1495 0.0000
# 2 44.7711 194.4527 62.0477 0.0000 13.5116 0.0000
# 3 33.5749 62.0477 120.6379 0.0000 8.7239 0.0000
# 4 0.0000 0.0000 0.0000 44.3891 0.0000 14.5232
# 5 7.1495 13.5116 8.7239 0.0000 27.5190 0.0000
# 6 0.0000 0.0000 0.0000 14.5232 0.0000 33.0721
#
#
#
# Elastic Compliance Matrix: (Units=1/GPa)
#
#
# Indices 1 2 3 4 5 6 
#
# 1 0.022995 -0.003736 -0.004277 0.000000 -0.002784 0.000000
# 2 -0.003736 0.006876 -0.002377 0.000000 -0.001652 0.000000
# 3 -0.004277 -0.002377 0.010785 0.000000 -0.001141 0.000000
# 4 0.000000 0.000000 0.000000 0.026308 0.000000 -0.011553
# 5 -0.002784 -0.001652 -0.001141 0.000000 0.038234 0.000000
# 6 0.000000 0.000000 0.000000 -0.011553 0.000000 0.035310
#
#
# Mechanical properties :
#
#
# Convention : Reuss Voigt Hill
#
# Bulk Modulus (GPa) = 50.31453 72.63904 61.47678
# Shear Modulus (GPa) = 29.77721 36.50071 33.13896
#
# Velocity S-wave (km/s) = 3.55514 3.93609 3.75046
# Velocity P-wave (km/s) = 6.18128 7.17558 6.69691
#
# Compressibility (1/GPa) = 0.01987498
#
# Stress axis : x y z
#
# Youngs Moduli (GPa) = 43.48860 145.42825 92.72353
#
# Poissons Ratio (x) = 0.54335 0.39655
# Poissons Ratio (y) = 0.16248 0.22044
# Poissons Ratio (z) = 0.18599 0.34574
#
# Static dielectric constant tensor:
#      x y z
#    x 4.108110 0.000000 0.471580 
#    y 0.000000 4.922090 0.000000 
#    z 0.471580 0.000000 4.074320 
# 
# 
# High freq. dielectric constant tensor:
#      x y z
#    x 1.899620 0.000000 0.036450 
#    y 0.000000 1.968070 0.000000 
#    z 0.036450 0.000000 1.919540 
# 
# From -- ./inp_files/134578.got.cif
#   From: 2010.06.25/outbox.cif.g09.slc.cpg/sg15_68_cif.got.tgz:134578.got - 2010.06.28 07:06:18.
