data_PCOD8146959
_publ_section_title
;
Structure prediction by ZEFSAII (Michael W. Deem and Ramdas Pophale) SiO2 
 PCOD8146959
Probable space group: C 2/C
;
_chemical_formula_sum "Si O2"
_cell_formula_units_Z 52
_cell_length_a 19.597020
_cell_length_b 26.374444
_cell_length_c 5.129857
_cell_angle_alpha 90.000000
_cell_angle_beta 68.782322
_cell_angle_gamma 90.000000
_cell_volume 2471.686477
_symmetry_space_group_name_H-M "C 2/C"
_symmetry_group_IT_number 15
_symmetry_cell_setting 'monoclinic'
loop_
_space_group_symop_operation_xyz
x,y,z
-x,y,1/2-z
-x,-y,-z
x,-y,1/2+z
1/2+x,1/2+y,z
1/2-x,1/2+y,1/2-z
1/2-x,1/2-y,-z
1/2+x,1/2-y,1/2+z
loop_
_atom_site_type_symbol
_atom_site_label
_atom_site_fract_x
_atom_site_fract_y
_atom_site_fract_z
Si Si1 0.428900 0.699844 0.523245
Si Si2 0.297275 0.142132 0.350150
Si Si3 0.415065 0.530363 0.015615
Si Si4 0.742795 0.030040 0.193704
Si Si5 0.270070 0.692607 0.540466
Si Si6 0.000000 0.119931 0.750000
Si Si7 0.952014 0.688243 0.076302
O O1 0.356389 0.689619 0.461318
O O2 0.436630 0.654473 0.715400
O O3 0.424950 0.754334 0.669744
O O4 0.500000 0.698889 0.250000
O O5 0.292436 0.081568 0.366599
O O6 0.274601 0.170142 0.650739
O O7 0.380402 0.154003 0.156262
O O8 0.244283 0.159639 0.193591
O O9 0.440883 0.491703 0.202043
O O10 0.328967 0.537910 0.106613
O O11 0.454240 0.584433 0.012382
O O12 0.717522 0.012165 0.515903
O O13 0.250000 0.750000 0.500000
O O14 0.000000 0.668647 0.250000
O O15 0.000000 0.683440 0.750000
#
# Coordination Sequence:
#
# PCOD8146959 Si02
#       7
#     8   8   8   8   8   4   8
#     4  11  27  39  61  92 139 180 220 278 325 394
#     4  12  25  44  74  99 134 182 227 283 349 409
#     4  10  23  40  60  85 124 168 222 277 325 382
#     4  10  22  42  67  96 127 167 225 287 342 402
#     4  12  26  42  67  99 139 181 235 283 330 399
#     4  12  24  38  62  88 128 178 230 262 330 388
#     4  11  24  44  67  96 138 178 217 266 347 416
#
# _framework density 21.038264999999999
#
# number of rings (size 3 to 8) (size 9 to 14) (size 15 to 20)
#    0.000    0.923    2.308    3.692    8.615    1.231 
#    0.000    0.000    0.000    2.769    0.000    0.000 
#    0.000    0.000    0.000    0.000    0.000    0.000 
#
# Total GULP energy -322376.574622 kJ/mol
# GULP energy per Si atom -12399.099024 kJ/mol
# Density = 2.099038 g / cm^3
# Si number density = 21.038265 Si / 1000 Ang^3
#
#
#
# Elastic Constant Matrix: (Units=GPa)
#
#
# Indices 1 2 3 4 5 6 
#
# 1 132.5108 58.1801 29.9287 0.0000 7.2719 0.0000
# 2 58.1801 134.9758 40.6794 0.0000 4.2952 0.0000
# 3 29.9287 40.6794 90.9867 0.0000 14.4321 0.0000
# 4 0.0000 0.0000 0.0000 60.5213 0.0000 -20.3020
# 5 7.2719 4.2952 14.4321 0.0000 33.2140 0.0000
# 6 0.0000 0.0000 0.0000 -20.3020 0.0000 40.3381
#
#
#
# Elastic Compliance Matrix: (Units=1/GPa)
#
#
# Indices 1 2 3 4 5 6 
#
# 1 0.009513 -0.003668 -0.001325 0.000000 -0.001033 0.000000
# 2 -0.003668 0.009988 -0.003417 0.000000 0.000996 0.000000
# 3 -0.001325 -0.003417 0.013788 0.000000 -0.005259 0.000000
# 4 0.000000 0.000000 0.000000 0.019879 0.000000 0.010005
# 5 -0.001033 0.000996 -0.005259 0.000000 0.032490 0.000000
# 6 0.000000 0.000000 0.000000 0.010005 0.000000 0.029826
#
#
# Mechanical properties :
#
#
# Convention : Reuss Voigt Hill
#
# Bulk Modulus (GPa) = 60.72212 68.44997 64.58604
# Shear Modulus (GPa) = 36.28552 42.12701 39.20627
#
# Velocity S-wave (km/s) = 4.15750 4.47967 4.32159
# Velocity P-wave (km/s) = 7.20915 7.70475 7.46107
#
# Compressibility (1/GPa) = 0.01646846
#
# Stress axis : x y z
#
# Youngs Moduli (GPa) = 105.11767 100.12009 72.52425
#
# Poissons Ratio (x) = 0.36727 0.09612
# Poissons Ratio (y) = 0.38560 0.24781
# Poissons Ratio (z) = 0.13932 0.34211
#
# Static dielectric constant tensor:
#      x y z
#    x 3.892120 0.000000 0.069880 
#    y 0.000000 4.032360 0.000000 
#    z 0.069880 0.000000 3.639990 
# 
# 
# High freq. dielectric constant tensor:
#      x y z
#    x 1.833520 0.000000 0.009040 
#    y 0.000000 1.825100 0.000000 
#    z 0.009040 0.000000 1.823920 
# 
# From -- ./inp_files/13844.got.cif
#   From: 2010.06.25/outbox.cif.g09.slc.cpg/sg15_7_cif.got.tgz:13844.got - 2010.06.28 07:06:18.
