data_PCOD8146510
_publ_section_title
;
Structure prediction by ZEFSAII (Michael W. Deem and Ramdas Pophale) SiO2 
 PCOD8146510
Probable space group: C 2/C
;
_chemical_formula_sum "Si O2"
_cell_formula_units_Z 56
_cell_length_a 11.637911
_cell_length_b 11.410948
_cell_length_c 19.179876
_cell_angle_alpha 90.000000
_cell_angle_beta 118.896558
_cell_angle_gamma 90.000000
_cell_volume 2229.951964
_symmetry_space_group_name_H-M "C 2/C"
_symmetry_group_IT_number 15
_symmetry_cell_setting 'monoclinic'
loop_
_space_group_symop_operation_xyz
x,y,z
-x,y,1/2-z
-x,-y,-z
x,-y,1/2+z
1/2+x,1/2+y,z
1/2-x,1/2+y,1/2-z
1/2-x,1/2-y,-z
1/2+x,1/2-y,1/2+z
loop_
_atom_site_type_symbol
_atom_site_label
_atom_site_fract_x
_atom_site_fract_y
_atom_site_fract_z
Si Si1 0.721283 0.865385 0.831341
Si Si2 0.183548 0.586861 0.166204
Si Si3 0.090334 0.065006 0.605359
Si Si4 0.149828 0.072413 0.470478
Si Si5 0.412032 0.009999 0.597035
Si Si6 0.352684 0.373589 0.228642
Si Si7 0.386955 0.743436 0.162223
O O1 0.652526 0.903675 0.738961
O O2 0.741337 0.725378 0.832198
O O3 0.860161 0.929474 0.880170
O O4 0.629910 0.897516 0.869743
O O5 0.302593 0.497035 0.185029
O O6 0.240760 0.708272 0.150181
O O7 0.047303 0.528705 0.098145
O O8 0.134446 0.123294 0.545303
O O9 0.152417 0.134638 0.688348
O O10 0.933120 0.048237 0.564268
O O11 0.303581 0.038773 0.504994
O O12 0.098559 0.173129 0.405216
O O13 0.411677 0.120135 0.651217
O O14 0.500000 0.350292 0.250000
O O15 0.500000 0.704829 0.250000
#
# Coordination Sequence:
#
# PCOD8146510 Si02
#       7
#     8   8   8   8   8   8   8
#     4  10  22  41  67 102 138 180 235 296 358 435
#     4  11  24  38  67 105 135 183 239 298 363 432
#     4   9  21  41  72  97 145 194 232 287 377 442
#     4  10  22  44  67 101 144 192 235 296 372 448
#     4  11  25  45  68 105 148 187 238 305 382 446
#     4  11  22  40  68 107 139 179 244 299 349 437
#     4  12  25  43  74 104 141 190 252 311 364 447
#
# _framework density 25.112649999999999
#
# number of rings (size 3 to 8) (size 9 to 14) (size 15 to 20)
#    0.000    1.429    0.000    5.571   10.000    0.571 
#    0.000    0.000    3.143    5.143    0.000    0.000 
#    0.000    0.000    0.000    0.000    0.000    0.000 
#
# Total GULP energy -346945.136974 kJ/mol
# GULP energy per Si atom -12390.897749 kJ/mol
# Density = 2.505549 g / cm^3
# Si number density = 25.112650 Si / 1000 Ang^3
#
#
#
# Elastic Constant Matrix: (Units=GPa)
#
#
# Indices 1 2 3 4 5 6 
#
# 1 115.0805 28.6655 19.1312 0.0000 16.4160 0.0000
# 2 28.6655 89.6055 20.5854 0.0000 -2.4989 0.0000
# 3 19.1312 20.5854 73.2058 0.0000 10.7382 0.0000
# 4 0.0000 0.0000 0.0000 29.8892 0.0000 -12.1146
# 5 16.4160 -2.4989 10.7382 0.0000 36.4876 0.0000
# 6 0.0000 0.0000 0.0000 -12.1146 0.0000 28.0399
#
#
#
# Elastic Compliance Matrix: (Units=1/GPa)
#
#
# Indices 1 2 3 4 5 6 
#
# 1 0.010312 -0.003162 -0.001143 0.000000 -0.004520 0.000000
# 2 -0.003162 0.013026 -0.003319 0.000000 0.003292 0.000000
# 3 -0.001143 -0.003319 0.015520 0.000000 -0.004281 0.000000
# 4 0.000000 0.000000 0.000000 0.040560 0.000000 0.017524
# 5 -0.004520 0.003292 -0.004281 0.000000 0.030925 0.000000
# 6 0.000000 0.000000 0.000000 0.017524 0.000000 0.043234
#
#
# Mechanical properties :
#
#
# Convention : Reuss Voigt Hill
#
# Bulk Modulus (GPa) = 42.35611 46.07289 44.21450
# Shear Modulus (GPa) = 28.29718 32.85065 30.57392
#
# Velocity S-wave (km/s) = 3.36044 3.62073 3.49301
# Velocity P-wave (km/s) = 5.65330 5.98882 5.82348
#
# Compressibility (1/GPa) = 0.02360934
#
# Stress axis : x y z
#
# Youngs Moduli (GPa) = 96.97454 76.76905 64.43280
#
# Poissons Ratio (x) = 0.24278 0.07362
# Poissons Ratio (y) = 0.30668 0.21387
# Poissons Ratio (z) = 0.11080 0.25482
#
# Static dielectric constant tensor:
#      x y z
#    x 4.523370 0.000000 0.177920 
#    y 0.000000 4.347860 0.000000 
#    z 0.177920 0.000000 4.613660 
# 
# 
# High freq. dielectric constant tensor:
#      x y z
#    x 2.002380 0.000000 0.003120 
#    y 0.000000 1.988080 0.000000 
#    z 0.003120 0.000000 1.996660 
# 
# From -- ./inp_files/237655.got.cif
#   From: 2010.06.25/outbox.cif.g09.slc.cpg/sg15_119_cif.got.tgz:237655.got - 2010.06.28 07:06:18.
