data_PCOD8146978
_publ_section_title
;
Structure prediction by ZEFSAII (Michael W. Deem and Ramdas Pophale) SiO2 
 PCOD8146978
Probable space group: C 2/C
;
_chemical_formula_sum "Si O2"
_cell_formula_units_Z 44
_cell_length_a 5.462077
_cell_length_b 25.046386
_cell_length_c 14.664650
_cell_angle_alpha 90.000000
_cell_angle_beta 87.198687
_cell_angle_gamma 90.000000
_cell_volume 2003.804304
_symmetry_space_group_name_H-M "C 2/C"
_symmetry_group_IT_number 15
_symmetry_cell_setting 'monoclinic'
loop_
_space_group_symop_operation_xyz
x,y,z
-x,y,1/2-z
-x,-y,-z
x,-y,1/2+z
1/2+x,1/2+y,z
1/2-x,1/2+y,1/2-z
1/2-x,1/2-y,-z
1/2+x,1/2-y,1/2+z
loop_
_atom_site_type_symbol
_atom_site_label
_atom_site_fract_x
_atom_site_fract_y
_atom_site_fract_z
Si Si1 0.423184 0.821739 0.552705
Si Si2 0.255150 0.091804 0.192128
Si Si3 0.758632 0.994457 0.443006
Si Si4 0.726401 0.874420 0.406212
Si Si5 0.379845 0.289103 0.117845
Si Si6 0.000000 0.322589 0.250000
O O1 0.265749 0.858815 0.622338
O O2 0.650610 0.856616 0.510219
O O3 0.516841 0.768165 0.602798
O O4 0.264246 0.802309 0.471273
O O5 0.500000 0.091525 0.250000
O O6 0.000000 0.098778 0.250000
O O7 0.239162 0.036550 0.138182
O O8 0.786587 0.936247 0.399480
O O9 0.500000 0.000000 0.500000
O O10 0.000000 0.000000 0.500000
O O11 0.518464 0.862026 0.336199
O O12 0.945163 0.838352 0.366303
O O13 0.218867 0.283447 0.213597
#
# Coordination Sequence:
#
# PCOD8146978 Si02
#       6
#     8   8   8   8   8   4
#     4  10  23  43  69  98 137 186 234 288 354 438
#     4  12  28  46  70 109 146 186 241 297 362 421
#     4  12  26  48  76  99 139 188 241 291 357 426
#     4  11  23  42  72  94 139 177 242 281 359 416
#     4  10  22  42  68 100 137 182 237 285 358 425
#     4  10  24  38  62 108 132 180 222 296 344 414
#
# _framework density 21.958231999999999
#
# number of rings (size 3 to 8) (size 9 to 14) (size 15 to 20)
#    0.000    1.091    1.818    3.273    7.636    2.909 
#    0.000    0.000    0.000    0.000    0.000    0.000 
#    0.000    0.000    0.000    0.000    0.000    0.000 
#
# Total GULP energy -272634.212239 kJ/mol
# GULP energy per Si atom -12392.464193 kJ/mol
# Density = 2.190825 g / cm^3
# Si number density = 21.958232 Si / 1000 Ang^3
#
#
#
# Elastic Constant Matrix: (Units=GPa)
#
#
# Indices 1 2 3 4 5 6 
#
# 1 111.8387 22.9862 43.7704 0.0000 -26.2613 0.0000
# 2 22.9862 167.6303 53.4268 0.0000 -19.7812 0.0000
# 3 43.7704 53.4268 122.4155 0.0000 -34.2534 0.0000
# 4 0.0000 0.0000 0.0000 8.9524 0.0000 -10.4069
# 5 -26.2613 -19.7812 -34.2534 0.0000 34.6190 0.0000
# 6 0.0000 0.0000 0.0000 -10.4069 0.0000 25.1756
#
#
#
# Elastic Compliance Matrix: (Units=1/GPa)
#
#
# Indices 1 2 3 4 5 6 
#
# 1 0.011321 -0.000093 -0.002239 0.000000 0.006319 0.000000
# 2 -0.000093 0.006975 -0.002649 0.000000 0.001294 0.000000
# 3 -0.002239 -0.002649 0.012759 0.000000 0.009413 0.000000
# 4 0.000000 0.000000 0.000000 0.215032 0.000000 0.088888
# 5 0.006319 0.001294 0.009413 0.000000 0.043732 0.000000
# 6 0.000000 0.000000 0.000000 0.088888 0.000000 0.076465
#
#
# Mechanical properties :
#
#
# Convention : Reuss Voigt Hill
#
# Bulk Modulus (GPa) = 47.40825 71.36126 59.38476
# Shear Modulus (GPa) = 13.04540 32.52945 22.78743
#
# Velocity S-wave (km/s) = 2.44006 3.85310 3.22493
# Velocity P-wave (km/s) = 5.43835 7.23632 6.40078
#
# Compressibility (1/GPa) = 0.02109338
#
# Stress axis : x y z
#
# Youngs Moduli (GPa) = 88.33396 143.36456 78.37432
#
# Poissons Ratio (x) = 0.01334 0.17548
# Poissons Ratio (y) = 0.00822 0.20760
# Poissons Ratio (z) = 0.19778 0.37975
#
# Static dielectric constant tensor:
#      x y z
#    x 4.068650 0.000000 0.026540 
#    y 0.000000 4.467050 0.000000 
#    z 0.026540 0.000000 4.124970 
# 
# 
# High freq. dielectric constant tensor:
#      x y z
#    x 1.860370 0.000000 -0.007490 
#    y 0.000000 1.875050 0.000000 
#    z -0.007490 0.000000 1.877990 
# 
# From -- ./inp_files/129339.got.cif
#   From: 2010.06.25/outbox.cif.g09.slc.cpg/sg15_65_cif.got.tgz:129339.got - 2010.06.28 07:06:18.
