data_PCOD8146805
_publ_section_title
;
Structure prediction by ZEFSAII (Michael W. Deem and Ramdas Pophale) SiO2 
 PCOD8146805
Probable space group: C 2/C
;
_chemical_formula_sum "Si O2"
_cell_formula_units_Z 40
_cell_length_a 15.113486
_cell_length_b 6.584600
_cell_length_c 17.396846
_cell_angle_alpha 90.000000
_cell_angle_beta 93.375833
_cell_angle_gamma 90.000000
_cell_volume 1728.264871
_symmetry_space_group_name_H-M "C 2/C"
_symmetry_group_IT_number 15
_symmetry_cell_setting 'monoclinic'
loop_
_space_group_symop_operation_xyz
x,y,z
-x,y,1/2-z
-x,-y,-z
x,-y,1/2+z
1/2+x,1/2+y,z
1/2-x,1/2+y,1/2-z
1/2-x,1/2-y,-z
1/2+x,1/2-y,1/2+z
loop_
_atom_site_type_symbol
_atom_site_label
_atom_site_fract_x
_atom_site_fract_y
_atom_site_fract_z
Si Si1 0.413810 0.459029 0.446620
Si Si2 0.662605 0.035589 0.809685
Si Si3 0.686866 0.221039 0.652434
Si Si4 0.029140 0.208178 0.835606
Si Si5 0.179698 0.076703 0.409007
O O1 0.500000 0.500000 0.500000
O O2 0.386878 0.664593 0.401076
O O3 0.441116 0.286626 0.385396
O O4 0.334973 0.388048 0.499836
O O5 0.640737 0.113829 0.722977
O O6 0.693540 0.208059 0.869665
O O7 0.742234 0.876017 0.807787
O O8 0.574377 0.929144 0.838403
O O9 0.732953 0.058443 0.598511
O O10 0.095315 0.034395 0.867978
O O11 0.000000 0.140608 0.750000
#
# Coordination Sequence:
#
# PCOD8146805 Si02
#       5
#     8   8   8   8   8
#     4  10  23  42  65  93 139 177 215 279 339 404
#     4  11  23  39  67  97 126 173 231 282 328 395
#     4  11  22  41  68  95 131 174 229 278 331 401
#     4  10  23  40  63  96 132 174 224 277 334 404
#     4  10  22  42  64  97 131 175 223 277 341 394
#
# _framework density 23.144600000000001
#
# number of rings (size 3 to 8) (size 9 to 14) (size 15 to 20)
#    0.000    1.600    2.000    1.800    2.800    5.600 
#    0.000    4.000    0.000    0.000    0.000    0.000 
#    0.000    0.000    0.000    0.000    0.000    0.000 
#
# Total GULP energy -248046.353684 kJ/mol
# GULP energy per Si atom -12402.317684 kJ/mol
# Density = 2.309192 g / cm^3
# Si number density = 23.144600 Si / 1000 Ang^3
#
#
#
# Elastic Constant Matrix: (Units=GPa)
#
#
# Indices 1 2 3 4 5 6 
#
# 1 86.7878 50.8777 58.4724 0.0000 -18.0735 0.0000
# 2 50.8777 110.5906 55.8834 0.0000 -27.7456 0.0000
# 3 58.4724 55.8834 169.2768 0.0000 -31.6982 0.0000
# 4 0.0000 0.0000 0.0000 22.8166 0.0000 -12.7526
# 5 -18.0735 -27.7456 -31.6982 0.0000 41.0580 0.0000
# 6 0.0000 0.0000 0.0000 -12.7526 0.0000 31.0815
#
#
#
# Elastic Compliance Matrix: (Units=1/GPa)
#
#
# Indices 1 2 3 4 5 6 
#
# 1 0.017945 -0.006022 -0.004084 0.000000 0.000677 0.000000
# 2 -0.006022 0.013977 -0.001475 0.000000 0.005656 0.000000
# 3 -0.004084 -0.001475 0.008512 0.000000 0.003777 0.000000
# 4 0.000000 0.000000 0.000000 0.056869 0.000000 0.023333
# 5 0.000677 0.005656 0.003777 0.000000 0.031392 0.000000
# 6 0.000000 0.000000 0.000000 0.023333 0.000000 0.041747
#
#
# Mechanical properties :
#
#
# Convention : Reuss Voigt Hill
#
# Bulk Modulus (GPa) = 57.89530 77.45802 67.67666
# Shear Modulus (GPa) = 25.07995 32.41935 28.74965
#
# Velocity S-wave (km/s) = 3.29541 3.74669 3.52827
# Velocity P-wave (km/s) = 6.28876 7.22887 6.77514
#
# Compressibility (1/GPa) = 0.01727256
#
# Stress axis : x y z
#
# Youngs Moduli (GPa) = 55.72514 71.54510 117.47534
#
# Poissons Ratio (x) = 0.43087 0.47975
# Poissons Ratio (y) = 0.33560 0.17328
# Poissons Ratio (z) = 0.22757 0.10553
#
# Static dielectric constant tensor:
#      x y z
#    x 4.378040 0.000000 -0.526630 
#    y 0.000000 4.072520 0.000000 
#    z -0.526630 0.000000 4.689500 
# 
# 
# High freq. dielectric constant tensor:
#      x y z
#    x 1.914650 0.000000 -0.008930 
#    y 0.000000 1.905220 0.000000 
#    z -0.008930 0.000000 1.931310 
# 
# From -- ./inp_files/208038.got.cif
#   From: 2010.06.25/outbox.cif.g09.slc.cpg/sg15_105_cif.got.tgz:208038.got - 2010.06.28 07:06:18.
