data_PCOD8146185
_publ_section_title
;
Structure prediction by ZEFSAII (Michael W. Deem and Ramdas Pophale) SiO2 
 PCOD8146185
Probable space group: C 2/C
;
_chemical_formula_sum "Si O2"
_cell_formula_units_Z 36
_cell_length_a 16.440966
_cell_length_b 8.331250
_cell_length_c 21.283153
_cell_angle_alpha 90.000000
_cell_angle_beta 35.686608
_cell_angle_gamma 90.000000
_cell_volume 1700.605962
_symmetry_space_group_name_H-M "C 2/C"
_symmetry_group_IT_number 15
_symmetry_cell_setting 'monoclinic'
loop_
_space_group_symop_operation_xyz
x,y,z
-x,y,1/2-z
-x,-y,-z
x,-y,1/2+z
1/2+x,1/2+y,z
1/2-x,1/2+y,1/2-z
1/2-x,1/2-y,-z
1/2+x,1/2-y,1/2+z
loop_
_atom_site_type_symbol
_atom_site_label
_atom_site_fract_x
_atom_site_fract_y
_atom_site_fract_z
Si Si1 0.412540 0.418559 0.866245
Si Si2 0.500000 0.822812 0.750000
Si Si3 0.404523 0.044932 0.118931
Si Si4 0.115147 0.447077 0.086169
Si Si5 0.113187 0.863229 0.296558
O O1 0.500000 0.464380 0.750000
O O2 0.392863 0.231062 0.883522
O O3 0.489353 0.501987 0.878264
O O4 0.255256 0.486921 0.958975
O O5 0.412384 0.723411 0.753950
O O6 0.383318 0.932411 0.856215
O O7 0.390263 0.237919 0.142259
O O8 0.476319 0.968749 0.133859
O O9 0.255996 0.961685 0.204728
O O10 0.500000 0.000000 0.000000
#
# Coordination Sequence:
#
# PCOD8146185 Si02
#       5
#     8   4   8   8   8
#     4  11  21  40  67  96 126 169 217 273 320 390
#     4  10  22  40  68  96 128 168 222 272 312 400
#     4  11  25  43  63  95 136 176 215 275 327 394
#     4  10  23  40  66  95 130 168 222 266 328 383
#     4  11  24  42  67  95 134 171 224 262 332 386
#
# _framework density 21.168925000000002
#
# number of rings (size 3 to 8) (size 9 to 14) (size 15 to 20)
#    0.000    1.333    2.222    2.667    3.111    1.778 
#    4.000    2.222    0.000    0.000    0.000    0.000 
#    0.000    0.000    0.000    0.000    0.000    0.000 
#
# Total GULP energy -223009.801085 kJ/mol
# GULP energy per Si atom -12389.433394 kJ/mol
# Density = 2.112074 g / cm^3
# Si number density = 21.168925 Si / 1000 Ang^3
#
#
#
# Elastic Constant Matrix: (Units=GPa)
#
#
# Indices 1 2 3 4 5 6 
#
# 1 92.2683 35.3387 42.1666 0.0000 -24.2659 0.0000
# 2 35.3387 69.7852 49.8456 -0.0001 -15.8587 0.0001
# 3 42.1666 49.8456 104.6152 0.0001 -13.4312 0.0000
# 4 0.0000 -0.0001 0.0001 12.8594 0.0000 3.2984
# 5 -24.2659 -15.8587 -13.4312 0.0000 42.1185 0.0000
# 6 0.0000 0.0001 0.0000 3.2984 0.0000 13.6972
#
#
#
# Elastic Compliance Matrix: (Units=1/GPa)
#
#
# Indices 1 2 3 4 5 6 
#
# 1 0.015675 -0.003875 -0.003649 0.000000 0.006408 0.000000
# 2 -0.003875 0.023778 -0.009285 0.000000 0.003760 0.000000
# 3 -0.003649 -0.009285 0.015364 0.000000 -0.000699 0.000000
# 4 0.000000 0.000000 0.000000 0.082884 0.000000 -0.019959
# 5 0.006408 0.003760 -0.000699 0.000000 0.028627 0.000000
# 6 0.000000 0.000000 0.000000 -0.019959 0.000000 0.077814
#
#
# Mechanical properties :
#
#
# Convention : Reuss Voigt Hill
#
# Bulk Modulus (GPa) = 47.17164 57.93005 52.55085
# Shear Modulus (GPa) = 17.55451 23.02285 20.28868
#
# Velocity S-wave (km/s) = 2.88281 3.30142 3.09919
# Velocity P-wave (km/s) = 5.78036 6.47746 6.13882
#
# Compressibility (1/GPa) = 0.02119918
#
# Stress axis : x y z
#
# Youngs Moduli (GPa) = 63.79588 42.05494 65.08791
#
# Poissons Ratio (x) = 0.16297 0.23750
# Poissons Ratio (y) = 0.24722 0.60434
# Poissons Ratio (z) = 0.23279 0.39048
#
# Static dielectric constant tensor:
#      x y z
#    x 4.052280 0.000000 -0.101690 
#    y 0.000000 4.326320 0.000000 
#    z -0.101690 0.000000 4.101890 
# 
# 
# High freq. dielectric constant tensor:
#      x y z
#    x 1.826900 0.000000 -0.015210 
#    y 0.000000 1.853730 0.000000 
#    z -0.015210 0.000000 1.826330 
# 
# From -- ./inp_files/102422.got.cif
#   From: 2010.06.25/outbox.cif.g09.slc.cpg/sg15_52_cif.got.tgz:102422.got - 2010.06.28 07:06:18.
