data_PCOD8146719
_publ_section_title
;
Structure prediction by ZEFSAII (Michael W. Deem and Ramdas Pophale) SiO2 
 PCOD8146719
Probable space group: C 2/C
;
_chemical_formula_sum "Si O2"
_cell_formula_units_Z 52
_cell_length_a 14.142070
_cell_length_b 12.529884
_cell_length_c 15.052125
_cell_angle_alpha 90.000000
_cell_angle_beta 69.398463
_cell_angle_gamma 90.000000
_cell_volume 2496.645849
_symmetry_space_group_name_H-M "C 2/C"
_symmetry_group_IT_number 15
_symmetry_cell_setting 'monoclinic'
loop_
_space_group_symop_operation_xyz
x,y,z
-x,y,1/2-z
-x,-y,-z
x,-y,1/2+z
1/2+x,1/2+y,z
1/2-x,1/2+y,1/2-z
1/2-x,1/2-y,-z
1/2+x,1/2-y,1/2+z
loop_
_atom_site_type_symbol
_atom_site_label
_atom_site_fract_x
_atom_site_fract_y
_atom_site_fract_z
Si Si1 0.966846 0.104472 0.067750
Si Si2 0.750751 0.465435 0.865941
Si Si3 0.206124 0.916713 0.209832
Si Si4 0.024989 0.327010 0.964542
Si Si5 0.000000 0.964445 0.750000
Si Si6 0.608759 0.203235 0.251213
Si Si7 0.148297 0.515979 0.990409
O O1 0.845733 0.112406 0.103990
O O2 0.003795 0.103774 0.157900
O O3 0.011496 0.212337 0.013370
O O4 0.000000 0.000000 0.000000
O O5 0.731201 0.562979 0.805128
O O6 0.852851 0.406486 0.802780
O O7 0.769395 0.505263 0.959931
O O8 0.194226 0.790635 0.199822
O O9 0.294533 0.966299 0.121243
O O10 0.099193 0.964592 0.218157
O O11 0.101129 0.309324 0.858831
O O12 0.077325 0.411581 0.013416
O O13 0.918397 0.377880 0.967963
O O14 0.500000 0.236536 0.250000
#
# Coordination Sequence:
#
# PCOD8146719 Si02
#       7
#     8   8   8   8   4   8   8
#     4  11  24  44  68  97 135 176 224 274 332 398
#     4  11  24  42  65 100 128 169 227 271 330 390
#     4  11  23  42  65  96 130 171 217 274 324 393
#     4  11  24  44  63  97 134 177 219 269 333 399
#     4  10  22  42  62  94 134 170 214 270 336 382
#     4  12  23  41  68  96 131 174 224 271 330 395
#     4  11  24  43  67  95 135 172 221 274 328 395
#
# _framework density 20.827943999999999
#
# number of rings (size 3 to 8) (size 9 to 14) (size 15 to 20)
#    0.000    0.923    3.846    3.692    2.154    1.231 
#    8.308    2.308    0.000    0.000    0.000    0.000 
#    0.000    0.000    0.000    0.000    0.000    0.000 
#
# Total GULP energy -322409.226459 kJ/mol
# GULP energy per Si atom -12400.354864 kJ/mol
# Density = 2.078054 g / cm^3
# Si number density = 20.827944 Si / 1000 Ang^3
#
#
#
# Elastic Constant Matrix: (Units=GPa)
#
#
# Indices 1 2 3 4 5 6 
#
# 1 92.4023 30.2517 33.8141 0.0000 14.0565 0.0000
# 2 30.2517 111.9696 28.8746 0.0000 4.6216 0.0000
# 3 33.8141 28.8746 107.0287 0.0000 12.6318 0.0000
# 4 0.0000 0.0000 0.0000 28.5691 0.0000 -10.9035
# 5 14.0565 4.6216 12.6318 0.0000 42.9222 0.0000
# 6 0.0000 0.0000 0.0000 -10.9035 0.0000 22.9941
#
#
#
# Elastic Compliance Matrix: (Units=1/GPa)
#
#
# Indices 1 2 3 4 5 6 
#
# 1 0.013315 -0.002664 -0.003115 0.000000 -0.003157 0.000000
# 2 -0.002664 0.010135 -0.001934 0.000000 0.000350 0.000000
# 3 -0.003115 -0.001934 0.011089 0.000000 -0.002035 0.000000
# 4 0.000000 0.000000 0.000000 0.042737 0.000000 0.020266
# 5 -0.003157 0.000350 -0.002035 0.000000 0.024893 0.000000
# 6 0.000000 0.000000 0.000000 0.020266 0.000000 0.053099
#
#
# Mechanical properties :
#
#
# Convention : Reuss Voigt Hill
#
# Bulk Modulus (GPa) = 52.32058 55.25349 53.78704
# Shear Modulus (GPa) = 28.23815 33.46109 30.84962
#
# Velocity S-wave (km/s) = 3.68609 4.01252 3.85277
# Velocity P-wave (km/s) = 6.57961 6.93205 6.75813
#
# Compressibility (1/GPa) = 0.01911294
#
# Stress axis : x y z
#
# Youngs Moduli (GPa) = 75.10590 98.66857 90.17540
#
# Poissons Ratio (x) = 0.26281 0.28093
# Poissons Ratio (y) = 0.20005 0.17440
# Poissons Ratio (z) = 0.23398 0.19083
#
# Static dielectric constant tensor:
#      x y z
#    x 3.849720 0.000000 -0.024070 
#    y 0.000000 3.592140 0.000000 
#    z -0.024070 0.000000 3.941150 
# 
# 
# High freq. dielectric constant tensor:
#      x y z
#    x 1.822630 0.000000 -0.004200 
#    y 0.000000 1.803370 0.000000 
#    z -0.004200 0.000000 1.827940 
# 
# From -- ./inp_files/152573.got.cif
#   From: 2010.06.25/outbox.cif.g09.slc.cpg/sg15_77_cif.got.tgz:152573.got - 2010.06.28 07:06:18.
