data_PCOD8146816
_publ_section_title
;
Structure prediction by ZEFSAII (Michael W. Deem and Ramdas Pophale) SiO2 
 PCOD8146816
Probable space group: C 2/C
;
_chemical_formula_sum "Si O2"
_cell_formula_units_Z 52
_cell_length_a 26.696251
_cell_length_b 6.548684
_cell_length_c 22.856801
_cell_angle_alpha 90.000000
_cell_angle_beta 139.588384
_cell_angle_gamma 90.000000
_cell_volume 2590.469899
_symmetry_space_group_name_H-M "C 2/C"
_symmetry_group_IT_number 15
_symmetry_cell_setting 'monoclinic'
loop_
_space_group_symop_operation_xyz
x,y,z
-x,y,1/2-z
-x,-y,-z
x,-y,1/2+z
1/2+x,1/2+y,z
1/2-x,1/2+y,1/2-z
1/2-x,1/2-y,-z
1/2+x,1/2-y,1/2+z
loop_
_atom_site_type_symbol
_atom_site_label
_atom_site_fract_x
_atom_site_fract_y
_atom_site_fract_z
Si Si1 0.627848 0.513841 0.864809
Si Si2 0.617217 0.304612 0.476084
Si Si3 0.740062 0.975948 0.606677
Si Si4 0.690116 0.407954 0.129788
Si Si5 0.500000 0.820277 0.250000
Si Si6 0.676886 0.215384 0.236129
Si Si7 0.044848 0.669752 0.206218
O O1 0.653917 0.593031 0.951261
O O2 0.707015 0.455906 0.903467
O O3 0.575702 0.314516 0.827587
O O4 0.580091 0.689589 0.788634
O O5 0.659598 0.088319 0.521454
O O6 0.629355 0.444276 0.544039
O O7 0.525957 0.284493 0.387230
O O8 0.787400 0.094070 0.698178
O O9 0.721843 0.749137 0.610530
O O10 0.649174 0.292959 0.147669
O O11 0.761980 0.535501 0.218886
O O12 0.515421 0.957249 0.206600
O O13 0.605617 0.123274 0.209028
#
# Coordination Sequence:
#
# PCOD8146816 Si02
#       7
#     8   8   8   8   4   8   8
#     4  11  22  41  62  93 123 167 205 241 307 374
#     4  11  23  39  59  96 131 153 199 259 306 362
#     4  10  23  39  66  87 123 163 203 258 304 359
#     4  11  22  41  65  90 118 161 213 254 302 363
#     4  12  20  38  66  86 124 170 202 242 300 372
#     4  10  22  42  65  87 118 166 212 252 303 366
#     4  11  23  41  62  90 130 164 199 252 311 362
#
# _framework density 20.073578999999999
#
# number of rings (size 3 to 8) (size 9 to 14) (size 15 to 20)
#    0.000    1.231    4.615    1.385    2.154    1.231 
#    0.000    0.769    0.000    0.000    0.000    0.000 
#    0.000    0.000    0.000    0.000    0.000    0.000 
#
# Total GULP energy -322520.459467 kJ/mol
# GULP energy per Si atom -12404.633056 kJ/mol
# Density = 2.002789 g / cm^3
# Si number density = 20.073579 Si / 1000 Ang^3
#
#
#
# Elastic Constant Matrix: (Units=GPa)
#
#
# Indices 1 2 3 4 5 6 
#
# 1 81.0197 16.8774 26.0236 -0.0024 -19.0909 -0.0030
# 2 16.8774 85.6712 17.5840 -0.0021 -11.8320 -0.0015
# 3 26.0236 17.5840 83.1990 -0.0008 -17.5502 -0.0008
# 4 -0.0024 -0.0021 -0.0008 18.3579 0.0004 -8.9656
# 5 -19.0909 -11.8320 -17.5502 0.0004 25.5813 0.0007
# 6 -0.0030 -0.0015 -0.0008 -8.9656 0.0007 29.2786
#
#
#
# Elastic Compliance Matrix: (Units=1/GPa)
#
#
# Indices 1 2 3 4 5 6 
#
# 1 0.015645 -0.001254 -0.002675 0.000003 0.009260 0.000002
# 2 -0.001254 0.012769 -0.001471 0.000002 0.003961 0.000001
# 3 -0.002675 -0.001471 0.014735 0.000000 0.007432 0.000000
# 4 0.000003 0.000002 0.000000 0.064051 0.000001 0.019614
# 5 0.009260 0.003961 0.007432 0.000001 0.052933 0.000000
# 6 0.000002 0.000001 0.000000 0.019614 0.000000 0.040161
#
#
# Mechanical properties :
#
#
# Convention : Reuss Voigt Hill
#
# Bulk Modulus (GPa) = 30.91362 41.20668 36.06015
# Shear Modulus (GPa) = 22.53510 27.27056 24.90283
#
# Velocity S-wave (km/s) = 3.35419 3.68982 3.52600
# Velocity P-wave (km/s) = 5.51674 6.22298 5.88047
#
# Compressibility (1/GPa) = 0.03234820
#
# Stress axis : x y z
#
# Youngs Moduli (GPa) = 63.91716 78.31773 67.86685
#
# Poissons Ratio (x) = 0.09822 0.18156
# Poissons Ratio (y) = 0.08016 0.09982
# Poissons Ratio (z) = 0.17099 0.11519
#
# Static dielectric constant tensor:
#      x y z
#    x 3.693800 0.000000 -0.078640 
#    y 0.000000 3.662490 0.000000 
#    z -0.078640 0.000000 3.556870 
# 
# 
# High freq. dielectric constant tensor:
#      x y z
#    x 1.785050 0.000000 -0.008040 
#    y 0.000000 1.790630 0.000000 
#    z -0.008040 0.000000 1.779340 
# 
# From -- ./inp_files/220970.got.cif
#   From: 2010.06.25/outbox.cif.g09.slc.cpg/sg15_111_cif.got.tgz:220970.got - 2010.06.28 07:06:18.
