data_PCOD8146452
_publ_section_title
;
Structure prediction by ZEFSAII (Michael W. Deem and Ramdas Pophale) SiO2 
 PCOD8146452
Probable space group: C 2/C
;
_chemical_formula_sum "Si O2"
_cell_formula_units_Z 40
_cell_length_a 18.835485
_cell_length_b 11.701061
_cell_length_c 8.619348
_cell_angle_alpha 90.000000
_cell_angle_beta 85.268888
_cell_angle_gamma 90.000000
_cell_volume 1893.189941
_symmetry_space_group_name_H-M "C 2/C"
_symmetry_group_IT_number 15
_symmetry_cell_setting 'monoclinic'
loop_
_space_group_symop_operation_xyz
x,y,z
-x,y,1/2-z
-x,-y,-z
x,-y,1/2+z
1/2+x,1/2+y,z
1/2-x,1/2+y,1/2-z
1/2-x,1/2-y,-z
1/2+x,1/2-y,1/2+z
loop_
_atom_site_type_symbol
_atom_site_label
_atom_site_fract_x
_atom_site_fract_y
_atom_site_fract_z
Si Si1 0.159441 0.512355 0.222323
Si Si2 0.748115 0.117310 0.470079
Si Si3 0.963267 0.856566 0.526425
Si Si4 0.905044 0.046025 0.356487
Si Si5 0.562223 0.093642 0.975738
O O1 0.190420 0.596548 0.346247
O O2 0.104050 0.423360 0.307484
O O3 0.223854 0.443495 0.132580
O O4 0.117384 0.587843 0.106594
O O5 0.750000 0.250000 0.500000
O O6 0.823245 0.065859 0.408622
O O7 0.921010 0.906803 0.682923
O O8 0.967210 0.720795 0.518574
O O9 0.046205 0.890413 0.523811
O O10 0.925819 0.911170 0.379111
O O11 0.500000 0.000000 0.000000
#
# Coordination Sequence:
#
# PCOD8146452 Si02
#       5
#     8   8   8   8   8
#     4  10  25  41  62 101 123 172 224 253 341 385
#     4  11  23  41  66  93 138 174 215 269 321 404
#     4  10  23  41  67  93 131 163 224 270 323 390
#     4  10  22  41  65  95 127 173 212 264 333 375
#     4  11  24  43  67  96 130 170 220 283 329 388
#
# _framework density 21.128361000000002
#
# number of rings (size 3 to 8) (size 9 to 14) (size 15 to 20)
#    0.000    1.600    0.000    3.000   11.200    3.200 
#   10.800    5.000    0.000    0.000    0.000    0.000 
#    0.000    0.000    0.000    0.000    0.000    0.000 
#
# Total GULP energy -247981.519715 kJ/mol
# GULP energy per Si atom -12399.075986 kJ/mol
# Density = 2.108027 g / cm^3
# Si number density = 21.128361 Si / 1000 Ang^3
#
#
#
# Elastic Constant Matrix: (Units=GPa)
#
#
# Indices 1 2 3 4 5 6 
#
# 1 102.0007 31.0306 10.6280 0.0000 -17.3911 0.0000
# 2 31.0306 158.5279 30.6502 0.0000 -2.6446 0.0000
# 3 10.6280 30.6502 75.7818 0.0000 -9.0770 0.0000
# 4 0.0000 0.0000 0.0000 21.4705 0.0000 -0.4613
# 5 -17.3911 -2.6446 -9.0770 0.0000 26.7097 0.0000
# 6 0.0000 0.0000 0.0000 -0.4613 0.0000 22.7824
#
#
#
# Elastic Compliance Matrix: (Units=1/GPa)
#
#
# Indices 1 2 3 4 5 6 
#
# 1 0.011732 -0.002199 0.000138 0.000000 0.007468 0.000000
# 2 -0.002199 0.007257 -0.002827 0.000000 -0.001674 0.000000
# 3 0.000138 -0.002827 0.014904 0.000000 0.004875 0.000000
# 4 0.000000 0.000000 0.000000 0.046596 0.000000 0.000944
# 5 0.007468 -0.001674 0.004875 0.000000 0.043793 0.000000
# 6 0.000000 0.000000 0.000000 0.000944 0.000000 0.043913
#
#
# Mechanical properties :
#
#
# Convention : Reuss Voigt Hill
#
# Bulk Modulus (GPa) = 41.46344 53.43642 47.44993
# Shear Modulus (GPa) = 26.88055 31.79263 29.33659
#
# Velocity S-wave (km/s) = 3.57073 3.88330 3.73029
# Velocity P-wave (km/s) = 6.05535 6.74188 6.40782
#
# Compressibility (1/GPa) = 0.02411763
#
# Stress axis : x y z
#
# Youngs Moduli (GPa) = 85.24013 137.79601 67.09689
#
# Poissons Ratio (x) = 0.30295 -0.00929
# Poissons Ratio (y) = 0.18740 0.18970
# Poissons Ratio (z) = -0.01180 0.38959
#
# Static dielectric constant tensor:
#      x y z
#    x 4.004740 0.000000 0.003430 
#    y 0.000000 3.800260 0.000000 
#    z 0.003430 0.000000 4.019910 
# 
# 
# High freq. dielectric constant tensor:
#      x y z
#    x 1.840010 0.000000 -0.002160 
#    y 0.000000 1.824400 0.000000 
#    z -0.002160 0.000000 1.838120 
# 
# From -- ./inp_files/46199.got.cif
#   From: 2010.06.25/outbox.cif.g09.slc.cpg/sg15_24_cif.got.tgz:46199.got - 2010.06.28 07:06:18.
