data_PCOD8146819
_publ_section_title
;
Structure prediction by ZEFSAII (Michael W. Deem and Ramdas Pophale) SiO2 
 PCOD8146819
Probable space group: C 2/C
;
_chemical_formula_sum "Si O2"
_cell_formula_units_Z 48
_cell_length_a 20.262881
_cell_length_b 11.438959
_cell_length_c 12.327646
_cell_angle_alpha 90.000000
_cell_angle_beta 128.066594
_cell_angle_gamma 90.000000
_cell_volume 2249.599211
_symmetry_space_group_name_H-M "C 2/C"
_symmetry_group_IT_number 15
_symmetry_cell_setting 'monoclinic'
loop_
_space_group_symop_operation_xyz
x,y,z
-x,y,1/2-z
-x,-y,-z
x,-y,1/2+z
1/2+x,1/2+y,z
1/2-x,1/2+y,1/2-z
1/2-x,1/2-y,-z
1/2+x,1/2-y,1/2+z
loop_
_atom_site_type_symbol
_atom_site_label
_atom_site_fract_x
_atom_site_fract_y
_atom_site_fract_z
Si Si1 0.122450 0.041967 0.139333
Si Si2 0.162578 0.136822 0.858497
Si Si3 0.000000 0.658983 0.750000
Si Si4 0.000000 0.732023 0.250000
Si Si5 0.469927 0.618809 0.106211
Si Si6 0.229270 0.639264 0.329970
Si Si7 0.443597 0.033083 0.342988
O O1 0.200040 0.125907 0.190509
O O2 0.040358 0.119627 0.081925
O O3 0.138677 0.977114 0.268286
O O4 0.108062 0.953198 0.022697
O O5 0.198090 0.227608 0.805281
O O6 0.083181 0.188259 0.845863
O O7 0.235168 0.103035 0.016198
O O8 0.948350 0.745029 0.614246
O O9 0.937739 0.574728 0.752598
O O10 0.012255 0.649293 0.158727
O O11 0.500000 0.557429 0.250000
O O12 0.151919 0.556303 0.219619
O O13 0.500000 0.000000 0.500000
#
# Coordination Sequence:
#
# PCOD8146819 Si02
#       7
#     8   8   4   4   8   8   8
#     4  11  22  37  63  89 122 164 203 254 310 378
#     4  10  23  41  60  89 130 159 210 256 310 374
#     4   9  22  39  62  90 120 159 206 257 302 372
#     4   9  22  37  66  90 114 177 200 259 308 368
#     4   9  22  38  58  92 120 160 202 255 311 362
#     4  10  24  40  59  94 123 164 206 260 311 365
#     4  10  22  42  65  88 123 164 210 256 312 375
#
# _framework density 21.337133999999999
#
# number of rings (size 3 to 8) (size 9 to 14) (size 15 to 20)
#    0.500    1.667    0.000    1.000   10.500    6.667 
#    0.000    0.833    0.000    0.000    0.000    0.000 
#    0.000    0.000    0.000    0.000    0.000    0.000 
#
# Total GULP energy -297460.001453 kJ/mol
# GULP energy per Si atom -12394.166727 kJ/mol
# Density = 2.128857 g / cm^3
# Si number density = 21.337134 Si / 1000 Ang^3
#
#
#
# Elastic Constant Matrix: (Units=GPa)
#
#
# Indices 1 2 3 4 5 6 
#
# 1 128.2875 32.7327 13.6469 0.0000 8.1940 0.0000
# 2 32.7327 67.9604 9.6365 0.0000 3.5827 0.0000
# 3 13.6469 9.6365 78.2530 0.0000 10.8328 0.0000
# 4 0.0000 0.0000 0.0000 28.8323 0.0000 -0.5596
# 5 8.1940 3.5827 10.8328 0.0000 28.9873 0.0000
# 6 0.0000 0.0000 0.0000 -0.5596 0.0000 23.3985
#
#
#
# Elastic Compliance Matrix: (Units=1/GPa)
#
#
# Indices 1 2 3 4 5 6 
#
# 1 0.009053 -0.004152 -0.000827 0.000000 -0.001737 0.000000
# 2 -0.004152 0.016921 -0.001300 0.000000 -0.000432 0.000000
# 3 -0.000827 -0.001300 0.013740 0.000000 -0.004740 0.000000
# 4 0.000000 0.000000 0.000000 0.034699 0.000000 0.000830
# 5 -0.001737 -0.000432 -0.004740 0.000000 0.036814 0.000000
# 6 0.000000 0.000000 0.000000 0.000830 0.000000 0.042758
#
#
# Mechanical properties :
#
#
# Convention : Reuss Voigt Hill
#
# Bulk Modulus (GPa) = 36.82347 42.94812 39.88579
# Shear Modulus (GPa) = 28.47479 30.80930 29.64204
#
# Velocity S-wave (km/s) = 3.65707 3.80403 3.73127
# Velocity P-wave (km/s) = 5.92685 6.28221 6.10712
#
# Compressibility (1/GPa) = 0.02715659
#
# Stress axis : x y z
#
# Youngs Moduli (GPa) = 110.45824 59.09776 72.78245
#
# Poissons Ratio (x) = 0.24535 0.06020
# Poissons Ratio (y) = 0.45857 0.09461
# Poissons Ratio (z) = 0.09136 0.07682
#
# Static dielectric constant tensor:
#      x y z
#    x 3.876780 0.000000 -0.028920 
#    y 0.000000 3.872750 0.000000 
#    z -0.028920 0.000000 3.717090 
# 
# 
# High freq. dielectric constant tensor:
#      x y z
#    x 1.831150 0.000000 -0.008980 
#    y 0.000000 1.832050 0.000000 
#    z -0.008980 0.000000 1.826980 
# 
# From -- ./inp_files/111253.got.cif
#   From: 2010.06.25/outbox.cif.g09.slc.cpg/sg15_56_cif.got.tgz:111253.got - 2010.06.28 07:06:18.
