data_PCOD8146481
_publ_section_title
;
Structure prediction by ZEFSAII (Michael W. Deem and Ramdas Pophale) SiO2 
 PCOD8146481
Probable space group: C 2/C
;
_chemical_formula_sum "Si O2"
_cell_formula_units_Z 48
_cell_length_a 18.817896
_cell_length_b 8.609543
_cell_length_c 26.406350
_cell_angle_alpha 90.000000
_cell_angle_beta 148.647532
_cell_angle_gamma 90.000000
_cell_volume 2225.945342
_symmetry_space_group_name_H-M "C 2/C"
_symmetry_group_IT_number 15
_symmetry_cell_setting 'monoclinic'
loop_
_space_group_symop_operation_xyz
x,y,z
-x,y,1/2-z
-x,-y,-z
x,-y,1/2+z
1/2+x,1/2+y,z
1/2-x,1/2+y,1/2-z
1/2-x,1/2-y,-z
1/2+x,1/2-y,1/2+z
loop_
_atom_site_type_symbol
_atom_site_label
_atom_site_fract_x
_atom_site_fract_y
_atom_site_fract_z
Si Si1 0.846804 0.464656 0.418497
Si Si2 0.037233 0.600232 0.714950
Si Si3 0.179544 0.552974 0.488825
Si Si4 0.349974 0.379680 0.781407
Si Si5 0.455629 0.639977 0.611265
Si Si6 0.794020 0.313903 0.702233
O O1 0.822286 0.538909 0.459146
O O2 0.756313 0.543225 0.320960
O O3 0.814723 0.278144 0.398756
O O4 0.000000 0.500000 0.500000
O O5 0.072976 0.747453 0.702845
O O6 0.170033 0.486212 0.796005
O O7 0.000000 0.645314 0.750000
O O8 0.905434 0.524365 0.608042
O O9 0.337751 0.557323 0.571374
O O10 0.115394 0.722692 0.464133
O O11 0.462365 0.505942 0.869831
O O12 0.265234 0.314504 0.776851
O O13 0.564507 0.718740 0.715155
#
# Coordination Sequence:
#
# PCOD8146481 Si02
#       6
#     8   8   8   8   8   8
#     4  11  23  40  69  94 125 174 224 267 313 392
#     4  11  25  42  63  97 138 166 213 278 341 388
#     4  10  22  42  65  93 125 165 227 262 315 395
#     4  11  23  43  64  93 135 173 208 270 341 389
#     4   9  21  39  68  86 125 164 217 256 318 383
#     4  10  22  41  66  90 132 175 215 259 329 395
#
# _framework density 21.563873000000001
#
# number of rings (size 3 to 8) (size 9 to 14) (size 15 to 20)
#    0.000    1.667    0.000    5.000    9.333    2.000 
#    3.000    1.667    0.000    0.000    0.000    0.000 
#    0.000    0.000    0.000    0.000    0.000    0.000 
#
# Total GULP energy -297387.470002 kJ/mol
# GULP energy per Si atom -12391.144583 kJ/mol
# Density = 2.151479 g / cm^3
# Si number density = 21.563873 Si / 1000 Ang^3
#
#
#
# Elastic Constant Matrix: (Units=GPa)
#
#
# Indices 1 2 3 4 5 6 
#
# 1 106.8628 1.7268 44.8913 0.0000 2.8549 0.0000
# 2 1.7268 68.0187 20.9080 0.0000 16.9025 0.0001
# 3 44.8913 20.9080 97.5252 -0.0002 19.2837 0.0001
# 4 0.0000 0.0000 -0.0002 13.0936 0.0000 5.5039
# 5 2.8549 16.9025 19.2837 0.0000 42.2518 0.0000
# 6 0.0000 0.0001 0.0001 5.5039 0.0000 33.0951
#
#
#
# Elastic Compliance Matrix: (Units=1/GPa)
#
#
# Indices 1 2 3 4 5 6 
#
# 1 0.011811 0.001175 -0.005977 0.000000 0.001460 0.000000
# 2 0.001175 0.016982 -0.003102 0.000000 -0.005457 0.000000
# 3 -0.005977 -0.003102 0.014669 0.000000 -0.005050 0.000000
# 4 0.000000 0.000000 0.000000 0.082114 0.000000 -0.013656
# 5 0.001460 -0.005457 -0.005050 0.000000 0.028057 0.000000
# 6 0.000000 0.000000 0.000000 -0.013656 0.000000 0.032487
#
#
# Mechanical properties :
#
#
# Convention : Reuss Voigt Hill
#
# Bulk Modulus (GPa) = 36.16444 45.27321 40.71883
# Shear Modulus (GPa) = 23.68045 31.34681 27.51363
#
# Velocity S-wave (km/s) = 3.31744 3.81684 3.57587
# Velocity P-wave (km/s) = 5.61080 6.36120 5.99775
#
# Compressibility (1/GPa) = 0.02765147
#
# Stress axis : x y z
#
# Youngs Moduli (GPa) = 84.66940 58.88718 68.17288
#
# Poissons Ratio (x) = -0.06917 0.40747
# Poissons Ratio (y) = -0.09945 0.21149
# Poissons Ratio (z) = 0.50607 0.18269
#
# Static dielectric constant tensor:
#      x y z
#    x 3.943580 0.000000 0.177760 
#    y 0.000000 4.325260 0.000000 
#    z 0.177760 0.000000 3.939120 
# 
# 
# High freq. dielectric constant tensor:
#      x y z
#    x 1.846790 0.000000 0.016470 
#    y 0.000000 1.844940 0.000000 
#    z 0.016470 0.000000 1.848220 
# 
# From -- ./inp_files/317300.got.cif
#   From: 2010.06.25/outbox.cif.g09.slc.cpg/sg15_159_cif.got.tgz:317300.got - 2010.06.28 07:06:18.
