data_PCOD8146822
_publ_section_title
;
Structure prediction by ZEFSAII (Michael W. Deem and Ramdas Pophale) SiO2 
 PCOD8146822
Probable space group: C 2/C
;
_chemical_formula_sum "Si O2"
_cell_formula_units_Z 48
_cell_length_a 20.417835
_cell_length_b 17.452784
_cell_length_c 15.308551
_cell_angle_alpha 90.000000
_cell_angle_beta 154.290409
_cell_angle_gamma 90.000000
_cell_volume 2366.507917
_symmetry_space_group_name_H-M "C 2/C"
_symmetry_group_IT_number 15
_symmetry_cell_setting 'monoclinic'
loop_
_space_group_symop_operation_xyz
x,y,z
-x,y,1/2-z
-x,-y,-z
x,-y,1/2+z
1/2+x,1/2+y,z
1/2-x,1/2+y,1/2-z
1/2-x,1/2-y,-z
1/2+x,1/2-y,1/2+z
loop_
_atom_site_type_symbol
_atom_site_label
_atom_site_fract_x
_atom_site_fract_y
_atom_site_fract_z
Si Si1 0.000000 0.439229 0.750000
Si Si2 0.192345 0.329583 0.587693
Si Si3 0.755569 0.445894 0.999693
Si Si4 0.304452 0.331926 0.914429
Si Si5 0.860511 0.678765 0.751355
Si Si6 0.500000 0.545937 0.750000
Si Si7 0.529435 0.820042 0.924094
O O1 0.883192 0.490102 0.663453
O O2 0.080829 0.386299 0.919566
O O3 0.218480 0.402974 0.559717
O O4 0.266313 0.350519 0.768639
O O5 0.268524 0.257279 0.632249
O O6 0.015402 0.311516 0.384125
O O7 0.763492 0.389671 0.092815
O O8 0.596860 0.489644 0.805062
O O9 0.151636 0.314773 0.784297
O O10 0.391297 0.403892 0.058675
O O11 0.413970 0.259044 0.049593
O O12 0.889737 0.660385 0.887707
#
# Coordination Sequence:
#
# PCOD8146822 Si02
#       7
#     4   8   8   8   8   4   8
#     4  12  23  40  61  90 120 166 198 244 307 356
#     4  10  22  42  66  89 120 159 207 247 297 357
#     4  12  25  40  61  92 125 162 198 248 305 362
#     4  10  23  43  63  90 120 160 205 252 294 356
#     4  10  22  42  65  91 119 160 205 249 295 357
#     4  12  27  40  59  90 128 160 200 250 305 358
#     4  10  23  41  66  89 120 160 205 249 298 355
#
# _framework density 20.283049999999999
#
# number of rings (size 3 to 8) (size 9 to 14) (size 15 to 20)
#    0.000    1.333    3.333    1.000    4.667    4.000 
#    0.000    0.000    0.000    0.000    0.000    0.000 
#    0.000    0.000    0.000    0.000    0.000    0.000 
#
# Total GULP energy -297710.633490 kJ/mol
# GULP energy per Si atom -12404.609729 kJ/mol
# Density = 2.023689 g / cm^3
# Si number density = 20.283050 Si / 1000 Ang^3
#
#
#
# Elastic Constant Matrix: (Units=GPa)
#
#
# Indices 1 2 3 4 5 6 
#
# 1 73.8086 48.8886 15.7695 0.0000 -2.1046 0.0000
# 2 48.8886 119.4475 47.5062 0.0000 -1.7728 0.0000
# 3 15.7695 47.5062 78.0026 0.0000 7.5523 0.0000
# 4 0.0000 0.0000 0.0000 24.0590 0.0000 14.3287
# 5 -2.1046 -1.7728 7.5523 0.0000 26.0180 0.0000
# 6 0.0000 0.0000 0.0000 14.3287 0.0000 14.9014
#
#
#
# Elastic Compliance Matrix: (Units=1/GPa)
#
#
# Indices 1 2 3 4 5 6 
#
# 1 0.018677 -0.008060 0.001070 0.000000 0.000651 0.000000
# 2 -0.008060 0.014726 -0.007586 0.000000 0.002553 0.000000
# 3 0.001070 -0.007586 0.017765 0.000000 -0.005587 0.000000
# 4 0.000000 0.000000 0.000000 0.097267 0.000000 -0.093529
# 5 0.000651 0.002553 -0.005587 0.000000 0.040283 0.000000
# 6 0.000000 0.000000 0.000000 -0.093529 0.000000 0.157043
#
#
# Mechanical properties :
#
#
# Convention : Reuss Voigt Hill
#
# Bulk Modulus (GPa) = 45.42321 55.06525 50.24423
# Shear Modulus (GPa) = 13.08033 23.60197 18.34115
#
# Velocity S-wave (km/s) = 2.54222 3.41490 3.01035
# Velocity P-wave (km/s) = 5.57319 6.53881 6.07522
#
# Compressibility (1/GPa) = 0.02201518
#
# Stress axis : x y z
#
# Youngs Moduli (GPa) = 53.54049 67.90708 56.29043
#
# Poissons Ratio (x) = 0.54736 -0.06023
# Poissons Ratio (y) = 0.43156 0.42704
# Poissons Ratio (z) = -0.05729 0.51516
#
# Static dielectric constant tensor:
#      x y z
#    x 3.782860 0.000000 0.135180 
#    y 0.000000 3.740080 0.000000 
#    z 0.135180 0.000000 3.764160 
# 
# 
# High freq. dielectric constant tensor:
#      x y z
#    x 1.802790 0.000000 0.001880 
#    y 0.000000 1.800710 0.000000 
#    z 0.001880 0.000000 1.793570 
# 
# From -- ./inp_files/56436.got.cif
#   From: 2010.06.25/outbox.cif.g09.slc.cpg/sg15_29_cif.got.tgz:56436.got - 2010.06.28 07:06:18.
