data_PCOD8146187
_publ_section_title
;
Structure prediction by ZEFSAII (Michael W. Deem and Ramdas Pophale) SiO2 
 PCOD8146187
Probable space group: C 2/C
;
_chemical_formula_sum "Si O2"
_cell_formula_units_Z 52
_cell_length_a 21.364119
_cell_length_b 13.772385
_cell_length_c 10.426721
_cell_angle_alpha 90.000000
_cell_angle_beta 51.089727
_cell_angle_gamma 90.000000
_cell_volume 2387.230523
_symmetry_space_group_name_H-M "C 2/C"
_symmetry_group_IT_number 15
_symmetry_cell_setting 'monoclinic'
loop_
_space_group_symop_operation_xyz
x,y,z
-x,y,1/2-z
-x,-y,-z
x,-y,1/2+z
1/2+x,1/2+y,z
1/2-x,1/2+y,1/2-z
1/2-x,1/2-y,-z
1/2+x,1/2-y,1/2+z
loop_
_atom_site_type_symbol
_atom_site_label
_atom_site_fract_x
_atom_site_fract_y
_atom_site_fract_z
Si Si1 0.737809 0.471605 0.233500
Si Si2 0.000000 0.799316 0.250000
Si Si3 0.267571 0.254675 0.327812
Si Si4 0.122678 0.856232 0.893264
Si Si5 0.053838 0.707407 0.801490
Si Si6 0.423516 0.846758 0.665617
Si Si7 0.161196 0.471856 0.140643
O O1 0.709492 0.362429 0.245621
O O2 0.658452 0.537686 0.322117
O O3 0.773439 0.481825 0.330439
O O4 0.802027 0.502063 0.044012
O O5 0.064484 0.730928 0.237114
O O6 0.949348 0.867049 0.411216
O O7 0.250000 0.250000 0.500000
O O8 0.190292 0.218955 0.351207
O O9 0.342418 0.185206 0.195083
O O10 0.087173 0.810308 0.808691
O O11 0.127496 0.636729 0.672851
O O12 0.000000 0.733042 0.750000
O O13 0.001062 0.651682 0.975665
O O14 0.412066 0.953644 0.739691
#
# Coordination Sequence:
#
# PCOD8146187 Si02
#       7
#     8   4   8   8   8   8   8
#     4  12  25  42  74 106 131 188 234 287 347 417
#     4  10  22  40  68  96 134 188 224 288 344 410
#     4  12  21  44  72  99 135 177 236 290 339 423
#     4  11  23  44  70 100 140 180 241 284 347 420
#     4  11  26  43  63 102 147 186 223 291 366 412
#     4  11  23  40  69  96 136 179 226 283 343 418
#     4  12  24  41  69 107 140 174 232 291 354 417
#
# _framework density 21.782564000000001
#
# number of rings (size 3 to 8) (size 9 to 14) (size 15 to 20)
#    0.000    0.615    6.154    1.385    3.231    1.846 
#    0.000    3.077    3.385    0.000    0.000    0.000 
#    0.000    0.000    0.000    0.000    0.000    0.000 
#
# Total GULP energy -322537.606420 kJ/mol
# GULP energy per Si atom -12405.292555 kJ/mol
# Density = 2.173299 g / cm^3
# Si number density = 21.782564 Si / 1000 Ang^3
#
#
#
# Elastic Constant Matrix: (Units=GPa)
#
#
# Indices 1 2 3 4 5 6 
#
# 1 106.1441 25.8984 23.6908 0.0000 4.1069 0.0000
# 2 25.8984 113.2218 27.8091 0.0000 -7.3767 0.0000
# 3 23.6908 27.8091 46.7768 0.0000 -1.6271 0.0000
# 4 0.0000 0.0000 0.0000 28.0858 0.0000 -9.3499
# 5 4.1069 -7.3767 -1.6271 0.0000 32.7075 0.0000
# 6 0.0000 0.0000 0.0000 -9.3499 0.0000 12.2659
#
#
#
# Elastic Compliance Matrix: (Units=1/GPa)
#
#
# Indices 1 2 3 4 5 6 
#
# 1 0.010906 -0.001461 -0.004723 0.000000 -0.001934 0.000000
# 2 -0.001461 0.010674 -0.005526 0.000000 0.002316 0.000000
# 3 -0.004723 -0.005526 0.027079 0.000000 0.000694 0.000000
# 4 0.000000 0.000000 0.000000 0.047713 0.000000 0.036370
# 5 -0.001934 0.002316 0.000694 0.000000 0.031374 0.000000
# 6 0.000000 0.000000 0.000000 0.036370 0.000000 0.109250
#
#
# Mechanical properties :
#
#
# Convention : Reuss Voigt Hill
#
# Bulk Modulus (GPa) = 39.61647 46.77104 43.19375
# Shear Modulus (GPa) = 18.59920 27.19479 22.89700
#
# Velocity S-wave (km/s) = 2.92525 3.53720 3.24568
# Velocity P-wave (km/s) = 5.44391 6.18068 5.82396
#
# Compressibility (1/GPa) = 0.02524203
#
# Stress axis : x y z
#
# Youngs Moduli (GPa) = 91.68880 93.68174 36.92891
#
# Poissons Ratio (x) = 0.13685 0.17440
# Poissons Ratio (y) = 0.13394 0.20405
# Poissons Ratio (z) = 0.43301 0.51765
#
# Static dielectric constant tensor:
#      x y z
#    x 4.179320 0.000000 -0.112610 
#    y 0.000000 3.896740 0.000000 
#    z -0.112610 0.000000 4.110700 
# 
# 
# High freq. dielectric constant tensor:
#      x y z
#    x 1.861860 0.000000 0.000150 
#    y 0.000000 1.850070 0.000000 
#    z 0.000150 0.000000 1.858420 
# 
# From -- ./inp_files/112658.got.cif
#   From: 2010.06.25/outbox.cif.g09.slc.cpg/sg15_57_cif.got.tgz:112658.got - 2010.06.28 07:06:18.
