data_PCOD8146073
_publ_section_title
;
Structure prediction by ZEFSAII (Michael W. Deem and Ramdas Pophale) SiO2 
 PCOD8146073
Probable space group: C 2/C
;
_chemical_formula_sum "Si O2"
_cell_formula_units_Z 48
_cell_length_a 11.218156
_cell_length_b 21.209352
_cell_length_c 14.454673
_cell_angle_alpha 90.000000
_cell_angle_beta 42.365612
_cell_angle_gamma 90.000000
_cell_volume 2317.534544
_symmetry_space_group_name_H-M "C 2/C"
_symmetry_group_IT_number 15
_symmetry_cell_setting 'monoclinic'
loop_
_space_group_symop_operation_xyz
x,y,z
-x,y,1/2-z
-x,-y,-z
x,-y,1/2+z
1/2+x,1/2+y,z
1/2-x,1/2+y,1/2-z
1/2-x,1/2-y,-z
1/2+x,1/2-y,1/2+z
loop_
_atom_site_type_symbol
_atom_site_label
_atom_site_fract_x
_atom_site_fract_y
_atom_site_fract_z
Si Si1 0.524220 0.947209 0.862798
Si Si2 0.606688 0.215903 0.519598
Si Si3 0.249037 0.882604 0.896940
Si Si4 0.522557 0.917642 0.405177
Si Si5 0.775229 0.266001 0.756114
Si Si6 0.088330 0.129098 0.795024
O O1 0.374056 0.898820 0.912830
O O2 0.710781 0.935457 0.703519
O O3 0.475158 0.020776 0.871447
O O4 0.558480 0.932553 0.948806
O O5 0.750000 0.250000 0.500000
O O6 0.573111 0.145080 0.578477
O O7 0.433143 0.256852 0.633676
O O8 0.654162 0.211290 0.384088
O O9 0.308158 0.816027 0.818722
O O10 0.045146 0.883961 0.043641
O O11 0.734265 0.909896 0.288401
O O12 0.872722 0.203105 0.732925
O O13 0.000000 0.106717 0.750000
#
# Coordination Sequence:
#
# PCOD8146073 Si02
#       6
#     8   8   8   8   8   8
#     4  10  22  40  66  90 124 172 214 258 315 382
#     4  11  23  43  66  90 132 167 214 261 327 385
#     4  11  22  41  65  96 127 163 219 263 320 379
#     4  10  22  43  64  90 130 171 212 259 318 388
#     4  11  23  39  64  99 125 165 213 271 319 378
#     4  11  23  38  66  98 131 162 209 271 329 376
#
# _framework density 20.711665
#
# number of rings (size 3 to 8) (size 9 to 14) (size 15 to 20)
#    0.000    1.333    5.000    0.500    2.333    1.333 
#   12.000    1.667    3.667    0.000    0.000    0.000 
#    0.000    0.000    0.000    0.000    0.000    0.000 
#
# Total GULP energy -297502.891680 kJ/mol
# GULP energy per Si atom -12395.953820 kJ/mol
# Density = 2.066452 g / cm^3
# Si number density = 20.711665 Si / 1000 Ang^3
#
#
#
# Elastic Constant Matrix: (Units=GPa)
#
#
# Indices 1 2 3 4 5 6 
#
# 1 57.1945 33.8480 12.3696 0.0003 -17.0343 -0.0001
# 2 33.8480 121.8052 13.4893 -0.0002 -11.6309 0.0000
# 3 12.3696 13.4893 122.5230 0.0000 -11.2477 -0.0004
# 4 0.0003 -0.0002 0.0000 26.6173 -0.0005 5.4257
# 5 -17.0343 -11.6309 -11.2477 -0.0005 28.0011 0.0004
# 6 -0.0001 0.0000 -0.0004 5.4257 0.0004 27.0434
#
#
#
# Elastic Compliance Matrix: (Units=1/GPa)
#
#
# Indices 1 2 3 4 5 6 
#
# 1 0.024631 -0.005582 -0.000737 0.000000 0.012370 0.000000
# 2 -0.005582 0.009862 -0.000475 0.000000 0.000510 0.000000
# 3 -0.000737 -0.000475 0.008544 0.000000 0.002787 0.000000
# 4 0.000000 0.000000 0.000000 0.039172 0.000001 -0.007859
# 5 0.012370 0.000510 0.002787 0.000001 0.044569 -0.000001
# 6 0.000000 0.000000 0.000000 -0.007859 -0.000001 0.038554
#
#
# Mechanical properties :
#
#
# Convention : Reuss Voigt Hill
#
# Bulk Modulus (GPa) = 33.95631 46.77073 40.36352
# Shear Modulus (GPa) = 26.49193 32.45341 29.47267
#
# Velocity S-wave (km/s) = 3.58031 3.96272 3.77636
# Velocity P-wave (km/s) = 5.78980 6.60064 6.20847
#
# Compressibility (1/GPa) = 0.02944961
#
# Stress axis : x y z
#
# Youngs Moduli (GPa) = 40.59937 101.39624 117.03785
#
# Poissons Ratio (x) = 0.56598 0.08621
# Poissons Ratio (y) = 0.22662 0.05565
# Poissons Ratio (z) = 0.02991 0.04821
#
# Static dielectric constant tensor:
#      x y z
#    x 3.372940 0.000000 0.029840 
#    y 0.000000 4.039990 0.000000 
#    z 0.029840 0.000000 4.122120 
# 
# 
# High freq. dielectric constant tensor:
#      x y z
#    x 1.782300 0.000000 0.006160 
#    y 0.000000 1.817290 0.000000 
#    z 0.006160 0.000000 1.832830 
# 
# From -- ./inp_files/147344.got.cif
#   From: 2010.06.25/outbox.cif.g09.slc.cpg/sg15_74_cif.got.tgz:147344.got - 2010.06.28 07:06:18.
