data_PCOD8146350
_publ_section_title
;
Structure prediction by ZEFSAII (Michael W. Deem and Ramdas Pophale) SiO2 
 PCOD8146350
Probable space group: C 2/C
;
_chemical_formula_sum "Si O2"
_cell_formula_units_Z 48
_cell_length_a 21.108823
_cell_length_b 18.954301
_cell_length_c 8.641264
_cell_angle_alpha 90.000000
_cell_angle_beta 39.827708
_cell_angle_gamma 90.000000
_cell_volume 2214.396705
_symmetry_space_group_name_H-M "C 2/C"
_symmetry_group_IT_number 15
_symmetry_cell_setting 'monoclinic'
loop_
_space_group_symop_operation_xyz
x,y,z
-x,y,1/2-z
-x,-y,-z
x,-y,1/2+z
1/2+x,1/2+y,z
1/2-x,1/2+y,1/2-z
1/2-x,1/2-y,-z
1/2+x,1/2-y,1/2+z
loop_
_atom_site_type_symbol
_atom_site_label
_atom_site_fract_x
_atom_site_fract_y
_atom_site_fract_z
Si Si1 0.774902 0.802112 0.590216
Si Si2 0.871757 0.004943 0.517615
Si Si3 0.100121 0.658731 0.639802
Si Si4 0.895122 0.207799 0.158514
Si Si5 0.427831 0.598973 0.674080
Si Si6 0.765146 0.085469 0.473336
O O1 0.750000 0.750000 0.500000
O O2 0.853974 0.770253 0.565821
O O3 0.820431 0.871824 0.424900
O O4 0.673585 0.820676 0.864581
O O5 0.926404 0.069693 0.501814
O O6 0.778351 0.038816 0.600783
O O7 0.947196 0.968204 0.252010
O O8 0.828366 0.947079 0.714175
O O9 0.075085 0.724554 0.797747
O O10 0.149449 0.595188 0.647831
O O11 0.000000 0.630551 0.750000
O O12 0.809793 0.164567 0.410251
O O13 0.991031 0.158896 0.958749
#
# Coordination Sequence:
#
# PCOD8146350 Si02
#       6
#     8   8   8   8   8   8
#     4  11  23  41  63  89 130 170 219 271 309 376
#     4  10  23  40  67  93 136 173 203 261 327 397
#     4  11  24  43  64  91 125 173 221 269 318 372
#     4  11  24  39  63  96 132 167 212 261 328 391
#     4  11  23  41  64 101 132 167 216 257 329 393
#     4  10  22  41  63  90 129 169 218 256 325 380
#
# _framework density 21.676331999999999
#
# number of rings (size 3 to 8) (size 9 to 14) (size 15 to 20)
#    0.000    1.333    3.333    3.500    7.000    4.000 
#    0.000    0.833    0.000    0.000    0.000    0.000 
#    0.000    0.000    0.000    0.000    0.000    0.000 
#
# Total GULP energy -297568.625502 kJ/mol
# GULP energy per Si atom -12398.692729 kJ/mol
# Density = 2.162700 g / cm^3
# Si number density = 21.676332 Si / 1000 Ang^3
#
#
#
# Elastic Constant Matrix: (Units=GPa)
#
#
# Indices 1 2 3 4 5 6 
#
# 1 118.7155 26.3403 47.9363 0.0000 -10.0992 0.0000
# 2 26.3403 39.8457 18.2149 0.0000 2.0743 0.0000
# 3 47.9363 18.2149 84.7269 0.0000 -3.1622 0.0000
# 4 0.0000 0.0000 0.0000 29.4566 0.0000 -0.5366
# 5 -10.0992 2.0743 -3.1622 0.0000 36.2985 0.0000
# 6 0.0000 0.0000 0.0000 -0.5366 0.0000 49.1085
#
#
#
# Elastic Compliance Matrix: (Units=1/GPa)
#
#
# Indices 1 2 3 4 5 6 
#
# 1 0.012209 -0.005697 -0.005562 0.000000 0.003238 0.000000
# 2 -0.005697 0.030654 -0.003503 0.000000 -0.003642 0.000000
# 3 -0.005562 -0.003503 0.015703 0.000000 0.000021 0.000000
# 4 0.000000 0.000000 0.000000 0.033955 0.000000 0.000371
# 5 0.003238 -0.003642 0.000021 0.000000 0.028660 0.000000
# 6 0.000000 0.000000 0.000000 0.000371 0.000000 0.020367
#
#
# Mechanical properties :
#
#
# Convention : Reuss Voigt Hill
#
# Bulk Modulus (GPa) = 34.43215 47.58567 41.00891
# Shear Modulus (GPa) = 27.66227 33.02583 30.34405
#
# Velocity S-wave (km/s) = 3.57620 3.90755 3.74554
# Velocity P-wave (km/s) = 5.74208 6.50839 6.13720
#
# Compressibility (1/GPa) = 0.02904263
#
# Stress axis : x y z
#
# Youngs Moduli (GPa) = 81.90851 32.62259 63.68118
#
# Poissons Ratio (x) = 0.18584 0.35418
# Poissons Ratio (y) = 0.46661 0.22307
# Poissons Ratio (z) = 0.45556 0.11427
#
# Static dielectric constant tensor:
#      x y z
#    x 4.353530 0.000000 0.033460 
#    y 0.000000 3.955820 0.000000 
#    z 0.033460 0.000000 3.758560 
# 
# 
# High freq. dielectric constant tensor:
#      x y z
#    x 1.873580 0.000000 0.009310 
#    y 0.000000 1.836490 0.000000 
#    z 0.009310 0.000000 1.835560 
# 
# From -- ./inp_files/57711.got.cif
#   From: 2010.06.25/outbox.cif.g09.slc.cpg/sg15_29_cif.got.tgz:57711.got - 2010.06.28 07:06:18.
