data_PCOD8146727
_publ_section_title
;
Structure prediction by ZEFSAII (Michael W. Deem and Ramdas Pophale) SiO2 
 PCOD8146727
Probable space group: C 2/C
;
_chemical_formula_sum "Si O2"
_cell_formula_units_Z 64
_cell_length_a 20.197481
_cell_length_b 17.726424
_cell_length_c 24.613284
_cell_angle_alpha 90.000000
_cell_angle_beta 159.115492
_cell_angle_gamma 90.000000
_cell_volume 3141.446297
_symmetry_space_group_name_H-M "C 2/C"
_symmetry_group_IT_number 15
_symmetry_cell_setting 'monoclinic'
loop_
_space_group_symop_operation_xyz
x,y,z
-x,y,1/2-z
-x,-y,-z
x,-y,1/2+z
1/2+x,1/2+y,z
1/2-x,1/2+y,1/2-z
1/2-x,1/2-y,-z
1/2+x,1/2-y,1/2+z
loop_
_atom_site_type_symbol
_atom_site_label
_atom_site_fract_x
_atom_site_fract_y
_atom_site_fract_z
Si Si1 0.586156 0.333191 0.154944
Si Si2 0.050029 0.655092 0.120427
Si Si3 0.466261 0.059772 0.788019
Si Si4 0.318419 0.450883 0.634441
Si Si5 0.377570 0.193313 0.791717
Si Si6 0.159758 0.053765 0.095471
Si Si7 0.348296 0.618029 0.674453
Si Si8 0.169990 0.663654 0.098210
O O1 0.549112 0.244514 0.126757
O O2 0.741146 0.350588 0.228408
O O3 0.643697 0.347169 0.260258
O O4 0.417571 0.388426 0.009306
O O5 0.233558 0.609389 0.280460
O O6 0.034835 0.640187 0.043936
O O7 0.864778 0.627087 0.009461
O O8 0.500000 0.060119 0.750000
O O9 0.396568 0.142677 0.752489
O O10 0.310177 0.998515 0.681700
O O11 0.654958 0.041518 0.965097
O O12 0.500000 0.407589 0.750000
O O13 0.394336 0.530564 0.713093
O O14 0.260629 0.412262 0.646038
O O15 0.322691 0.277948 0.735956
O O16 0.569505 0.203482 0.970674
O O17 0.000000 0.000000 0.000000
O O18 0.500000 0.656729 0.750000
#
# Coordination Sequence:
#
# PCOD8146727 Si02
#       8
#     8   8   8   8   8   8   8   8
#     4  11  24  42  67  97 133 172 219 275 328 397
#     4  11  24  44  67  98 132 174 222 274 331 397
#     4  11  25  43  66  96 137 172 221 281 330 399
#     4  10  24  43  64  94 129 178 219 263 337 395
#     4  10  22  42  63 100 128 175 217 268 338 394
#     4  12  26  41  69 101 134 176 225 274 339 395
#     4  11  24  43  66  93 129 172 223 275 329 392
#     4  10  23  39  69  94 134 171 220 275 325 406
#
# _framework density 20.372782000000001
#
# number of rings (size 3 to 8) (size 9 to 14) (size 15 to 20)
#    0.000    1.250    3.750    0.750   10.500    2.500 
#    0.000    3.750    0.000    0.000    0.000    0.000 
#    0.000    0.000    0.000    0.000    0.000    0.000 
#
# Total GULP energy -396585.487622 kJ/mol
# GULP energy per Si atom -12393.296488 kJ/mol
# Density = 2.032641 g / cm^3
# Si number density = 20.372782 Si / 1000 Ang^3
#
#
#
# Elastic Constant Matrix: (Units=GPa)
#
#
# Indices 1 2 3 4 5 6 
#
# 1 138.5396 50.5672 43.1529 0.0510 7.2880 0.0231
# 2 50.5672 77.3741 36.2820 -0.8035 4.7472 -0.2099
# 3 43.1529 36.2820 84.0401 -0.5707 16.7172 -0.1837
# 4 0.0510 -0.8035 -0.5707 -12.2731 -0.0914 -8.5303
# 5 7.2880 4.7472 16.7172 -0.0914 34.4974 -0.0086
# 6 0.0231 -0.2099 -0.1837 -8.5303 -0.0086 24.6881
#
#
#
# Elastic Compliance Matrix: (Units=1/GPa)
#
#
# Indices 1 2 3 4 5 6 
#
# 1 0.010012 -0.005177 -0.002904 0.000458 0.000006 0.000083
# 2 -0.005177 0.018927 -0.005775 -0.000877 0.001285 -0.000180
# 3 -0.002904 -0.005775 0.017265 -0.000355 -0.006959 -0.000043
# 4 0.000458 -0.000877 -0.000355 -0.065634 0.000016 -0.022688
# 5 0.000006 0.001285 -0.006959 0.000016 0.032182 -0.000024
# 6 0.000083 -0.000180 -0.000043 -0.022688 -0.000024 0.032664
#
#
# Mechanical properties :
#
#
# Convention : Reuss Voigt Hill
#
# Bulk Modulus (GPa) = 54.07524 62.21756 58.14640
# Shear Modulus (GPa) = 63.05850 20.71260 41.88555
#
# Velocity S-wave (km/s) = 5.56952 3.19200 4.53918
# Velocity P-wave (km/s) = 8.24378 6.64763 7.48835
#
# Compressibility (1/GPa) = 0.01849275
#
# Stress axis : x y z
#
# Youngs Moduli (GPa) = 99.88330 52.83436 57.92015
#
# Poissons Ratio (x) = 0.27351 0.16818
# Poissons Ratio (y) = 0.51708 0.33449
# Poissons Ratio (z) = 0.29003 0.30512
#
# Static dielectric constant tensor:
#      x y z
#    x 3.964190 -0.000210 0.236600 
#    y -0.000210 3.654170 -0.000430 
#    z 0.236600 -0.000430 3.861430 
# 
# 
# High freq. dielectric constant tensor:
#      x y z
#    x 1.796980 -0.000010 0.005150 
#    y -0.000010 1.799880 -0.000030 
#    z 0.005150 -0.000030 1.803580 
# 
# From -- ./inp_files/70590.got.cif
#   From: 2010.06.25/outbox.cif.g09.slc.cpg/sg15_36_cif.got.tgz:70590.got - 2010.06.28 07:06:18.
