data_PCOD8146251
_publ_section_title
;
Structure prediction by ZEFSAII (Michael W. Deem and Ramdas Pophale) SiO2 
 PCOD8146251
Probable space group: C 2/C
;
_chemical_formula_sum "Si O2"
_cell_formula_units_Z 64
_cell_length_a 11.977154
_cell_length_b 14.903454
_cell_length_c 27.513160
_cell_angle_alpha 90.000000
_cell_angle_beta 140.850329
_cell_angle_gamma 90.000000
_cell_volume 3100.630991
_symmetry_space_group_name_H-M "C 2/C"
_symmetry_group_IT_number 15
_symmetry_cell_setting 'monoclinic'
loop_
_space_group_symop_operation_xyz
x,y,z
-x,y,1/2-z
-x,-y,-z
x,-y,1/2+z
1/2+x,1/2+y,z
1/2-x,1/2+y,1/2-z
1/2-x,1/2-y,-z
1/2+x,1/2-y,1/2+z
loop_
_atom_site_type_symbol
_atom_site_label
_atom_site_fract_x
_atom_site_fract_y
_atom_site_fract_z
Si Si1 0.433428 0.158307 0.400379
Si Si2 0.307219 0.136041 0.844714
Si Si3 0.339550 0.448654 0.921792
Si Si4 0.312051 0.244615 0.937368
Si Si5 0.591934 0.695862 0.681865
Si Si6 0.368920 0.503625 0.324365
Si Si7 0.637212 0.539717 0.333990
Si Si8 0.493557 0.004160 0.352147
O O1 0.575534 0.212864 0.478946
O O2 0.336407 0.225509 0.329417
O O3 0.297028 0.110521 0.391239
O O4 0.537103 0.081074 0.406041
O O5 0.384149 0.201807 0.911591
O O6 0.188629 0.193333 0.766846
O O7 0.194354 0.057017 0.832092
O O8 0.472102 0.091964 0.871492
O O9 0.327652 0.350675 0.940182
O O10 0.369727 0.442800 0.874634
O O11 0.155757 0.501774 0.869431
O O12 0.500000 0.500000 0.000000
O O13 0.112440 0.213954 0.877123
O O14 0.625539 0.602961 0.664950
O O15 0.546894 0.530592 0.355827
O O16 0.192093 0.530542 0.235709
O O17 0.500000 0.582445 0.250000
#
# Coordination Sequence:
#
# PCOD8146251 Si02
#       8
#     8   8   8   8   8   8   8   8
#     4  11  24  37  65 100 131 164 218 273 324 383
#     4  10  22  40  71 101 128 161 225 283 316 379
#     4  12  28  44  64  92 140 181 217 265 329 395
#     4  12  24  40  65 100 129 170 231 267 316 381
#     4  11  21  41  68  96 129 169 226 269 310 387
#     4  11  23  43  71  94 130 170 221 267 329 398
#     4  11  19  42  66 102 126 165 213 275 334 388
#     4  10  23  43  68  96 129 171 223 264 336 389
#
# _framework density 20.640961000000001
#
# number of rings (size 3 to 8) (size 9 to 14) (size 15 to 20)
#    0.000    1.000    6.250    1.875    3.500    4.000 
#    0.000    8.750    0.000    0.000    0.000    0.000 
#    0.000    0.000    0.000    0.000    0.000    0.000 
#
# Total GULP energy -396811.944059 kJ/mol
# GULP energy per Si atom -12400.373252 kJ/mol
# Density = 2.059398 g / cm^3
# Si number density = 20.640961 Si / 1000 Ang^3
#
#
#
# Elastic Constant Matrix: (Units=GPa)
#
#
# Indices 1 2 3 4 5 6 
#
# 1 133.8803 35.5058 43.4625 0.0000 1.2488 0.0000
# 2 35.5058 86.5334 50.4961 0.0000 6.8365 0.0000
# 3 43.4625 50.4961 79.6241 0.0000 -13.7253 0.0000
# 4 0.0000 0.0000 0.0000 33.9020 0.0000 -7.9330
# 5 1.2488 6.8365 -13.7253 0.0000 23.5837 0.0000
# 6 0.0000 0.0000 0.0000 -7.9330 0.0000 30.5921
#
#
#
# Elastic Compliance Matrix: (Units=1/GPa)
#
#
# Indices 1 2 3 4 5 6 
#
# 1 0.009390 -0.000335 -0.005537 0.000000 -0.003622 0.000000
# 2 -0.000335 0.023199 -0.017435 0.000000 -0.016854 0.000000
# 3 -0.005537 -0.017435 0.030633 0.000000 0.023175 0.000000
# 4 0.000000 0.000000 0.000000 0.031402 0.000000 0.008143
# 5 -0.003622 -0.016854 0.023175 0.000000 0.060967 0.000000
# 6 0.000000 0.000000 0.000000 0.008143 0.000000 0.034800
#
#
# Mechanical properties :
#
#
# Convention : Reuss Voigt Hill
#
# Bulk Modulus (GPa) = 60.21320 62.10738 61.16029
# Shear Modulus (GPa) = 20.61501 28.98711 24.80106
#
# Velocity S-wave (km/s) = 3.16372 3.75153 3.47009
# Velocity P-wave (km/s) = 6.52537 6.99428 6.76389
#
# Compressibility (1/GPa) = 0.01660765
#
# Stress axis : x y z
#
# Youngs Moduli (GPa) = 106.50066 43.10461 32.64449
#
# Poissons Ratio (x) = 0.01446 0.18075
# Poissons Ratio (y) = 0.03572 0.56915
# Poissons Ratio (z) = 0.58969 0.75152
#
# Static dielectric constant tensor:
#      x y z
#    x 3.944040 0.000000 -0.178620 
#    y 0.000000 4.024610 0.000000 
#    z -0.178620 0.000000 3.777050 
# 
# 
# High freq. dielectric constant tensor:
#      x y z
#    x 1.811330 0.000000 -0.009510 
#    y 0.000000 1.806430 0.000000 
#    z -0.009510 0.000000 1.798340 
# 
# From -- ./inp_files/293094.got.cif
#   From: 2010.06.25/outbox.cif.g09.slc.cpg/sg15_147_cif.got.tgz:293094.got - 2010.06.28 07:06:18.
