data_PCOD8146046
_publ_section_title
;
Structure prediction by ZEFSAII (Michael W. Deem and Ramdas Pophale) SiO2 
 PCOD8146046
Probable space group: C 2/C
;
_chemical_formula_sum "Si O2"
_cell_formula_units_Z 48
_cell_length_a 15.430929
_cell_length_b 10.050771
_cell_length_c 14.350004
_cell_angle_alpha 90.000000
_cell_angle_beta 85.454153
_cell_angle_gamma 90.000000
_cell_volume 2218.580189
_symmetry_space_group_name_H-M "C 2/C"
_symmetry_group_IT_number 15
_symmetry_cell_setting 'monoclinic'
loop_
_space_group_symop_operation_xyz
x,y,z
-x,y,1/2-z
-x,-y,-z
x,-y,1/2+z
1/2+x,1/2+y,z
1/2-x,1/2+y,1/2-z
1/2-x,1/2-y,-z
1/2+x,1/2-y,1/2+z
loop_
_atom_site_type_symbol
_atom_site_label
_atom_site_fract_x
_atom_site_fract_y
_atom_site_fract_z
Si Si1 0.827779 0.728190 0.919375
Si Si2 0.016282 0.781471 0.490597
Si Si3 0.179378 0.017479 0.627804
Si Si4 0.624030 0.534559 0.430446
Si Si5 0.779080 0.490934 0.791281
Si Si6 0.921222 0.727670 0.323885
O O1 0.852567 0.865125 0.864768
O O2 0.805530 0.622572 0.843290
O O3 0.750000 0.750000 0.000000
O O4 0.916907 0.682132 0.963083
O O5 0.950591 0.853840 0.567348
O O6 0.958347 0.697330 0.423544
O O7 0.076977 0.891228 0.433444
O O8 0.187140 0.053072 0.516888
O O9 0.268996 0.023765 0.681167
O O10 0.110868 0.119540 0.679664
O O11 0.683894 0.553633 0.335238
O O12 0.844845 0.371686 0.802796
O O13 0.000000 0.702443 0.250000
#
# Coordination Sequence:
#
# PCOD8146046 Si02
#       6
#     8   8   8   8   8   8
#     4  11  22  42  67  97 128 174 215 271 329 388
#     4   9  19  38  64  86 129 171 219 257 324 393
#     4  10  22  40  65  96 126 177 220 259 321 401
#     4   9  19  39  63  94 122 175 222 263 312 393
#     4  12  23  39  68 100 134 170 216 280 332 382
#     4  11  25  40  62  97 134 174 219 276 329 383
#
# _framework density 21.635458
#
# number of rings (size 3 to 8) (size 9 to 14) (size 15 to 20)
#    0.000    1.667    3.333    3.000    2.333    3.333 
#    0.000    4.167    0.000    0.000    0.000    0.000 
#    0.000    0.000    0.000    0.000    0.000    0.000 
#
# Total GULP energy -297394.476156 kJ/mol
# GULP energy per Si atom -12391.436506 kJ/mol
# Density = 2.158622 g / cm^3
# Si number density = 21.635458 Si / 1000 Ang^3
#
#
#
# Elastic Constant Matrix: (Units=GPa)
#
#
# Indices 1 2 3 4 5 6 
#
# 1 127.4462 37.1542 33.4209 0.0000 23.0422 0.0000
# 2 37.1542 74.4166 20.5944 0.0000 -2.7701 0.0000
# 3 33.4209 20.5944 48.1237 0.0000 20.0176 0.0000
# 4 0.0000 0.0000 0.0000 18.5289 0.0000 13.2974
# 5 23.0422 -2.7701 20.0176 0.0000 51.6811 0.0000
# 6 0.0000 0.0000 0.0000 13.2974 0.0000 32.1989
#
#
#
# Elastic Compliance Matrix: (Units=1/GPa)
#
#
# Indices 1 2 3 4 5 6 
#
# 1 0.010853 -0.004374 -0.004238 0.000000 -0.003432 0.000000
# 2 -0.004374 0.017727 -0.006860 0.000000 0.005557 0.000000
# 3 -0.004238 -0.006860 0.031024 0.000000 -0.010495 0.000000
# 4 0.000000 0.000000 0.000000 0.076703 0.000000 -0.031676
# 5 -0.003432 0.005557 -0.010495 0.000000 0.025242 0.000000
# 6 0.000000 0.000000 0.000000 -0.031676 0.000000 0.044139
#
#
# Mechanical properties :
#
#
# Convention : Reuss Voigt Hill
#
# Bulk Modulus (GPa) = 34.89168 48.03615 41.46391
# Shear Modulus (GPa) = 20.30981 31.06959 25.68970
#
# Velocity S-wave (km/s) = 3.06719 3.79364 3.44959
# Velocity P-wave (km/s) = 5.35776 6.43736 5.92221
#
# Compressibility (1/GPa) = 0.02866013
#
# Stress axis : x y z
#
# Youngs Moduli (GPa) = 92.13726 56.41119 32.23262
#
# Poissons Ratio (x) = 0.24672 0.13661
# Poissons Ratio (y) = 0.40297 0.22113
# Poissons Ratio (z) = 0.39050 0.38701
#
# Static dielectric constant tensor:
#      x y z
#    x 4.208980 0.000000 0.416350 
#    y 0.000000 3.796280 0.000000 
#    z 0.416350 0.000000 3.939560 
# 
# 
# High freq. dielectric constant tensor:
#      x y z
#    x 1.856320 0.000000 0.028440 
#    y 0.000000 1.827860 0.000000 
#    z 0.028440 0.000000 1.837990 
# 
# From -- ./inp_files/151953.got.cif
#   From: 2010.06.25/outbox.cif.g09.slc.cpg/sg15_76_cif.got.tgz:151953.got - 2010.06.28 07:06:18.
