data_PCOD8146392
_publ_section_title
;
Structure prediction by ZEFSAII (Michael W. Deem and Ramdas Pophale) SiO2 
 PCOD8146392
Probable space group: C 2/C
;
_chemical_formula_sum "Si O2"
_cell_formula_units_Z 32
_cell_length_a 14.511884
_cell_length_b 17.777491
_cell_length_c 12.426051
_cell_angle_alpha 90.000000
_cell_angle_beta 27.317299
_cell_angle_gamma 90.000000
_cell_volume 1471.168196
_symmetry_space_group_name_H-M "C 2/C"
_symmetry_group_IT_number 15
_symmetry_cell_setting 'monoclinic'
loop_
_space_group_symop_operation_xyz
x,y,z
-x,y,1/2-z
-x,-y,-z
x,-y,1/2+z
1/2+x,1/2+y,z
1/2-x,1/2+y,1/2-z
1/2-x,1/2-y,-z
1/2+x,1/2-y,1/2+z
loop_
_atom_site_type_symbol
_atom_site_label
_atom_site_fract_x
_atom_site_fract_y
_atom_site_fract_z
Si Si1 0.739648 0.926902 0.310297
Si Si2 0.430458 0.079971 0.941832
Si Si3 0.486702 0.797799 0.645669
Si Si4 0.629929 0.656337 0.394076
O O1 0.629191 0.925785 0.309333
O O2 0.667842 0.856600 0.455657
O O3 0.693385 0.002456 0.423350
O O4 0.980066 0.915286 0.049118
O O5 0.500000 0.098227 0.750000
O O6 0.279235 0.146676 0.136630
O O7 0.500000 0.760099 0.750000
O O8 0.509210 0.735379 0.526410
O O9 0.277895 0.842601 0.844570
#
# Coordination Sequence:
#
# PCOD8146392 Si02
#       4
#     8   8   8   8
#     4  10  22  41  64  94 126 159 212 267 313 377
#     4  10  23  44  64  90 128 166 210 260 313 374
#     4  11  22  38  63  98 132 161 205 267 320 370
#     4  11  22  38  63  94 128 164 208 256 315 378
#
# _framework density 21.751421000000001
#
# number of rings (size 3 to 8) (size 9 to 14) (size 15 to 20)
#    0.000    1.500    2.500    2.250    0.000    1.000 
#    0.000    7.500    0.000    0.000    0.000    0.000 
#    0.000    0.000    0.000    0.000    0.000    0.000 
#
# Total GULP energy -198262.693423 kJ/mol
# GULP energy per Si atom -12391.418339 kJ/mol
# Density = 2.170191 g / cm^3
# Si number density = 21.751421 Si / 1000 Ang^3
#
#
#
# Elastic Constant Matrix: (Units=GPa)
#
#
# Indices 1 2 3 4 5 6 
#
# 1 90.5088 39.0324 83.4655 -0.0327 3.7828 0.0102
# 2 39.0324 100.3735 54.6351 -0.0464 15.3861 0.0327
# 3 83.4655 54.6351 140.4926 -0.0661 -2.7900 0.0587
# 4 -0.0327 -0.0464 -0.0661 42.1000 0.0510 -3.6518
# 5 3.7828 15.3861 -2.7900 0.0510 44.7083 -0.0299
# 6 0.0102 0.0327 0.0587 -3.6518 -0.0299 24.3844
#
#
#
# Elastic Compliance Matrix: (Units=1/GPa)
#
#
# Indices 1 2 3 4 5 6 
#
# 1 0.025016 -0.001564 -0.014303 0.000000 -0.002471 0.000023
# 2 -0.001564 0.013787 -0.004529 0.000012 -0.004895 -0.000011
# 3 -0.014303 -0.004529 0.017453 0.000005 0.003858 -0.000025
# 4 0.000000 0.000012 0.000005 0.024066 -0.000029 0.003604
# 5 -0.002471 -0.004895 0.003858 -0.000029 0.024502 0.000024
# 6 0.000023 -0.000011 -0.000025 0.003604 0.000024 0.041550
#
#
# Mechanical properties :
#
#
# Convention : Reuss Voigt Hill
#
# Bulk Modulus (GPa) = 64.66860 76.18234 70.42547
# Shear Modulus (GPa) = 25.99837 32.52133 29.25985
#
# Velocity S-wave (km/s) = 3.46099 3.87089 3.67167
# Velocity P-wave (km/s) = 6.76510 7.42149 7.10088
#
# Compressibility (1/GPa) = 0.01546346
#
# Stress axis : x y z
#
# Youngs Moduli (GPa) = 39.97430 72.53296 57.29692
#
# Poissons Ratio (x) = 0.11345 0.81950
# Poissons Ratio (y) = 0.06252 0.25952
# Poissons Ratio (z) = 0.57174 0.32853
#
# Static dielectric constant tensor:
#      x y z
#    x 3.637490 -0.000170 -0.237950 
#    y -0.000170 3.945280 0.000200 
#    z -0.237950 0.000200 4.162830 
# 
# 
# High freq. dielectric constant tensor:
#      x y z
#    x 1.830240 -0.000010 -0.025780 
#    y -0.000010 1.851740 0.000010 
#    z -0.025780 0.000010 1.867360 
# 
# From -- ./inp_files/89929.got.cif
#   From: 2010.06.25/outbox.cif.g09.slc.cpg/sg15_45_cif.got.tgz:89929.got - 2010.06.28 07:06:18.
