data_PCOD8146324
_publ_section_title
;
Structure prediction by ZEFSAII (Michael W. Deem and Ramdas Pophale) SiO2 
 PCOD8146324
Probable space group: C 2/C
;
_chemical_formula_sum "Si O2"
_cell_formula_units_Z 52
_cell_length_a 6.523936
_cell_length_b 26.689222
_cell_length_c 14.452275
_cell_angle_alpha 90.000000
_cell_angle_beta 73.353068
_cell_angle_gamma 90.000000
_cell_volume 2410.945164
_symmetry_space_group_name_H-M "C 2/C"
_symmetry_group_IT_number 15
_symmetry_cell_setting 'monoclinic'
loop_
_space_group_symop_operation_xyz
x,y,z
-x,y,1/2-z
-x,-y,-z
x,-y,1/2+z
1/2+x,1/2+y,z
1/2-x,1/2+y,1/2-z
1/2-x,1/2-y,-z
1/2+x,1/2-y,1/2+z
loop_
_atom_site_type_symbol
_atom_site_label
_atom_site_fract_x
_atom_site_fract_y
_atom_site_fract_z
Si Si1 0.148708 0.785824 0.645822
Si Si2 0.571462 0.390411 0.055506
Si Si3 0.124158 0.100827 0.117280
Si Si4 0.000000 0.950707 0.250000
Si Si5 0.259805 0.963684 0.789462
Si Si6 0.443135 0.045793 0.445484
Si Si7 0.471822 0.276327 0.465464
O O1 0.188407 0.844998 0.646743
O O2 0.369143 0.754561 0.622266
O O3 0.000000 0.767690 0.750000
O O4 0.043506 0.775434 0.561631
O O5 0.496567 0.417381 0.158758
O O6 0.561448 0.331203 0.073455
O O7 0.414389 0.401932 0.988692
O O8 0.818429 0.407636 0.008904
O O9 0.324425 0.065586 0.122761
O O10 0.911709 0.081235 0.197741
O O11 0.205652 0.987788 0.232893
O O12 0.500000 0.942218 0.750000
O O13 0.272359 0.978768 0.896234
O O14 0.500000 0.000000 0.500000
O O15 0.250000 0.250000 0.500000
#
# Coordination Sequence:
#
# PCOD8146324 Si02
#       7
#     8   8   8   4   8   8   8
#     4  10  23  40  67  98 127 166 215 274 341 385
#     4  10  23  40  61  91 121 172 214 259 327 384
#     4  10  22  41  62  90 130 163 210 272 324 384
#     4  12  24  40  58  88 134 166 218 260 308 392
#     4  11  23  36  57  89 124 168 209 258 313 376
#     4  11  21  37  61  86 123 171 213 258 320 376
#     4  10  22  45  66  94 131 165 215 277 330 396
#
# _framework density 21.568307000000001
#
# number of rings (size 3 to 8) (size 9 to 14) (size 15 to 20)
#    0.000    1.538    0.000    4.615    3.231    4.308 
#    0.000    0.769    0.000    0.000    0.000    0.000 
#    0.000    0.000    0.000    0.000    0.000    0.000 
#
# Total GULP energy -322122.552199 kJ/mol
# GULP energy per Si atom -12389.328931 kJ/mol
# Density = 2.151922 g / cm^3
# Si number density = 21.568307 Si / 1000 Ang^3
#
#
#
# Elastic Constant Matrix: (Units=GPa)
#
#
# Indices 1 2 3 4 5 6 
#
# 1 132.7321 84.2032 45.7633 0.0000 -10.0495 0.0000
# 2 84.2032 169.2960 63.1999 0.0000 -6.9783 0.0000
# 3 45.7633 63.1999 109.6632 0.0000 -16.1057 0.0000
# 4 0.0000 0.0000 0.0000 35.5105 0.0000 -1.1594
# 5 -10.0495 -6.9783 -16.1057 0.0000 41.9833 0.0000
# 6 0.0000 0.0000 0.0000 -1.1594 0.0000 41.5653
#
#
#
# Elastic Compliance Matrix: (Units=1/GPa)
#
#
# Indices 1 2 3 4 5 6 
#
# 1 0.011365 -0.004968 -0.001697 0.000000 0.001244 0.000000
# 2 -0.004968 0.009705 -0.003664 0.000000 -0.000982 0.000000
# 3 -0.001697 -0.003664 0.012493 0.000000 0.003778 0.000000
# 4 0.000000 0.000000 0.000000 0.028186 0.000000 0.000786
# 5 0.001244 -0.000982 0.003778 0.000000 0.025403 0.000000
# 6 0.000000 0.000000 0.000000 0.000786 0.000000 0.024080
#
#
# Mechanical properties :
#
#
# Convention : Reuss Voigt Hill
#
# Bulk Modulus (GPa) = 77.48694 88.66932 83.07813
# Shear Modulus (GPa) = 36.71281 38.38015 37.54648
#
# Velocity S-wave (km/s) = 4.13021 4.22295 4.17684
# Velocity P-wave (km/s) = 7.66480 8.06089 7.86534
#
# Compressibility (1/GPa) = 0.01290540
#
# Stress axis : x y z
#
# Youngs Moduli (GPa) = 87.99211 103.03920 80.04168
#
# Poissons Ratio (x) = 0.51187 0.13583
# Poissons Ratio (y) = 0.43712 0.29329
# Poissons Ratio (z) = 0.14932 0.37756
#
# Static dielectric constant tensor:
#      x y z
#    x 4.330420 0.000000 0.232600 
#    y 0.000000 3.997990 0.000000 
#    z 0.232600 0.000000 4.478530 
# 
# 
# High freq. dielectric constant tensor:
#      x y z
#    x 1.860840 0.000000 0.013510 
#    y 0.000000 1.841160 0.000000 
#    z 0.013510 0.000000 1.864390 
# 
# From -- ./inp_files/130698.got.cif
#   From: 2010.06.25/outbox.cif.g09.slc.cpg/sg15_66_cif.got.tgz:130698.got - 2010.06.28 07:06:18.
