data_PCOD8146141
_publ_section_title
;
Structure prediction by ZEFSAII (Michael W. Deem and Ramdas Pophale) SiO2 
 PCOD8146141
Probable space group: C 2/C
;
_chemical_formula_sum "Si O2"
_cell_formula_units_Z 48
_cell_length_a 13.257224
_cell_length_b 9.174873
_cell_length_c 18.548126
_cell_angle_alpha 90.000000
_cell_angle_beta 95.004833
_cell_angle_gamma 90.000000
_cell_volume 2247.469013
_symmetry_space_group_name_H-M "C 2/C"
_symmetry_group_IT_number 15
_symmetry_cell_setting 'monoclinic'
loop_
_space_group_symop_operation_xyz
x,y,z
-x,y,1/2-z
-x,-y,-z
x,-y,1/2+z
1/2+x,1/2+y,z
1/2-x,1/2+y,1/2-z
1/2-x,1/2-y,-z
1/2+x,1/2-y,1/2+z
loop_
_atom_site_type_symbol
_atom_site_label
_atom_site_fract_x
_atom_site_fract_y
_atom_site_fract_z
Si Si1 0.000000 0.960449 0.750000
Si Si2 0.292531 0.098274 0.585645
Si Si3 0.837025 0.723764 0.740837
Si Si4 0.000000 0.510289 0.250000
Si Si5 0.405851 0.685719 0.007767
Si Si6 0.962109 0.913401 0.103907
Si Si7 0.166052 0.686466 0.343124
O O1 0.901120 0.866511 0.725918
O O2 0.024576 0.060290 0.681910
O O3 0.284449 0.169150 0.664378
O O4 0.391962 0.162094 0.550254
O O5 0.199469 0.131317 0.529409
O O6 0.291792 0.924471 0.594579
O O7 0.748385 0.773665 0.788411
O O8 0.912380 0.597611 0.778344
O O9 0.940021 0.614784 0.191344
O O10 0.480926 0.701102 0.944833
O O11 0.448578 0.568521 0.066190
O O12 0.856341 0.837973 0.118106
#
# Coordination Sequence:
#
# PCOD8146141 Si02
#       7
#     4   8   8   4   8   8   8
#     4  11  21  40  66  96 126 174 222 276 328 394
#     4  10  22  43  63  92 131 177 214 272 338 400
#     4  10  22  40  67  96 136 172 219 283 342 392
#     4   9  23  40  60 104 138 170 218 288 346 390
#     4  10  23  43  64  89 134 173 219 264 333 419
#     4  11  24  39  65  98 124 175 222 269 336 406
#     4  11  24  40  67 102 131 170 226 281 342 394
#
# _framework density 21.357357
#
# number of rings (size 3 to 8) (size 9 to 14) (size 15 to 20)
#    0.000    1.667    1.667    1.500    9.333    1.333 
#    3.000    0.000    0.000    0.000    0.000    0.000 
#    0.000    0.000    0.000    0.000    0.000    0.000 
#
# Total GULP energy -297398.357639 kJ/mol
# GULP energy per Si atom -12391.598235 kJ/mol
# Density = 2.130875 g / cm^3
# Si number density = 21.357357 Si / 1000 Ang^3
#
#
#
# Elastic Constant Matrix: (Units=GPa)
#
#
# Indices 1 2 3 4 5 6 
#
# 1 58.4653 3.2079 22.8731 0.0000 -11.2487 0.0000
# 2 3.2079 54.2906 18.3286 0.0000 -12.0178 0.0000
# 3 22.8731 18.3286 97.0022 0.0000 -14.7172 0.0000
# 4 0.0000 0.0000 0.0000 -49.5963 0.0000 -4.3782
# 5 -11.2487 -12.0178 -14.7172 0.0000 33.5995 0.0000
# 6 0.0000 0.0000 0.0000 -4.3782 0.0000 27.3098
#
#
#
# Elastic Compliance Matrix: (Units=1/GPa)
#
#
# Indices 1 2 3 4 5 6 
#
# 1 0.019646 0.001390 -0.004094 0.000000 0.005281 0.000000
# 2 0.001390 0.020885 -0.003289 0.000000 0.006495 0.000000
# 3 -0.004094 -0.003289 0.012329 0.000000 0.002853 0.000000
# 4 0.000000 0.000000 0.000000 -0.019881 0.000000 -0.003187
# 5 0.005281 0.006495 0.002853 0.000000 0.035103 0.000000
# 6 0.000000 0.000000 0.000000 -0.003187 0.000000 0.036106
#
#
# Mechanical properties :
#
#
# Convention : Reuss Voigt Hill
#
# Bulk Modulus (GPa) = 24.46475 33.17527 28.82001
# Shear Modulus (GPa) = 38.52172 13.28584 25.90378
#
# Velocity S-wave (km/s) = 4.25158 2.49685 3.48641
# Velocity P-wave (km/s) = 5.96498 4.88666 5.45254
#
# Compressibility (1/GPa) = 0.04087514
#
# Stress axis : x y z
#
# Youngs Moduli (GPa) = 50.90199 47.88060 81.11164
#
# Poissons Ratio (x) = -0.06657 0.33206
# Poissons Ratio (y) = -0.07077 0.26675
# Poissons Ratio (z) = 0.20839 0.15746
#
# Static dielectric constant tensor:
#      x y z
#    x 3.867020 0.000000 -0.145300 
#    y 0.000000 4.148200 0.000000 
#    z -0.145300 0.000000 4.006870 
# 
# 
# High freq. dielectric constant tensor:
#      x y z
#    x 1.830190 0.000000 -0.000710 
#    y 0.000000 1.842350 0.000000 
#    z -0.000710 0.000000 1.836220 
# 
# From -- ./inp_files/203047.got.cif
#   From: 2010.06.25/outbox.cif.g09.slc.cpg/sg15_102_cif.got.tgz:203047.got - 2010.06.28 07:06:18.
