data_PCOD8146082
_publ_section_title
;
Structure prediction by ZEFSAII (Michael W. Deem and Ramdas Pophale) SiO2 
 PCOD8146082
Probable space group: C 2/C
;
_chemical_formula_sum "Si O2"
_cell_formula_units_Z 44
_cell_length_a 13.013076
_cell_length_b 11.627627
_cell_length_c 16.147344
_cell_angle_alpha 90.000000
_cell_angle_beta 56.895439
_cell_angle_gamma 90.000000
_cell_volume 2046.670053
_symmetry_space_group_name_H-M "C 2/C"
_symmetry_group_IT_number 15
_symmetry_cell_setting 'monoclinic'
loop_
_space_group_symop_operation_xyz
x,y,z
-x,y,1/2-z
-x,-y,-z
x,-y,1/2+z
1/2+x,1/2+y,z
1/2-x,1/2+y,1/2-z
1/2-x,1/2-y,-z
1/2+x,1/2-y,1/2+z
loop_
_atom_site_type_symbol
_atom_site_label
_atom_site_fract_x
_atom_site_fract_y
_atom_site_fract_z
Si Si1 0.136902 0.774742 0.718763
Si Si2 0.500000 0.118748 0.250000
Si Si3 0.929542 0.867637 0.587266
Si Si4 0.725803 0.963414 0.131521
Si Si5 0.841302 0.962585 0.919910
Si Si6 0.389442 0.712075 0.927907
O O1 0.146609 0.792004 0.813055
O O2 0.223762 0.668092 0.660584
O O3 0.184529 0.891604 0.652491
O O4 0.000000 0.744091 0.750000
O O5 0.528891 0.197160 0.157849
O O6 0.615730 0.037611 0.219130
O O7 0.946836 0.798284 0.494365
O O8 0.059647 0.893140 0.569954
O O9 0.856435 0.985660 0.602555
O O10 0.721058 0.969402 0.032441
O O11 0.889928 0.090535 0.877901
O O12 0.250000 0.750000 0.000000
#
# Coordination Sequence:
#
# PCOD8146082 Si02
#       6
#     8   4   8   8   8   8
#     4  10  22  40  66  92 127 165 208 258 321 380
#     4  12  24  38  66  92 128 174 206 270 332 360
#     4  10  23  40  63  98 122 165 216 264 311 384
#     4  11  21  41  62  91 130 162 211 267 318 375
#     4  10  22  42  64  92 124 169 212 261 316 382
#     4  11  22  41  63  93 132 164 215 265 317 381
#
# _framework density 21.498335000000001
#
# number of rings (size 3 to 8) (size 9 to 14) (size 15 to 20)
#    0.000    1.455    4.545    2.727    3.818    4.364 
#    0.000    0.909    0.000    0.000    0.000    0.000 
#    0.000    0.000    0.000    0.000    0.000    0.000 
#
# Total GULP energy -272769.303607 kJ/mol
# GULP energy per Si atom -12398.604709 kJ/mol
# Density = 2.144940 g / cm^3
# Si number density = 21.498335 Si / 1000 Ang^3
#
#
#
# Elastic Constant Matrix: (Units=GPa)
#
#
# Indices 1 2 3 4 5 6 
#
# 1 30.8609 10.2908 20.1957 0.0000 8.3979 0.0000
# 2 10.2908 118.1847 55.8944 0.0000 14.3877 0.0000
# 3 20.1957 55.8944 124.9631 0.0000 6.7190 0.0000
# 4 0.0000 0.0000 0.0000 48.2075 0.0000 -8.0329
# 5 8.3979 14.3877 6.7190 0.0000 31.2574 0.0000
# 6 0.0000 0.0000 0.0000 -8.0329 0.0000 19.4965
#
#
#
# Elastic Compliance Matrix: (Units=1/GPa)
#
#
# Indices 1 2 3 4 5 6 
#
# 1 0.038695 0.000625 -0.006028 0.000000 -0.009388 0.000000
# 2 0.000625 0.011247 -0.004901 0.000000 -0.004291 0.000000
# 3 -0.006028 -0.004901 0.011089 0.000000 0.001492 0.000000
# 4 0.000000 0.000000 0.000000 0.022273 0.000000 0.009177
# 5 -0.009388 -0.004291 0.001492 0.000000 0.036169 0.000000
# 6 0.000000 0.000000 0.000000 0.009177 0.000000 0.055072
#
#
# Mechanical properties :
#
#
# Convention : Reuss Voigt Hill
#
# Bulk Modulus (GPa) = 24.73943 49.64118 37.19030
# Shear Modulus (GPa) = 23.96614 32.30080 28.13347
#
# Velocity S-wave (km/s) = 3.34247 3.88039 3.62143
# Velocity P-wave (km/s) = 5.14089 6.57399 5.90111
#
# Compressibility (1/GPa) = 0.04042130
#
# Stress axis : x y z
#
# Youngs Moduli (GPa) = 25.84332 88.91069 90.18343
#
# Poissons Ratio (x) = -0.05553 0.54364
# Poissons Ratio (y) = -0.01614 0.44198
# Poissons Ratio (z) = 0.15579 0.43575
#
# Static dielectric constant tensor:
#      x y z
#    x 3.481500 0.000000 0.056110 
#    y 0.000000 4.077410 0.000000 
#    z 0.056110 0.000000 4.505490 
# 
# 
# High freq. dielectric constant tensor:
#      x y z
#    x 1.808560 0.000000 -0.006410 
#    y 0.000000 1.851920 0.000000 
#    z -0.006410 0.000000 1.861910 
# 
# From -- ./inp_files/142327.got.cif
#   From: 2010.06.25/outbox.cif.g09.slc.cpg/sg15_72_cif.got.tgz:142327.got - 2010.06.28 07:06:18.
