data_PCOD8146691
_publ_section_title
;
Structure prediction by ZEFSAII (Michael W. Deem and Ramdas Pophale) SiO2 
 PCOD8146691
Probable space group: C 2/C
;
_chemical_formula_sum "Si O2"
_cell_formula_units_Z 40
_cell_length_a 9.594916
_cell_length_b 10.967371
_cell_length_c 22.590299
_cell_angle_alpha 90.000000
_cell_angle_beta 124.300798
_cell_angle_gamma 90.000000
_cell_volume 1963.782070
_symmetry_space_group_name_H-M "C 2/C"
_symmetry_group_IT_number 15
_symmetry_cell_setting 'monoclinic'
loop_
_space_group_symop_operation_xyz
x,y,z
-x,y,1/2-z
-x,-y,-z
x,-y,1/2+z
1/2+x,1/2+y,z
1/2-x,1/2+y,1/2-z
1/2-x,1/2-y,-z
1/2+x,1/2-y,1/2+z
loop_
_atom_site_type_symbol
_atom_site_label
_atom_site_fract_x
_atom_site_fract_y
_atom_site_fract_z
Si Si1 0.136352 0.649284 0.739503
Si Si2 0.301015 0.805427 0.372358
Si Si3 0.134620 0.101298 0.020322
Si Si4 0.979991 0.801699 0.366005
Si Si5 0.485564 0.029429 0.377769
O O1 0.176475 0.733951 0.691477
O O2 0.311356 0.619016 0.815851
O O3 0.000000 0.714295 0.750000
O O4 0.051150 0.522874 0.697015
O O5 0.385539 0.704973 0.434627
O O6 0.393802 0.938054 0.403062
O O7 0.101285 0.812975 0.337956
O O8 0.315302 0.036324 0.062612
O O9 0.098659 0.159243 0.948238
O O10 0.000000 0.000000 0.000000
O O11 0.910831 0.665280 0.362102
#
# Coordination Sequence:
#
# PCOD8146691 Si02
#       5
#     8   8   8   8   8
#     4  10  22  42  61  95 131 169 217 274 330 391
#     4   9  22  43  65  92 127 174 219 261 339 390
#     4  11  23  40  67  98 130 175 214 277 337 393
#     4  11  22  41  68  95 129 172 227 270 332 402
#     4   9  22  41  64  92 128 171 218 269 330 393
#
# _framework density 20.368859
#
# number of rings (size 3 to 8) (size 9 to 14) (size 15 to 20)
#    1.200    0.800    0.000    4.200    0.000    8.800 
#    7.200    0.000    0.000    0.000    0.000    0.000 
#    0.000    0.000    0.000    0.000    0.000    0.000 
#
# Total GULP energy -247806.251233 kJ/mol
# GULP energy per Si atom -12390.312562 kJ/mol
# Density = 2.032250 g / cm^3
# Si number density = 20.368859 Si / 1000 Ang^3
#
#
#
# Elastic Constant Matrix: (Units=GPa)
#
#
# Indices 1 2 3 4 5 6 
#
# 1 146.1200 57.6883 68.7311 0.0000 8.6343 0.0000
# 2 57.6883 104.2805 34.0123 0.0000 10.4585 0.0000
# 3 68.7311 34.0123 129.9912 0.0000 20.5682 0.0000
# 4 0.0000 0.0000 0.0000 36.1540 0.0000 -1.1147
# 5 8.6343 10.4585 20.5682 0.0000 41.1547 0.0000
# 6 0.0000 0.0000 0.0000 -1.1147 0.0000 34.6160
#
#
#
# Elastic Compliance Matrix: (Units=1/GPa)
#
#
# Indices 1 2 3 4 5 6 
#
# 1 0.010782 -0.004555 -0.004706 0.000000 0.001248 0.000000
# 2 -0.004555 0.012484 -0.000551 0.000000 -0.001942 0.000000
# 3 -0.004706 -0.000551 0.011018 0.000000 -0.004379 0.000000
# 4 0.000000 0.000000 0.000000 0.027687 0.000000 0.000892
# 5 0.001248 -0.001942 -0.004379 0.000000 0.026719 0.000000
# 6 0.000000 0.000000 0.000000 0.000892 0.000000 0.028917
#
#
# Mechanical properties :
#
#
# Convention : Reuss Voigt Hill
#
# Bulk Modulus (GPa) = 68.21377 77.91722 73.06549
# Shear Modulus (GPa) = 35.18212 37.04893 36.11552
#
# Velocity S-wave (km/s) = 4.16053 4.26948 4.21536
# Velocity P-wave (km/s) = 7.52608 7.91459 7.72278
#
# Compressibility (1/GPa) = 0.01465980
#
# Stress axis : x y z
#
# Youngs Moduli (GPa) = 92.74749 80.10518 90.75723
#
# Poissons Ratio (x) = 0.36485 0.42715
# Poissons Ratio (y) = 0.42243 0.05000
# Poissons Ratio (z) = 0.43652 0.04413
#
# Static dielectric constant tensor:
#      x y z
#    x 3.644420 0.000000 -0.071130 
#    y 0.000000 3.718800 0.000000 
#    z -0.071130 0.000000 4.737890 
# 
# 
# High freq. dielectric constant tensor:
#      x y z
#    x 1.799310 0.000000 0.006190 
#    y 0.000000 1.775480 0.000000 
#    z 0.006190 0.000000 1.804550 
# 
# From -- ./inp_files/230002.got.cif
#   From: 2010.06.25/outbox.cif.g09.slc.cpg/sg15_116_cif.got.tgz:230002.got - 2010.06.28 07:06:18.
