data_PCOD8146717
_publ_section_title
;
Structure prediction by ZEFSAII (Michael W. Deem and Ramdas Pophale) SiO2 
 PCOD8146717
Probable space group: C 2/C
;
_chemical_formula_sum "Si O2"
_cell_formula_units_Z 36
_cell_length_a 13.540169
_cell_length_b 21.041938
_cell_length_c 8.433023
_cell_angle_alpha 90.000000
_cell_angle_beta 131.940175
_cell_angle_gamma 90.000000
_cell_volume 1787.205278
_symmetry_space_group_name_H-M "C 2/C"
_symmetry_group_IT_number 15
_symmetry_cell_setting 'monoclinic'
loop_
_space_group_symop_operation_xyz
x,y,z
-x,y,1/2-z
-x,-y,-z
x,-y,1/2+z
1/2+x,1/2+y,z
1/2-x,1/2+y,1/2-z
1/2-x,1/2-y,-z
1/2+x,1/2-y,1/2+z
loop_
_atom_site_type_symbol
_atom_site_label
_atom_site_fract_x
_atom_site_fract_y
_atom_site_fract_z
Si Si1 0.298430 0.717097 0.210485
Si Si2 0.000000 0.020905 0.750000
Si Si3 0.475226 0.197226 0.406494
Si Si4 0.454493 0.934890 0.021636
Si Si5 0.649959 0.575396 0.203675
O O1 0.422048 0.757313 0.399027
O O2 0.176302 0.713626 0.204766
O O3 0.359444 0.647330 0.242364
O O4 0.250000 0.750000 0.000000
O O5 0.938180 0.066362 0.549354
O O6 0.889250 0.974467 0.702925
O O7 0.500000 0.208350 0.250000
O O8 0.513784 0.124971 0.490848
O O9 0.500000 0.926611 0.250000
O O10 0.299916 0.938465 0.825070
O O11 0.500000 0.000000 0.000000
#
# Coordination Sequence:
#
# PCOD8146717 Si02
#       5
#     8   4   8   8   8
#     4  11  24  43  66  95 131 173 224 270 335 398
#     4  10  22  42  62  94 130 170 212 266 332 392
#     4  11  24  42  63  96 128 171 218 273 332 398
#     4  11  22  41  65  94 129 168 220 274 335 392
#     4  10  23  40  64  94 129 167 218 267 329 392
#
# _framework density 20.143180000000001
#
# number of rings (size 3 to 8) (size 9 to 14) (size 15 to 20)
#    0.000    1.333    0.000    6.000    4.667    1.778 
#    4.000    0.000    0.000    0.000    0.000    0.000 
#    0.000    0.000    0.000    0.000    0.000    0.000 
#
# Total GULP energy -223172.975700 kJ/mol
# GULP energy per Si atom -12398.498650 kJ/mol
# Density = 2.009733 g / cm^3
# Si number density = 20.143180 Si / 1000 Ang^3
#
#
#
# Elastic Constant Matrix: (Units=GPa)
#
#
# Indices 1 2 3 4 5 6 
#
# 1 63.7137 31.0392 11.0688 0.0000 -0.1961 0.0000
# 2 31.0392 157.6267 44.1600 0.0000 17.1762 0.0000
# 3 11.0688 44.1600 87.4329 0.0000 -0.2039 0.0000
# 4 0.0000 0.0000 0.0000 43.6522 0.0000 7.3696
# 5 -0.1961 17.1762 -0.2039 0.0000 33.6845 0.0000
# 6 0.0000 0.0000 0.0000 7.3696 0.0000 46.4596
#
#
#
# Elastic Compliance Matrix: (Units=1/GPa)
#
#
# Indices 1 2 3 4 5 6 
#
# 1 0.017496 -0.003533 -0.000426 0.000000 0.001901 0.000000
# 2 -0.003533 0.008621 -0.003917 0.000000 -0.004440 0.000000
# 3 -0.000426 -0.003917 0.013475 0.000000 0.002077 0.000000
# 4 0.000000 0.000000 0.000000 0.023539 0.000000 -0.003734
# 5 0.001901 -0.004440 0.002077 0.000000 0.031975 0.000000
# 6 0.000000 0.000000 0.000000 -0.003734 0.000000 0.022116
#
#
# Mechanical properties :
#
#
# Convention : Reuss Voigt Hill
#
# Bulk Modulus (GPa) = 41.94803 53.47880 47.71342
# Shear Modulus (GPa) = 35.48073 39.59295 37.53684
#
# Velocity S-wave (km/s) = 4.20149 4.43829 4.32151
# Velocity P-wave (km/s) = 6.66384 7.27128 6.97418
#
# Compressibility (1/GPa) = 0.02383902
#
# Stress axis : x y z
#
# Youngs Moduli (GPa) = 57.15509 115.99406 74.21322
#
# Poissons Ratio (x) = 0.40981 0.03162
# Poissons Ratio (y) = 0.20193 0.29072
# Poissons Ratio (z) = 0.02435 0.45439
#
# Static dielectric constant tensor:
#      x y z
#    x 3.722980 0.000000 -0.043240 
#    y 0.000000 4.303510 0.000000 
#    z -0.043240 0.000000 -0.018740 
# 
# 
# High freq. dielectric constant tensor:
#      x y z
#    x 1.789610 0.000000 0.003790 
#    y 0.000000 1.807470 0.000000 
#    z 0.003790 0.000000 1.800420 
# 
# From -- ./inp_files/38884.got.cif
#   From: 2010.06.25/outbox.cif.g09.slc.cpg/sg15_20_cif.got.tgz:38884.got - 2010.06.28 07:06:18.
