data_PCOD8146664
_publ_section_title
;
Structure prediction by ZEFSAII (Michael W. Deem and Ramdas Pophale) SiO2 
 PCOD8146664
Probable space group: C 2/C
;
_chemical_formula_sum "Si O2"
_cell_formula_units_Z 36
_cell_length_a 13.521645
_cell_length_b 6.534997
_cell_length_c 22.489252
_cell_angle_alpha 90.000000
_cell_angle_beta 65.264010
_cell_angle_gamma 90.000000
_cell_volume 1804.900214
_symmetry_space_group_name_H-M "C 2/C"
_symmetry_group_IT_number 15
_symmetry_cell_setting 'monoclinic'
loop_
_space_group_symop_operation_xyz
x,y,z
-x,y,1/2-z
-x,-y,-z
x,-y,1/2+z
1/2+x,1/2+y,z
1/2-x,1/2+y,1/2-z
1/2-x,1/2-y,-z
1/2+x,1/2-y,1/2+z
loop_
_atom_site_type_symbol
_atom_site_label
_atom_site_fract_x
_atom_site_fract_y
_atom_site_fract_z
Si Si1 0.054585 0.305985 0.050391
Si Si2 0.097285 0.000804 0.137848
Si Si3 0.531732 0.103368 0.342144
Si Si4 0.157868 0.493966 0.916826
Si Si5 0.500000 0.188786 0.750000
O O1 0.075295 0.090384 0.077403
O O2 0.065294 0.490514 0.096112
O O3 0.929859 0.318788 0.055551
O O4 0.141013 0.335214 0.975659
O O5 0.220452 0.918112 0.111546
O O6 0.083177 0.170640 0.192367
O O7 0.011784 0.819427 0.170444
O O8 0.636340 0.126010 0.359616
O O9 0.566900 0.958947 0.278008
#
# Coordination Sequence:
#
# PCOD8146664 Si02
#       5
#     8   8   8   8   4
#     4   8  19  39  55  92 123 125 192 240 261 361
#     4  11  20  38  62  78 113 159 180 229 294 320
#     4   9  20  39  55  82 112 146 191 230 272 339
#     4   9  19  40  57  88 117 144 178 236 288 331
#     4  10  22  42  50  80 120 138 204 250 242 338
#
# _framework density 19.945701
#
# number of rings (size 3 to 8) (size 9 to 14) (size 15 to 20)
#    1.333    1.333    0.000    1.333    0.000    1.778 
#   16.000    0.000    0.000    0.000    0.000    0.000 
#    0.000    0.000    0.000    0.000    0.000    0.000 
#
# Total GULP energy -222987.020947 kJ/mol
# GULP energy per Si atom -12388.167830 kJ/mol
# Density = 1.990030 g / cm^3
# Si number density = 19.945701 Si / 1000 Ang^3
#
#
#
# Elastic Constant Matrix: (Units=GPa)
#
#
# Indices 1 2 3 4 5 6 
#
# 1 80.5954 20.7861 2.9867 0.0000 1.7066 0.0002
# 2 20.7861 73.7820 11.9796 0.0001 13.2149 0.0006
# 3 2.9867 11.9796 65.9943 -0.0001 25.5633 0.0000
# 4 0.0000 0.0001 -0.0001 16.7679 0.0000 0.1460
# 5 1.7066 13.2149 25.5633 0.0000 24.6389 0.0001
# 6 0.0002 0.0006 0.0000 0.1460 0.0001 13.8598
#
#
#
# Elastic Compliance Matrix: (Units=1/GPa)
#
#
# Indices 1 2 3 4 5 6 
#
# 1 0.013426 -0.004016 -0.000590 0.000000 0.001836 0.000000
# 2 -0.004016 0.016212 0.000835 0.000000 -0.009283 -0.000001
# 3 -0.000590 0.000835 0.025389 0.000000 -0.026749 0.000000
# 4 0.000000 0.000000 0.000000 0.059643 0.000000 -0.000628
# 5 0.001836 -0.009283 -0.026749 0.000000 0.073190 0.000000
# 6 0.000000 -0.000001 0.000000 -0.000628 0.000000 0.072158
#
#
# Mechanical properties :
#
#
# Convention : Reuss Voigt Hill
#
# Bulk Modulus (GPa) = 21.05872 32.43075 26.74473
# Shear Modulus (GPa) = 17.64360 23.36126 20.50243
#
# Velocity S-wave (km/s) = 2.97742 3.42606 3.20958
# Velocity P-wave (km/s) = 4.73297 5.65202 5.21278
#
# Compressibility (1/GPa) = 0.04748627
#
# Stress axis : x y z
#
# Youngs Moduli (GPa) = 74.48085 61.68331 39.38672
#
# Poissons Ratio (x) = 0.24769 0.02323
# Poissons Ratio (y) = 0.29908 -0.03288
# Poissons Ratio (z) = 0.04393 -0.05149
#
# Static dielectric constant tensor:
#      x y z
#    x 3.293030 0.000000 0.323830 
#    y 0.000000 3.275670 0.000000 
#    z 0.323830 0.000000 3.674470 
# 
# 
# High freq. dielectric constant tensor:
#      x y z
#    x 1.750260 0.000000 0.024490 
#    y 0.000000 1.749260 0.000000 
#    z 0.024490 0.000000 1.785120 
# 
# From -- ./inp_files/246095.got.cif
#   From: 2010.06.25/outbox.cif.g09.slc.cpg/sg15_124_cif.got.tgz:246095.got - 2010.06.28 07:06:18.
