data_PCOD8146323
_publ_section_title
;
Structure prediction by ZEFSAII (Michael W. Deem and Ramdas Pophale) SiO2 
 PCOD8146323
Probable space group: C 2/C
;
_chemical_formula_sum "Si O2"
_cell_formula_units_Z 60
_cell_length_a 18.470346
_cell_length_b 14.426564
_cell_length_c 11.974240
_cell_angle_alpha 90.000000
_cell_angle_beta 65.752334
_cell_angle_gamma 90.000000
_cell_volume 2909.212024
_symmetry_space_group_name_H-M "C 2/C"
_symmetry_group_IT_number 15
_symmetry_cell_setting 'monoclinic'
loop_
_space_group_symop_operation_xyz
x,y,z
-x,y,1/2-z
-x,-y,-z
x,-y,1/2+z
1/2+x,1/2+y,z
1/2-x,1/2+y,1/2-z
1/2-x,1/2-y,-z
1/2+x,1/2-y,1/2+z
loop_
_atom_site_type_symbol
_atom_site_label
_atom_site_fract_x
_atom_site_fract_y
_atom_site_fract_z
Si Si1 0.111892 0.220625 0.291607
Si Si2 0.790244 0.077279 0.701681
Si Si3 0.000000 0.089493 0.250000
Si Si4 0.923702 0.981050 0.476615
Si Si5 0.938685 0.768652 0.442689
Si Si6 0.118591 0.253004 0.761092
Si Si7 0.224250 0.609199 0.326121
Si Si8 0.691718 0.828918 0.077419
O O1 0.094914 0.275125 0.419499
O O2 0.196476 0.169558 0.236910
O O3 0.110277 0.286209 0.181465
O O4 0.040698 0.147616 0.323042
O O5 0.831094 0.158175 0.750402
O O6 0.725555 0.120649 0.663159
O O7 0.850710 0.025648 0.584082
O O8 0.743809 0.999315 0.801173
O O9 0.931902 0.026704 0.348861
O O10 0.909566 0.873923 0.466383
O O11 0.000000 0.000000 0.500000
O O12 0.895126 0.726791 0.361717
O O13 0.033666 0.759158 0.375718
O O14 0.161768 0.345267 0.779169
O O15 0.180053 0.608945 0.475289
O O16 0.750000 0.750000 0.000000
#
# Coordination Sequence:
#
# PCOD8146323 Si02
#       8
#     8   8   4   8   8   8   8   8
#     4  11  22  39  59  93 119 172 217 255 319 391
#     4  12  22  39  63  93 132 167 210 278 326 390
#     4  12  22  32  60  90 132 162 204 270 328 402
#     4  12  21  33  55  94 130 160 208 256 346 411
#     4  11  24  38  62  92 132 171 211 267 340 394
#     4  11  24  42  62  95 135 171 208 270 328 396
#     4  11  24  41  63  95 131 171 219 259 329 388
#     4  10  22  41  62  90 128 167 219 266 318 379
#
# _framework density 20.624141000000002
#
# number of rings (size 3 to 8) (size 9 to 14) (size 15 to 20)
#    0.000    0.800    6.667    2.400    5.600    0.533 
#    2.400    0.000    0.000    2.400    0.000    0.000 
#    0.000    0.000    0.000    0.000    0.000    0.000 
#
# Total GULP energy -371750.658308 kJ/mol
# GULP energy per Si atom -12391.688610 kJ/mol
# Density = 2.057720 g / cm^3
# Si number density = 20.624141 Si / 1000 Ang^3
#
#
#
# Elastic Constant Matrix: (Units=GPa)
#
#
# Indices 1 2 3 4 5 6 
#
# 1 48.7974 20.6206 18.8010 0.0000 10.0521 0.0000
# 2 20.6206 66.1296 38.2955 0.0000 -3.0912 0.0000
# 3 18.8010 38.2955 164.8004 0.0000 7.8284 0.0000
# 4 0.0000 0.0000 0.0000 41.7428 0.0000 -4.7318
# 5 10.0521 -3.0912 7.8284 0.0000 27.4262 0.0000
# 6 0.0000 0.0000 0.0000 -4.7318 0.0000 18.3075
#
#
#
# Elastic Compliance Matrix: (Units=1/GPa)
#
#
# Indices 1 2 3 4 5 6 
#
# 1 0.026416 -0.008399 -0.000565 0.000000 -0.010467 0.000000
# 2 -0.008399 0.020420 -0.004098 0.000000 0.006550 0.000000
# 3 -0.000565 -0.004098 0.007194 0.000000 -0.002308 0.000000
# 4 0.000000 0.000000 0.000000 0.024679 0.000000 0.006379
# 5 -0.010467 0.006550 -0.002308 0.000000 0.041695 0.000000
# 6 0.000000 0.000000 0.000000 0.006379 0.000000 0.056271
#
#
# Mechanical properties :
#
#
# Convention : Reuss Voigt Hill
#
# Bulk Modulus (GPa) = 35.83395 48.35128 42.09262
# Shear Modulus (GPa) = 23.57350 30.96265 27.26807
#
# Velocity S-wave (km/s) = 3.38450 3.87884 3.64007
# Velocity P-wave (km/s) = 5.71714 6.59966 6.17418
#
# Compressibility (1/GPa) = 0.02790650
#
# Stress axis : x y z
#
# Youngs Moduli (GPa) = 37.85575 48.97093 138.99890
#
# Poissons Ratio (x) = 0.41133 0.07848
# Poissons Ratio (y) = 0.31797 0.56963
# Poissons Ratio (z) = 0.02137 0.20069
#
# Static dielectric constant tensor:
#      x y z
#    x 3.628900 0.000000 0.097470 
#    y 0.000000 4.103790 0.000000 
#    z 0.097470 0.000000 4.372690 
# 
# 
# High freq. dielectric constant tensor:
#      x y z
#    x 1.792490 0.000000 0.008900 
#    y 0.000000 1.779720 0.000000 
#    z 0.008900 0.000000 1.829570 
# 
# From -- ./inp_files/105704.got.cif
#   From: 2010.06.25/outbox.cif.g09.slc.cpg/sg15_53_cif.got.tgz:105704.got - 2010.06.28 07:06:18.
