data_PCOD8146898
_publ_section_title
;
Structure prediction by ZEFSAII (Michael W. Deem and Ramdas Pophale) SiO2 
 PCOD8146898
Probable space group: C 2/C
;
_chemical_formula_sum "Si O2"
_cell_formula_units_Z 32
_cell_length_a 23.259279
_cell_length_b 5.346638
_cell_length_c 21.107513
_cell_angle_alpha 90.000000
_cell_angle_beta 146.377686
_cell_angle_gamma 90.000000
_cell_volume 1453.453298
_symmetry_space_group_name_H-M "C 2/C"
_symmetry_group_IT_number 15
_symmetry_cell_setting 'monoclinic'
loop_
_space_group_symop_operation_xyz
x,y,z
-x,y,1/2-z
-x,-y,-z
x,-y,1/2+z
1/2+x,1/2+y,z
1/2-x,1/2+y,1/2-z
1/2-x,1/2-y,-z
1/2+x,1/2-y,1/2+z
loop_
_atom_site_type_symbol
_atom_site_label
_atom_site_fract_x
_atom_site_fract_y
_atom_site_fract_z
Si Si1 0.580697 0.235131 0.934805
Si Si2 0.336056 0.739779 0.525642
Si Si3 0.788773 0.456521 0.357365
Si Si4 0.582043 0.652869 0.116114
O O1 0.599875 0.481021 0.909637
O O2 0.468506 0.248747 0.865029
O O3 0.587290 0.982603 0.897559
O O4 0.669985 0.213121 0.071796
O O5 0.250000 0.750000 0.500000
O O6 0.282611 0.745098 0.406914
O O7 0.678122 0.475102 0.222559
O O8 0.875764 0.385399 0.385406
O O9 0.500000 0.500000 0.000000
#
# Coordination Sequence:
#
# PCOD8146898 Si02
#       4
#     8   8   8   8
#     4  10  22  42  66  94 129 172 212 274 324 391
#     4  10  22  44  68  91 132 173 219 271 325 380
#     4  10  25  37  70  94 136 170 213 274 336 382
#     4  12  21  42  64 100 136 167 222 268 339 393
#
# _framework density 22.016532999999999
#
# number of rings (size 3 to 8) (size 9 to 14) (size 15 to 20)
#    1.500    0.000    2.500    3.000    0.000    2.000 
#    0.000    1.250    0.000    0.000    0.000    0.000 
#    0.000    0.000    0.000    0.000    0.000    0.000 
#
# Total GULP energy -198268.458716 kJ/mol
# GULP energy per Si atom -12391.778670 kJ/mol
# Density = 2.196642 g / cm^3
# Si number density = 22.016533 Si / 1000 Ang^3
#
#
#
# Elastic Constant Matrix: (Units=GPa)
#
#
# Indices 1 2 3 4 5 6 
#
# 1 186.2061 64.4049 6.4026 0.0029 47.9892 0.0020
# 2 64.4049 159.9985 13.2267 0.0113 25.3082 0.0104
# 3 6.4026 13.2267 69.3419 0.0023 25.9567 0.0028
# 4 0.0029 0.0113 0.0023 26.0594 0.0011 13.6815
# 5 47.9892 25.3082 25.9567 0.0011 33.1126 0.0004
# 6 0.0020 0.0104 0.0028 13.6815 0.0004 39.8378
#
#
#
# Elastic Compliance Matrix: (Units=1/GPa)
#
#
# Indices 1 2 3 4 5 6 
#
# 1 0.010774 -0.001813 0.006620 0.000000 -0.019419 0.000000
# 2 -0.001813 0.007460 -0.000148 -0.000002 -0.002959 -0.000001
# 3 0.006620 -0.000148 0.024608 -0.000001 -0.028771 -0.000001
# 4 0.000000 -0.000002 -0.000001 0.046815 0.000001 -0.016078
# 5 -0.019419 -0.002959 -0.028771 0.000001 0.083158 0.000002
# 6 0.000000 -0.000001 -0.000001 -0.016078 0.000002 0.030623
#
#
# Mechanical properties :
#
#
# Convention : Reuss Voigt Hill
#
# Bulk Modulus (GPa) = 19.17136 64.84608 42.00872
# Shear Modulus (GPa) = 23.63981 41.90279 32.77130
#
# Velocity S-wave (km/s) = 3.28034 4.36735 3.86228
# Velocity P-wave (km/s) = 4.80355 7.41276 6.24592
#
# Compressibility (1/GPa) = 0.05216115
#
# Stress axis : x y z
#
# Youngs Moduli (GPa) = 92.81214 134.04940 40.63680
#
# Poissons Ratio (x) = 0.24299 -0.26902
# Poissons Ratio (y) = 0.16824 0.00602
# Poissons Ratio (z) = -0.61442 0.01986
#
# Static dielectric constant tensor:
#      x y z
#    x 4.071370 -0.000020 0.239500 
#    y -0.000020 3.926330 -0.000030 
#    z 0.239500 -0.000030 3.673220 
# 
# 
# High freq. dielectric constant tensor:
#      x y z
#    x 1.874880 0.000000 0.015740 
#    y 0.000000 1.867790 0.000000 
#    z 0.015740 0.000000 1.828300 
# 
# From -- ./inp_files/120533.got.cif
#   From: 2010.06.25/outbox.cif.g09.slc.cpg/sg15_61_cif.got.tgz:120533.got - 2010.06.28 07:06:18.
