data_PCOD8146080
_publ_section_title
;
Structure prediction by ZEFSAII (Michael W. Deem and Ramdas Pophale) SiO2 
 PCOD8146080
Probable space group: C 2/C
;
_chemical_formula_sum "Si O2"
_cell_formula_units_Z 52
_cell_length_a 12.608438
_cell_length_b 14.705612
_cell_length_c 17.416276
_cell_angle_alpha 90.000000
_cell_angle_beta 53.717200
_cell_angle_gamma 90.000000
_cell_volume 2603.105827
_symmetry_space_group_name_H-M "C 2/C"
_symmetry_group_IT_number 15
_symmetry_cell_setting 'monoclinic'
loop_
_space_group_symop_operation_xyz
x,y,z
-x,y,1/2-z
-x,-y,-z
x,-y,1/2+z
1/2+x,1/2+y,z
1/2-x,1/2+y,1/2-z
1/2-x,1/2-y,-z
1/2+x,1/2-y,1/2+z
loop_
_atom_site_type_symbol
_atom_site_label
_atom_site_fract_x
_atom_site_fract_y
_atom_site_fract_z
Si Si1 0.603874 0.561981 0.639185
Si Si2 0.711481 0.856662 0.324160
Si Si3 0.000000 0.628955 0.250000
Si Si4 0.210599 0.891806 0.506370
Si Si5 0.856368 0.544891 0.796756
Si Si6 0.454565 0.269083 0.147708
Si Si7 0.068549 0.718132 0.516701
O O1 0.500000 0.537454 0.750000
O O2 0.740901 0.594276 0.618383
O O3 0.629740 0.474085 0.577196
O O4 0.545005 0.640829 0.609726
O O5 0.694438 0.932400 0.265999
O O6 0.818997 0.783849 0.251350
O O7 0.579158 0.802750 0.396591
O O8 0.870833 0.564625 0.296246
O O9 0.027638 0.688910 0.162618
O O10 0.252499 0.917847 0.402387
O O11 0.114017 0.805623 0.545501
O O12 0.338283 0.867678 0.503024
O O13 0.000000 0.591241 0.750000
O O14 0.421987 0.236993 0.077065
#
# Coordination Sequence:
#
# PCOD8146080 Si02
#       7
#     8   8   4   8   8   8   8
#     4  10  25  45  62  90 134 166 209 270 319 374
#     4  11  22  44  65  90 133 168 209 267 316 375
#     4  10  22  40  66  92 124 168 212 258 316 374
#     4  11  24  44  63  98 130 165 216 265 317 381
#     4  10  22  41  66  92 127 166 213 261 314 381
#     4  11  23  45  61  96 131 162 217 263 319 377
#     4  11  25  39  68  96 124 173 214 261 314 385
#
# _framework density 19.976137000000001
#
# number of rings (size 3 to 8) (size 9 to 14) (size 15 to 20)
#    0.462    0.923    5.385    0.000    4.308    4.308 
#    2.769    0.000    0.000    0.000    0.000    0.000 
#    0.000    0.000    0.000    0.000    0.000    0.000 
#
# Total GULP energy -322457.931886 kJ/mol
# GULP energy per Si atom -12402.228149 kJ/mol
# Density = 1.993067 g / cm^3
# Si number density = 19.976137 Si / 1000 Ang^3
#
#
#
# Elastic Constant Matrix: (Units=GPa)
#
#
# Indices 1 2 3 4 5 6 
#
# 1 86.6500 21.9677 18.2634 0.0000 -4.4662 0.0000
# 2 21.9677 96.9525 26.2659 0.0000 -11.9948 0.0000
# 3 18.2634 26.2659 59.8201 0.0000 -4.6777 0.0000
# 4 0.0000 0.0000 0.0000 34.3808 0.0000 -0.5000
# 5 -4.4662 -11.9948 -4.6777 0.0000 36.8266 0.0000
# 6 0.0000 0.0000 0.0000 -0.5000 0.0000 21.4842
#
#
#
# Elastic Compliance Matrix: (Units=1/GPa)
#
#
# Indices 1 2 3 4 5 6 
#
# 1 0.012700 -0.002015 -0.002953 0.000000 0.000509 0.000000
# 2 -0.002015 0.012410 -0.004583 0.000000 0.003216 0.000000
# 3 -0.002953 -0.004583 0.019681 0.000000 0.000649 0.000000
# 4 0.000000 0.000000 0.000000 0.029096 0.000000 0.000677
# 5 0.000509 0.003216 0.000649 0.000000 0.028346 0.000000
# 6 0.000000 0.000000 0.000000 0.000677 0.000000 0.046562
#
#
# Mechanical properties :
#
#
# Convention : Reuss Voigt Hill
#
# Bulk Modulus (GPa) = 38.92400 41.82407 40.37404
# Shear Modulus (GPa) = 28.33523 30.33335 29.33429
#
# Velocity S-wave (km/s) = 3.77032 3.90099 3.83621
# Velocity P-wave (km/s) = 6.20333 6.42439 6.31483
#
# Compressibility (1/GPa) = 0.02569109
#
# Stress axis : x y z
#
# Youngs Moduli (GPa) = 78.73967 80.57935 50.80983
#
# Poissons Ratio (x) = 0.16234 0.15004
# Poissons Ratio (y) = 0.15863 0.23284
# Poissons Ratio (z) = 0.23252 0.36926
#
# Static dielectric constant tensor:
#      x y z
#    x 3.835770 0.000000 0.059230 
#    y 0.000000 3.584630 0.000000 
#    z 0.059230 0.000000 3.500890 
# 
# 
# High freq. dielectric constant tensor:
#      x y z
#    x 1.791640 0.000000 0.006340 
#    y 0.000000 1.778460 0.000000 
#    z 0.006340 0.000000 1.771420 
# 
# From -- ./inp_files/197688.got.cif
#   From: 2010.06.25/outbox.cif.g09.slc.cpg/sg15_99_cif.got.tgz:197688.got - 2010.06.28 07:06:18.
