data_PCOD8146365
_publ_section_title
;
Structure prediction by ZEFSAII (Michael W. Deem and Ramdas Pophale) SiO2 
 PCOD8146365
Probable space group: C 2/C
;
_chemical_formula_sum "Si O2"
_cell_formula_units_Z 40
_cell_length_a 8.128179
_cell_length_b 22.740087
_cell_length_c 15.017776
_cell_angle_alpha 90.000000
_cell_angle_beta 41.992232
_cell_angle_gamma 90.000000
_cell_volume 1857.105158
_symmetry_space_group_name_H-M "C 2/C"
_symmetry_group_IT_number 15
_symmetry_cell_setting 'monoclinic'
loop_
_space_group_symop_operation_xyz
x,y,z
-x,y,1/2-z
-x,-y,-z
x,-y,1/2+z
1/2+x,1/2+y,z
1/2-x,1/2+y,1/2-z
1/2-x,1/2-y,-z
1/2+x,1/2-y,1/2+z
loop_
_atom_site_type_symbol
_atom_site_label
_atom_site_fract_x
_atom_site_fract_y
_atom_site_fract_z
Si Si1 0.476065 0.768450 0.585713
Si Si2 0.019631 0.852744 0.488547
Si Si3 0.500000 0.464126 0.750000
Si Si4 0.836347 0.923334 0.237873
Si Si5 0.150624 0.620852 0.483394
Si Si6 0.000000 0.678221 0.250000
O O1 0.361669 0.709815 0.589410
O O2 0.453496 0.822342 0.526156
O O3 0.358843 0.784163 0.729450
O O4 0.750000 0.750000 0.500000
O O5 0.102899 0.900935 0.384412
O O6 0.123271 0.863363 0.544288
O O7 0.720548 0.857609 0.613902
O O8 0.599238 0.506813 0.789412
O O9 0.737445 0.425334 0.631044
O O10 0.554535 0.910678 0.374685
O O11 0.000000 0.892062 0.250000
#
# Coordination Sequence:
#
# PCOD8146365 Si02
#       6
#     8   8   4   8   8   4
#     4  10  23  40  69  99 144 181 223 286 356 430
#     4  11  24  41  70 106 140 187 228 298 351 421
#     4  10  26  45  76  94 138 193 240 296 336 418
#     4  10  24  44  69  97 140 185 236 287 353 405
#     4  12  23  46  69 105 138 181 242 287 354 416
#     4  10  22  41  64 100 140 187 228 272 354 420
#
# _framework density 21.538900000000002
#
# number of rings (size 3 to 8) (size 9 to 14) (size 15 to 20)
#    0.600    0.800    0.000    5.400    7.000    0.800 
#    7.200    0.000    0.000    0.000    0.000    0.000 
#    0.000    0.000    0.000    0.000    0.000    0.000 
#
# Total GULP energy -247828.882259 kJ/mol
# GULP energy per Si atom -12391.444113 kJ/mol
# Density = 2.148988 g / cm^3
# Si number density = 21.538900 Si / 1000 Ang^3
#
#
#
# Elastic Constant Matrix: (Units=GPa)
#
#
# Indices 1 2 3 4 5 6 
#
# 1 98.6042 43.9963 30.5909 0.0000 8.4127 0.0000
# 2 43.9963 138.1355 51.3204 0.0000 2.0833 0.0000
# 3 30.5909 51.3204 136.6518 0.0000 -6.1052 0.0000
# 4 0.0000 0.0000 0.0000 25.0061 0.0000 1.3413
# 5 8.4127 2.0833 -6.1052 0.0000 37.7653 0.0000
# 6 0.0000 0.0000 0.0000 1.3413 0.0000 18.0414
#
#
#
# Elastic Compliance Matrix: (Units=1/GPa)
#
#
# Indices 1 2 3 4 5 6 
#
# 1 0.012362 -0.003276 -0.001664 0.000000 -0.002842 0.000000
# 2 -0.003276 0.009318 -0.002776 0.000000 -0.000233 0.000000
# 3 -0.001664 -0.002776 0.008820 0.000000 0.001950 0.000000
# 4 0.000000 0.000000 0.000000 0.040150 0.000000 -0.002985
# 5 -0.002842 -0.000233 0.001950 0.000000 0.027440 0.000000
# 6 0.000000 0.000000 0.000000 -0.002985 0.000000 0.055650
#
#
# Mechanical properties :
#
#
# Convention : Reuss Voigt Hill
#
# Bulk Modulus (GPa) = 66.37064 69.46742 67.91903
# Shear Modulus (GPa) = 28.70327 32.66149 30.68238
#
# Velocity S-wave (km/s) = 3.65447 3.89832 3.77836
# Velocity P-wave (km/s) = 6.97769 7.25152 7.11592
#
# Compressibility (1/GPa) = 0.01506690
#
# Stress axis : x y z
#
# Youngs Moduli (GPa) = 80.89242 107.32216 113.37715
#
# Poissons Ratio (x) = 0.35162 0.18865
# Poissons Ratio (y) = 0.26503 0.31477
# Poissons Ratio (z) = 0.13460 0.29796
#
# Static dielectric constant tensor:
#      x y z
#    x 4.039050 0.000000 0.369280 
#    y 0.000000 4.077140 0.000000 
#    z 0.369280 0.000000 4.234690 
# 
# 
# High freq. dielectric constant tensor:
#      x y z
#    x 1.846420 0.000000 0.006430 
#    y 0.000000 1.837200 0.000000 
#    z 0.006430 0.000000 1.850990 
# 
# From -- ./inp_files/137129.got.cif
#   From: 2010.06.25/outbox.cif.g09.slc.cpg/sg15_69_cif.got.tgz:137129.got - 2010.06.28 07:06:18.
