data_PCOD8146780
_publ_section_title
;
Structure prediction by ZEFSAII (Michael W. Deem and Ramdas Pophale) SiO2 
 PCOD8146780
Probable space group: C 2/C
;
_chemical_formula_sum "Si O2"
_cell_formula_units_Z 48
_cell_length_a 13.723641
_cell_length_b 17.117084
_cell_length_c 15.729844
_cell_angle_alpha 90.000000
_cell_angle_beta 38.599944
_cell_angle_gamma 90.000000
_cell_volume 2305.280609
_symmetry_space_group_name_H-M "C 2/C"
_symmetry_group_IT_number 15
_symmetry_cell_setting 'monoclinic'
loop_
_space_group_symop_operation_xyz
x,y,z
-x,y,1/2-z
-x,-y,-z
x,-y,1/2+z
1/2+x,1/2+y,z
1/2-x,1/2+y,1/2-z
1/2-x,1/2-y,-z
1/2+x,1/2-y,1/2+z
loop_
_atom_site_type_symbol
_atom_site_label
_atom_site_fract_x
_atom_site_fract_y
_atom_site_fract_z
Si Si1 0.116470 0.064729 0.392626
Si Si2 0.127526 0.456585 0.361307
Si Si3 0.720725 0.674978 0.644401
Si Si4 0.078231 0.808034 0.055827
Si Si5 0.075540 0.164675 0.107752
Si Si6 0.575924 0.838077 0.108634
O O1 0.138220 0.119579 0.459335
O O2 0.038896 0.112265 0.369537
O O3 0.276793 0.021954 0.256408
O O4 0.000000 0.000000 0.500000
O O5 0.233015 0.412040 0.358937
O O6 0.000000 0.500000 0.500000
O O7 0.040672 0.394413 0.361480
O O8 0.868916 0.731851 0.532928
O O9 0.606362 0.703101 0.799512
O O10 0.646648 0.675620 0.602019
O O11 0.088195 0.251647 0.057037
O O12 0.000000 0.169118 0.250000
O O13 0.249132 0.127142 0.998886
O O14 0.500000 0.824861 0.250000
#
# Coordination Sequence:
#
# PCOD8146780 Si02
#       6
#     8   8   8   8   8   8
#     4  12  24  41  65  96 134 172 210 263 337 396
#     4  12  26  41  61 100 136 169 212 268 332 392
#     4  10  23  45  68  94 127 168 227 271 319 387
#     4  10  23  44  70  94 123 173 222 271 321 384
#     4  10  22  42  68  91 123 170 217 262 318 377
#     4  10  22  42  64  92 124 164 217 266 306 379
#
# _framework density 20.821760000000001
#
# number of rings (size 3 to 8) (size 9 to 14) (size 15 to 20)
#    0.000    1.333    1.667    3.000    2.333    4.000 
#    6.000    0.000    0.000    0.000    0.000    0.000 
#    0.000    0.000    0.000    0.000    0.000    0.000 
#
# Total GULP energy -297416.158318 kJ/mol
# GULP energy per Si atom -12392.339930 kJ/mol
# Density = 2.077437 g / cm^3
# Si number density = 20.821760 Si / 1000 Ang^3
#
#
#
# Elastic Constant Matrix: (Units=GPa)
#
#
# Indices 1 2 3 4 5 6 
#
# 1 61.1716 33.3198 31.2542 0.0017 -7.3962 -0.0090
# 2 33.3198 104.2337 59.9501 0.0032 3.9366 -0.0160
# 3 31.2542 59.9501 171.3464 0.0031 -15.8863 -0.0295
# 4 0.0017 0.0032 0.0031 53.0561 -0.0007 0.3508
# 5 -7.3962 3.9366 -15.8863 -0.0007 34.0018 0.0112
# 6 -0.0090 -0.0160 -0.0295 0.3508 0.0112 26.6744
#
#
#
# Elastic Compliance Matrix: (Units=1/GPa)
#
#
# Indices 1 2 3 4 5 6 
#
# 1 0.020889 -0.006150 -0.001224 0.000000 0.004684 0.000000
# 2 -0.006150 0.014235 -0.004323 -0.000001 -0.005006 0.000004
# 3 -0.001224 -0.004323 0.007937 0.000000 0.003943 0.000004
# 4 0.000000 -0.000001 0.000000 0.018850 0.000000 -0.000248
# 5 0.004684 -0.005006 0.003943 0.000000 0.032851 -0.000011
# 6 0.000000 0.000004 0.000004 -0.000248 -0.000011 0.037492
#
#
# Mechanical properties :
#
#
# Convention : Reuss Voigt Hill
#
# Bulk Modulus (GPa) = 50.84591 65.08887 57.96739
# Shear Modulus (GPa) = 30.82515 36.89497 33.86006
#
# Velocity S-wave (km/s) = 3.85181 4.21401 4.03697
# Velocity P-wave (km/s) = 6.65241 7.41654 7.04484
#
# Compressibility (1/GPa) = 0.01966727
#
# Stress axis : x y z
#
# Youngs Moduli (GPa) = 47.87133 70.24833 125.98561
#
# Poissons Ratio (x) = 0.43206 0.15422
# Poissons Ratio (y) = 0.29443 0.54461
# Poissons Ratio (z) = 0.05860 0.30367
#
# Static dielectric constant tensor:
#      x y z
#    x 3.567100 0.000000 -0.123560 
#    y 0.000000 3.404100 -0.000010 
#    z -0.123560 -0.000010 4.125480 
# 
# 
# High freq. dielectric constant tensor:
#      x y z
#    x 1.811870 0.000000 -0.001900 
#    y 0.000000 1.817440 0.000000 
#    z -0.001900 0.000000 1.839480 
# 
# From -- ./inp_files/155092.got.cif
#   From: 2010.06.25/outbox.cif.g09.slc.cpg/sg15_78_cif.got.tgz:155092.got - 2010.06.28 07:06:18.
