data_PCOD8146217
_publ_section_title
;
Structure prediction by ZEFSAII (Michael W. Deem and Ramdas Pophale) SiO2 
 PCOD8146217
Probable space group: C 2/C
;
_chemical_formula_sum "Si O2"
_cell_formula_units_Z 44
_cell_length_a 8.827106
_cell_length_b 17.856131
_cell_length_c 15.500876
_cell_angle_alpha 90.000000
_cell_angle_beta 120.279897
_cell_angle_gamma 90.000000
_cell_volume 2109.894599
_symmetry_space_group_name_H-M "C 2/C"
_symmetry_group_IT_number 15
_symmetry_cell_setting 'monoclinic'
loop_
_space_group_symop_operation_xyz
x,y,z
-x,y,1/2-z
-x,-y,-z
x,-y,1/2+z
1/2+x,1/2+y,z
1/2-x,1/2+y,1/2-z
1/2-x,1/2-y,-z
1/2+x,1/2-y,1/2+z
loop_
_atom_site_type_symbol
_atom_site_label
_atom_site_fract_x
_atom_site_fract_y
_atom_site_fract_z
Si Si1 0.734739 0.223595 0.092880
Si Si2 0.126151 0.990416 0.654424
Si Si3 0.234644 0.493702 0.984713
Si Si4 0.500000 0.383429 0.750000
Si Si5 0.959715 0.619211 0.956609
Si Si6 0.683422 0.140493 0.761702
O O1 0.734684 0.289767 0.163013
O O2 0.897602 0.168795 0.154250
O O3 0.750000 0.250000 0.000000
O O4 0.551568 0.179073 0.046117
O O5 0.253463 0.967976 0.611889
O O6 0.174206 0.074266 0.696967
O O7 0.924540 0.980401 0.570054
O O8 0.145511 0.934159 0.741222
O O9 0.101774 0.562845 0.955384
O O10 0.179035 0.423506 0.025065
O O11 0.856900 0.661401 0.849564
O O12 0.500000 0.114252 0.750000
#
# Coordination Sequence:
#
# PCOD8146217 Si02
#       6
#     8   8   8   4   8   8
#     4  12  23  42  66  97 133 181 224 270 331 413
#     4  11  23  41  68 103 131 171 223 283 333 396
#     4  10  22  40  69  97 134 167 222 281 337 383
#     4  12  24  40  72 100 128 172 234 268 328 404
#     4  11  22  43  67  98 130 178 221 276 328 409
#     4  12  23  40  67  99 133 173 220 277 335 398
#
# _framework density 20.854120999999999
#
# number of rings (size 3 to 8) (size 9 to 14) (size 15 to 20)
#    0.000    0.727    6.364    1.091    5.091    0.000 
#    0.000    0.909    8.000    0.000    0.000    0.000 
#    0.000    0.000    0.000    0.000    0.000    0.000 
#
# Total GULP energy -272781.435876 kJ/mol
# GULP energy per Si atom -12399.156176 kJ/mol
# Density = 2.080666 g / cm^3
# Si number density = 20.854121 Si / 1000 Ang^3
#
#
#
# Elastic Constant Matrix: (Units=GPa)
#
#
# Indices 1 2 3 4 5 6 
#
# 1 86.1991 39.4552 40.9459 0.0000 -19.6065 0.0000
# 2 39.4552 127.0444 73.2113 0.0000 -17.4318 0.0000
# 3 40.9459 73.2113 141.2230 0.0000 -15.0886 0.0000
# 4 0.0000 0.0000 0.0000 49.6928 0.0000 0.9780
# 5 -19.6065 -17.4318 -15.0886 0.0000 16.0850 0.0000
# 6 0.0000 0.0000 0.0000 0.9780 0.0000 20.9495
#
#
#
# Elastic Compliance Matrix: (Units=1/GPa)
#
#
# Indices 1 2 3 4 5 6 
#
# 1 0.017391 -0.001706 -0.002323 0.000000 0.017170 0.000000
# 2 -0.001706 0.012258 -0.005182 0.000000 0.006343 0.000000
# 3 -0.002323 -0.005182 0.010601 0.000000 0.001496 0.000000
# 4 0.000000 0.000000 0.000000 0.020142 0.000000 -0.000940
# 5 0.017170 0.006343 0.001496 0.000000 0.091377 0.000000
# 6 0.000000 0.000000 0.000000 -0.000940 0.000000 0.047778
#
#
# Mechanical properties :
#
#
# Convention : Reuss Voigt Hill
#
# Bulk Modulus (GPa) = 45.81596 73.52125 59.66861
# Shear Modulus (GPa) = 22.19799 30.73573 26.46686
#
# Velocity S-wave (km/s) = 3.26612 3.84323 3.56637
# Velocity P-wave (km/s) = 6.02003 7.41792 6.75523
#
# Compressibility (1/GPa) = 0.02182645
#
# Stress axis : x y z
#
# Youngs Moduli (GPa) = 57.50077 81.58070 94.33128
#
# Poissons Ratio (x) = 0.13920 0.21916
# Poissons Ratio (y) = 0.09811 0.48884
# Poissons Ratio (z) = 0.13359 0.42276
#
# Static dielectric constant tensor:
#      x y z
#    x 3.709470 0.000000 -0.044750 
#    y 0.000000 3.892230 0.000000 
#    z -0.044750 0.000000 4.206380 
# 
# 
# High freq. dielectric constant tensor:
#      x y z
#    x 1.796100 0.000000 -0.000930 
#    y 0.000000 1.808940 0.000000 
#    z -0.000930 0.000000 1.841870 
# 
# From -- ./inp_files/134938.got.cif
#   From: 2010.06.25/outbox.cif.g09.slc.cpg/sg15_68_cif.got.tgz:134938.got - 2010.06.28 07:06:18.
