data_PCOD8146004
_publ_section_title
;
Structure prediction by ZEFSAII (Michael W. Deem and Ramdas Pophale) SiO2 
 PCOD8146004
Probable space group: C 2/C
;
_chemical_formula_sum "Si O2"
_cell_formula_units_Z 32
_cell_length_a 10.610342
_cell_length_b 19.150692
_cell_length_c 7.929710
_cell_angle_alpha 90.000000
_cell_angle_beta 54.583667
_cell_angle_gamma 90.000000
_cell_volume 1313.133418
_symmetry_space_group_name_H-M "C 2/C"
_symmetry_group_IT_number 15
_symmetry_cell_setting 'monoclinic'
loop_
_space_group_symop_operation_xyz
x,y,z
-x,y,1/2-z
-x,-y,-z
x,-y,1/2+z
1/2+x,1/2+y,z
1/2-x,1/2+y,1/2-z
1/2-x,1/2-y,-z
1/2+x,1/2-y,1/2+z
loop_
_atom_site_type_symbol
_atom_site_label
_atom_site_fract_x
_atom_site_fract_y
_atom_site_fract_z
Si Si1 0.896532 0.413119 0.090289
Si Si2 0.441374 0.342377 0.604314
Si Si3 0.251108 0.278967 0.186616
Si Si4 0.206619 0.550937 0.199964
O O1 0.880779 0.336869 0.182476
O O2 0.802916 0.466534 0.286699
O O3 0.829460 0.419555 0.955209
O O4 0.080913 0.426042 0.939615
O O5 0.500000 0.339602 0.750000
O O6 0.587953 0.315595 0.379872
O O7 0.299566 0.289503 0.668038
O O8 0.378007 0.420099 0.613757
O O9 0.250000 0.250000 0.000000
#
# Coordination Sequence:
#
# PCOD8146004 Si02
#       4
#     8   8   8   8
#     4  10  23  43  68 100 135 182 226 281 338 405
#     4  10  22  40  64  99 131 180 221 282 337 397
#     4  10  22  40  64  97 132 175 224 277 335 401
#     4  10  23  43  68  99 138 179 229 279 339 403
#
# _framework density 24.369188999999999
#
# number of rings (size 3 to 8) (size 9 to 14) (size 15 to 20)
#    0.000    2.000    0.000    1.500    7.000    5.000 
#    9.000    0.000    0.000    0.000    0.000    0.000 
#    0.000    0.000    0.000    0.000    0.000    0.000 
#
# Total GULP energy -198242.530062 kJ/mol
# GULP energy per Si atom -12390.158129 kJ/mol
# Density = 2.431372 g / cm^3
# Si number density = 24.369189 Si / 1000 Ang^3
#
#
#
# Elastic Constant Matrix: (Units=GPa)
#
#
# Indices 1 2 3 4 5 6 
#
# 1 76.1398 10.5321 13.5673 0.0000 -12.8393 0.0000
# 2 10.5321 100.5646 19.6701 0.0000 16.6334 0.0000
# 3 13.5673 19.6701 53.6296 0.0000 -2.5424 0.0000
# 4 0.0000 0.0000 0.0000 46.3069 0.0000 -10.7208
# 5 -12.8393 16.6334 -2.5424 0.0000 27.8899 0.0000
# 6 0.0000 0.0000 0.0000 -10.7208 0.0000 45.1713
#
#
#
# Elastic Compliance Matrix: (Units=1/GPa)
#
#
# Indices 1 2 3 4 5 6 
#
# 1 0.015335 -0.002475 -0.002578 0.000000 0.008300 0.000000
# 2 -0.002475 0.012559 -0.004408 0.000000 -0.009031 0.000000
# 3 -0.002578 -0.004408 0.021075 0.000000 0.003363 0.000000
# 4 0.000000 0.000000 0.000000 0.022851 0.000000 0.005423
# 5 0.008300 -0.009031 0.003363 0.000000 0.045369 0.000000
# 6 0.000000 0.000000 0.000000 0.005423 0.000000 0.023425
#
#
# Mechanical properties :
#
#
# Convention : Reuss Voigt Hill
#
# Bulk Modulus (GPa) = 33.28191 35.31922 34.30057
# Shear Modulus (GPa) = 29.48935 36.31125 32.90030
#
# Velocity S-wave (km/s) = 3.48243 3.86430 3.67833
# Velocity P-wave (km/s) = 5.46414 5.86816 5.66975
#
# Compressibility (1/GPa) = 0.03004635
#
# Stress axis : x y z
#
# Youngs Moduli (GPa) = 65.20960 79.62371 47.44936
#
# Poissons Ratio (x) = 0.19704 0.12234
# Poissons Ratio (y) = 0.16137 0.20918
# Poissons Ratio (z) = 0.16814 0.35102
#
# Static dielectric constant tensor:
#      x y z
#    x 4.167250 0.000000 -0.597060 
#    y 0.000000 4.567910 0.000000 
#    z -0.597060 0.000000 4.713830 
# 
# 
# High freq. dielectric constant tensor:
#      x y z
#    x 1.942100 0.000000 -0.014600 
#    y 0.000000 1.977050 0.000000 
#    z -0.014600 0.000000 1.961430 
# 
# From -- ./inp_files/28637.got.cif
#   From: 2010.06.25/outbox.cif.g09.slc.cpg/sg15_15_cif.got.tgz:28637.got - 2010.06.28 07:06:18.
