data_PCOD8146662
_publ_section_title
;
Structure prediction by ZEFSAII (Michael W. Deem and Ramdas Pophale) SiO2 
 PCOD8146662
Probable space group: C 2/C
;
_chemical_formula_sum "Si O2"
_cell_formula_units_Z 40
_cell_length_a 8.717296
_cell_length_b 15.601293
_cell_length_c 13.082826
_cell_angle_alpha 90.000000
_cell_angle_beta 84.589723
_cell_angle_gamma 90.000000
_cell_volume 1771.352020
_symmetry_space_group_name_H-M "C 2/C"
_symmetry_group_IT_number 15
_symmetry_cell_setting 'monoclinic'
loop_
_space_group_symop_operation_xyz
x,y,z
-x,y,1/2-z
-x,-y,-z
x,-y,1/2+z
1/2+x,1/2+y,z
1/2-x,1/2+y,1/2-z
1/2-x,1/2-y,-z
1/2+x,1/2-y,1/2+z
loop_
_atom_site_type_symbol
_atom_site_label
_atom_site_fract_x
_atom_site_fract_y
_atom_site_fract_z
Si Si1 0.163781 0.420318 0.196944
Si Si2 0.737331 0.124648 0.475202
Si Si3 0.758857 0.261430 0.167058
Si Si4 0.820704 0.917617 0.759198
Si Si5 0.999401 0.766802 0.478287
O O1 0.146065 0.414366 0.076091
O O2 0.218550 0.330587 0.243740
O O3 0.288082 0.495434 0.201348
O O4 0.000000 0.450335 0.250000
O O5 0.752805 0.062945 0.376647
O O6 0.914101 0.146026 0.495677
O O7 0.638414 0.204220 0.439749
O O8 0.742007 0.165832 0.212993
O O9 0.603928 0.283686 0.114911
O O10 0.902253 0.268537 0.080421
O O11 0.000000 0.897259 0.750000
#
# Coordination Sequence:
#
# PCOD8146662 Si02
#       5
#     8   8   8   8   8
#     4  12  28  47  71 104 141 183 231 289 343 412
#     4  11  24  44  72 101 142 180 234 279 352 403
#     4  11  23  47  73 102 144 179 236 280 346 409
#     4  12  28  47  71 104 141 183 231 289 343 412
#     4  10  22  41  77 106 131 190 229 283 341 418
#
# _framework density 22.581621999999999
#
# number of rings (size 3 to 8) (size 9 to 14) (size 15 to 20)
#    0.000    0.800    4.000    3.000    5.600    6.400 
#    0.000    0.000    0.000    0.000    0.000    0.000 
#    0.000    0.000    0.000    0.000    0.000    0.000 
#
# Total GULP energy -247997.097216 kJ/mol
# GULP energy per Si atom -12399.854861 kJ/mol
# Density = 2.253023 g / cm^3
# Si number density = 22.581622 Si / 1000 Ang^3
#
#
#
# Elastic Constant Matrix: (Units=GPa)
#
#
# Indices 1 2 3 4 5 6 
#
# 1 96.9774 2.3586 13.0850 0.0000 3.8317 0.0000
# 2 2.3586 92.4996 9.3941 0.0000 6.3459 0.0000
# 3 13.0850 9.3941 115.6225 0.0000 -5.2117 0.0000
# 4 0.0000 0.0000 0.0000 20.1455 0.0000 7.0306
# 5 3.8317 6.3459 -5.2117 0.0000 22.3005 0.0000
# 6 0.0000 0.0000 0.0000 7.0306 0.0000 14.8197
#
#
#
# Elastic Compliance Matrix: (Units=1/GPa)
#
#
# Indices 1 2 3 4 5 6 
#
# 1 0.010570 0.000007 -0.001292 0.000000 -0.002120 0.000000
# 2 0.000007 0.011153 -0.001061 0.000000 -0.003423 0.000000
# 3 -0.001292 -0.001061 0.009000 0.000000 0.002627 0.000000
# 4 0.000000 0.000000 0.000000 0.059488 0.000000 -0.028221
# 5 -0.002120 -0.003423 0.002627 0.000000 0.046794 0.000000
# 6 0.000000 0.000000 0.000000 -0.028221 0.000000 0.080866
#
#
# Mechanical properties :
#
#
# Convention : Reuss Voigt Hill
#
# Bulk Modulus (GPa) = 38.41746 39.41945 38.91846
# Shear Modulus (GPa) = 21.62249 30.13725 25.87987
#
# Velocity S-wave (km/s) = 3.09775 3.65717 3.38902
# Velocity P-wave (km/s) = 5.46300 5.94370 5.70841
#
# Compressibility (1/GPa) = 0.02602983
#
# Stress axis : x y z
#
# Youngs Moduli (GPa) = 94.61054 89.65955 111.11429
#
# Poissons Ratio (x) = -0.00064 0.14360
# Poissons Ratio (y) = -0.00068 0.11793
# Poissons Ratio (z) = 0.12227 0.09516
#
# Static dielectric constant tensor:
#      x y z
#    x 4.135610 0.000000 -0.001370 
#    y 0.000000 3.651250 0.000000 
#    z -0.001370 0.000000 4.228670 
# 
# 
# High freq. dielectric constant tensor:
#      x y z
#    x 1.900180 0.000000 -0.003550 
#    y 0.000000 1.864730 0.000000 
#    z -0.003550 0.000000 1.908930 
# 
# From -- ./inp_files/76716.got.cif
#   From: 2010.06.25/outbox.cif.g09.slc.cpg/sg15_39_cif.got.tgz:76716.got - 2010.06.28 07:06:18.
