data_PCOD8146746
_publ_section_title
;
Structure prediction by ZEFSAII (Michael W. Deem and Ramdas Pophale) SiO2 
 PCOD8146746
Probable space group: C 2/C
;
_chemical_formula_sum "Si O2"
_cell_formula_units_Z 60
_cell_length_a 8.420152
_cell_length_b 12.228876
_cell_length_c 29.927805
_cell_angle_alpha 90.000000
_cell_angle_beta 113.972649
_cell_angle_gamma 90.000000
_cell_volume 2815.812580
_symmetry_space_group_name_H-M "C 2/C"
_symmetry_group_IT_number 15
_symmetry_cell_setting 'monoclinic'
loop_
_space_group_symop_operation_xyz
x,y,z
-x,y,1/2-z
-x,-y,-z
x,-y,1/2+z
1/2+x,1/2+y,z
1/2-x,1/2+y,1/2-z
1/2-x,1/2-y,-z
1/2+x,1/2-y,1/2+z
loop_
_atom_site_type_symbol
_atom_site_label
_atom_site_fract_x
_atom_site_fract_y
_atom_site_fract_z
Si Si1 0.268315 0.681375 0.823224
Si Si2 0.746905 0.320799 0.405708
Si Si3 0.000000 0.820708 0.750000
Si Si4 0.436570 0.744475 0.925166
Si Si5 0.836914 0.066394 0.089302
Si Si6 0.069945 0.737751 0.305210
Si Si7 0.163049 0.938191 0.690623
Si Si8 0.936178 0.198461 0.022450
O O1 0.311504 0.666257 0.880774
O O2 0.401623 0.770867 0.817558
O O3 0.288551 0.565451 0.801181
O O4 0.083301 0.737338 0.795448
O O5 0.617044 0.240068 0.418625
O O6 0.729087 0.443715 0.420280
O O7 0.704684 0.317062 0.347448
O O8 0.940625 0.282637 0.437310
O O9 0.865696 0.895853 0.762085
O O10 0.332454 0.857852 0.920837
O O11 0.489311 0.681431 0.976888
O O12 0.923782 0.088734 0.050625
O O13 0.985969 0.083765 0.143296
O O14 0.167891 0.622234 0.310271
O O15 0.000000 0.786300 0.250000
O O16 0.750000 0.250000 0.000000
#
# Coordination Sequence:
#
# PCOD8146746 Si02
#       8
#     8   8   4   8   8   8   8   8
#     4  11  25  43  62  99 127 167 214 268 313 386
#     4  11  23  43  66  93 134 169 210 274 313 380
#     4  12  26  40  72  92 128 172 216 260 320 384
#     4  10  22  42  63  95 131 159 221 263 313 383
#     4  11  22  42  66  94 127 172 215 261 321 381
#     4  11  23  42  64  95 133 164 212 264 317 380
#     4  12  24  42  67  93 130 171 210 260 325 378
#     4  10  23  42  68  94 129 173 215 268 321 378
#
# _framework density 21.308236999999998
#
# number of rings (size 3 to 8) (size 9 to 14) (size 15 to 20)
#    0.000    1.067    6.667    0.400    1.867    2.667 
#    0.000   10.667    0.000    0.000    0.000    0.000 
#    0.000    0.000    0.000    0.000    0.000    0.000 
#
# Total GULP energy -371717.799952 kJ/mol
# GULP energy per Si atom -12390.593332 kJ/mol
# Density = 2.125974 g / cm^3
# Si number density = 21.308237 Si / 1000 Ang^3
#
#
#
# Elastic Constant Matrix: (Units=GPa)
#
#
# Indices 1 2 3 4 5 6 
#
# 1 76.4632 54.2203 30.3473 0.0000 4.1632 0.0000
# 2 54.2203 121.1855 47.5909 0.0000 2.2169 0.0000
# 3 30.3473 47.5909 153.9021 0.0000 5.7290 0.0000
# 4 0.0000 0.0000 0.0000 20.4164 0.0000 -4.1066
# 5 4.1632 2.2169 5.7290 0.0000 28.9366 0.0000
# 6 0.0000 0.0000 0.0000 -4.1066 0.0000 30.4014
#
#
#
# Elastic Compliance Matrix: (Units=1/GPa)
#
#
# Indices 1 2 3 4 5 6 
#
# 1 0.019487 -0.008198 -0.001236 0.000000 -0.001931 0.000000
# 2 -0.008198 0.012842 -0.002379 0.000000 0.000667 0.000000
# 3 -0.001236 -0.002379 0.007519 0.000000 -0.001129 0.000000
# 4 0.000000 0.000000 0.000000 0.050348 0.000000 0.006801
# 5 -0.001931 0.000667 -0.001129 0.000000 0.035009 0.000000
# 6 0.000000 0.000000 0.000000 0.006801 0.000000 0.033812
#
#
# Mechanical properties :
#
#
# Convention : Reuss Voigt Hill
#
# Bulk Modulus (GPa) = 61.64540 68.42974 65.03757
# Shear Modulus (GPa) = 26.58857 30.57703 28.58280
#
# Velocity S-wave (km/s) = 3.53626 3.79223 3.66648
# Velocity P-wave (km/s) = 6.75771 7.16649 6.96510
#
# Compressibility (1/GPa) = 0.01622181
#
# Stress axis : x y z
#
# Youngs Moduli (GPa) = 51.31579 77.86895 132.99559
#
# Poissons Ratio (x) = 0.63840 0.16432
# Poissons Ratio (y) = 0.42070 0.31644
# Poissons Ratio (z) = 0.06340 0.18528
#
# Static dielectric constant tensor:
#      x y z
#    x 3.984550 0.000000 -0.186390 
#    y 0.000000 3.533960 0.000000 
#    z -0.186390 0.000000 4.822730 
# 
# 
# High freq. dielectric constant tensor:
#      x y z
#    x 1.834400 0.000000 0.007050 
#    y 0.000000 1.806050 0.000000 
#    z 0.007050 0.000000 1.859420 
# 
# From -- ./inp_files/307521.got.cif
#   From: 2010.06.25/outbox.cif.g09.slc.cpg/sg15_154_cif.got.tgz:307521.got - 2010.06.28 07:06:18.
