data_PCOD8146313
_publ_section_title
;
Structure prediction by ZEFSAII (Michael W. Deem and Ramdas Pophale) SiO2 
 PCOD8146313
Probable space group: C 2/C
;
_chemical_formula_sum "Si O2"
_cell_formula_units_Z 40
_cell_length_a 14.140446
_cell_length_b 23.656942
_cell_length_c 9.360169
_cell_angle_alpha 90.000000
_cell_angle_beta 141.522440
_cell_angle_gamma 90.000000
_cell_volume 1948.233688
_symmetry_space_group_name_H-M "C 2/C"
_symmetry_group_IT_number 15
_symmetry_cell_setting 'monoclinic'
loop_
_space_group_symop_operation_xyz
x,y,z
-x,y,1/2-z
-x,-y,-z
x,-y,1/2+z
1/2+x,1/2+y,z
1/2-x,1/2+y,1/2-z
1/2-x,1/2-y,-z
1/2+x,1/2-y,1/2+z
loop_
_atom_site_type_symbol
_atom_site_label
_atom_site_fract_x
_atom_site_fract_y
_atom_site_fract_z
Si Si1 0.110457 0.521976 0.511540
Si Si2 0.669580 0.418402 0.768670
Si Si3 0.609635 0.710697 0.682816
Si Si4 0.207447 0.182017 0.107382
Si Si5 0.327191 0.393419 0.405212
O O1 0.247590 0.478340 0.645278
O O2 0.189767 0.579677 0.653784
O O3 0.000000 0.500000 0.500000
O O4 0.000000 0.535184 0.250000
O O5 0.733704 0.378543 0.715482
O O6 0.485894 0.424025 0.545630
O O7 0.711533 0.394997 0.973714
O O8 0.650813 0.776022 0.709920
O O9 0.429000 0.712995 0.473090
O O10 0.665457 0.673212 0.616942
O O11 0.672874 0.677681 0.897931
#
# Coordination Sequence:
#
# PCOD8146313 Si02
#       5
#     8   8   8   8   8
#     4  12  25  42  59  90 124 154 199 253 303 352
#     4  10  22  41  62  85 121 159 201 241 296 362
#     4   9  19  36  57  87 116 153 200 239 293 349
#     4   9  19  36  58  85 117 154 196 244 289 351
#     4  10  22  41  62  86 118 162 200 240 298 362
#
# _framework density 20.531419
#
# number of rings (size 3 to 8) (size 9 to 14) (size 15 to 20)
#    0.000    2.000    2.000    0.600    2.800    2.400 
#    3.600    0.000    0.000    0.000    0.000    0.000 
#    0.000    0.000    0.000    0.000    0.000    0.000 
#
# Total GULP energy -247879.517166 kJ/mol
# GULP energy per Si atom -12393.975858 kJ/mol
# Density = 2.048469 g / cm^3
# Si number density = 20.531419 Si / 1000 Ang^3
#
#
#
# Elastic Constant Matrix: (Units=GPa)
#
#
# Indices 1 2 3 4 5 6 
#
# 1 55.4219 -1.6091 5.0124 0.0000 -14.1446 0.0000
# 2 -1.6091 27.4699 10.3433 0.0000 1.1400 0.0000
# 3 5.0124 10.3433 94.6681 0.0000 -1.8018 0.0000
# 4 0.0000 0.0000 0.0000 29.9583 0.0000 2.0985
# 5 -14.1446 1.1400 -1.8018 0.0000 30.4317 0.0000
# 6 0.0000 0.0000 0.0000 2.0985 0.0000 30.7871
#
#
#
# Elastic Compliance Matrix: (Units=1/GPa)
#
#
# Indices 1 2 3 4 5 6 
#
# 1 0.020588 0.001205 -0.001042 0.000000 0.009462 0.000000
# 2 0.001205 0.038121 -0.004250 0.000000 -0.001119 0.000000
# 3 -0.001042 -0.004250 0.011089 0.000000 0.000332 0.000000
# 4 0.000000 0.000000 0.000000 0.033540 0.000000 -0.002286
# 5 0.009462 -0.001119 0.000332 0.000000 0.037320 0.000000
# 6 0.000000 0.000000 0.000000 -0.002286 0.000000 0.032637
#
#
# Mechanical properties :
#
#
# Convention : Reuss Voigt Hill
#
# Bulk Modulus (GPa) = 16.22725 22.78368 19.50546
# Shear Modulus (GPa) = 24.75143 29.15632 26.95387
#
# Velocity S-wave (km/s) = 3.47585 3.77249 3.62720
# Velocity P-wave (km/s) = 4.90199 5.48604 5.20222
#
# Compressibility (1/GPa) = 0.06162475
#
# Stress axis : x y z
#
# Youngs Moduli (GPa) = 48.57304 26.23236 90.17904
#
# Poissons Ratio (x) = -0.03162 0.09394
# Poissons Ratio (y) = -0.05855 0.38327
# Poissons Ratio (z) = 0.05060 0.11149
#
# Static dielectric constant tensor:
#      x y z
#    x 3.820770 0.000000 0.012130 
#    y 0.000000 3.571290 0.000000 
#    z 0.012130 0.000000 3.761730 
# 
# 
# High freq. dielectric constant tensor:
#      x y z
#    x 1.811210 0.000000 -0.000630 
#    y 0.000000 1.788030 0.000000 
#    z -0.000630 0.000000 1.802690 
# 
# From -- ./inp_files/32962.got.cif
#   From: 2010.06.25/outbox.cif.g09.slc.cpg/sg15_17_cif.got.tgz:32962.got - 2010.06.28 07:06:18.
