data_PCOD8146031
_publ_section_title
;
Structure prediction by ZEFSAII (Michael W. Deem and Ramdas Pophale) SiO2 
 PCOD8146031
Probable space group: C 2/C
;
_chemical_formula_sum "Si O2"
_cell_formula_units_Z 64
_cell_length_a 30.483561
_cell_length_b 10.819184
_cell_length_c 18.151730
_cell_angle_alpha 90.000000
_cell_angle_beta 148.278204
_cell_angle_gamma 90.000000
_cell_volume 3147.711385
_symmetry_space_group_name_H-M "C 2/C"
_symmetry_group_IT_number 15
_symmetry_cell_setting 'monoclinic'
loop_
_space_group_symop_operation_xyz
x,y,z
-x,y,1/2-z
-x,-y,-z
x,-y,1/2+z
1/2+x,1/2+y,z
1/2-x,1/2+y,1/2-z
1/2-x,1/2-y,-z
1/2+x,1/2-y,1/2+z
loop_
_atom_site_type_symbol
_atom_site_label
_atom_site_fract_x
_atom_site_fract_y
_atom_site_fract_z
Si Si1 0.340859 0.548201 0.861425
Si Si2 0.029410 0.142701 0.555353
Si Si3 0.750801 0.092796 0.112382
Si Si4 0.262357 0.128885 0.658944
Si Si5 0.493417 0.420327 0.158572
Si Si6 0.641842 0.407444 0.869145
Si Si7 0.420098 0.139193 0.688191
Si Si8 0.554633 0.105143 0.613575
O O1 0.383806 0.644469 0.865415
O O2 0.279112 0.455288 0.731839
O O3 0.279920 0.633817 0.821708
O O4 0.402493 0.467340 0.001850
O O5 0.032247 0.165724 0.648278
O O6 0.972085 0.251711 0.440004
O O7 0.000000 0.000000 0.500000
O O8 0.765413 0.237161 0.128899
O O9 0.815384 0.040981 0.143940
O O10 0.653027 0.059590 0.957070
O O11 0.203390 0.046360 0.521840
O O12 0.355400 0.076954 0.793028
O O13 0.500000 0.354970 0.250000
O O14 0.549914 0.540401 0.247734
O O15 0.626861 0.261839 0.852248
O O16 0.500000 0.159835 0.750000
O O17 0.449088 0.074580 0.804795
O O18 0.500000 0.000000 0.500000
#
# Coordination Sequence:
#
# PCOD8146031 Si02
#       8
#     8   8   8   8   8   8   8   8
#     4  11  23  35  62  93 126 159 211 267 321 378
#     4  10  22  40  65  94 124 162 213 268 319 369
#     4  11  22  40  63  91 125 165 217 273 316 368
#     4  11  22  38  59  91 124 168 215 263 318 378
#     4  11  20  35  62  95 126 159 205 264 324 379
#     4  11  19  38  63  92 125 159 216 273 319 366
#     4  11  23  37  62  93 127 168 214 267 322 380
#     4  12  26  43  64  92 134 175 212 263 325 393
#
# _framework density 20.332231
#
# number of rings (size 3 to 8) (size 9 to 14) (size 15 to 20)
#    0.000    1.000    5.000    4.125    7.000    0.000 
#    0.000    0.625    2.750    1.500    0.000    0.000 
#    0.000    0.000    0.000    0.000    0.000    0.000 
#
# Total GULP energy -396422.461128 kJ/mol
# GULP energy per Si atom -12388.201910 kJ/mol
# Density = 2.028595 g / cm^3
# Si number density = 20.332231 Si / 1000 Ang^3
#
#
#
# Elastic Constant Matrix: (Units=GPa)
#
#
# Indices 1 2 3 4 5 6 
#
# 1 165.7148 14.5999 58.1970 0.0000 -2.2746 0.0000
# 2 14.5999 42.1240 40.7969 0.0000 0.7829 0.0000
# 3 58.1970 40.7969 159.8083 0.0000 -10.7183 0.0000
# 4 0.0000 0.0000 0.0000 29.2785 0.0000 -2.1686
# 5 -2.2746 0.7829 -10.7183 0.0000 34.8558 0.0000
# 6 0.0000 0.0000 0.0000 -2.1686 0.0000 17.9598
#
#
#
# Elastic Compliance Matrix: (Units=1/GPa)
#
#
# Indices 1 2 3 4 5 6 
#
# 1 0.006923 0.000094 -0.002568 0.000000 -0.000340 0.000000
# 2 0.000094 0.031903 -0.008399 0.000000 -0.003293 0.000000
# 3 -0.002568 -0.008399 0.009535 0.000000 0.002953 0.000000
# 4 0.000000 0.000000 0.000000 0.034463 0.000000 0.004161
# 5 -0.000340 -0.003293 0.002953 0.000000 0.029650 0.000000
# 6 0.000000 0.000000 0.000000 0.004161 0.000000 0.056182
#
#
# Mechanical properties :
#
#
# Convention : Reuss Voigt Hill
#
# Bulk Modulus (GPa) = 37.57406 66.09271 51.83339
# Shear Modulus (GPa) = 25.09099 33.35572 29.22335
#
# Velocity S-wave (km/s) = 3.51672 4.05474 3.79528
# Velocity P-wave (km/s) = 5.91691 7.38229 6.68985
#
# Compressibility (1/GPa) = 0.02661411
#
# Stress axis : x y z
#
# Youngs Moduli (GPa) = 144.43788 31.34504 104.87644
#
# Poissons Ratio (x) = -0.00294 0.26933
# Poissons Ratio (y) = -0.01356 0.88091
# Poissons Ratio (z) = 0.37092 0.26328
#
# Static dielectric constant tensor:
#      x y z
#    x 4.306960 0.000000 -0.300600 
#    y 0.000000 3.151590 0.000000 
#    z -0.300600 0.000000 4.273150 
# 
# 
# High freq. dielectric constant tensor:
#      x y z
#    x 1.816960 0.000000 -0.002730 
#    y 0.000000 1.728960 0.000000 
#    z -0.002730 0.000000 1.811080 
# 
# From -- ./inp_files/225213.got.cif
#   From: 2010.06.25/outbox.cif.g09.slc.cpg/sg15_113_cif.got.tgz:225213.got - 2010.06.28 07:06:18.
