data_PCOD8146924
_publ_section_title
;
Structure prediction by ZEFSAII (Michael W. Deem and Ramdas Pophale) SiO2 
 PCOD8146924
Probable space group: C 2/C
;
_chemical_formula_sum "Si O2"
_cell_formula_units_Z 64
_cell_length_a 16.984517
_cell_length_b 9.188133
_cell_length_c 26.780630
_cell_angle_alpha 90.000000
_cell_angle_beta 134.912911
_cell_angle_gamma 90.000000
_cell_volume 2959.684284
_symmetry_space_group_name_H-M "C 2/C"
_symmetry_group_IT_number 15
_symmetry_cell_setting 'monoclinic'
loop_
_space_group_symop_operation_xyz
x,y,z
-x,y,1/2-z
-x,-y,-z
x,-y,1/2+z
1/2+x,1/2+y,z
1/2-x,1/2+y,1/2-z
1/2-x,1/2-y,-z
1/2+x,1/2-y,1/2+z
loop_
_atom_site_type_symbol
_atom_site_label
_atom_site_fract_x
_atom_site_fract_y
_atom_site_fract_z
Si Si1 0.878398 0.161854 0.697353
Si Si2 0.118721 0.636526 0.215022
Si Si3 0.981513 0.558113 0.068265
Si Si4 0.372878 0.529150 0.944862
Si Si5 0.280818 0.251654 0.956275
Si Si6 0.676859 0.806253 0.513313
Si Si7 0.260679 0.637685 0.800236
Si Si8 0.230110 0.589079 0.136587
O O1 0.894253 0.314989 0.733737
O O2 0.827053 0.191071 0.620223
O O3 0.000000 0.088610 0.750000
O O4 0.797184 0.047791 0.688759
O O5 0.175324 0.476753 0.237417
O O6 0.181226 0.773027 0.217840
O O7 0.001620 0.618289 0.133565
O O8 0.099147 0.568634 0.091718
O O9 0.892340 0.655976 0.998365
O O10 0.932357 0.395310 0.053241
O O11 0.303443 0.410179 0.944127
O O12 0.362024 0.676949 0.969635
O O13 0.338408 0.540663 0.871251
O O14 0.500000 0.500000 0.000000
O O15 0.250000 0.250000 0.000000
O O16 0.750000 0.750000 0.500000
O O17 0.746027 0.908130 0.583168
O O18 0.212524 0.765944 0.814459
#
# Coordination Sequence:
#
# PCOD8146924 Si02
#       8
#     8   8   8   8   8   8   8   8
#     4  12  26  44  69  97 142 187 233 292 354 426
#     4  11  22  43  65 100 135 178 235 278 361 418
#     4  11  23  43  73  98 133 186 232 290 349 423
#     4  11  24  40  68 105 138 175 236 292 345 415
#     4  12  24  44  71 104 139 186 234 292 364 422
#     4  11  23  41  65 101 139 172 225 287 353 410
#     4  10  22  42  66  97 136 176 225 297 341 419
#     4  10  23  45  69  96 137 183 240 286 349 421
#
# _framework density 21.623927999999999
#
# number of rings (size 3 to 8) (size 9 to 14) (size 15 to 20)
#    0.000    1.000    2.500    5.625    1.750    1.000 
#    2.250    0.000    0.000    0.000    0.000    0.000 
#    0.000    0.000    0.000    0.000    0.000    0.000 
#
# Total GULP energy -396451.161837 kJ/mol
# GULP energy per Si atom -12389.098807 kJ/mol
# Density = 2.157471 g / cm^3
# Si number density = 21.623928 Si / 1000 Ang^3
#
#
#
# Elastic Constant Matrix: (Units=GPa)
#
#
# Indices 1 2 3 4 5 6 
#
# 1 93.5779 31.9195 43.3110 0.0000 -4.6511 0.0000
# 2 31.9195 113.5296 51.2723 0.0000 5.5085 0.0000
# 3 43.3110 51.2723 145.7326 0.0000 -3.4270 0.0000
# 4 0.0000 0.0000 0.0000 43.6821 0.0000 -5.2091
# 5 -4.6511 5.5085 -3.4270 0.0000 35.0964 0.0000
# 6 0.0000 0.0000 0.0000 -5.2091 0.0000 28.4121
#
#
#
# Elastic Compliance Matrix: (Units=1/GPa)
#
#
# Indices 1 2 3 4 5 6 
#
# 1 0.012966 -0.002392 -0.002970 0.000000 0.001804 0.000000
# 2 -0.002392 0.011057 -0.003235 0.000000 -0.002368 0.000000
# 3 -0.002970 -0.003235 0.008906 0.000000 0.000984 0.000000
# 4 0.000000 0.000000 0.000000 0.023404 0.000000 0.004291
# 5 0.001804 -0.002368 0.000984 0.000000 0.029200 0.000000
# 6 0.000000 0.000000 0.000000 0.004291 0.000000 0.035983
#
#
# Mechanical properties :
#
#
# Convention : Reuss Voigt Hill
#
# Bulk Modulus (GPa) = 63.54897 67.31617 65.43257
# Shear Modulus (GPa) = 34.73345 36.52727 35.63036
#
# Velocity S-wave (km/s) = 4.01215 4.11445 4.06363
# Velocity P-wave (km/s) = 7.13549 7.33278 7.23481
#
# Compressibility (1/GPa) = 0.01573590
#
# Stress axis : x y z
#
# Youngs Moduli (GPa) = 77.12339 90.44371 112.28856
#
# Poissons Ratio (x) = 0.21634 0.33344
# Poissons Ratio (y) = 0.18448 0.36323
# Poissons Ratio (z) = 0.22902 0.29257
#
# Static dielectric constant tensor:
#      x y z
#    x 4.104310 0.000000 -0.598130 
#    y 0.000000 4.167300 0.000000 
#    z -0.598130 0.000000 4.559880 
# 
# 
# High freq. dielectric constant tensor:
#      x y z
#    x 1.831360 0.000000 -0.020010 
#    y 0.000000 1.866880 0.000000 
#    z -0.020010 0.000000 1.860290 
# 
# From -- ./inp_files/315744.got.cif
#   From: 2010.06.25/outbox.cif.g09.slc.cpg/sg15_158_cif.got.tgz:315744.got - 2010.06.28 07:06:18.
