data_PCOD8146500
_publ_section_title
;
Structure prediction by ZEFSAII (Michael W. Deem and Ramdas Pophale) SiO2 
 PCOD8146500
Probable space group: C 2/C
;
_chemical_formula_sum "Si O2"
_cell_formula_units_Z 64
_cell_length_a 13.618738
_cell_length_b 9.973070
_cell_length_c 26.937689
_cell_angle_alpha 90.000000
_cell_angle_beta 56.779897
_cell_angle_gamma 90.000000
_cell_volume 3060.761326
_symmetry_space_group_name_H-M "C 2/C"
_symmetry_group_IT_number 15
_symmetry_cell_setting 'monoclinic'
loop_
_space_group_symop_operation_xyz
x,y,z
-x,y,1/2-z
-x,-y,-z
x,-y,1/2+z
1/2+x,1/2+y,z
1/2-x,1/2+y,1/2-z
1/2-x,1/2-y,-z
1/2+x,1/2-y,1/2+z
loop_
_atom_site_type_symbol
_atom_site_label
_atom_site_fract_x
_atom_site_fract_y
_atom_site_fract_z
Si Si1 0.861750 0.444871 0.284511
Si Si2 0.799772 0.158280 0.332743
Si Si3 0.806368 0.942037 0.253727
Si Si4 0.362722 0.377999 0.923340
Si Si5 0.127832 0.731908 0.190574
Si Si6 0.591811 0.136625 0.523654
Si Si7 0.975944 0.140549 0.873016
Si Si8 0.538834 0.126120 0.428265
O O1 0.791785 0.316556 0.324183
O O2 0.817481 0.469033 0.240008
O O3 0.826787 0.578000 0.325790
O O4 0.000000 0.415034 0.250000
O O5 0.850103 0.074237 0.271957
O O6 0.878884 0.141495 0.359663
O O7 0.672832 0.095084 0.377879
O O8 0.787710 0.819034 0.297283
O O9 0.904314 0.904407 0.186367
O O10 0.431213 0.260216 0.932993
O O11 0.423471 0.518247 0.919099
O O12 0.229272 0.384419 0.977618
O O13 0.120093 0.803682 0.139582
O O14 0.000000 0.725032 0.250000
O O15 0.526777 0.165339 0.489571
O O16 0.537589 0.004431 0.563684
O O17 0.993585 0.253323 0.908383
#
# Coordination Sequence:
#
# PCOD8146500 Si02
#       8
#     8   8   8   8   8   8   8   8
#     4  11  24  36  58  89 124 175 218 255 298 370
#     4  11  23  39  62  93 128 172 210 256 318 379
#     4  11  22  42  57  90 138 169 208 260 303 391
#     4  10  22  41  66  96 120 165 213 268 324 375
#     4   9  21  39  57  85 130 170 204 251 306 369
#     4   9  22  45  67  90 126 157 218 283 317 375
#     4  11  22  40  65  95 130 171 203 257 323 392
#     4  10  22  43  66  90 125 172 207 266 335 368
#
# _framework density 20.909829999999999
#
# number of rings (size 3 to 8) (size 9 to 14) (size 15 to 20)
#    0.000    1.750    2.500    0.750    7.000    1.000 
#    2.250    0.000    0.000    0.000    0.000    0.000 
#    0.000    0.000    0.000    0.000    0.000    0.000 
#
# Total GULP energy -396807.717431 kJ/mol
# GULP energy per Si atom -12400.241170 kJ/mol
# Density = 2.086224 g / cm^3
# Si number density = 20.909830 Si / 1000 Ang^3
#
#
#
# Elastic Constant Matrix: (Units=GPa)
#
#
# Indices 1 2 3 4 5 6 
#
# 1 101.1563 58.2915 39.3436 0.0000 21.7739 0.0000
# 2 58.2915 189.9820 66.1851 0.0000 16.4954 0.0000
# 3 39.3436 66.1851 68.9867 0.0000 19.8888 0.0000
# 4 0.0000 0.0000 0.0000 34.0520 0.0000 13.2721
# 5 21.7739 16.4954 19.8888 0.0000 20.7576 0.0000
# 6 0.0000 0.0000 0.0000 13.2721 0.0000 38.4295
#
#
#
# Elastic Compliance Matrix: (Units=1/GPa)
#
#
# Indices 1 2 3 4 5 6 
#
# 1 0.014811 -0.002625 -0.002833 0.000000 -0.010736 0.000000
# 2 -0.002625 0.008399 -0.007503 0.000000 0.003268 0.000000
# 3 -0.002833 -0.007503 0.028647 0.000000 -0.018514 0.000000
# 4 0.000000 0.000000 0.000000 0.033935 0.000000 -0.011720
# 5 -0.010736 0.003268 -0.018514 0.000000 0.074578 0.000000
# 6 0.000000 0.000000 0.000000 -0.011720 0.000000 0.030069
#
#
# Mechanical properties :
#
#
# Convention : Reuss Voigt Hill
#
# Bulk Modulus (GPa) = 38.55873 76.41839 57.48856
# Shear Modulus (GPa) = 22.22133 31.73478 26.97806
#
# Velocity S-wave (km/s) = 3.26348 3.89999 3.59585
# Velocity P-wave (km/s) = 5.71672 7.54360 6.69279
#
# Compressibility (1/GPa) = 0.02593446
#
# Stress axis : x y z
#
# Youngs Moduli (GPa) = 67.51574 119.05663 34.90714
#
# Poissons Ratio (x) = 0.31257 0.09890
# Poissons Ratio (y) = 0.17725 0.26192
# Poissons Ratio (z) = 0.19129 0.89332
#
# Static dielectric constant tensor:
#      x y z
#    x 3.915620 0.000000 0.245130 
#    y 0.000000 3.989390 0.000000 
#    z 0.245130 0.000000 3.579760 
# 
# 
# High freq. dielectric constant tensor:
#      x y z
#    x 1.821740 0.000000 0.017660 
#    y 0.000000 1.834160 0.000000 
#    z 0.017660 0.000000 1.791350 
# 
# From -- ./inp_files/312900.got.cif
#   From: 2010.06.25/outbox.cif.g09.slc.cpg/sg15_157_cif.got.tgz:312900.got - 2010.06.28 07:06:18.
