data_PCOD8146404
_publ_section_title
;
Structure prediction by ZEFSAII (Michael W. Deem and Ramdas Pophale) SiO2 
 PCOD8146404
Probable space group: C 2/C
;
_chemical_formula_sum "Si O2"
_cell_formula_units_Z 44
_cell_length_a 13.658309
_cell_length_b 12.865025
_cell_length_c 11.515726
_cell_angle_alpha 90.000000
_cell_angle_beta 102.251842
_cell_angle_gamma 90.000000
_cell_volume 1977.393682
_symmetry_space_group_name_H-M "C 2/C"
_symmetry_group_IT_number 15
_symmetry_cell_setting 'monoclinic'
loop_
_space_group_symop_operation_xyz
x,y,z
-x,y,1/2-z
-x,-y,-z
x,-y,1/2+z
1/2+x,1/2+y,z
1/2-x,1/2+y,1/2-z
1/2-x,1/2-y,-z
1/2+x,1/2-y,1/2+z
loop_
_atom_site_type_symbol
_atom_site_label
_atom_site_fract_x
_atom_site_fract_y
_atom_site_fract_z
Si Si1 0.687430 0.434311 0.432746
Si Si2 0.000000 0.003113 0.750000
Si Si3 0.032423 0.409465 0.637213
Si Si4 0.764953 0.343079 0.914330
Si Si5 0.128557 0.158228 0.157834
Si Si6 0.608276 0.881722 0.101805
O O1 0.582696 0.426581 0.335702
O O2 0.722073 0.553061 0.464533
O O3 0.682035 0.372687 0.551722
O O4 0.770761 0.378719 0.373795
O O5 0.951910 0.930436 0.836297
O O6 0.117734 0.348161 0.587690
O O7 0.071407 0.526553 0.678064
O O8 0.000000 0.355574 0.750000
O O9 0.932781 0.412016 0.535344
O O10 0.708357 0.327187 0.779445
O O11 0.750000 0.250000 0.000000
O O12 0.070597 0.268348 0.131831
#
# Coordination Sequence:
#
# PCOD8146404 Si02
#       6
#     8   4   8   8   8   8
#     4  10  22  44  62  97 133 177 222 282 336 399
#     4  10  24  40  66  96 130 182 224 276 340 398
#     4  10  22  41  64  97 130 172 220 279 336 403
#     4  10  24  41  67  98 132 176 227 276 334 406
#     4  11  23  41  65  92 133 172 222 280 337 402
#     4  10  23  39  67  92 131 170 221 276 338 396
#
# _framework density 22.251512000000002
#
# number of rings (size 3 to 8) (size 9 to 14) (size 15 to 20)
#    0.000    1.818    0.000    2.182    6.364    7.273 
#    4.909    0.000    0.000    0.000    0.000    0.000 
#    0.000    0.000    0.000    0.000    0.000    0.000 
#
# Total GULP energy -272806.948001 kJ/mol
# GULP energy per Si atom -12400.315818 kJ/mol
# Density = 2.220087 g / cm^3
# Si number density = 22.251512 Si / 1000 Ang^3
#
#
#
# Elastic Constant Matrix: (Units=GPa)
#
#
# Indices 1 2 3 4 5 6 
#
# 1 114.7893 16.3688 47.9084 0.0000 14.5684 0.0000
# 2 16.3688 93.2798 39.0631 0.0000 -1.7496 0.0000
# 3 47.9084 39.0631 104.0815 0.0000 6.2053 0.0000
# 4 0.0000 0.0000 0.0000 33.7668 0.0000 -0.8514
# 5 14.5684 -1.7496 6.2053 0.0000 32.5267 0.0000
# 6 0.0000 0.0000 0.0000 -0.8514 0.0000 15.4559
#
#
#
# Elastic Compliance Matrix: (Units=1/GPa)
#
#
# Indices 1 2 3 4 5 6 
#
# 1 0.011303 0.000018 -0.004964 0.000000 -0.004115 0.000000
# 2 0.000018 0.012804 -0.004910 0.000000 0.001617 0.000000
# 3 -0.004964 -0.004910 0.013776 0.000000 -0.000669 0.000000
# 4 0.000000 0.000000 0.000000 0.029656 0.000000 0.001634
# 5 -0.004115 0.001617 -0.000669 0.000000 0.032801 0.000000
# 6 0.000000 0.000000 0.000000 0.001634 0.000000 0.064790
#
#
# Mechanical properties :
#
#
# Convention : Reuss Voigt Hill
#
# Bulk Modulus (GPa) = 55.03586 57.64789 56.34188
# Shear Modulus (GPa) = 26.19177 30.27057 28.23117
#
# Velocity S-wave (km/s) = 3.43458 3.69234 3.56579
# Velocity P-wave (km/s) = 6.36519 6.64390 6.50604
#
# Compressibility (1/GPa) = 0.01816997
#
# Stress axis : x y z
#
# Youngs Moduli (GPa) = 88.47116 78.10151 72.59167
#
# Poissons Ratio (x) = -0.00143 0.36037
# Poissons Ratio (y) = -0.00162 0.35645
# Poissons Ratio (z) = 0.43920 0.38350
#
# Static dielectric constant tensor:
#      x y z
#    x 4.131230 0.000000 0.046160 
#    y 0.000000 4.047900 0.000000 
#    z 0.046160 0.000000 3.779270 
# 
# 
# High freq. dielectric constant tensor:
#      x y z
#    x 1.885620 0.000000 0.003550 
#    y 0.000000 1.871880 0.000000 
#    z 0.003550 0.000000 1.869730 
# 
# From -- ./inp_files/95064.got.cif
#   From: 2010.06.25/outbox.cif.g09.slc.cpg/sg15_48_cif.got.tgz:95064.got - 2010.06.28 07:06:18.
