data_PCOD8146361
_publ_section_title
;
Structure prediction by ZEFSAII (Michael W. Deem and Ramdas Pophale) SiO2 
 PCOD8146361
Probable space group: C 2/C
;
_chemical_formula_sum "Si O2"
_cell_formula_units_Z 44
_cell_length_a 7.563043
_cell_length_b 17.716826
_cell_length_c 16.800552
_cell_angle_alpha 90.000000
_cell_angle_beta 71.721776
_cell_angle_gamma 90.000000
_cell_volume 2137.575562
_symmetry_space_group_name_H-M "C 2/C"
_symmetry_group_IT_number 15
_symmetry_cell_setting 'monoclinic'
loop_
_space_group_symop_operation_xyz
x,y,z
-x,y,1/2-z
-x,-y,-z
x,-y,1/2+z
1/2+x,1/2+y,z
1/2-x,1/2+y,1/2-z
1/2-x,1/2-y,-z
1/2+x,1/2-y,1/2+z
loop_
_atom_site_type_symbol
_atom_site_label
_atom_site_fract_x
_atom_site_fract_y
_atom_site_fract_z
Si Si1 0.042208 0.177387 0.333775
Si Si2 0.582124 0.414137 0.055627
Si Si3 0.500000 0.935666 0.250000
Si Si4 0.803798 0.035187 0.126924
Si Si5 0.614978 0.156762 0.877869
Si Si6 0.229796 0.162090 0.999682
O O1 0.194702 0.110894 0.319090
O O2 0.113578 0.252530 0.368299
O O3 0.000000 0.199037 0.250000
O O4 0.858209 0.140832 0.402185
O O5 0.493485 0.486576 0.112419
O O6 0.701627 0.365317 0.099980
O O7 0.412264 0.362098 0.049598
O O8 0.710933 0.442465 0.964345
O O9 0.377261 0.882585 0.209667
O O10 0.626269 0.987517 0.176711
O O11 0.432636 0.127373 0.952269
O O12 0.250000 0.250000 0.000000
#
# Coordination Sequence:
#
# PCOD8146361 Si02
#       6
#     8   8   4   8   8   8
#     4  10  22  41  63  96 136 168 212 279 328 378
#     4  10  22  44  67  94 128 177 220 263 330 393
#     4  12  24  42  64 102 130 170 226 270 326 392
#     4  10  24  42  62  96 135 164 219 273 326 391
#     4  11  23  42  72  92 130 176 222 268 323 397
#     4   9  20  40  65  94 129 169 217 267 316 390
#
# _framework density 20.584069
#
# number of rings (size 3 to 8) (size 9 to 14) (size 15 to 20)
#    0.000    1.818    2.727    0.000    2.545    8.727 
#    0.000    3.636    0.000    0.000    0.000    0.000 
#    0.000    0.000    0.000    0.000    0.000    0.000 
#
# Total GULP energy -272687.257818 kJ/mol
# GULP energy per Si atom -12394.875355 kJ/mol
# Density = 2.053722 g / cm^3
# Si number density = 20.584069 Si / 1000 Ang^3
#
#
#
# Elastic Constant Matrix: (Units=GPa)
#
#
# Indices 1 2 3 4 5 6 
#
# 1 100.9563 49.4486 39.3418 0.0000 17.9877 0.0000
# 2 49.4486 130.1931 39.5304 0.0000 6.6759 0.0000
# 3 39.3418 39.5304 71.8561 0.0000 13.0800 0.0000
# 4 0.0000 0.0000 0.0000 30.5652 0.0000 0.6681
# 5 17.9877 6.6759 13.0800 0.0000 23.1279 0.0000
# 6 0.0000 0.0000 0.0000 0.6681 0.0000 36.1006
#
#
#
# Elastic Compliance Matrix: (Units=1/GPa)
#
#
# Indices 1 2 3 4 5 6 
#
# 1 0.015038 -0.003894 -0.004645 0.000000 -0.007945 0.000000
# 2 -0.003894 0.010231 -0.003913 0.000000 0.002288 0.000000
# 3 -0.004645 -0.003913 0.019786 0.000000 -0.006448 0.000000
# 4 0.000000 0.000000 0.000000 0.032730 0.000000 -0.000606
# 5 -0.007945 0.002288 -0.006448 0.000000 0.052403 0.000000
# 6 0.000000 0.000000 0.000000 -0.000606 0.000000 0.027712
#
#
# Mechanical properties :
#
#
# Convention : Reuss Voigt Hill
#
# Bulk Modulus (GPa) = 49.62441 62.18300 55.90370
# Shear Modulus (GPa) = 26.38233 29.60438 27.99335
#
# Velocity S-wave (km/s) = 3.58395 3.79650 3.69175
# Velocity P-wave (km/s) = 6.42548 7.03511 6.73719
#
# Compressibility (1/GPa) = 0.02015137
#
# Stress axis : x y z
#
# Youngs Moduli (GPa) = 66.49691 97.74680 50.54020
#
# Poissons Ratio (x) = 0.38061 0.23477
# Poissons Ratio (y) = 0.25893 0.19775
# Poissons Ratio (z) = 0.30889 0.38246
#
# Static dielectric constant tensor:
#      x y z
#    x 2.728410 0.000000 0.264470 
#    y 0.000000 3.456500 0.000000 
#    z 0.264470 0.000000 3.586100 
# 
# 
# High freq. dielectric constant tensor:
#      x y z
#    x 1.774480 0.000000 -0.010010 
#    y 0.000000 1.824000 0.000000 
#    z -0.010010 0.000000 1.807590 
# 
# From -- ./inp_files/189694.got.cif
#   From: 2010.06.25/outbox.cif.g09.slc.cpg/sg15_95_cif.got.tgz:189694.got - 2010.06.28 07:06:18.
