data_PCOD8146246
_publ_section_title
;
Structure prediction by ZEFSAII (Michael W. Deem and Ramdas Pophale) SiO2 
 PCOD8146246
Probable space group: C 2/C
;
_chemical_formula_sum "Si O2"
_cell_formula_units_Z 52
_cell_length_a 6.629190
_cell_length_b 26.490909
_cell_length_c 15.186396
_cell_angle_alpha 90.000000
_cell_angle_beta 69.335645
_cell_angle_gamma 90.000000
_cell_volume 2495.352213
_symmetry_space_group_name_H-M "C 2/C"
_symmetry_group_IT_number 15
_symmetry_cell_setting 'monoclinic'
loop_
_space_group_symop_operation_xyz
x,y,z
-x,y,1/2-z
-x,-y,-z
x,-y,1/2+z
1/2+x,1/2+y,z
1/2-x,1/2+y,1/2-z
1/2-x,1/2-y,-z
1/2+x,1/2-y,1/2+z
loop_
_atom_site_type_symbol
_atom_site_label
_atom_site_fract_x
_atom_site_fract_y
_atom_site_fract_z
Si Si1 0.049053 0.218159 0.004486
Si Si2 0.796499 0.104393 0.523178
Si Si3 0.908353 0.554380 0.498301
Si Si4 0.046588 0.050766 0.840397
Si Si5 0.681922 0.440740 0.858089
Si Si6 0.000000 0.632902 0.250000
Si Si7 0.901254 0.271137 0.852732
O O1 0.122695 0.160968 0.986960
O O2 0.975309 0.237370 0.921432
O O3 0.250000 0.250000 0.000000
O O4 0.859665 0.225659 0.105474
O O5 0.558761 0.097964 0.517512
O O6 0.788973 0.083726 0.625245
O O7 0.954480 0.072581 0.436210
O O8 0.675093 0.555718 0.575391
O O9 0.878137 0.560688 0.398515
O O10 0.000000 0.500000 0.500000
O O11 0.000000 0.072170 0.750000
O O12 0.148195 0.994748 0.817260
O O13 0.778736 0.400247 0.773394
O O14 0.986529 0.670301 0.338329
O O15 0.000000 0.244223 0.750000
#
# Coordination Sequence:
#
# PCOD8146246 Si02
#       7
#     8   8   8   8   8   4   8
#     4  11  24  41  70  98 128 173 229 271 330 397
#     4  11  22  42  63  89 127 170 213 257 319 386
#     4  11  21  39  63  86 127 169 203 253 317 383
#     4  11  25  40  59  93 128 166 213 259 316 390
#     4  11  22  39  64  96 124 162 206 261 325 388
#     4  10  22  40  70  98 128 162 208 274 342 374
#     4   9  22  46  64  94 138 167 213 284 334 385
#
# _framework density 20.838742
#
# number of rings (size 3 to 8) (size 9 to 14) (size 15 to 20)
#    0.462    0.923    4.615    0.923    4.308    3.077 
#    0.000    3.077    0.000    0.000    0.000    0.000 
#    0.000    0.000    0.000    0.000    0.000    0.000 
#
# Total GULP energy -322179.805702 kJ/mol
# GULP energy per Si atom -12391.530989 kJ/mol
# Density = 2.079131 g / cm^3
# Si number density = 20.838742 Si / 1000 Ang^3
#
#
#
# Elastic Constant Matrix: (Units=GPa)
#
#
# Indices 1 2 3 4 5 6 
#
# 1 113.9178 35.1569 32.2074 0.0000 3.0218 0.0000
# 2 35.1569 86.0714 20.7467 0.0000 -4.1227 0.0000
# 3 32.2074 20.7467 91.4302 0.0000 -5.0043 0.0000
# 4 0.0000 0.0000 0.0000 31.1081 0.0000 -5.0052
# 5 3.0218 -4.1227 -5.0043 0.0000 25.0616 0.0000
# 6 0.0000 0.0000 0.0000 -5.0052 0.0000 38.3582
#
#
#
# Elastic Compliance Matrix: (Units=1/GPa)
#
#
# Indices 1 2 3 4 5 6 
#
# 1 0.010908 -0.003828 -0.003114 0.000000 -0.002567 0.000000
# 2 -0.003828 0.013688 -0.001627 0.000000 0.002388 0.000000
# 3 -0.003114 -0.001627 0.012547 0.000000 0.002613 0.000000
# 4 0.000000 0.000000 0.000000 0.032835 0.000000 0.004285
# 5 -0.002567 0.002388 0.002613 0.000000 0.041126 0.000000
# 6 0.000000 0.000000 0.000000 0.004285 0.000000 0.026629
#
#
# Mechanical properties :
#
#
# Convention : Reuss Voigt Hill
#
# Bulk Modulus (GPa) = 49.98817 51.96015 50.97416
# Shear Modulus (GPa) = 30.95204 32.45947 31.70575
#
# Velocity S-wave (km/s) = 3.85816 3.95099 3.90485
# Velocity P-wave (km/s) = 6.62475 6.76774 6.69663
#
# Compressibility (1/GPa) = 0.02000473
#
# Stress axis : x y z
#
# Youngs Moduli (GPa) = 91.67398 73.05478 79.70277
#
# Poissons Ratio (x) = 0.27964 0.24823
# Poissons Ratio (y) = 0.35091 0.12967
# Poissons Ratio (z) = 0.28551 0.11886
#
# Static dielectric constant tensor:
#      x y z
#    x 3.499200 0.000000 0.063630 
#    y 0.000000 3.630910 0.000000 
#    z 0.063630 0.000000 4.030250 
# 
# 
# High freq. dielectric constant tensor:
#      x y z
#    x 1.817340 0.000000 -0.009050 
#    y 0.000000 1.812330 0.000000 
#    z -0.009050 0.000000 1.813390 
# 
# From -- ./inp_files/130722.got.cif
#   From: 2010.06.25/outbox.cif.g09.slc.cpg/sg15_66_cif.got.tgz:130722.got - 2010.06.28 07:06:18.
