data_PCOD8146315
_publ_section_title
;
Structure prediction by ZEFSAII (Michael W. Deem and Ramdas Pophale) SiO2 
 PCOD8146315
Probable space group: C 2/C
;
_chemical_formula_sum "Si O2"
_cell_formula_units_Z 64
_cell_length_a 11.285700
_cell_length_b 8.470981
_cell_length_c 32.059949
_cell_angle_alpha 90.000000
_cell_angle_beta 90.767729
_cell_angle_gamma 90.000000
_cell_volume 3064.686447
_symmetry_space_group_name_H-M "C 2/C"
_symmetry_group_IT_number 15
_symmetry_cell_setting 'monoclinic'
loop_
_space_group_symop_operation_xyz
x,y,z
-x,y,1/2-z
-x,-y,-z
x,-y,1/2+z
1/2+x,1/2+y,z
1/2-x,1/2+y,1/2-z
1/2-x,1/2-y,-z
1/2+x,1/2-y,1/2+z
loop_
_atom_site_type_symbol
_atom_site_label
_atom_site_fract_x
_atom_site_fract_y
_atom_site_fract_z
Si Si1 0.175718 0.128340 0.367705
Si Si2 0.775987 0.834132 0.297243
Si Si3 0.625206 0.130994 0.272040
Si Si4 0.963910 0.296661 0.583047
Si Si5 0.225436 0.381112 0.071163
Si Si6 0.143203 0.640653 0.012474
Si Si7 0.978874 0.126174 0.667328
Si Si8 0.031644 0.647484 0.924165
O O1 0.250493 0.246375 0.340248
O O2 0.115295 0.221839 0.405234
O O3 0.258258 0.997974 0.389404
O O4 0.081771 0.044244 0.336932
O O5 0.781412 0.709594 0.259412
O O6 0.906208 0.908126 0.303991
O O7 0.679184 0.967361 0.288384
O O8 0.500000 0.091439 0.250000
O O9 0.608398 0.249673 0.310569
O O10 0.835792 0.236120 0.566115
O O11 0.008885 0.191470 0.621619
O O12 0.953722 0.477940 0.598460
O O13 0.062860 0.277555 0.547709
O O14 0.203134 0.478982 0.028711
O O15 0.103323 0.287534 0.080266
O O16 0.250000 0.750000 0.000000
O O17 0.060631 0.608744 0.972383
#
# Coordination Sequence:
#
# PCOD8146315 Si02
#       8
#     8   8   8   8   8   8   8   8
#     4  11  23  39  61  91 120 159 201 247 301 357
#     4  11  22  40  66  88 125 161 190 246 299 350
#     4  10  23  41  62  93 121 156 198 240 294 357
#     4  10  22  41  62  87 120 162 202 254 307 357
#     4  10  22  42  59  87 122 160 204 256 300 360
#     4  11  22  39  60  87 123 158 206 257 306 360
#     4  10  23  41  60  90 121 153 204 245 295 361
#     4  11  23  38  60  87 120 159 206 252 305 359
#
# _framework density 20.883049
#
# number of rings (size 3 to 8) (size 9 to 14) (size 15 to 20)
#    0.000    1.500    1.250    4.500    0.000    7.500 
#    2.250    0.000    0.000    0.000    0.000    0.000 
#    0.000    0.000    0.000    0.000    0.000    0.000 
#
# Total GULP energy -396856.268496 kJ/mol
# GULP energy per Si atom -12401.758391 kJ/mol
# Density = 2.083552 g / cm^3
# Si number density = 20.883049 Si / 1000 Ang^3
#
#
#
# Elastic Constant Matrix: (Units=GPa)
#
#
# Indices 1 2 3 4 5 6 
#
# 1 96.6747 28.3417 24.8809 0.0000 -0.5079 0.0000
# 2 28.3417 56.6326 11.0455 0.0000 1.4294 0.0000
# 3 24.8809 11.0455 75.7557 0.0000 -7.8730 0.0000
# 4 0.0000 0.0000 0.0000 28.4069 0.0000 2.6719
# 5 -0.5079 1.4294 -7.8730 0.0000 35.1176 0.0000
# 6 0.0000 0.0000 0.0000 2.6719 0.0000 32.7546
#
#
#
# Elastic Compliance Matrix: (Units=1/GPa)
#
#
# Indices 1 2 3 4 5 6 
#
# 1 0.012924 -0.005789 -0.003437 0.000000 -0.000348 0.000000
# 2 -0.005789 0.020831 -0.001262 0.000000 -0.001215 0.000000
# 3 -0.003437 -0.001262 0.014860 0.000000 0.003333 0.000000
# 4 0.000000 0.000000 0.000000 0.035475 0.000000 -0.002894
# 5 -0.000348 -0.001215 0.003333 0.000000 0.029267 0.000000
# 6 0.000000 0.000000 0.000000 -0.002894 0.000000 0.030766
#
#
# Mechanical properties :
#
#
# Convention : Reuss Voigt Hill
#
# Bulk Modulus (GPa) = 36.18043 39.73324 37.95683
# Shear Modulus (GPa) = 28.68428 30.24213 29.46320
#
# Velocity S-wave (km/s) = 3.71019 3.80961 3.76023
# Velocity P-wave (km/s) = 5.97636 6.19828 6.08833
#
# Compressibility (1/GPa) = 0.02763925
#
# Stress axis : x y z
#
# Youngs Moduli (GPa) = 77.37746 48.00440 67.29685
#
# Poissons Ratio (x) = 0.27788 0.23128
# Poissons Ratio (y) = 0.44790 0.08495
# Poissons Ratio (z) = 0.26593 0.06060
#
# Static dielectric constant tensor:
#      x y z
#    x 3.907720 0.000000 0.104750 
#    y 0.000000 3.631030 0.000000 
#    z 0.104750 0.000000 3.851120 
# 
# 
# High freq. dielectric constant tensor:
#      x y z
#    x 1.829710 0.000000 0.005600 
#    y 0.000000 1.807200 0.000000 
#    z 0.005600 0.000000 1.824640 
# 
# From -- ./inp_files/310312.got.cif
#   From: 2010.06.25/outbox.cif.g09.slc.cpg/sg15_156_cif.got.tgz:310312.got - 2010.06.28 07:06:18.
