data_PCOD8146401
_publ_section_title
;
Structure prediction by ZEFSAII (Michael W. Deem and Ramdas Pophale) SiO2 
 PCOD8146401
Probable space group: C 2/C
;
_chemical_formula_sum "Si O2"
_cell_formula_units_Z 40
_cell_length_a 22.354544
_cell_length_b 8.627216
_cell_length_c 8.752723
_cell_angle_alpha 90.000000
_cell_angle_beta 100.535918
_cell_angle_gamma 90.000000
_cell_volume 1659.568743
_symmetry_space_group_name_H-M "C 2/C"
_symmetry_group_IT_number 15
_symmetry_cell_setting 'monoclinic'
loop_
_space_group_symop_operation_xyz
x,y,z
-x,y,1/2-z
-x,-y,-z
x,-y,1/2+z
1/2+x,1/2+y,z
1/2-x,1/2+y,1/2-z
1/2-x,1/2-y,-z
1/2+x,1/2-y,1/2+z
loop_
_atom_site_type_symbol
_atom_site_label
_atom_site_fract_x
_atom_site_fract_y
_atom_site_fract_z
Si Si1 0.801411 0.191442 0.834464
Si Si2 0.612024 0.147547 0.492144
Si Si3 0.480464 0.659047 0.416990
Si Si4 0.077545 0.664547 0.132443
Si Si5 0.258949 0.991327 0.435613
O O1 0.873212 0.206417 0.902204
O O2 0.774963 0.365874 0.830151
O O3 0.791896 0.120863 0.661127
O O4 0.767461 0.069572 0.926021
O O5 0.591331 0.298344 0.586192
O O6 0.577522 0.160275 0.315178
O O7 0.591100 0.004390 0.581417
O O8 0.684241 0.123611 0.501592
O O9 0.500000 0.663527 0.250000
O O10 0.500000 0.500000 0.500000
O O11 0.513546 0.791807 0.529986
#
# Coordination Sequence:
#
# PCOD8146401 Si02
#       5
#     8   8   8   8   8
#     4  10  23  40  64  97 135 176 231 285 344 411
#     4  11  23  44  70  96 136 184 233 282 344 417
#     4  12  27  46  69 101 137 175 228 289 350 413
#     4  11  24  43  68  98 133 181 232 287 346 413
#     4  10  22  41  64  96 133 178 226 282 344 411
#
# _framework density 24.102647000000001
#
# number of rings (size 3 to 8) (size 9 to 14) (size 15 to 20)
#    0.000    1.200    0.000    6.000    0.000   11.200 
#    0.000    0.000    0.000    0.000    0.000    0.000 
#    0.000    0.000    0.000    0.000    0.000    0.000 
#
# Total GULP energy -247862.916178 kJ/mol
# GULP energy per Si atom -12393.145809 kJ/mol
# Density = 2.404779 g / cm^3
# Si number density = 24.102647 Si / 1000 Ang^3
#
#
#
# Elastic Constant Matrix: (Units=GPa)
#
#
# Indices 1 2 3 4 5 6 
#
# 1 93.5484 40.9897 36.5080 0.0000 -20.5844 0.0000
# 2 40.9897 100.5867 56.1470 0.0000 -12.5251 0.0000
# 3 36.5080 56.1470 113.1951 0.0000 -8.1640 0.0000
# 4 0.0000 0.0000 0.0000 40.6923 0.0000 20.3867
# 5 -20.5844 -12.5251 -8.1640 0.0000 38.2467 0.0000
# 6 0.0000 0.0000 0.0000 20.3867 0.0000 19.3325
#
#
#
# Elastic Compliance Matrix: (Units=1/GPa)
#
#
# Indices 1 2 3 4 5 6 
#
# 1 0.014662 -0.003900 -0.002353 0.000000 0.006111 0.000000
# 2 -0.003900 0.015156 -0.006148 0.000000 0.001552 0.000000
# 3 -0.002353 -0.006148 0.012600 0.000000 -0.000590 0.000000
# 4 0.000000 0.000000 0.000000 0.052099 0.000000 -0.054940
# 5 0.006111 0.001552 -0.000590 0.000000 0.029817 0.000000
# 6 0.000000 0.000000 0.000000 -0.054940 0.000000 0.109662
#
#
# Mechanical properties :
#
#
# Convention : Reuss Voigt Hill
#
# Bulk Modulus (GPa) = 56.76934 63.84663 60.30798
# Shear Modulus (GPa) = 18.89134 31.23335 25.06234
#
# Velocity S-wave (km/s) = 2.80266 3.60369 3.22812
# Velocity P-wave (km/s) = 5.83759 6.62287 6.24259
#
# Compressibility (1/GPa) = 0.01761514
#
# Stress axis : x y z
#
# Youngs Moduli (GPa) = 68.20469 65.98081 79.36371
#
# Poissons Ratio (x) = 0.25733 0.18678
# Poissons Ratio (y) = 0.26600 0.48792
# Poissons Ratio (z) = 0.16052 0.40564
#
# Static dielectric constant tensor:
#      x y z
#    x 4.585050 0.000000 -0.118610 
#    y 0.000000 4.420650 0.000000 
#    z -0.118610 0.000000 4.053640 
# 
# 
# High freq. dielectric constant tensor:
#      x y z
#    x 1.960620 0.000000 -0.012560 
#    y 0.000000 1.968480 0.000000 
#    z -0.012560 0.000000 1.958790 
# 
# From -- ./inp_files/60064.got.cif
#   From: 2010.06.25/outbox.cif.g09.slc.cpg/sg15_31_cif.got.tgz:60064.got - 2010.06.28 07:06:18.
