data_PCOD8146599
_publ_section_title
;
Structure prediction by ZEFSAII (Michael W. Deem and Ramdas Pophale) SiO2 
 PCOD8146599
Probable space group: C 2/C
;
_chemical_formula_sum "Si O2"
_cell_formula_units_Z 36
_cell_length_a 20.797799
_cell_length_b 7.446697
_cell_length_c 15.202641
_cell_angle_alpha 90.000000
_cell_angle_beta 44.835797
_cell_angle_gamma 90.000000
_cell_volume 1660.110097
_symmetry_space_group_name_H-M "C 2/C"
_symmetry_group_IT_number 15
_symmetry_cell_setting 'monoclinic'
loop_
_space_group_symop_operation_xyz
x,y,z
-x,y,1/2-z
-x,-y,-z
x,-y,1/2+z
1/2+x,1/2+y,z
1/2-x,1/2+y,1/2-z
1/2-x,1/2-y,-z
1/2+x,1/2-y,1/2+z
loop_
_atom_site_type_symbol
_atom_site_label
_atom_site_fract_x
_atom_site_fract_y
_atom_site_fract_z
Si Si1 0.339160 0.135081 0.403267
Si Si2 0.767867 0.587942 0.817026
Si Si3 0.500000 0.604939 0.750000
Si Si4 0.565536 0.428485 0.511424
Si Si5 0.841656 0.423308 0.575821
O O1 0.250000 0.250000 0.500000
O O2 0.418484 0.268397 0.296160
O O3 0.325237 0.983292 0.343519
O O4 0.364577 0.043327 0.470106
O O5 0.827485 0.553768 0.672263
O O6 0.750237 0.801529 0.848238
O O7 0.668512 0.489522 0.904502
O O8 0.526396 0.475920 0.644533
O O9 0.500000 0.500000 0.500000
O O10 0.572599 0.211647 0.493294
#
# Coordination Sequence:
#
# PCOD8146599 Si02
#       5
#     8   8   4   8   8
#     4  12  23  45  67 100 135 178 230 279 344 407
#     4  10  22  41  69  93 134 174 225 280 337 393
#     4  12  26  42  68  96 138 180 218 288 338 402
#     4  10  24  43  66  99 135 178 226 276 342 402
#     4  10  23  42  68 102 128 182 224 277 345 400
#
# _framework density 21.685307999999999
#
# number of rings (size 3 to 8) (size 9 to 14) (size 15 to 20)
#    1.333    0.000    2.222    3.333    3.111    0.889 
#    4.000    2.222    0.000    0.000    0.000    0.000 
#    0.000    0.000    0.000    0.000    0.000    0.000 
#
# Total GULP energy -223141.851734 kJ/mol
# GULP energy per Si atom -12396.769541 kJ/mol
# Density = 2.163595 g / cm^3
# Si number density = 21.685308 Si / 1000 Ang^3
#
#
#
# Elastic Constant Matrix: (Units=GPa)
#
#
# Indices 1 2 3 4 5 6 
#
# 1 71.6481 -9.2283 33.9300 -0.0051 7.1690 0.0023
# 2 -9.2283 53.5155 15.9378 -0.0103 -2.5430 0.0107
# 3 33.9300 15.9378 105.4959 -0.0027 17.2849 0.0034
# 4 -0.0051 -0.0103 -0.0027 36.8850 0.0010 3.9914
# 5 7.1690 -2.5430 17.2849 0.0010 43.6646 -0.0018
# 6 0.0023 0.0107 0.0034 3.9914 -0.0018 33.6722
#
#
#
# Elastic Compliance Matrix: (Units=1/GPa)
#
#
# Indices 1 2 3 4 5 6 
#
# 1 0.017636 0.004946 -0.006408 0.000004 -0.000071 -0.000003
# 2 0.004946 0.021206 -0.005201 0.000007 0.002482 -0.000007
# 3 -0.006408 -0.005201 0.013049 -0.000001 -0.004416 0.000001
# 4 0.000004 0.000007 -0.000001 0.027464 0.000000 -0.003255
# 5 -0.000071 0.002482 -0.004416 0.000000 0.024806 0.000001
# 6 -0.000003 -0.000007 0.000001 -0.003255 0.000001 0.030084
#
#
# Mechanical properties :
#
#
# Convention : Reuss Voigt Hill
#
# Bulk Modulus (GPa) = 25.92989 34.65986 30.29487
# Shear Modulus (GPa) = 31.16712 35.51236 33.33974
#
# Velocity S-wave (km/s) = 3.79522 4.05115 3.92527
# Velocity P-wave (km/s) = 5.58464 6.15631 5.87743
#
# Compressibility (1/GPa) = 0.03856553
#
# Stress axis : x y z
#
# Youngs Moduli (GPa) = 56.70313 47.15650 76.63261
#
# Poissons Ratio (x) = -0.23324 0.49104
# Poissons Ratio (y) = -0.28046 0.39857
# Poissons Ratio (z) = 0.36334 0.24527
#
# Static dielectric constant tensor:
#      x y z
#    x 3.978820 -0.000030 0.128090 
#    y -0.000030 3.527320 0.000030 
#    z 0.128090 0.000030 3.954700 
# 
# 
# High freq. dielectric constant tensor:
#      x y z
#    x 1.840450 0.000000 0.008570 
#    y 0.000000 1.850390 0.000000 
#    z 0.008570 0.000000 1.859780 
# 
# From -- ./inp_files/159554.got.cif
#   From: 2010.06.25/outbox.cif.g09.slc.cpg/sg15_80_cif.got.tgz:159554.got - 2010.06.28 07:06:18.
