data_PCOD8146011
_publ_section_title
;
Structure prediction by ZEFSAII (Michael W. Deem and Ramdas Pophale) SiO2 
 PCOD8146011
Probable space group: C 2/C
;
_chemical_formula_sum "Si O2"
_cell_formula_units_Z 52
_cell_length_a 5.683893
_cell_length_b 23.829136
_cell_length_c 21.206491
_cell_angle_alpha 90.000000
_cell_angle_beta 53.519082
_cell_angle_gamma 90.000000
_cell_volume 2309.450801
_symmetry_space_group_name_H-M "C 2/C"
_symmetry_group_IT_number 15
_symmetry_cell_setting 'monoclinic'
loop_
_space_group_symop_operation_xyz
x,y,z
-x,y,1/2-z
-x,-y,-z
x,-y,1/2+z
1/2+x,1/2+y,z
1/2-x,1/2+y,1/2-z
1/2-x,1/2-y,-z
1/2+x,1/2-y,1/2+z
loop_
_atom_site_type_symbol
_atom_site_label
_atom_site_fract_x
_atom_site_fract_y
_atom_site_fract_z
Si Si1 0.916411 0.331577 0.942938
Si Si2 0.682772 0.811848 0.281236
Si Si3 0.000000 0.082239 0.750000
Si Si4 0.722453 0.079752 0.466339
Si Si5 0.115671 0.588226 0.161454
Si Si6 0.940201 0.511256 0.609328
Si Si7 0.323209 0.722041 0.553369
O O1 0.026119 0.366063 0.863615
O O2 0.018100 0.365659 0.988968
O O3 0.057044 0.269584 0.917496
O O4 0.564695 0.326426 0.004322
O O5 0.500000 0.787788 0.250000
O O6 0.752619 0.877782 0.257421
O O7 0.471915 0.805881 0.374492
O O8 0.000000 0.782442 0.250000
O O9 0.143451 0.043465 0.673977
O O10 0.631396 0.031346 0.433831
O O11 0.043586 0.099866 0.398174
O O12 0.681700 0.055755 0.544216
O O13 0.000000 0.599411 0.250000
O O14 0.055177 0.523618 0.151361
O O15 0.250000 0.750000 0.500000
#
# Coordination Sequence:
#
# PCOD8146011 Si02
#       7
#     8   8   4   8   8   8   8
#     4  10  25  41  73  99 133 191 235 305 353 443
#     4  10  27  47  71 107 145 184 236 304 367 442
#     4  10  24  38  72 102 142 182 232 296 364 426
#     4  10  22  42  66  96 137 178 242 280 357 428
#     4  11  23  42  65 101 142 182 233 292 359 440
#     4  10  22  40  65 100 132 184 228 288 356 430
#     4  11  25  48  72  98 140 185 249 300 377 432
#
# _framework density 22.516175
#
# number of rings (size 3 to 8) (size 9 to 14) (size 15 to 20)
#    0.462    1.231    0.000    2.308   10.769    3.692 
#    5.538    0.000    0.000    0.000    0.000    0.000 
#    0.000    0.000    0.000    0.000    0.000    0.000 
#
# Total GULP energy -322241.892225 kJ/mol
# GULP energy per Si atom -12393.918932 kJ/mol
# Density = 2.246493 g / cm^3
# Si number density = 22.516175 Si / 1000 Ang^3
#
#
#
# Elastic Constant Matrix: (Units=GPa)
#
#
# Indices 1 2 3 4 5 6 
#
# 1 105.5568 31.0304 40.4872 0.0000 -16.7956 0.0000
# 2 31.0304 86.8144 59.3885 0.0000 -4.3847 0.0000
# 3 40.4872 59.3885 145.3760 0.0000 -22.2957 0.0000
# 4 0.0000 0.0000 0.0000 5.2969 0.0000 -21.0830
# 5 -16.7956 -4.3847 -22.2957 0.0000 35.9205 0.0000
# 6 0.0000 0.0000 0.0000 -21.0830 0.0000 31.6331
#
#
#
# Elastic Compliance Matrix: (Units=1/GPa)
#
#
# Indices 1 2 3 4 5 6 
#
# 1 0.011537 -0.002989 -0.001349 0.000000 0.004192 0.000000
# 2 -0.002989 0.016938 -0.006614 0.000000 -0.003435 0.000000
# 3 -0.001349 -0.006614 0.010760 0.000000 0.005241 0.000000
# 4 0.000000 0.000000 0.000000 -0.114226 0.000000 -0.076130
# 5 0.004192 -0.003435 0.005241 0.000000 0.032633 0.000000
# 6 0.000000 0.000000 0.000000 -0.076130 0.000000 -0.019127
#
#
# Mechanical properties :
#
#
# Convention : Reuss Voigt Hill
#
# Bulk Modulus (GPa) = 57.70002 66.61773 62.15887
# Shear Modulus (GPa) = -147.91196 28.35951 -59.77623
#
# Velocity S-wave (km/s) = -8.11382 3.55282 -5.15808
# Velocity P-wave (km/s) = 7.88017 6.81769 2.79430
#
# Compressibility (1/GPa) = 0.01733102
#
# Stress axis : x y z
#
# Youngs Moduli (GPa) = 86.67987 59.03806 92.93644
#
# Poissons Ratio (x) = 0.17647 0.12537
# Poissons Ratio (y) = 0.25909 0.61468
# Poissons Ratio (z) = 0.11693 0.39047
#
# Static dielectric constant tensor:
#      x y z
#    x 3.838930 0.000000 0.091040 
#    y 0.000000 4.338000 0.000000 
#    z 0.091040 0.000000 3.896770 
# 
# 
# High freq. dielectric constant tensor:
#      x y z
#    x 1.881100 0.000000 -0.004710 
#    y 0.000000 1.891240 0.000000 
#    z -0.004710 0.000000 1.884460 
# 
# From -- ./inp_files/228585.got.cif
#   From: 2010.06.25/outbox.cif.g09.slc.cpg/sg15_115_cif.got.tgz:228585.got - 2010.06.28 07:06:18.
