data_PCOD8146494
_publ_section_title
;
Structure prediction by ZEFSAII (Michael W. Deem and Ramdas Pophale) SiO2 
 PCOD8146494
Probable space group: C 2/C
;
_chemical_formula_sum "Si O2"
_cell_formula_units_Z 48
_cell_length_a 26.277710
_cell_length_b 12.234107
_cell_length_c 15.179677
_cell_angle_alpha 90.000000
_cell_angle_beta 151.988732
_cell_angle_gamma 90.000000
_cell_volume 2291.881749
_symmetry_space_group_name_H-M "C 2/C"
_symmetry_group_IT_number 15
_symmetry_cell_setting 'monoclinic'
loop_
_space_group_symop_operation_xyz
x,y,z
-x,y,1/2-z
-x,-y,-z
x,-y,1/2+z
1/2+x,1/2+y,z
1/2-x,1/2+y,1/2-z
1/2-x,1/2-y,-z
1/2+x,1/2-y,1/2+z
loop_
_atom_site_type_symbol
_atom_site_label
_atom_site_fract_x
_atom_site_fract_y
_atom_site_fract_z
Si Si1 0.236167 0.258490 0.340381
Si Si2 0.999769 0.243767 0.928838
Si Si3 0.289317 0.573110 0.066515
Si Si4 0.185131 0.352741 0.938658
Si Si5 0.167277 0.834152 0.182094
Si Si6 0.016015 0.009741 0.877794
O O1 0.288595 0.353325 0.478870
O O2 0.249714 0.141583 0.408364
O O3 0.302180 0.251659 0.350068
O O4 0.111142 0.293281 0.135313
O O5 0.941961 0.328985 0.772738
O O6 0.921108 0.223536 0.891465
O O7 0.030086 0.136397 0.920314
O O8 0.412281 0.535230 0.272816
O O9 0.215773 0.466310 0.937739
O O10 0.250000 0.250000 0.000000
O O11 0.221048 0.362834 0.095629
O O12 0.122019 0.946998 0.073326
O O13 0.000000 0.992442 0.750000
#
# Coordination Sequence:
#
# PCOD8146494 Si02
#       6
#     8   8   8   8   8   8
#     4  11  25  39  70  96 137 176 223 263 341 394
#     4  11  24  42  67  97 134 172 220 281 326 389
#     4  11  22  45  63 101 134 174 213 283 327 397
#     4  10  22  41  66  94 135 165 216 276 330 380
#     4  11  22  40  64 100 127 173 224 271 321 392
#     4  12  22  39  72  98 126 173 230 271 325 395
#
# _framework density 20.943487999999999
#
# number of rings (size 3 to 8) (size 9 to 14) (size 15 to 20)
#    0.000    1.000    6.667    1.500    2.333    0.667 
#    6.000    0.000    3.667    0.000    0.000    0.000 
#    0.000    0.000    0.000    0.000    0.000    0.000 
#
# Total GULP energy -297620.099718 kJ/mol
# GULP energy per Si atom -12400.837488 kJ/mol
# Density = 2.089582 g / cm^3
# Si number density = 20.943488 Si / 1000 Ang^3
#
#
#
# Elastic Constant Matrix: (Units=GPa)
#
#
# Indices 1 2 3 4 5 6 
#
# 1 93.2383 23.5312 15.2731 0.0000 -13.0144 0.0000
# 2 23.5312 101.2229 26.1506 0.0000 -2.4418 0.0000
# 3 15.2731 26.1506 110.9038 0.0000 -4.6557 0.0000
# 4 0.0000 0.0000 0.0000 33.8787 0.0000 2.2156
# 5 -13.0144 -2.4418 -4.6557 0.0000 29.9074 0.0000
# 6 0.0000 0.0000 0.0000 2.2156 0.0000 24.1062
#
#
#
# Elastic Compliance Matrix: (Units=1/GPa)
#
#
# Indices 1 2 3 4 5 6 
#
# 1 0.012190 -0.002486 -0.000884 0.000000 0.004964 0.000000
# 2 -0.002486 0.011034 -0.002282 0.000000 -0.000536 0.000000
# 3 -0.000884 -0.002282 0.009716 0.000000 0.000941 0.000000
# 4 0.000000 0.000000 0.000000 0.029696 0.000000 -0.002729
# 5 0.004964 -0.000536 0.000941 0.000000 0.035700 0.000000
# 6 0.000000 0.000000 0.000000 -0.002729 0.000000 0.041734
#
#
# Mechanical properties :
#
#
# Convention : Reuss Voigt Hill
#
# Bulk Modulus (GPa) = 46.21831 48.36387 47.29109
# Shear Modulus (GPa) = 31.52885 33.60579 32.56732
#
# Velocity S-wave (km/s) = 3.88419 4.01008 3.94764
# Velocity P-wave (km/s) = 6.49861 6.67710 6.58846
#
# Compressibility (1/GPa) = 0.02163644
#
# Stress axis : x y z
#
# Youngs Moduli (GPa) = 82.03257 90.63222 102.92111
#
# Poissons Ratio (x) = 0.22528 0.09101
# Poissons Ratio (y) = 0.20390 0.23485
# Poissons Ratio (z) = 0.07254 0.20681
#
# Static dielectric constant tensor:
#      x y z
#    x 3.718550 0.000000 -0.220400 
#    y 0.000000 3.727480 0.000000 
#    z -0.220400 0.000000 4.329950 
# 
# 
# High freq. dielectric constant tensor:
#      x y z
#    x 1.809820 0.000000 -0.018120 
#    y 0.000000 1.809280 0.000000 
#    z -0.018120 0.000000 1.833610 
# 
# From -- ./inp_files/152433.got.cif
#   From: 2010.06.25/outbox.cif.g09.slc.cpg/sg15_77_cif.got.tgz:152433.got - 2010.06.28 07:06:18.
