data_PCOD8146211
_publ_section_title
;
Structure prediction by ZEFSAII (Michael W. Deem and Ramdas Pophale) SiO2 
 PCOD8146211
Probable space group: C 2/C
;
_chemical_formula_sum "Si O2"
_cell_formula_units_Z 48
_cell_length_a 11.609857
_cell_length_b 15.508770
_cell_length_c 13.519723
_cell_angle_alpha 90.000000
_cell_angle_beta 69.954115
_cell_angle_gamma 90.000000
_cell_volume 2286.815296
_symmetry_space_group_name_H-M "C 2/C"
_symmetry_group_IT_number 15
_symmetry_cell_setting 'monoclinic'
loop_
_space_group_symop_operation_xyz
x,y,z
-x,y,1/2-z
-x,-y,-z
x,-y,1/2+z
1/2+x,1/2+y,z
1/2-x,1/2+y,1/2-z
1/2-x,1/2-y,-z
1/2+x,1/2-y,1/2+z
loop_
_atom_site_type_symbol
_atom_site_label
_atom_site_fract_x
_atom_site_fract_y
_atom_site_fract_z
Si Si1 0.840013 0.870419 0.332757
Si Si2 0.108582 0.161412 0.087595
Si Si3 0.407695 0.927877 0.125476
Si Si4 0.000000 0.309131 0.250000
Si Si5 0.500000 0.525794 0.250000
Si Si6 0.056376 0.792007 0.382753
Si Si7 0.379557 0.110908 0.077276
O O1 0.700075 0.883237 0.410008
O O2 0.849574 0.808774 0.234384
O O3 0.922957 0.833340 0.397463
O O4 0.882084 0.964352 0.279874
O O5 0.068864 0.252262 0.147048
O O6 0.245108 0.140047 0.083241
O O7 0.013032 0.087410 0.149968
O O8 0.104566 0.167499 0.970764
O O9 0.402224 0.873738 0.228464
O O10 0.375707 0.028861 0.152450
O O11 0.542614 0.919230 0.040376
O O12 0.048076 0.688830 0.392155
#
# Coordination Sequence:
#
# PCOD8146211 Si02
#       7
#     8   8   8   4   4   8   8
#     4  10  23  42  64  92 131 165 214 262 314 375
#     4  11  21  41  68  95 122 167 222 258 310 376
#     4  11  24  42  60  95 132 163 206 262 318 380
#     4  11  24  40  69  96 122 170 217 260 312 375
#     4   9  20  40  61  94 122 162 213 268 304 365
#     4  10  22  40  69  93 123 171 214 263 310 371
#     4  11  23  41  64  91 133 164 205 261 320 376
#
# _framework density 20.989889000000002
#
# number of rings (size 3 to 8) (size 9 to 14) (size 15 to 20)
#    0.000    1.667    3.333    1.500    2.333    4.667 
#    0.000    0.000    0.000    0.000    0.000    0.000 
#    0.000    0.000    0.000    0.000    0.000    0.000 
#
# Total GULP energy -297403.664808 kJ/mol
# GULP energy per Si atom -12391.819367 kJ/mol
# Density = 2.094212 g / cm^3
# Si number density = 20.989889 Si / 1000 Ang^3
#
#
#
# Elastic Constant Matrix: (Units=GPa)
#
#
# Indices 1 2 3 4 5 6 
#
# 1 122.1822 58.1676 24.4300 0.0000 2.2362 0.0000
# 2 58.1676 159.5592 38.8480 0.0000 21.8822 0.0000
# 3 24.4300 38.8480 70.2620 0.0000 15.2912 0.0000
# 4 0.0000 0.0000 0.0000 15.4696 0.0000 8.3586
# 5 2.2362 21.8822 15.2912 0.0000 23.7927 0.0000
# 6 0.0000 0.0000 0.0000 8.3586 0.0000 20.0910
#
#
#
# Elastic Compliance Matrix: (Units=1/GPa)
#
#
# Indices 1 2 3 4 5 6 
#
# 1 0.010377 -0.003747 -0.002411 0.000000 0.004021 0.000000
# 2 -0.003747 0.009089 -0.002302 0.000000 -0.006528 0.000000
# 3 -0.002411 -0.002302 0.018408 0.000000 -0.009487 0.000000
# 4 0.000000 0.000000 0.000000 0.083388 0.000000 -0.034693
# 5 0.004021 -0.006528 -0.009487 0.000000 0.053753 0.000000
# 6 0.000000 0.000000 0.000000 -0.034693 0.000000 0.064207
#
#
# Mechanical properties :
#
#
# Convention : Reuss Voigt Hill
#
# Bulk Modulus (GPa) = 47.72455 66.09941 56.91198
# Shear Modulus (GPa) = 19.00225 27.24118 23.12171
#
# Velocity S-wave (km/s) = 3.01209 3.60644 3.32258
# Velocity P-wave (km/s) = 5.90620 6.99295 6.47242
#
# Compressibility (1/GPa) = 0.02095357
#
# Stress axis : x y z
#
# Youngs Moduli (GPa) = 96.36678 110.02338 54.32369
#
# Poissons Ratio (x) = 0.41229 0.13099
# Poissons Ratio (y) = 0.36112 0.12504
# Poissons Ratio (z) = 0.23236 0.25325
#
# Static dielectric constant tensor:
#      x y z
#    x 3.818720 0.000000 -0.152390 
#    y 0.000000 4.288300 0.000000 
#    z -0.152390 0.000000 3.580220 
# 
# 
# High freq. dielectric constant tensor:
#      x y z
#    x 1.822000 0.000000 -0.011520 
#    y 0.000000 1.844190 0.000000 
#    z -0.011520 0.000000 1.795800 
# 
# From -- ./inp_files/143602.got.cif
#   From: 2010.06.25/outbox.cif.g09.slc.cpg/sg15_72_cif.got.tgz:143602.got - 2010.06.28 07:06:18.
