data_PCOD8146214
_publ_section_title
;
Structure prediction by ZEFSAII (Michael W. Deem and Ramdas Pophale) SiO2 
 PCOD8146214
Probable space group: C 2/C
;
_chemical_formula_sum "Si O2"
_cell_formula_units_Z 48
_cell_length_a 5.346810
_cell_length_b 18.203525
_cell_length_c 24.425511
_cell_angle_alpha 90.000000
_cell_angle_beta 106.294690
_cell_angle_gamma 90.000000
_cell_volume 2281.859037
_symmetry_space_group_name_H-M "C 2/C"
_symmetry_group_IT_number 15
_symmetry_cell_setting 'monoclinic'
loop_
_space_group_symop_operation_xyz
x,y,z
-x,y,1/2-z
-x,-y,-z
x,-y,1/2+z
1/2+x,1/2+y,z
1/2-x,1/2+y,1/2-z
1/2-x,1/2-y,-z
1/2+x,1/2-y,1/2+z
loop_
_atom_site_type_symbol
_atom_site_label
_atom_site_fract_x
_atom_site_fract_y
_atom_site_fract_z
Si Si1 0.049721 0.529299 0.563057
Si Si2 0.500000 0.238052 0.250000
Si Si3 0.956526 0.199849 0.043839
Si Si4 0.569216 0.258314 0.370675
Si Si5 0.000000 0.856028 0.750000
Si Si6 0.278653 0.112561 0.371065
Si Si7 0.460283 0.620096 0.938993
O O1 0.074558 0.462820 0.607290
O O2 0.319429 0.574392 0.579434
O O3 0.000000 0.500000 0.500000
O O4 0.804841 0.576198 0.568070
O O5 0.568130 0.287328 0.307804
O O6 0.242356 0.192095 0.245996
O O7 0.854066 0.143072 0.082380
O O8 0.149461 0.258437 0.083260
O O9 0.750000 0.250000 0.000000
O O10 0.082253 0.148195 0.004230
O O11 0.482566 0.173560 0.363680
O O12 0.383863 0.310379 0.395675
O O13 0.921063 0.903522 0.691483
#
# Coordination Sequence:
#
# PCOD8146214 Si02
#       7
#     8   4   8   8   4   8   8
#     4  12  26  42  62  97 134 174 210 267 329 403
#     4  10  22  40  69  96 129 162 230 276 328 382
#     4  12  22  39  66 103 133 170 215 284 330 403
#     4  11  24  42  68  98 131 176 225 279 332 397
#     4  10  22  42  65 100 123 172 220 286 320 384
#     4  11  24  41  70  92 135 169 232 266 338 390
#     4  12  26  41  64  98 138 170 211 264 342 395
#
# _framework density 21.035481000000001
#
# number of rings (size 3 to 8) (size 9 to 14) (size 15 to 20)
#    0.000    0.667    5.000    3.000    2.333    0.000 
#    0.000    0.833    0.000    4.000    0.000    0.000 
#    0.000    0.000    0.000    0.000    0.000    0.000 
#
# Total GULP energy -297499.738279 kJ/mol
# GULP energy per Si atom -12395.822428 kJ/mol
# Density = 2.098760 g / cm^3
# Si number density = 21.035481 Si / 1000 Ang^3
#
#
#
# Elastic Constant Matrix: (Units=GPa)
#
#
# Indices 1 2 3 4 5 6 
#
# 1 127.7938 40.8158 48.9857 0.0000 3.0002 0.0000
# 2 40.8158 90.3570 61.4030 0.0000 7.5986 0.0000
# 3 48.9857 61.4030 207.1111 0.0000 1.4746 0.0000
# 4 0.0000 0.0000 0.0000 18.3766 0.0000 -5.8604
# 5 3.0002 7.5986 1.4746 0.0000 32.8476 0.0000
# 6 0.0000 0.0000 0.0000 -5.8604 0.0000 36.1166
#
#
#
# Elastic Compliance Matrix: (Units=1/GPa)
#
#
# Indices 1 2 3 4 5 6 
#
# 1 0.009379 -0.003416 -0.001205 0.000000 -0.000012 0.000000
# 2 -0.003416 0.015411 -0.003739 0.000000 -0.003085 0.000000
# 3 -0.001205 -0.003739 0.006217 0.000000 0.000696 0.000000
# 4 0.000000 0.000000 0.000000 0.057387 0.000000 0.009312
# 5 -0.000012 -0.003085 0.000696 0.000000 0.031127 0.000000
# 6 0.000000 0.000000 0.000000 0.009312 0.000000 0.029199
#
#
# Mechanical properties :
#
#
# Convention : Reuss Voigt Hill
#
# Bulk Modulus (GPa) = 70.00278 80.85231 75.42755
# Shear Modulus (GPa) = 29.37694 35.73866 32.55780
#
# Velocity S-wave (km/s) = 3.74109 4.12633 3.93842
# Velocity P-wave (km/s) = 7.21191 7.82443 7.52441
#
# Compressibility (1/GPa) = 0.01428515
#
# Stress axis : x y z
#
# Youngs Moduli (GPa) = 106.62643 64.89019 160.85174
#
# Poissons Ratio (x) = 0.22169 0.19387
# Poissons Ratio (y) = 0.36428 0.60140
# Poissons Ratio (z) = 0.12851 0.24261
#
# Static dielectric constant tensor:
#      x y z
#    x 3.945660 0.000000 -0.121440 
#    y 0.000000 3.882540 0.000000 
#    z -0.121440 0.000000 4.563170 
# 
# 
# High freq. dielectric constant tensor:
#      x y z
#    x 1.830840 0.000000 -0.004510 
#    y 0.000000 1.801670 0.000000 
#    z -0.004510 0.000000 1.840910 
# 
# From -- ./inp_files/260684.got.cif
#   From: 2010.06.25/outbox.cif.g09.slc.cpg/sg15_131_cif.got.tgz:260684.got - 2010.06.28 07:06:18.
