data_PCOD8146474
_publ_section_title
;
Structure prediction by ZEFSAII (Michael W. Deem and Ramdas Pophale) SiO2 
 PCOD8146474
Probable space group: C 2/C
;
_chemical_formula_sum "Si O2"
_cell_formula_units_Z 40
_cell_length_a 15.403760
_cell_length_b 13.361140
_cell_length_c 13.139348
_cell_angle_alpha 90.000000
_cell_angle_beta 141.568850
_cell_angle_gamma 90.000000
_cell_volume 1680.880136
_symmetry_space_group_name_H-M "C 2/C"
_symmetry_group_IT_number 15
_symmetry_cell_setting 'monoclinic'
loop_
_space_group_symop_operation_xyz
x,y,z
-x,y,1/2-z
-x,-y,-z
x,-y,1/2+z
1/2+x,1/2+y,z
1/2-x,1/2+y,1/2-z
1/2-x,1/2-y,-z
1/2+x,1/2-y,1/2+z
loop_
_atom_site_type_symbol
_atom_site_label
_atom_site_fract_x
_atom_site_fract_y
_atom_site_fract_z
Si Si1 0.914592 0.074274 0.031219
Si Si2 0.500000 0.735407 0.250000
Si Si3 0.000000 0.547557 0.250000
Si Si4 0.611999 0.895687 0.204525
Si Si5 0.510995 0.363529 0.112457
Si Si6 0.669952 0.175758 0.542104
O O1 0.894213 0.159852 0.096819
O O2 0.762688 0.053380 0.847624
O O3 0.007660 0.119733 0.025387
O O4 0.982518 0.972050 0.137912
O O5 0.593036 0.797545 0.256618
O O6 0.986663 0.480937 0.339775
O O7 0.133892 0.614051 0.405828
O O8 0.584022 0.867646 0.061115
O O9 0.664092 0.322381 0.285409
O O10 0.390142 0.286750 0.035533
#
# Coordination Sequence:
#
# PCOD8146474 Si02
#       6
#     8   4   4   8   8   8
#     4  10  22  41  66 103 133 174 222 277 334 400
#     4  11  20  39  70 102 132 175 224 279 330 398
#     4  11  26  41  68 102 130 181 224 273 340 404
#     4  10  23  44  66 101 132 176 225 283 329 391
#     4  10  24  44  69  98 136 181 217 276 341 393
#     4  11  24  47  68  97 138 178 223 280 332 402
#
# _framework density 23.797058
#
# number of rings (size 3 to 8) (size 9 to 14) (size 15 to 20)
#    0.000    1.600    2.000    1.200    5.600    1.600 
#    3.600    0.000    0.000    0.000    0.000    0.000 
#    0.000    0.000    0.000    0.000    0.000    0.000 
#
# Total GULP energy -247818.156738 kJ/mol
# GULP energy per Si atom -12390.907837 kJ/mol
# Density = 2.374289 g / cm^3
# Si number density = 23.797058 Si / 1000 Ang^3
#
#
#
# Elastic Constant Matrix: (Units=GPa)
#
#
# Indices 1 2 3 4 5 6 
#
# 1 53.3509 40.2298 13.7538 0.0000 -13.3553 -0.0001
# 2 40.2298 165.9790 59.4610 0.0000 4.2843 0.0000
# 3 13.7538 59.4610 100.0716 0.0000 4.9723 -0.0001
# 4 0.0000 0.0000 0.0000 25.0794 0.0000 1.8287
# 5 -13.3553 4.2843 4.9723 0.0000 40.1237 0.0000
# 6 -0.0001 0.0000 -0.0001 1.8287 0.0000 17.9292
#
#
#
# Elastic Compliance Matrix: (Units=1/GPa)
#
#
# Indices 1 2 3 4 5 6 
#
# 1 0.026029 -0.006482 -0.000192 0.000000 0.009380 0.000000
# 2 -0.006482 0.009271 -0.004489 0.000000 -0.002591 0.000000
# 3 -0.000192 -0.004489 0.012744 0.000000 -0.001164 0.000000
# 4 0.000000 0.000000 0.000000 0.040172 0.000000 -0.004097
# 5 0.009380 -0.002591 -0.001164 0.000000 0.028466 0.000000
# 6 0.000000 0.000000 0.000000 -0.004097 0.000000 0.056193
#
#
# Mechanical properties :
#
#
# Convention : Reuss Voigt Hill
#
# Bulk Modulus (GPa) = 38.88262 60.69896 49.79079
# Shear Modulus (GPa) = 24.53686 30.35695 27.44691
#
# Velocity S-wave (km/s) = 3.21454 3.57551 3.39982
# Velocity P-wave (km/s) = 5.49112 6.52748 6.03160
#
# Compressibility (1/GPa) = 0.02571843
#
# Stress axis : x y z
#
# Youngs Moduli (GPa) = 38.41799 107.86187 78.46610
#
# Poissons Ratio (x) = 0.69920 0.01505
# Poissons Ratio (y) = 0.24904 0.35224
# Poissons Ratio (z) = 0.00737 0.48420
#
# Static dielectric constant tensor:
#      x y z
#    x 4.358240 0.000000 -0.313790 
#    y 0.000000 4.360750 0.000000 
#    z -0.313790 0.000000 3.916270 
# 
# 
# High freq. dielectric constant tensor:
#      x y z
#    x 1.943930 0.000000 -0.016850 
#    y 0.000000 1.956160 0.000000 
#    z -0.016850 0.000000 1.927590 
# 
# From -- ./inp_files/70225.got.cif
#   From: 2010.06.25/outbox.cif.g09.slc.cpg/sg15_36_cif.got.tgz:70225.got - 2010.06.28 07:06:18.
