data_PCOD8146731
_publ_section_title
;
Structure prediction by ZEFSAII (Michael W. Deem and Ramdas Pophale) SiO2 
 PCOD8146731
Probable space group: C 2/C
;
_chemical_formula_sum "Si O2"
_cell_formula_units_Z 64
_cell_length_a 12.934477
_cell_length_b 19.159891
_cell_length_c 19.900216
_cell_angle_alpha 90.000000
_cell_angle_beta 39.427997
_cell_angle_gamma 90.000000
_cell_volume 3132.184227
_symmetry_space_group_name_H-M "C 2/C"
_symmetry_group_IT_number 15
_symmetry_cell_setting 'monoclinic'
loop_
_space_group_symop_operation_xyz
x,y,z
-x,y,1/2-z
-x,-y,-z
x,-y,1/2+z
1/2+x,1/2+y,z
1/2-x,1/2+y,1/2-z
1/2-x,1/2-y,-z
1/2+x,1/2-y,1/2+z
loop_
_atom_site_type_symbol
_atom_site_label
_atom_site_fract_x
_atom_site_fract_y
_atom_site_fract_z
Si Si1 0.995046 0.801674 0.510407
Si Si2 0.760868 0.776896 0.285419
Si Si3 0.355255 0.447363 0.558573
Si Si4 0.684175 0.579336 0.680149
Si Si5 0.680988 0.015503 0.757410
Si Si6 0.173457 0.658016 0.689220
Si Si7 0.574289 0.784435 0.578431
Si Si8 0.639253 0.945622 0.541893
O O1 0.181917 0.822365 0.436845
O O2 0.881732 0.779408 0.629279
O O3 0.918278 0.869553 0.513500
O O4 0.992281 0.736479 0.461102
O O5 0.754174 0.841318 0.340885
O O6 0.724626 0.802077 0.229687
O O7 0.941592 0.743188 0.199364
O O8 0.500000 0.500000 0.500000
O O9 0.243388 0.449688 0.682137
O O10 0.264953 0.469926 0.535932
O O11 0.500000 0.579153 0.750000
O O12 0.697375 0.536453 0.743228
O O13 0.788265 0.544021 0.568738
O O14 0.663544 0.076249 0.710566
O O15 0.511055 0.998245 0.877581
O O16 0.000000 0.685109 0.750000
O O17 0.750000 0.750000 0.500000
O O18 0.583512 0.866836 0.582584
#
# Coordination Sequence:
#
# PCOD8146731 Si02
#       8
#     8   8   8   8   8   8   8   8
#     4  11  22  39  63  93 128 163 216 274 323 398
#     4  10  23  37  63  94 127 168 211 270 332 393
#     4  12  23  38  62  94 128 168 214 267 328 388
#     4  11  23  41  64  91 133 173 210 267 337 391
#     4  11  24  41  60  94 129 170 223 264 324 393
#     4  10  22  42  63  86 124 172 219 267 323 391
#     4  11  21  38  60  98 131 163 209 262 336 389
#     4  12  23  39  67  92 129 170 216 271 318 396
#
# _framework density 20.433025000000001
#
# number of rings (size 3 to 8) (size 9 to 14) (size 15 to 20)
#    0.000    1.000    3.750    3.750    1.750    0.500 
#    0.000    0.000    0.000    3.750    0.000    0.000 
#    0.000    0.000    0.000    0.000    0.000    0.000 
#
# Total GULP energy -396737.381240 kJ/mol
# GULP energy per Si atom -12398.043164 kJ/mol
# Density = 2.038652 g / cm^3
# Si number density = 20.433025 Si / 1000 Ang^3
#
#
#
# Elastic Constant Matrix: (Units=GPa)
#
#
# Indices 1 2 3 4 5 6 
#
# 1 93.5162 21.8087 30.6524 0.0023 -16.8536 -0.0019
# 2 21.8087 69.7170 27.2416 0.0034 -8.5140 -0.0020
# 3 30.6524 27.2416 145.5282 0.0114 -19.2077 -0.0051
# 4 0.0023 0.0034 0.0114 39.9186 -0.0019 -5.5190
# 5 -16.8536 -8.5140 -19.2077 -0.0019 39.1349 0.0015
# 6 -0.0019 -0.0020 -0.0051 -5.5190 0.0015 19.9180
#
#
#
# Elastic Compliance Matrix: (Units=1/GPa)
#
#
# Indices 1 2 3 4 5 6 
#
# 1 0.012601 -0.002827 -0.001593 0.000000 0.004030 0.000000
# 2 -0.002827 0.016270 -0.002292 0.000000 0.001197 0.000001
# 3 -0.001593 -0.002292 0.007998 -0.000002 0.002741 0.000001
# 4 0.000000 0.000000 -0.000002 0.026049 0.000000 0.007218
# 5 0.004030 0.001197 0.002741 0.000000 0.028894 -0.000001
# 6 0.000000 0.000001 0.000001 0.007218 -0.000001 0.052206
#
#
# Mechanical properties :
#
#
# Convention : Reuss Voigt Hill
#
# Bulk Modulus (GPa) = 42.65461 52.01852 47.33657
# Shear Modulus (GPa) = 30.25594 35.06488 32.66041
#
# Velocity S-wave (km/s) = 3.85221 4.14706 4.00235
# Velocity P-wave (km/s) = 6.38018 6.96019 6.67648
#
# Compressibility (1/GPa) = 0.02344412
#
# Stress axis : x y z
#
# Youngs Moduli (GPa) = 79.35831 61.46304 125.03359
#
# Poissons Ratio (x) = 0.17377 0.19918
# Poissons Ratio (y) = 0.22437 0.28659
# Poissons Ratio (z) = 0.12642 0.14088
#
# Static dielectric constant tensor:
#      x y z
#    x 3.577610 -0.000010 -0.137500 
#    y -0.000010 3.825180 0.000010 
#    z -0.137500 0.000010 4.195220 
# 
# 
# High freq. dielectric constant tensor:
#      x y z
#    x 1.784770 0.000000 -0.006720 
#    y 0.000000 1.789600 0.000000 
#    z -0.006720 0.000000 1.818770 
# 
# From -- ./inp_files/240413.got.cif
#   From: 2010.06.25/outbox.cif.g09.slc.cpg/sg15_121_cif.got.tgz:240413.got - 2010.06.28 07:06:18.
