data_PCOD8146543
_publ_section_title
;
Structure prediction by ZEFSAII (Michael W. Deem and Ramdas Pophale) SiO2 
 PCOD8146543
Probable space group: C 2/C
;
_chemical_formula_sum "Si O2"
_cell_formula_units_Z 48
_cell_length_a 30.501395
_cell_length_b 15.871763
_cell_length_c 14.382618
_cell_angle_alpha 90.000000
_cell_angle_beta 160.600544
_cell_angle_gamma 90.000000
_cell_volume 2312.703303
_symmetry_space_group_name_H-M "C 2/C"
_symmetry_group_IT_number 15
_symmetry_cell_setting 'monoclinic'
loop_
_space_group_symop_operation_xyz
x,y,z
-x,y,1/2-z
-x,-y,-z
x,-y,1/2+z
1/2+x,1/2+y,z
1/2-x,1/2+y,1/2-z
1/2-x,1/2-y,-z
1/2+x,1/2-y,1/2+z
loop_
_atom_site_type_symbol
_atom_site_label
_atom_site_fract_x
_atom_site_fract_y
_atom_site_fract_z
Si Si1 0.000000 0.420220 0.750000
Si Si2 0.691939 0.228756 0.624855
Si Si3 0.348570 0.778140 0.117437
Si Si4 0.063388 0.177160 0.473149
Si Si5 0.908778 0.003549 0.408200
Si Si6 0.000000 0.129818 0.750000
Si Si7 0.896905 0.526963 0.716196
O O1 0.881849 0.356137 0.486507
O O2 0.950690 0.482731 0.731217
O O3 0.604985 0.306346 0.413969
O O4 0.774480 0.263283 0.874482
O O5 0.784112 0.206239 0.721054
O O6 0.479835 0.720119 0.388861
O O7 0.400909 0.872713 0.222786
O O8 0.250000 0.750000 0.000000
O O9 0.000000 0.206915 0.250000
O O10 0.055592 0.077665 0.461955
O O11 0.939811 0.078949 0.542419
O O12 0.000000 0.000000 0.500000
O O13 0.755783 0.002245 0.069849
O O14 0.000000 0.500000 0.000000
#
# Coordination Sequence:
#
# PCOD8146543 Si02
#       7
#     4   8   8   8   8   4   8
#     4  11  24  44  71  92 142 180 235 288 344 419
#     4  10  22  43  67  97 131 184 227 283 351 407
#     4  11  23  42  69 100 140 178 229 285 346 413
#     4  10  22  41  67  97 133 176 225 280 345 409
#     4  12  25  45  69 104 138 182 232 289 349 413
#     4  11  24  44  71  96 136 178 235 286 344 409
#     4  12  27  45  69 106 142 188 231 286 353 416
#
# _framework density 20.754933000000001
#
# number of rings (size 3 to 8) (size 9 to 14) (size 15 to 20)
#    0.000    1.000    4.167    2.000    3.500    4.000 
#    0.000    1.667    0.000    0.000    0.000    0.000 
#    0.000    0.000    0.000    0.000    0.000    0.000 
#
# Total GULP energy -297369.351278 kJ/mol
# GULP energy per Si atom -12390.389637 kJ/mol
# Density = 2.070769 g / cm^3
# Si number density = 20.754933 Si / 1000 Ang^3
#
#
#
# Elastic Constant Matrix: (Units=GPa)
#
#
# Indices 1 2 3 4 5 6 
#
# 1 110.0740 55.7563 65.8322 0.0000 26.0187 0.0000
# 2 55.7563 178.6007 66.1418 0.0000 18.3670 0.0000
# 3 65.8322 66.1418 138.3289 0.0000 26.6015 0.0000
# 4 0.0000 0.0000 0.0000 33.9302 0.0000 7.8870
# 5 26.0187 18.3670 26.6015 0.0000 44.2675 0.0000
# 6 0.0000 0.0000 0.0000 7.8870 0.0000 28.7150
#
#
#
# Elastic Compliance Matrix: (Units=1/GPa)
#
#
# Indices 1 2 3 4 5 6 
#
# 1 0.014131 -0.002161 -0.004824 0.000000 -0.004510 0.000000
# 2 -0.002161 0.007172 -0.002344 0.000000 -0.000297 0.000000
# 3 -0.004824 -0.002344 0.011209 0.000000 -0.002928 0.000000
# 4 0.000000 0.000000 0.000000 0.031482 0.000000 -0.008647
# 5 -0.004510 -0.000297 -0.002928 0.000000 0.027123 0.000000
# 6 0.000000 0.000000 0.000000 -0.008647 0.000000 0.037200
#
#
# Mechanical properties :
#
#
# Convention : Reuss Voigt Hill
#
# Bulk Modulus (GPa) = 72.18455 89.16269 80.67362
# Shear Modulus (GPa) = 32.98290 37.33409 35.15849
#
# Velocity S-wave (km/s) = 3.99075 4.24583 4.12027
# Velocity P-wave (km/s) = 7.48931 8.19080 7.84790
#
# Compressibility (1/GPa) = 0.01385338
#
# Stress axis : x y z
#
# Youngs Moduli (GPa) = 70.76759 139.42602 89.21516
#
# Poissons Ratio (x) = 0.30129 0.43042
# Poissons Ratio (y) = 0.15293 0.20910
# Poissons Ratio (z) = 0.34142 0.32679
#
# Static dielectric constant tensor:
#      x y z
#    x 4.048110 0.000000 0.542850 
#    y 0.000000 3.957300 0.000000 
#    z 0.542850 0.000000 4.438700 
# 
# 
# High freq. dielectric constant tensor:
#      x y z
#    x 1.800810 0.000000 0.021340 
#    y 0.000000 1.834770 0.000000 
#    z 0.021340 0.000000 1.825710 
# 
# From -- ./inp_files/182558.got.cif
#   From: 2010.06.25/outbox.cif.g09.slc.cpg/sg15_92_cif.got.tgz:182558.got - 2010.06.28 07:06:18.
