data_PCOD8146037
_publ_section_title
;
Structure prediction by ZEFSAII (Michael W. Deem and Ramdas Pophale) SiO2 
 PCOD8146037
Probable space group: C 2/C
;
_chemical_formula_sum "Si O2"
_cell_formula_units_Z 52
_cell_length_a 14.366059
_cell_length_b 29.561974
_cell_length_c 9.423133
_cell_angle_alpha 90.000000
_cell_angle_beta 36.748568
_cell_angle_gamma 90.000000
_cell_volume 2394.355987
_symmetry_space_group_name_H-M "C 2/C"
_symmetry_group_IT_number 15
_symmetry_cell_setting 'monoclinic'
loop_
_space_group_symop_operation_xyz
x,y,z
-x,y,1/2-z
-x,-y,-z
x,-y,1/2+z
1/2+x,1/2+y,z
1/2-x,1/2+y,1/2-z
1/2-x,1/2-y,-z
1/2+x,1/2-y,1/2+z
loop_
_atom_site_type_symbol
_atom_site_label
_atom_site_fract_x
_atom_site_fract_y
_atom_site_fract_z
Si Si1 0.667686 0.672281 0.872031
Si Si2 0.841038 0.074493 0.126234
Si Si3 0.805349 0.838681 0.840733
Si Si4 0.195854 0.914274 0.155955
Si Si5 0.000000 0.750288 0.250000
Si Si6 0.202828 0.273130 0.742976
Si Si7 0.887249 0.498844 0.008599
O O1 0.725966 0.634633 0.689329
O O2 0.728852 0.720838 0.751336
O O3 0.737764 0.660462 0.941008
O O4 0.482077 0.676585 0.102681
O O5 0.779150 0.111831 0.310620
O O6 0.764585 0.028462 0.273722
O O7 0.790224 0.089247 0.030737
O O8 0.026242 0.067737 0.909537
O O9 0.690138 0.804032 0.898461
O O10 0.327706 0.948413 0.048720
O O11 0.056541 0.719613 0.315528
O O12 0.861599 0.784652 0.463389
O O13 0.000000 0.518441 0.750000
O O14 0.000000 0.500000 0.000000
#
# Coordination Sequence:
#
# PCOD8146037 Si02
#       7
#     8   8   8   8   4   8   8
#     4  10  22  40  65  94 131 169 216 269 317 382
#     4  10  23  43  69  95 126 173 224 265 311 399
#     4  10  22  40  65  95 128 170 217 268 318 380
#     4  10  23  43  69  96 124 173 225 261 317 394
#     4  10  24  34  64  90 122 174 214 266 318 378
#     4  11  21  42  60  94 129 173 215 268 322 377
#     4  12  25  46  66  96 138 168 205 272 342 390
#
# _framework density 21.717739999999999
#
# number of rings (size 3 to 8) (size 9 to 14) (size 15 to 20)
#    0.000    1.538    3.077    0.923    6.462    0.000 
#    4.154    0.000    0.000    0.000    0.000    0.000 
#    0.000    0.000    0.000    0.000    0.000    0.000 
#
# Total GULP energy -322376.371984 kJ/mol
# GULP energy per Si atom -12399.091230 kJ/mol
# Density = 2.166831 g / cm^3
# Si number density = 21.717740 Si / 1000 Ang^3
#
#
#
# Elastic Constant Matrix: (Units=GPa)
#
#
# Indices 1 2 3 4 5 6 
#
# 1 158.9777 41.1699 26.5321 0.0000 21.0366 0.0000
# 2 41.1699 94.8330 23.4245 0.0000 9.0741 0.0000
# 3 26.5321 23.4245 72.1170 0.0000 15.0794 0.0000
# 4 0.0000 0.0000 0.0000 18.6983 0.0000 3.8848
# 5 21.0366 9.0741 15.0794 0.0000 38.1010 0.0000
# 6 0.0000 0.0000 0.0000 3.8848 0.0000 37.8451
#
#
#
# Elastic Compliance Matrix: (Units=1/GPa)
#
#
# Indices 1 2 3 4 5 6 
#
# 1 0.007606 -0.002692 -0.001286 0.000000 -0.003049 0.000000
# 2 -0.002692 0.012484 -0.003002 0.000000 -0.000299 0.000000
# 3 -0.001286 -0.003002 0.016371 0.000000 -0.005054 0.000000
# 4 0.000000 0.000000 0.000000 0.054646 0.000000 -0.005609
# 5 -0.003049 -0.000299 -0.005054 0.000000 0.030001 0.000000
# 6 0.000000 0.000000 0.000000 -0.005609 0.000000 0.026999
#
#
# Mechanical properties :
#
#
# Convention : Reuss Voigt Hill
#
# Bulk Modulus (GPa) = 44.44445 56.46452 50.45449
# Shear Modulus (GPa) = 29.48673 34.58229 32.03451
#
# Velocity S-wave (km/s) = 3.68873 3.99476 3.84479
# Velocity P-wave (km/s) = 6.21702 6.87991 6.55685
#
# Compressibility (1/GPa) = 0.02250000
#
# Stress axis : x y z
#
# Youngs Moduli (GPa) = 131.48357 80.10411 61.08211
#
# Poissons Ratio (x) = 0.21567 0.07855
# Poissons Ratio (y) = 0.35400 0.18336
# Poissons Ratio (z) = 0.16909 0.24047
#
# Static dielectric constant tensor:
#      x y z
#    x 4.124490 0.000000 0.270890 
#    y 0.000000 3.989420 0.000000 
#    z 0.270890 0.000000 3.471800 
# 
# 
# High freq. dielectric constant tensor:
#      x y z
#    x 1.870440 0.000000 0.011060 
#    y 0.000000 1.836300 0.000000 
#    z 0.011060 0.000000 1.850350 
# 
# From -- ./inp_files/44769.got.cif
#   From: 2010.06.25/outbox.cif.g09.slc.cpg/sg15_23_cif.got.tgz:44769.got - 2010.06.28 07:06:18.
