data_PCOD8146078
_publ_section_title
;
Structure prediction by ZEFSAII (Michael W. Deem and Ramdas Pophale) SiO2 
 PCOD8146078
Probable space group: C 2/C
;
_chemical_formula_sum "Si O2"
_cell_formula_units_Z 52
_cell_length_a 15.804128
_cell_length_b 8.806406
_cell_length_c 18.819062
_cell_angle_alpha 90.000000
_cell_angle_beta 98.533692
_cell_angle_gamma 90.000000
_cell_volume 2590.193619
_symmetry_space_group_name_H-M "C 2/C"
_symmetry_group_IT_number 15
_symmetry_cell_setting 'monoclinic'
loop_
_space_group_symop_operation_xyz
x,y,z
-x,y,1/2-z
-x,-y,-z
x,-y,1/2+z
1/2+x,1/2+y,z
1/2-x,1/2+y,1/2-z
1/2-x,1/2-y,-z
1/2+x,1/2-y,1/2+z
loop_
_atom_site_type_symbol
_atom_site_label
_atom_site_fract_x
_atom_site_fract_y
_atom_site_fract_z
Si Si1 0.430902 0.085693 0.793457
Si Si2 0.738997 0.191915 0.795065
Si Si3 0.261902 0.589147 0.535364
Si Si4 0.187058 0.832124 0.045729
Si Si5 0.500000 0.374243 0.750000
Si Si6 0.416082 0.949001 0.947431
Si Si7 0.669320 0.477360 0.305327
O O1 0.500000 0.002461 0.750000
O O2 0.340500 0.092395 0.742347
O O3 0.461245 0.262943 0.806998
O O4 0.424657 0.998376 0.866674
O O5 0.761932 0.135561 0.875925
O O6 0.724611 0.372272 0.794888
O O7 0.817439 0.151370 0.752737
O O8 0.250000 0.750000 0.500000
O O9 0.328241 0.494799 0.493489
O O10 0.166751 0.521742 0.527231
O O11 0.303089 0.598411 0.617864
O O12 0.100186 0.734137 0.049283
O O13 0.250000 0.750000 0.000000
O O14 0.430175 0.480324 0.704292
O O15 0.500000 0.000000 0.000000
#
# Coordination Sequence:
#
# PCOD8146078 Si02
#       7
#     8   8   8   8   4   8   8
#     4   9  20  35  65  95 127 173 215 266 330 386
#     4  11  20  39  68  88 124 169 223 266 323 395
#     4  11  25  44  64  94 129 175 217 269 335 408
#     4  10  22  40  66  91 129 170 215 266 331 394
#     4   8  22  36  66  92 132 164 210 280 334 380
#     4  11  23  41  66 100 130 170 220 267 334 404
#     4  11  22  42  65  94 125 168 220 267 331 396
#
# _framework density 20.07572
#
# number of rings (size 3 to 8) (size 9 to 14) (size 15 to 20)
#    0.462    1.231    4.615    0.000    8.615    0.000 
#    2.769    0.769    1.692    0.000    0.000    0.000 
#    0.000    0.000    0.000    0.000    0.000    0.000 
#
# Total GULP energy -322175.309843 kJ/mol
# GULP energy per Si atom -12391.358071 kJ/mol
# Density = 2.003003 g / cm^3
# Si number density = 20.075720 Si / 1000 Ang^3
#
#
#
# Elastic Constant Matrix: (Units=GPa)
#
#
# Indices 1 2 3 4 5 6 
#
# 1 100.6442 35.8471 52.7520 0.0000 4.6598 0.0000
# 2 35.8471 102.1863 65.2249 0.0000 -12.4747 0.0000
# 3 52.7520 65.2249 176.0958 0.0000 0.5669 0.0000
# 4 0.0000 0.0000 0.0000 38.4249 0.0000 -9.3884
# 5 4.6598 -12.4747 0.5669 0.0000 22.9878 0.0000
# 6 0.0000 0.0000 0.0000 -9.3884 0.0000 34.4750
#
#
#
# Elastic Compliance Matrix: (Units=1/GPa)
#
#
# Indices 1 2 3 4 5 6 
#
# 1 0.012659 -0.003348 -0.002538 0.000000 -0.004320 0.000000
# 2 -0.003348 0.014965 -0.004569 0.000000 0.008912 0.000000
# 3 -0.002538 -0.004569 0.008138 0.000000 -0.002165 0.000000
# 4 0.000000 0.000000 0.000000 0.027880 0.000000 0.007592
# 5 -0.004320 0.008912 -0.002165 0.000000 0.049267 0.000000
# 6 0.000000 0.000000 0.000000 0.007592 0.000000 0.031074
#
#
# Mechanical properties :
#
#
# Convention : Reuss Voigt Hill
#
# Bulk Modulus (GPa) = 67.33026 76.28604 71.80815
# Shear Modulus (GPa) = 29.43901 34.18436 31.81169
#
# Velocity S-wave (km/s) = 3.83351 4.13094 3.98500
# Velocity P-wave (km/s) = 7.29420 7.79965 7.55116
#
# Compressibility (1/GPa) = 0.01485216
#
# Stress axis : x y z
#
# Youngs Moduli (GPa) = 78.99592 66.82435 122.87760
#
# Poissons Ratio (x) = 0.22374 0.31188
# Poissons Ratio (y) = 0.26449 0.56137
# Poissons Ratio (z) = 0.20050 0.30529
#
# Static dielectric constant tensor:
#      x y z
#    x 3.796050 0.000000 -0.018070 
#    y 0.000000 3.784760 0.000000 
#    z -0.018070 0.000000 3.668310 
# 
# 
# High freq. dielectric constant tensor:
#      x y z
#    x 1.774300 0.000000 0.000580 
#    y 0.000000 1.775080 0.000000 
#    z 0.000580 0.000000 1.788150 
# 
# From -- ./inp_files/209182.got.cif
#   From: 2010.06.25/outbox.cif.g09.slc.cpg/sg15_105_cif.got.tgz:209182.got - 2010.06.28 07:06:18.
