data_PCOD8146530
_publ_section_title
;
Structure prediction by ZEFSAII (Michael W. Deem and Ramdas Pophale) SiO2 
 PCOD8146530
Probable space group: C 2/C
;
_chemical_formula_sum "Si O2"
_cell_formula_units_Z 48
_cell_length_a 10.451699
_cell_length_b 13.177307
_cell_length_c 16.338180
_cell_angle_alpha 90.000000
_cell_angle_beta 75.581957
_cell_angle_gamma 90.000000
_cell_volume 2179.309997
_symmetry_space_group_name_H-M "C 2/C"
_symmetry_group_IT_number 15
_symmetry_cell_setting 'monoclinic'
loop_
_space_group_symop_operation_xyz
x,y,z
-x,y,1/2-z
-x,-y,-z
x,-y,1/2+z
1/2+x,1/2+y,z
1/2-x,1/2+y,1/2-z
1/2-x,1/2-y,-z
1/2+x,1/2-y,1/2+z
loop_
_atom_site_type_symbol
_atom_site_label
_atom_site_fract_x
_atom_site_fract_y
_atom_site_fract_z
Si Si1 0.000000 0.961867 0.250000
Si Si2 0.998281 0.696789 0.844949
Si Si3 0.500000 0.128285 0.250000
Si Si4 0.822653 0.089191 0.992922
Si Si5 0.962460 0.908200 0.904839
Si Si6 0.805381 0.798865 0.334740
Si Si7 0.055595 0.488337 0.583039
O O1 0.963477 0.031930 0.179030
O O2 0.868243 0.894482 0.277961
O O3 0.916195 0.798054 0.881076
O O4 0.148927 0.705501 0.850487
O O5 0.000000 0.678902 0.750000
O O6 0.917640 0.604454 0.897128
O O7 0.371567 0.197061 0.288993
O O8 0.531211 0.061439 0.328046
O O9 0.830774 0.181940 0.927368
O O10 0.939746 0.110591 0.036077
O O11 0.683759 0.083746 0.061324
O O12 0.837795 0.977183 0.949894
O O13 0.000000 0.500000 0.500000
#
# Coordination Sequence:
#
# PCOD8146530 Si02
#       7
#     4   8   4   8   8   8   8
#     4   9  20  41  64  92 128 169 212 267 326 380
#     4  12  25  40  63  98 133 170 213 265 328 386
#     4  11  26  45  70  96 124 181 222 267 320 392
#     4  10  23  44  69  93 128 171 219 270 324 390
#     4  10  22  41  67  95 125 171 216 271 320 384
#     4  10  23  43  67  94 127 171 225 264 320 392
#     4  12  26  44  66  96 139 173 215 269 333 387
#
# _framework density 22.025321000000002
#
# number of rings (size 3 to 8) (size 9 to 14) (size 15 to 20)
#    0.000    1.333    3.333    1.000    4.667    4.667 
#    0.000    0.000    0.000    0.000    0.000    0.000 
#    0.000    0.000    0.000    0.000    0.000    0.000 
#
# Total GULP energy -297408.555261 kJ/mol
# GULP energy per Si atom -12392.023136 kJ/mol
# Density = 2.197519 g / cm^3
# Si number density = 22.025321 Si / 1000 Ang^3
#
#
#
# Elastic Constant Matrix: (Units=GPa)
#
#
# Indices 1 2 3 4 5 6 
#
# 1 35.1877 -13.1474 13.7798 0.0000 2.6714 0.0000
# 2 -13.1474 117.9673 58.3520 0.0000 -2.5016 0.0000
# 3 13.7798 58.3520 149.5422 0.0000 15.4886 0.0000
# 4 0.0000 0.0000 0.0000 54.5189 0.0000 -5.3360
# 5 2.6714 -2.5016 15.4886 0.0000 38.3422 0.0000
# 6 0.0000 0.0000 0.0000 -5.3360 0.0000 41.3401
#
#
#
# Elastic Compliance Matrix: (Units=1/GPa)
#
#
# Indices 1 2 3 4 5 6 
#
# 1 0.032994 0.006455 -0.005599 0.000000 0.000384 0.000000
# 2 0.006455 0.011991 -0.005540 0.000000 0.002571 0.000000
# 3 -0.005599 -0.005540 0.009771 0.000000 -0.003918 0.000000
# 4 0.000000 0.000000 0.000000 0.018577 0.000000 0.002398
# 5 0.000384 0.002571 -0.003918 0.000000 0.027805 0.000000
# 6 0.000000 0.000000 0.000000 0.002398 0.000000 0.024499
#
#
# Mechanical properties :
#
#
# Convention : Reuss Voigt Hill
#
# Bulk Modulus (GPa) = 22.03236 46.74067 34.38651
# Shear Modulus (GPa) = 33.30359 43.08777 38.19568
#
# Velocity S-wave (km/s) = 3.89274 4.42779 4.16886
# Velocity P-wave (km/s) = 5.49813 6.88533 6.23046
#
# Compressibility (1/GPa) = 0.04538778
#
# Stress axis : x y z
#
# Youngs Moduli (GPa) = 30.30840 83.39472 102.34828
#
# Poissons Ratio (x) = -0.53829 0.57302
# Poissons Ratio (y) = -0.19563 0.56701
# Poissons Ratio (z) = 0.16969 0.46201
#
# Static dielectric constant tensor:
#      x y z
#    x 3.494740 0.000000 -0.193300 
#    y 0.000000 4.165920 0.000000 
#    z -0.193300 0.000000 4.488350 
# 
# 
# High freq. dielectric constant tensor:
#      x y z
#    x 1.827370 0.000000 0.005940 
#    y 0.000000 1.887780 0.000000 
#    z 0.005940 0.000000 1.894110 
# 
# From -- ./inp_files/196564.got.cif
#   From: 2010.06.25/outbox.cif.g09.slc.cpg/sg15_99_cif.got.tgz:196564.got - 2010.06.28 07:06:18.
