data_PCOD8146829
_publ_section_title
;
Structure prediction by ZEFSAII (Michael W. Deem and Ramdas Pophale) SiO2 
 PCOD8146829
Probable space group: C 2/C
;
_chemical_formula_sum "Si O2"
_cell_formula_units_Z 48
_cell_length_a 12.092988
_cell_length_b 12.071526
_cell_length_c 16.710683
_cell_angle_alpha 90.000000
_cell_angle_beta 112.677584
_cell_angle_gamma 90.000000
_cell_volume 2250.843703
_symmetry_space_group_name_H-M "C 2/C"
_symmetry_group_IT_number 15
_symmetry_cell_setting 'monoclinic'
loop_
_space_group_symop_operation_xyz
x,y,z
-x,y,1/2-z
-x,-y,-z
x,-y,1/2+z
1/2+x,1/2+y,z
1/2-x,1/2+y,1/2-z
1/2-x,1/2-y,-z
1/2+x,1/2-y,1/2+z
loop_
_atom_site_type_symbol
_atom_site_label
_atom_site_fract_x
_atom_site_fract_y
_atom_site_fract_z
Si Si1 0.047204 0.620064 0.490907
Si Si2 0.198149 0.041470 0.667285
Si Si3 0.456259 0.447949 0.654193
Si Si4 0.117876 0.639713 0.329891
Si Si5 0.862434 0.801041 0.490127
Si Si6 0.273648 0.626988 0.658638
O O1 0.100581 0.615501 0.417791
O O2 0.152106 0.656860 0.579476
O O3 0.000000 0.500000 0.500000
O O4 0.941138 0.709810 0.466169
O O5 0.196546 0.113957 0.587679
O O6 0.262058 0.103318 0.759249
O O7 0.266863 0.927127 0.669573
O O8 0.060512 0.027758 0.653277
O O9 0.500000 0.391564 0.750000
O O10 0.439898 0.357543 0.581192
O O11 0.336720 0.520439 0.635209
O O12 0.137466 0.769285 0.320463
O O13 0.000000 0.599965 0.250000
O O14 0.750000 0.750000 0.500000
#
# Coordination Sequence:
#
# PCOD8146829 Si02
#       6
#     8   8   8   8   8   8
#     4  12  25  43  64  94 130 169 215 267 326 393
#     4  11  24  42  65  92 126 166 210 260 318 385
#     4  10  22  42  65  92 125 165 210 258 317 385
#     4  12  24  42  66  95 128 169 215 269 326 388
#     4  12  25  41  64  92 127 167 210 263 318 381
#     4  11  23  42  67  95 127 168 214 267 325 390
#
# _framework density 21.325337000000001
#
# number of rings (size 3 to 8) (size 9 to 14) (size 15 to 20)
#    0.000    0.667    0.000    9.500    0.000    5.333 
#    0.000    0.833    0.000    0.000    0.000    0.000 
#    0.000    0.000    0.000    0.000    0.000    0.000 
#
# Total GULP energy -297722.392566 kJ/mol
# GULP energy per Si atom -12405.099690 kJ/mol
# Density = 2.127680 g / cm^3
# Si number density = 21.325337 Si / 1000 Ang^3
#
#
#
# Elastic Constant Matrix: (Units=GPa)
#
#
# Indices 1 2 3 4 5 6 
#
# 1 81.0201 12.8910 32.9689 0.0000 -3.0369 0.0000
# 2 12.8910 89.3877 32.4353 0.0000 -9.2030 0.0000
# 3 32.9689 32.4353 148.7121 0.0000 -11.3566 0.0000
# 4 0.0000 0.0000 0.0000 26.9382 0.0000 -4.9427
# 5 -3.0369 -9.2030 -11.3566 0.0000 42.8380 0.0000
# 6 0.0000 0.0000 0.0000 -4.9427 0.0000 40.9306
#
#
#
# Elastic Compliance Matrix: (Units=1/GPa)
#
#
# Indices 1 2 3 4 5 6 
#
# 1 0.013640 -0.000943 -0.002817 0.000000 0.000018 0.000000
# 2 -0.000943 0.012375 -0.002339 0.000000 0.001972 0.000000
# 3 -0.002817 -0.002339 0.007967 0.000000 0.001410 0.000000
# 4 0.000000 0.000000 0.000000 0.037963 0.000000 0.004584
# 5 0.000018 0.001972 0.001410 0.000000 0.024142 0.000000
# 6 0.000000 0.000000 0.000000 0.004584 0.000000 0.024985
#
#
# Mechanical properties :
#
#
# Convention : Reuss Voigt Hill
#
# Bulk Modulus (GPa) = 45.90798 52.85670 49.38234
# Shear Modulus (GPa) = 35.57915 38.19634 36.88775
#
# Velocity S-wave (km/s) = 4.08903 4.23676 4.16355
# Velocity P-wave (km/s) = 6.62327 6.98378 6.80591
#
# Compressibility (1/GPa) = 0.02178271
#
# Stress axis : x y z
#
# Youngs Moduli (GPa) = 73.31621 80.80738 125.52105
#
# Poissons Ratio (x) = 0.07621 0.35357
# Poissons Ratio (y) = 0.06915 0.29365
# Poissons Ratio (z) = 0.20652 0.18905
#
# Static dielectric constant tensor:
#      x y z
#    x 4.018470 0.000000 -0.831890 
#    y 0.000000 3.641400 0.000000 
#    z -0.831890 0.000000 9.864680 
# 
# 
# High freq. dielectric constant tensor:
#      x y z
#    x 1.848540 0.000000 -0.004020 
#    y 0.000000 1.834300 0.000000 
#    z -0.004020 0.000000 1.858170 
# 
# From -- ./inp_files/196604.got.cif
#   From: 2010.06.25/outbox.cif.g09.slc.cpg/sg15_99_cif.got.tgz:196604.got - 2010.06.28 07:06:18.
