data_PCOD8146089
_publ_section_title
;
Structure prediction by ZEFSAII (Michael W. Deem and Ramdas Pophale) SiO2 
 PCOD8146089
Probable space group: C 2/C
;
_chemical_formula_sum "Si O2"
_cell_formula_units_Z 56
_cell_length_a 6.806205
_cell_length_b 26.794030
_cell_length_c 17.806279
_cell_angle_alpha 90.000000
_cell_angle_beta 127.219416
_cell_angle_gamma 90.000000
_cell_volume 2585.869381
_symmetry_space_group_name_H-M "C 2/C"
_symmetry_group_IT_number 15
_symmetry_cell_setting 'monoclinic'
loop_
_space_group_symop_operation_xyz
x,y,z
-x,y,1/2-z
-x,-y,-z
x,-y,1/2+z
1/2+x,1/2+y,z
1/2-x,1/2+y,1/2-z
1/2-x,1/2-y,-z
1/2+x,1/2-y,1/2+z
loop_
_atom_site_type_symbol
_atom_site_label
_atom_site_fract_x
_atom_site_fract_y
_atom_site_fract_z
Si Si1 0.225932 0.008803 0.498861
Si Si2 0.941538 0.628613 0.820324
Si Si3 0.923312 0.268399 0.365970
Si Si4 0.137707 0.879685 0.967336
Si Si5 0.636718 0.796108 0.569020
Si Si6 0.743781 0.467125 0.346404
Si Si7 0.348663 0.826052 0.649944
O O1 0.182712 0.063394 0.453061
O O2 0.489141 0.005282 0.604876
O O3 0.211469 0.967907 0.429211
O O4 0.000000 0.000000 0.500000
O O5 0.819127 0.683995 0.794917
O O6 0.762074 0.589173 0.819679
O O7 0.000000 0.610366 0.750000
O O8 0.202126 0.633070 0.922676
O O9 0.744891 0.221509 0.323822
O O10 0.181019 0.251582 0.386366
O O11 0.946436 0.285418 0.458057
O O12 0.212007 0.846569 0.913150
O O13 0.858858 0.864932 0.926253
O O14 0.500538 0.804968 0.615284
O O15 0.500000 0.491740 0.250000
O O16 0.500000 0.855337 0.750000
#
# Coordination Sequence:
#
# PCOD8146089 Si02
#       7
#     8   8   8   8   8   8   8
#     4  10  23  45  72  94 130 172 213 272 337 398
#     4  10  22  40  66  93 132 168 206 268 332 388
#     4   9  20  37  58  91 122 172 209 256 322 378
#     4   9  22  43  61  90 123 168 212 259 330 380
#     4   9  19  40  61  81 129 164 211 267 310 379
#     4  10  24  43  65 101 129 166 216 270 330 397
#     4  11  23  37  61  92 124 170 219 264 312 381
#
# _framework density 21.656158000000001
#
# number of rings (size 3 to 8) (size 9 to 14) (size 15 to 20)
#    0.000    2.286    0.000    1.286    6.000    6.857 
#    5.143    0.000    0.000    0.000    0.000    0.000 
#    0.000    0.000    0.000    0.000    0.000    0.000 
#
# Total GULP energy -346964.762618 kJ/mol
# GULP energy per Si atom -12391.598665 kJ/mol
# Density = 2.160687 g / cm^3
# Si number density = 21.656158 Si / 1000 Ang^3
#
#
#
# Elastic Constant Matrix: (Units=GPa)
#
#
# Indices 1 2 3 4 5 6 
#
# 1 133.0923 25.6315 57.3468 0.0000 1.5402 0.0000
# 2 25.6315 90.3522 22.8715 0.0000 -7.4528 0.0000
# 3 57.3468 22.8715 104.4311 0.0000 15.3473 0.0000
# 4 0.0000 0.0000 0.0000 19.2635 0.0000 -3.8875
# 5 1.5402 -7.4528 15.3473 0.0000 28.1418 0.0000
# 6 0.0000 0.0000 0.0000 -3.8875 0.0000 24.3920
#
#
#
# Elastic Compliance Matrix: (Units=1/GPa)
#
#
# Indices 1 2 3 4 5 6 
#
# 1 0.010154 -0.001281 -0.005614 0.000000 0.002167 0.000000
# 2 -0.001281 0.012534 -0.002761 0.000000 0.004895 0.000000
# 3 -0.005614 -0.002761 0.014487 0.000000 -0.008324 0.000000
# 4 0.000000 0.000000 0.000000 0.053637 0.000000 0.008548
# 5 0.002167 0.004895 -0.008324 0.000000 0.041252 0.000000
# 6 0.000000 0.000000 0.000000 0.008548 0.000000 0.042359
#
#
# Mechanical properties :
#
#
# Convention : Reuss Voigt Hill
#
# Bulk Modulus (GPa) = 55.98188 59.95280 57.96734
# Shear Modulus (GPa) = 25.03902 29.16118 27.10010
#
# Velocity S-wave (km/s) = 3.40399 3.67352 3.54132
# Velocity P-wave (km/s) = 6.43086 6.76292 6.59898
#
# Compressibility (1/GPa) = 0.01786292
#
# Stress axis : x y z
#
# Youngs Moduli (GPa) = 98.48273 79.78381 69.02967
#
# Poissons Ratio (x) = 0.10218 0.38752
# Poissons Ratio (y) = 0.12613 0.19060
# Poissons Ratio (z) = 0.55287 0.22029
#
# Static dielectric constant tensor:
#      x y z
#    x 3.879150 0.000000 0.248560 
#    y 0.000000 4.297320 0.000000 
#    z 0.248560 0.000000 3.849580 
# 
# 
# High freq. dielectric constant tensor:
#      x y z
#    x 1.849120 0.000000 0.008220 
#    y 0.000000 1.841340 0.000000 
#    z 0.008220 0.000000 1.841220 
# 
# From -- ./inp_files/186799.got.cif
#   From: 2010.06.25/outbox.cif.g09.slc.cpg/sg15_94_cif.got.tgz:186799.got - 2010.06.28 07:06:18.
