data_PCOD8146994
_publ_section_title
;
Structure prediction by ZEFSAII (Michael W. Deem and Ramdas Pophale) SiO2 
 PCOD8146994
Probable space group: C 2/C
;
_chemical_formula_sum "Si O2"
_cell_formula_units_Z 48
_cell_length_a 19.911959
_cell_length_b 12.556792
_cell_length_c 8.567958
_cell_angle_alpha 90.000000
_cell_angle_beta 134.186308
_cell_angle_gamma 90.000000
_cell_volume 1536.158138
_symmetry_space_group_name_H-M "C 2/C"
_symmetry_group_IT_number 15
_symmetry_cell_setting 'monoclinic'
loop_
_space_group_symop_operation_xyz
x,y,z
-x,y,1/2-z
-x,-y,-z
x,-y,1/2+z
1/2+x,1/2+y,z
1/2-x,1/2+y,1/2-z
1/2-x,1/2-y,-z
1/2+x,1/2-y,1/2+z
loop_
_atom_site_type_symbol
_atom_site_label
_atom_site_fract_x
_atom_site_fract_y
_atom_site_fract_z
Si Si1 0.408690 0.089787 0.476095
Si Si2 0.500000 0.386500 0.750000
Si Si3 0.250437 0.225282 0.312589
Si Si4 0.000000 0.781819 0.250000
Si Si5 0.576047 0.210106 0.674675
Si Si6 0.190887 0.588506 0.501977
Si Si7 0.851583 0.058819 0.548813
O O1 0.364668 0.190278 0.511688
O O2 0.525106 0.100282 0.662810
O O3 0.365655 0.977323 0.456745
O O4 0.380324 0.120168 0.252638
O O5 0.518092 0.314705 0.627861
O O6 0.405139 0.455195 0.568550
O O7 0.241491 0.309293 0.158458
O O8 0.207363 0.111949 0.189336
O O9 0.190836 0.274387 0.366235
O O10 0.061752 0.706599 0.462793
O O11 0.928934 0.856974 0.233197
O O12 0.277672 0.523793 0.563144
#
# Coordination Sequence:
#
# PCOD8146994 Si02
#       7
#     8   4   8   4   8   8   8
#     4  11  24  42  68  95 127 171 216 262 317 380
#     4  11  24  38  66 101 130 155 206 282 334 367
#     4  10  22  42  68  94 128 171 215 261 315 384
#     4   9  18  34  62  85 120 167 206 250 310 379
#     4  11  23  42  63  93 130 169 210 260 319 378
#     4  11  23  41  64  94 130 170 214 258 314 384
#     4   9  19  37  62  96 127 161 207 262 324 376
#
# _framework density 31.246784000000002
#
# number of rings (size 3 to 8) (size 9 to 14) (size 15 to 20)
#    0.000    1.667    0.000    6.000    0.000   13.333 
#    0.000    2.500    0.000    0.000    0.000    0.000 
#    0.000    0.000    0.000    0.000    0.000    0.000 
#
# Total GULP energy -297539.471893 kJ/mol
# GULP energy per Si atom -12397.477996 kJ/mol
# Density = 3.117567 g / cm^3
# Si number density = 31.246784 Si / 1000 Ang^3
#
#
#
# Elastic Constant Matrix: (Units=GPa)
#
#
# Indices 1 2 3 4 5 6 
#
# 1 147.9638 17.7982 52.2554 0.0000 32.4237 0.0000
# 2 17.7982 102.7100 30.4289 0.0000 14.7948 0.0000
# 3 52.2554 30.4289 162.1745 0.0000 25.7709 0.0000
# 4 0.0000 0.0000 0.0000 44.2333 0.0000 11.0754
# 5 32.4237 14.7948 25.7709 0.0000 63.7114 0.0000
# 6 0.0000 0.0000 0.0000 11.0754 0.0000 46.1815
#
#
#
# Elastic Compliance Matrix: (Units=1/GPa)
#
#
# Indices 1 2 3 4 5 6 
#
# 1 0.008251 -0.000343 -0.002073 0.000000 -0.003281 0.000000
# 2 -0.000343 0.010503 -0.001603 0.000000 -0.001616 0.000000
# 3 -0.002073 -0.001603 0.007383 0.000000 -0.001559 0.000000
# 4 0.000000 0.000000 0.000000 0.024052 0.000000 -0.005768
# 5 -0.003281 -0.001616 -0.001559 0.000000 0.018371 0.000000
# 6 0.000000 0.000000 0.000000 -0.005768 0.000000 0.023037
#
#
# Mechanical properties :
#
#
# Convention : Reuss Voigt Hill
#
# Bulk Modulus (GPa) = 55.25428 68.20148 61.72788
# Shear Modulus (GPa) = 47.31801 51.64962 49.48382
#
# Velocity S-wave (km/s) = 3.89566 4.07007 3.98382
# Velocity P-wave (km/s) = 6.16089 6.63034 6.39992
#
# Compressibility (1/GPa) = 0.01809815
#
# Stress axis : x y z
#
# Youngs Moduli (GPa) = 121.20273 95.20735 135.45212
#
# Poissons Ratio (x) = 0.03266 0.28076
# Poissons Ratio (y) = 0.04158 0.21719
# Poissons Ratio (z) = 0.25123 0.15266
#
# Static dielectric constant tensor:
#      x y z
#    x 6.646680 0.000000 0.419250 
#    y 0.000000 5.319250 0.000000 
#    z 0.419250 0.000000 6.590980 
# 
# 
# High freq. dielectric constant tensor:
#      x y z
#    x 2.336880 0.000000 0.007030 
#    y 0.000000 2.259170 0.000000 
#    z 0.007030 0.000000 2.346160 
# 
# From -- ./inp_files/111247.got.cif
#   From: 2010.06.25/outbox.cif.g09.slc.cpg/sg15_56_cif.got.tgz:111247.got - 2010.06.28 07:06:18.
