data_PCOD8146857
_publ_section_title
;
Structure prediction by ZEFSAII (Michael W. Deem and Ramdas Pophale) SiO2 
 PCOD8146857
Probable space group: C 2/C
;
_chemical_formula_sum "Si O2"
_cell_formula_units_Z 40
_cell_length_a 26.048308
_cell_length_b 5.295337
_cell_length_c 12.011646
_cell_angle_alpha 90.000000
_cell_angle_beta 95.615992
_cell_angle_gamma 90.000000
_cell_volume 1648.868680
_symmetry_space_group_name_H-M "C 2/C"
_symmetry_group_IT_number 15
_symmetry_cell_setting 'monoclinic'
loop_
_space_group_symop_operation_xyz
x,y,z
-x,y,1/2-z
-x,-y,-z
x,-y,1/2+z
1/2+x,1/2+y,z
1/2-x,1/2+y,1/2-z
1/2-x,1/2-y,-z
1/2+x,1/2-y,1/2+z
loop_
_atom_site_type_symbol
_atom_site_label
_atom_site_fract_x
_atom_site_fract_y
_atom_site_fract_z
Si Si1 0.311668 0.008205 0.572595
Si Si2 0.038667 0.047979 0.838039
Si Si3 0.037896 0.694018 0.560594
Si Si4 0.192192 0.005040 0.063274
Si Si5 0.875053 0.755609 0.770204
O O1 0.325794 0.235251 0.490050
O O2 0.347271 0.045993 0.688802
O O3 0.252804 0.018510 0.599844
O O4 0.322072 0.733385 0.523471
O O5 0.090100 0.945644 0.793003
O O6 0.000000 0.223374 0.750000
O O7 0.995422 0.840072 0.856577
O O8 0.059332 0.156027 0.958338
O O9 0.089238 0.596983 0.634909
O O10 0.000000 0.500000 0.500000
O O11 0.165515 0.063061 0.175480
#
# Coordination Sequence:
#
# PCOD8146857 Si02
#       5
#     8   8   8   8   8
#     4  10  24  46  69 102 146 186 233 294 353 422
#     4   9  21  42  64  97 139 185 233 291 353 423
#     4  10  22  42  65  99 139 181 233 294 351 428
#     4  10  24  46  70 104 144 184 238 293 351 424
#     4  11  23  42  73 103 138 192 238 293 362 425
#
# _framework density 24.259056000000001
#
# number of rings (size 3 to 8) (size 9 to 14) (size 15 to 20)
#    0.000    2.000    0.000    1.200    2.800    8.800 
#   14.400    0.000    0.000    0.000    0.000    0.000 
#    0.000    0.000    0.000    0.000    0.000    0.000 
#
# Total GULP energy -247774.606005 kJ/mol
# GULP energy per Si atom -12388.730300 kJ/mol
# Density = 2.420384 g / cm^3
# Si number density = 24.259056 Si / 1000 Ang^3
#
#
#
# Elastic Constant Matrix: (Units=GPa)
#
#
# Indices 1 2 3 4 5 6 
#
# 1 128.6306 34.6417 81.5250 0.0000 8.5347 0.0000
# 2 34.6417 83.7741 24.8566 0.0000 7.8538 0.0000
# 3 81.5250 24.8566 139.8119 0.0000 6.6136 0.0000
# 4 0.0000 0.0000 0.0000 33.2817 0.0000 -5.9613
# 5 8.5347 7.8538 6.6136 0.0000 60.2485 0.0000
# 6 0.0000 0.0000 0.0000 -5.9613 0.0000 40.3120
#
#
#
# Elastic Compliance Matrix: (Units=1/GPa)
#
#
# Indices 1 2 3 4 5 6 
#
# 1 0.013188 -0.003293 -0.007073 0.000000 -0.000663 0.000000
# 2 -0.003293 0.013543 -0.000429 0.000000 -0.001252 0.000000
# 3 -0.007073 -0.000429 0.011362 0.000000 -0.000189 0.000000
# 4 0.000000 0.000000 0.000000 0.030864 0.000000 0.004564
# 5 -0.000663 -0.001252 -0.000189 0.000000 0.016876 0.000000
# 6 0.000000 0.000000 0.000000 0.004564 0.000000 0.025481
#
#
# Mechanical properties :
#
#
# Convention : Reuss Voigt Hill
#
# Bulk Modulus (GPa) = 60.59105 70.47371 65.53238
# Shear Modulus (GPa) = 36.12611 40.84799 38.48705
#
# Velocity S-wave (km/s) = 3.86318 4.10789 3.98741
# Velocity P-wave (km/s) = 6.70297 7.18424 6.94777
#
# Compressibility (1/GPa) = 0.01650409
#
# Stress axis : x y z
#
# Youngs Moduli (GPa) = 75.82776 73.83928 88.01250
#
# Poissons Ratio (x) = 0.24312 0.62253
# Poissons Ratio (y) = 0.24967 0.03772
# Poissons Ratio (z) = 0.53634 0.03165
#
# Static dielectric constant tensor:
#      x y z
#    x 4.528480 0.000000 -0.150010 
#    y 0.000000 5.050820 0.000000 
#    z -0.150010 0.000000 3.882550 
# 
# 
# High freq. dielectric constant tensor:
#      x y z
#    x 1.987210 0.000000 0.003340 
#    y 0.000000 1.932430 0.000000 
#    z 0.003340 0.000000 1.986200 
# 
# From -- ./inp_files/120822.got.cif
#   From: 2010.06.25/outbox.cif.g09.slc.cpg/sg15_61_cif.got.tgz:120822.got - 2010.06.28 07:06:18.
