data_PCOD8146814
_publ_section_title
;
Structure prediction by ZEFSAII (Michael W. Deem and Ramdas Pophale) SiO2 
 PCOD8146814
Probable space group: C 2/C
;
_chemical_formula_sum "Si O2"
_cell_formula_units_Z 56
_cell_length_a 7.628062
_cell_length_b 17.884376
_cell_length_c 22.248073
_cell_angle_alpha 90.000000
_cell_angle_beta 56.056554
_cell_angle_gamma 90.000000
_cell_volume 2517.928860
_symmetry_space_group_name_H-M "C 2/C"
_symmetry_group_IT_number 15
_symmetry_cell_setting 'monoclinic'
loop_
_space_group_symop_operation_xyz
x,y,z
-x,y,1/2-z
-x,-y,-z
x,-y,1/2+z
1/2+x,1/2+y,z
1/2-x,1/2+y,1/2-z
1/2-x,1/2-y,-z
1/2+x,1/2-y,1/2+z
loop_
_atom_site_type_symbol
_atom_site_label
_atom_site_fract_x
_atom_site_fract_y
_atom_site_fract_z
Si Si1 0.103774 0.088866 0.054789
Si Si2 0.345204 0.157846 0.371864
Si Si3 0.669173 0.808986 0.370744
Si Si4 0.390494 0.543450 0.646100
Si Si5 0.000000 0.557652 0.250000
Si Si6 0.286150 0.328283 0.081410
Si Si7 0.012434 0.670343 0.469643
Si Si8 0.000000 0.094250 0.750000
O O1 0.270685 0.122795 0.070833
O O2 0.880523 0.128158 0.106510
O O3 0.191518 0.105711 0.971774
O O4 0.066194 0.999740 0.071463
O O5 0.335252 0.243111 0.352424
O O6 0.533941 0.113832 0.300642
O O7 0.380070 0.147949 0.436350
O O8 0.445993 0.790880 0.380657
O O9 0.624365 0.847531 0.444495
O O10 0.785047 0.859944 0.300032
O O11 0.335918 0.627765 0.633792
O O12 0.483309 0.544086 0.694651
O O13 0.182514 0.495203 0.692062
O O14 0.447477 0.260207 0.039557
#
# Coordination Sequence:
#
# PCOD8146814 Si02
#       8
#     8   8   8   8   4   8   8   4
#     4  10  22  42  65 101 131 171 223 278 336 406
#     4  11  21  39  69  97 133 171 221 281 337 399
#     4  11  22  42  65 101 133 165 228 280 336 408
#     4  11  25  43  64  91 140 186 222 279 340 417
#     4  10  25  44  60  89 136 180 226 266 342 413
#     4  11  21  43  71  99 132 173 224 288 345 398
#     4  11  22  40  74 101 132 170 230 288 343 393
#     4  12  27  40  64  91 136 176 228 268 342 411
#
# _framework density 22.240501999999999
#
# number of rings (size 3 to 8) (size 9 to 14) (size 15 to 20)
#    0.000    1.143    2.857    3.857    4.000    0.000 
#    0.000    1.429    0.000    0.000    0.000    0.000 
#    0.000    0.000    0.000    0.000    0.000    0.000 
#
# Total GULP energy -346951.972591 kJ/mol
# GULP energy per Si atom -12391.141878 kJ/mol
# Density = 2.218988 g / cm^3
# Si number density = 22.240502 Si / 1000 Ang^3
#
#
#
# Elastic Constant Matrix: (Units=GPa)
#
#
# Indices 1 2 3 4 5 6 
#
# 1 60.9562 19.7985 16.5897 0.0002 9.7235 -0.0003
# 2 19.7985 59.6205 19.2725 0.0000 -2.5356 0.0000
# 3 16.5897 19.2725 81.3837 0.0000 -3.1994 0.0000
# 4 0.0002 0.0000 0.0000 56.0420 -0.0001 -6.6118
# 5 9.7235 -2.5356 -3.1994 -0.0001 34.8565 0.0001
# 6 -0.0003 0.0000 0.0000 -6.6118 0.0001 27.1052
#
#
#
# Elastic Compliance Matrix: (Units=1/GPa)
#
#
# Indices 1 2 3 4 5 6 
#
# 1 0.020169 -0.006018 -0.002935 0.000000 -0.006333 0.000000
# 2 -0.006018 0.019989 -0.003396 0.000000 0.002821 0.000000
# 3 -0.002935 -0.003396 0.013762 0.000000 0.001835 0.000000
# 4 0.000000 0.000000 0.000000 0.018372 0.000000 0.004482
# 5 -0.006333 0.002821 0.001835 0.000000 0.030829 0.000000
# 6 0.000000 0.000000 0.000000 0.004482 0.000000 0.037987
#
#
# Mechanical properties :
#
#
# Convention : Reuss Voigt Hill
#
# Bulk Modulus (GPa) = 34.22131 34.80910 34.51521
# Shear Modulus (GPa) = 28.48228 33.35403 30.91816
#
# Velocity S-wave (km/s) = 3.58250 3.87679 3.73255
# Velocity P-wave (km/s) = 5.70375 5.97700 5.84197
#
# Compressibility (1/GPa) = 0.02922156
#
# Stress axis : x y z
#
# Youngs Moduli (GPa) = 49.58093 50.02757 72.66321
#
# Poissons Ratio (x) = 0.30108 0.21328
# Poissons Ratio (y) = 0.29839 0.24676
# Poissons Ratio (z) = 0.14553 0.16989
#
# Static dielectric constant tensor:
#      x y z
#    x 3.630220 0.000000 -0.002090 
#    y 0.000000 4.230630 0.000000 
#    z -0.002090 0.000000 4.108230 
# 
# 
# High freq. dielectric constant tensor:
#      x y z
#    x 1.872230 0.000000 -0.002170 
#    y 0.000000 1.870840 0.000000 
#    z -0.002170 0.000000 1.873560 
# 
# From -- ./inp_files/232617.got.cif
#   From: 2010.06.25/outbox.cif.g09.slc.cpg/sg15_117_cif.got.tgz:232617.got - 2010.06.28 07:06:18.
