data_PCOD8146957
_publ_section_title
;
Structure prediction by ZEFSAII (Michael W. Deem and Ramdas Pophale) SiO2 
 PCOD8146957
Probable space group: C 2/C
;
_chemical_formula_sum "Si O2"
_cell_formula_units_Z 32
_cell_length_a 13.440310
_cell_length_b 14.162200
_cell_length_c 13.155668
_cell_angle_alpha 90.000000
_cell_angle_beta 38.905575
_cell_angle_gamma 90.000000
_cell_volume 1572.676419
_symmetry_space_group_name_H-M "C 2/C"
_symmetry_group_IT_number 15
_symmetry_cell_setting 'monoclinic'
loop_
_space_group_symop_operation_xyz
x,y,z
-x,y,1/2-z
-x,-y,-z
x,-y,1/2+z
1/2+x,1/2+y,z
1/2-x,1/2+y,1/2-z
1/2-x,1/2-y,-z
1/2+x,1/2-y,1/2+z
loop_
_atom_site_type_symbol
_atom_site_label
_atom_site_fract_x
_atom_site_fract_y
_atom_site_fract_z
Si Si1 0.324616 0.680473 0.359269
Si Si2 0.187027 0.819587 0.855004
Si Si3 0.902169 0.158408 0.728347
Si Si4 0.184127 0.481613 0.863358
O O1 0.500000 0.649203 0.250000
O O2 0.250000 0.750000 0.500000
O O3 0.333374 0.729482 0.240377
O O4 0.219352 0.584710 0.434047
O O5 0.307079 0.755539 0.825322
O O6 0.256750 0.925628 0.784945
O O7 0.017589 0.825829 0.042029
O O8 0.000000 0.129624 0.750000
O O9 0.776264 0.078880 0.800495
O O10 0.000000 0.500000 0.000000
#
# Coordination Sequence:
#
# PCOD8146957 Si02
#       4
#     8   8   8   8
#     4  10  22  42  67  95 130 175 220 271 333 387
#     4  10  24  41  71  94 137 174 223 279 332 390
#     4  12  23  44  69  96 135 178 226 270 339 400
#     4  10  24  42  66  99 136 176 223 277 331 393
#
# _framework density 20.347480000000001
#
# number of rings (size 3 to 8) (size 9 to 14) (size 15 to 20)
#    1.500    0.000    0.000    5.250    3.500    0.000 
#    4.500    0.000    0.000    0.000    0.000    0.000 
#    0.000    0.000    0.000    0.000    0.000    0.000 
#
# Total GULP energy -198322.202729 kJ/mol
# GULP energy per Si atom -12395.137671 kJ/mol
# Density = 2.030117 g / cm^3
# Si number density = 20.347480 Si / 1000 Ang^3
#
#
#
# Elastic Constant Matrix: (Units=GPa)
#
#
# Indices 1 2 3 4 5 6 
#
# 1 104.0834 60.3409 76.8169 0.0000 -26.0386 0.0000
# 2 60.3409 102.2544 48.6566 0.0000 -17.8286 0.0000
# 3 76.8169 48.6566 145.1980 0.0001 -16.1571 -0.0001
# 4 0.0000 0.0000 0.0001 39.0096 -0.0001 -9.2028
# 5 -26.0386 -17.8286 -16.1571 -0.0001 47.8287 0.0000
# 6 0.0000 0.0000 -0.0001 -9.2028 0.0000 43.5894
#
#
#
# Elastic Compliance Matrix: (Units=1/GPa)
#
#
# Indices 1 2 3 4 5 6 
#
# 1 0.021745 -0.007867 -0.008185 0.000000 0.006141 0.000000
# 2 -0.007867 0.014952 -0.000733 0.000000 0.001043 0.000000
# 3 -0.008185 -0.000733 0.011364 0.000000 -0.000890 0.000000
# 4 0.000000 0.000000 0.000000 0.026978 0.000000 0.005696
# 5 0.006141 0.001043 -0.000890 0.000000 0.024339 0.000000
# 6 0.000000 0.000000 0.000000 0.005696 0.000000 0.024144
#
#
# Mechanical properties :
#
#
# Convention : Reuss Voigt Hill
#
# Bulk Modulus (GPa) = 68.99832 80.35163 74.67498
# Shear Modulus (GPa) = 30.87907 37.13362 34.00635
#
# Velocity S-wave (km/s) = 3.89985 4.27661 4.09256
# Velocity P-wave (km/s) = 7.36628 7.99758 7.68841
#
# Compressibility (1/GPa) = 0.01449311
#
# Stress axis : x y z
#
# Youngs Moduli (GPa) = 45.98720 66.87979 87.99912
#
# Poissons Ratio (x) = 0.52612 0.72025
# Poissons Ratio (y) = 0.36176 0.06447
# Poissons Ratio (z) = 0.37639 0.04900
#
# Static dielectric constant tensor:
#      x y z
#    x 3.660490 0.000000 -0.074710 
#    y 0.000000 3.793940 0.000000 
#    z -0.074710 0.000000 3.556810 
# 
# 
# High freq. dielectric constant tensor:
#      x y z
#    x 1.795350 0.000000 -0.016060 
#    y 0.000000 1.792250 0.000000 
#    z -0.016060 0.000000 1.797320 
# 
# From -- ./inp_files/28044.got.cif
#   From: 2010.06.25/outbox.cif.g09.slc.cpg/sg15_15_cif.got.tgz:28044.got - 2010.06.28 07:06:18.
