data_PCOD8146249
_publ_section_title
;
Structure prediction by ZEFSAII (Michael W. Deem and Ramdas Pophale) SiO2 
 PCOD8146249
Probable space group: C 2/C
;
_chemical_formula_sum "Si O2"
_cell_formula_units_Z 52
_cell_length_a 14.287762
_cell_length_b 22.500762
_cell_length_c 11.392565
_cell_angle_alpha 90.000000
_cell_angle_beta 38.774365
_cell_angle_gamma 90.000000
_cell_volume 2293.687232
_symmetry_space_group_name_H-M "C 2/C"
_symmetry_group_IT_number 15
_symmetry_cell_setting 'monoclinic'
loop_
_space_group_symop_operation_xyz
x,y,z
-x,y,1/2-z
-x,-y,-z
x,-y,1/2+z
1/2+x,1/2+y,z
1/2-x,1/2+y,1/2-z
1/2-x,1/2-y,-z
1/2+x,1/2-y,1/2+z
loop_
_atom_site_type_symbol
_atom_site_label
_atom_site_fract_x
_atom_site_fract_y
_atom_site_fract_z
Si Si1 0.250512 0.661622 0.847176
Si Si2 0.674028 0.117046 0.450209
Si Si3 0.735123 0.256806 0.357385
Si Si4 0.828432 0.584050 0.789263
Si Si5 0.251011 0.949348 0.848196
Si Si6 0.500000 0.740985 0.250000
Si Si7 0.500000 0.117294 0.250000
Si Si8 0.500000 0.601085 0.750000
O O1 0.263327 0.728861 0.783011
O O2 0.256808 0.623263 0.722697
O O3 0.391356 0.645616 0.787734
O O4 0.095324 0.658213 0.069026
O O5 0.700290 0.187247 0.407203
O O6 0.503345 0.097088 0.605607
O O7 0.732791 0.096918 0.520212
O O8 0.767777 0.082878 0.258751
O O9 0.604542 0.294049 0.555156
O O10 0.887408 0.278628 0.274615
O O11 0.787654 0.517577 0.791805
O O12 0.389830 0.923761 0.784693
O O13 0.096091 0.940870 0.070309
#
# Coordination Sequence:
#
# PCOD8146249 Si02
#       8
#     8   8   8   8   8   4   4   4
#     4  11  24  46  70 100 141 199 238 300 349 437
#     4  11  23  41  73 113 133 181 237 308 355 423
#     4  11  23  43  70 103 145 182 243 293 366 420
#     4  11  23  42  78 105 135 182 247 293 368 418
#     4  11  24  45  70 103 145 184 239 306 349 443
#     4  10  22  40  70  98 144 186 222 310 354 434
#     4  10  22  44  72  96 140 194 246 286 356 432
#     4  10  28  48  64 102 150 190 240 290 378 418
#
# _framework density 22.670919000000001
#
# number of rings (size 3 to 8) (size 9 to 14) (size 15 to 20)
#    0.000    1.231    1.538    5.077    6.462    0.615 
#    0.000    4.615    0.000    0.000    0.000    0.000 
#    0.000    0.000    0.000    0.000    0.000    0.000 
#
# Total GULP energy -322180.571788 kJ/mol
# GULP energy per Si atom -12391.560453 kJ/mol
# Density = 2.261932 g / cm^3
# Si number density = 22.670919 Si / 1000 Ang^3
#
#
#
# Elastic Constant Matrix: (Units=GPa)
#
#
# Indices 1 2 3 4 5 6 
#
# 1 91.8449 24.9597 69.1728 -0.0012 10.9383 -0.0004
# 2 24.9597 100.0571 48.1341 0.0003 14.2931 -0.0004
# 3 69.1728 48.1341 159.9812 -0.0035 9.0455 -0.0001
# 4 -0.0012 0.0003 -0.0035 27.8724 0.0024 7.1693
# 5 10.9383 14.2931 9.0455 0.0024 47.3702 0.0001
# 6 -0.0004 -0.0004 -0.0001 7.1693 0.0001 17.2155
#
#
#
# Elastic Compliance Matrix: (Units=1/GPa)
#
#
# Indices 1 2 3 4 5 6 
#
# 1 0.016444 -0.000480 -0.006833 0.000000 -0.002348 0.000000
# 2 -0.000480 0.012103 -0.003269 0.000000 -0.002917 0.000000
# 3 -0.006833 -0.003269 0.010154 0.000001 0.000625 -0.000001
# 4 0.000000 0.000000 0.000001 0.040182 -0.000002 -0.016734
# 5 -0.002348 -0.002917 0.000625 -0.000002 0.022413 0.000001
# 6 0.000000 0.000000 -0.000001 -0.016734 0.000001 0.065056
#
#
# Mechanical properties :
#
#
# Convention : Reuss Voigt Hill
#
# Bulk Modulus (GPa) = 57.02188 70.71292 63.86740
# Shear Modulus (GPa) = 25.85825 32.46605 29.16215
#
# Velocity S-wave (km/s) = 3.38093 3.78836 3.59043
# Velocity P-wave (km/s) = 6.35983 7.09889 6.73950
#
# Compressibility (1/GPa) = 0.01753713
#
# Stress axis : x y z
#
# Youngs Moduli (GPa) = 60.81178 82.62178 98.48789
#
# Poissons Ratio (x) = 0.03962 0.67298
# Poissons Ratio (y) = 0.02916 0.32199
# Poissons Ratio (z) = 0.41553 0.27012
#
# Static dielectric constant tensor:
#      x y z
#    x 4.317000 0.000000 0.224340 
#    y 0.000000 3.973510 0.000000 
#    z 0.224340 0.000000 4.784530 
# 
# 
# High freq. dielectric constant tensor:
#      x y z
#    x 1.902060 0.000000 0.010840 
#    y 0.000000 1.875180 0.000000 
#    z 0.010840 0.000000 1.912270 
# 
# From -- ./inp_files/100642.got.cif
#   From: 2010.06.25/outbox.cif.g09.slc.cpg/sg15_51_cif.got.tgz:100642.got - 2010.06.28 07:06:18.
