data_PCOD8146560
_publ_section_title
;
Structure prediction by ZEFSAII (Michael W. Deem and Ramdas Pophale) SiO2 
 PCOD8146560
Probable space group: C 2/C
;
_chemical_formula_sum "Si O2"
_cell_formula_units_Z 44
_cell_length_a 25.559337
_cell_length_b 8.733001
_cell_length_c 14.193893
_cell_angle_alpha 90.000000
_cell_angle_beta 142.759147
_cell_angle_gamma 90.000000
_cell_volume 1917.298748
_symmetry_space_group_name_H-M "C 2/C"
_symmetry_group_IT_number 15
_symmetry_cell_setting 'monoclinic'
loop_
_space_group_symop_operation_xyz
x,y,z
-x,y,1/2-z
-x,-y,-z
x,-y,1/2+z
1/2+x,1/2+y,z
1/2-x,1/2+y,1/2-z
1/2-x,1/2-y,-z
1/2+x,1/2-y,1/2+z
loop_
_atom_site_type_symbol
_atom_site_label
_atom_site_fract_x
_atom_site_fract_y
_atom_site_fract_z
Si Si1 0.787497 0.265576 0.181960
Si Si2 0.483770 0.069264 0.578856
Si Si3 0.830984 0.541412 0.584803
Si Si4 0.857837 0.328195 0.476715
Si Si5 0.537200 0.393320 0.633049
Si Si6 0.000000 0.096193 0.750000
O O1 0.791058 0.431807 0.132721
O O2 0.790109 0.279679 0.298707
O O3 0.869612 0.170341 0.262394
O O4 0.700384 0.180213 0.027569
O O5 0.565426 0.040926 0.763676
O O6 0.470070 0.252528 0.550908
O O7 0.500000 0.000000 0.500000
O O8 0.401543 0.986295 0.505033
O O9 0.806777 0.377970 0.499872
O O10 0.927863 0.196693 0.593793
O O11 0.500000 0.500000 0.500000
O O12 0.548381 0.490572 0.743982
#
# Coordination Sequence:
#
# PCOD8146560 Si02
#       6
#     8   8   8   8   8   4
#     4  10  23  45  62  97 140 173 215 285 346 394
#     4  11  20  40  72  95 124 180 230 274 331 411
#     4  10  22  41  68  91 133 176 219 278 334 398
#     4  12  22  43  71  97 127 182 239 271 330 425
#     4  11  23  40  63  98 138 171 216 289 344 390
#     4  12  24  38  68 102 132 170 238 288 326 400
#
# _framework density 22.948955000000002
#
# number of rings (size 3 to 8) (size 9 to 14) (size 15 to 20)
#    0.000    1.091    7.273    0.000    5.091    0.000 
#   13.091    0.909    0.000    0.000    0.000    0.000 
#    0.000    0.000    0.000    0.000    0.000    0.000 
#
# Total GULP energy -272660.448516 kJ/mol
# GULP energy per Si atom -12393.656751 kJ/mol
# Density = 2.289672 g / cm^3
# Si number density = 22.948955 Si / 1000 Ang^3
#
#
#
# Elastic Constant Matrix: (Units=GPa)
#
#
# Indices 1 2 3 4 5 6 
#
# 1 54.3662 25.1831 21.6207 0.0000 -23.8751 0.0000
# 2 25.1831 101.1257 21.6835 0.0000 -20.9620 0.0000
# 3 21.6207 21.6835 127.3174 0.0000 -34.8466 0.0000
# 4 0.0000 0.0000 0.0000 34.5877 0.0000 -15.0840
# 5 -23.8751 -20.9620 -34.8466 0.0000 38.9827 0.0000
# 6 0.0000 0.0000 0.0000 -15.0840 0.0000 47.2638
#
#
#
# Elastic Compliance Matrix: (Units=1/GPa)
#
#
# Indices 1 2 3 4 5 6 
#
# 1 0.026283 -0.003612 0.000034 0.000000 0.014186 0.000000
# 2 -0.003612 0.011637 -0.000346 0.000000 0.003736 0.000000
# 3 0.000034 -0.000346 0.010409 0.000000 0.009140 0.000000
# 4 0.000000 0.000000 0.000000 0.033587 0.000000 0.010719
# 5 0.014186 0.003736 0.009140 0.000000 0.044519 0.000000
# 6 0.000000 0.000000 0.000000 0.010719 0.000000 0.024579
#
#
# Mechanical properties :
#
#
# Convention : Reuss Voigt Hill
#
# Bulk Modulus (GPa) = 24.70268 46.64266 35.67267
# Shear Modulus (GPa) = 29.01002 38.45498 33.73250
#
# Velocity S-wave (km/s) = 3.55929 4.09794 3.83808
# Velocity P-wave (km/s) = 5.26108 6.53907 5.93458
#
# Compressibility (1/GPa) = 0.04048144
#
# Stress axis : x y z
#
# Youngs Moduli (GPa) = 38.04755 85.93447 96.07107
#
# Poissons Ratio (x) = 0.31040 -0.00331
# Poissons Ratio (y) = 0.13743 0.03324
# Poissons Ratio (z) = -0.00131 0.02973
#
# Static dielectric constant tensor:
#      x y z
#    x 4.665020 0.000000 -0.480230 
#    y 0.000000 4.382590 0.000000 
#    z -0.480230 0.000000 4.506380 
# 
# 
# High freq. dielectric constant tensor:
#      x y z
#    x 1.885770 0.000000 -0.033400 
#    y 0.000000 1.901100 0.000000 
#    z -0.033400 0.000000 1.920330 
# 
# From -- ./inp_files/176739.got.cif
#   From: 2010.06.25/outbox.cif.g09.slc.cpg/sg15_89_cif.got.tgz:176739.got - 2010.06.28 07:06:18.
