data_PCOD8146676
_publ_section_title
;
Structure prediction by ZEFSAII (Michael W. Deem and Ramdas Pophale) SiO2 
 PCOD8146676
Probable space group: C 2/C
;
_chemical_formula_sum "Si O2"
_cell_formula_units_Z 52
_cell_length_a 10.961413
_cell_length_b 17.879798
_cell_length_c 15.047138
_cell_angle_alpha 90.000000
_cell_angle_beta 64.943842
_cell_angle_gamma 90.000000
_cell_volume 2671.529765
_symmetry_space_group_name_H-M "C 2/C"
_symmetry_group_IT_number 15
_symmetry_cell_setting 'monoclinic'
loop_
_space_group_symop_operation_xyz
x,y,z
-x,y,1/2-z
-x,-y,-z
x,-y,1/2+z
1/2+x,1/2+y,z
1/2-x,1/2+y,1/2-z
1/2-x,1/2-y,-z
1/2+x,1/2-y,1/2+z
loop_
_atom_site_type_symbol
_atom_site_label
_atom_site_fract_x
_atom_site_fract_y
_atom_site_fract_z
Si Si1 0.646929 0.638703 0.003929
Si Si2 0.106658 0.310587 0.980766
Si Si3 0.904427 0.668294 0.695903
Si Si4 0.577935 0.576639 0.312485
Si Si5 0.500000 0.289293 0.250000
Si Si6 0.855642 0.907269 0.188774
Si Si7 0.786556 0.302952 0.740399
O O1 0.773780 0.631292 0.030865
O O2 0.514072 0.596193 0.075835
O O3 0.626634 0.726329 0.004272
O O4 0.683755 0.598984 0.901345
O O5 0.103961 0.311505 0.873976
O O6 0.975379 0.334910 0.077201
O O7 0.783698 0.609480 0.717360
O O8 0.839452 0.748609 0.743087
O O9 0.000000 0.646757 0.750000
O O10 0.500000 0.606889 0.250000
O O11 0.595249 0.488412 0.299308
O O12 0.723100 0.616289 0.281604
O O13 0.472123 0.345362 0.175329
O O14 0.630464 0.233993 0.202514
#
# Coordination Sequence:
#
# PCOD8146676 Si02
#       7
#     8   8   8   8   4   8   8
#     4  11  20  35  63  95 119 150 207 263 303 360
#     4  11  19  34  64  97 116 143 210 268 298 357
#     4  11  19  36  63  89 118 157 201 256 307 357
#     4  12  23  39  64  91 122 165 209 255 309 365
#     4  10  22  42  60  82 126 172 192 246 320 366
#     4  11  23  41  60  87 128 167 204 249 315 375
#     4  11  22  39  62  91 124 158 207 257 304 369
#
# _framework density 19.464504000000002
#
# number of rings (size 3 to 8) (size 9 to 14) (size 15 to 20)
#    0.000    0.923    8.462    1.846    0.000    0.000 
#    1.385    7.692    0.000    0.000    0.000    0.000 
#    0.000    0.000    0.000    0.000    0.000    0.000 
#
# Total GULP energy -322125.336108 kJ/mol
# GULP energy per Si atom -12389.436004 kJ/mol
# Density = 1.942020 g / cm^3
# Si number density = 19.464504 Si / 1000 Ang^3
#
#
#
# Elastic Constant Matrix: (Units=GPa)
#
#
# Indices 1 2 3 4 5 6 
#
# 1 93.0804 48.0790 30.2560 0.0000 -7.2271 0.0000
# 2 48.0790 96.0535 28.6549 0.0000 -10.0732 0.0000
# 3 30.2560 28.6549 114.8468 0.0000 -33.0426 0.0000
# 4 0.0000 0.0000 0.0000 49.2864 0.0000 15.9635
# 5 -7.2271 -10.0732 -33.0426 0.0000 26.3137 0.0000
# 6 0.0000 0.0000 0.0000 15.9635 0.0000 45.8159
#
#
#
# Elastic Compliance Matrix: (Units=1/GPa)
#
#
# Indices 1 2 3 4 5 6 
#
# 1 0.015080 -0.006917 -0.002845 0.000000 -0.002079 0.000000
# 2 -0.006917 0.014446 -0.001155 0.000000 0.002180 0.000000
# 3 -0.002845 -0.001155 0.014706 0.000000 0.017243 0.000000
# 4 0.000000 0.000000 0.000000 0.022871 0.000000 -0.007969
# 5 -0.002079 0.002180 0.017243 0.000000 0.059919 0.000000
# 6 0.000000 0.000000 0.000000 -0.007969 0.000000 0.024603
#
#
# Mechanical properties :
#
#
# Convention : Reuss Voigt Hill
#
# Bulk Modulus (GPa) = 44.64698 57.55118 51.09908
# Shear Modulus (GPa) = 27.63578 37.41591 32.52584
#
# Velocity S-wave (km/s) = 3.77212 4.38912 4.09226
# Velocity P-wave (km/s) = 6.47760 7.43756 6.97411
#
# Compressibility (1/GPa) = 0.02239793
#
# Stress axis : x y z
#
# Youngs Moduli (GPa) = 66.31393 69.22093 68.00029
#
# Poissons Ratio (x) = 0.47883 0.19345
# Poissons Ratio (y) = 0.45872 0.07853
# Poissons Ratio (z) = 0.18865 0.07994
#
# Static dielectric constant tensor:
#      x y z
#    x 3.662150 0.000000 -0.115940 
#    y 0.000000 3.403810 0.000000 
#    z -0.115940 0.000000 3.635380 
# 
# 
# High freq. dielectric constant tensor:
#      x y z
#    x 1.750540 0.000000 -0.006970 
#    y 0.000000 1.740580 0.000000 
#    z -0.006970 0.000000 1.750030 
# 
# From -- ./inp_files/145041.got.cif
#   From: 2010.06.25/outbox.cif.g09.slc.cpg/sg15_73_cif.got.tgz:145041.got - 2010.06.28 07:06:18.
