data_PCOD8146646
_publ_section_title
;
Structure prediction by ZEFSAII (Michael W. Deem and Ramdas Pophale) SiO2 
 PCOD8146646
Probable space group: C 2/C
;
_chemical_formula_sum "Si O2"
_cell_formula_units_Z 32
_cell_length_a 15.229873
_cell_length_b 11.496404
_cell_length_c 10.749034
_cell_angle_alpha 90.000000
_cell_angle_beta 43.966963
_cell_angle_gamma 90.000000
_cell_volume 1306.590649
_symmetry_space_group_name_H-M "C 2/C"
_symmetry_group_IT_number 15
_symmetry_cell_setting 'monoclinic'
loop_
_space_group_symop_operation_xyz
x,y,z
-x,y,1/2-z
-x,-y,-z
x,-y,1/2+z
1/2+x,1/2+y,z
1/2-x,1/2+y,1/2-z
1/2-x,1/2-y,-z
1/2+x,1/2-y,1/2+z
loop_
_atom_site_type_symbol
_atom_site_label
_atom_site_fract_x
_atom_site_fract_y
_atom_site_fract_z
Si Si1 0.352080 0.989304 0.790293
Si Si2 0.434904 0.562269 0.448384
Si Si3 0.374390 0.796437 0.935158
Si Si4 0.504787 0.815616 0.036145
O O1 0.371353 0.935148 0.908464
O O2 0.394859 0.888977 0.648189
O O3 0.439471 0.103151 0.705008
O O4 0.207379 0.017583 0.910740
O O5 0.500000 0.530648 0.250000
O O6 0.500000 0.500000 0.500000
O O7 0.433236 0.702167 0.466482
O O8 0.500000 0.735033 0.750000
O O9 0.250000 0.750000 0.000000
O O10 0.384154 0.778036 0.072369
#
# Coordination Sequence:
#
# PCOD8146646 Si02
#       4
#     8   8   8   8
#     4  10  25  46  76 108 157 203 258 313 402 467
#     4  12  30  49  78 118 159 201 265 328 390 459
#     4  10  22  41  72 105 146 197 253 310 383 461
#     4  10  25  48  76 109 151 207 257 323 392 466
#
# _framework density 24.491219999999998
#
# number of rings (size 3 to 8) (size 9 to 14) (size 15 to 20)
#    0.000    1.500    0.000    1.500   14.000   10.000 
#    0.000    0.000    0.000    0.000    0.000    0.000 
#    0.000    0.000    0.000    0.000    0.000    0.000 
#
# Total GULP energy -198240.922255 kJ/mol
# GULP energy per Si atom -12390.057641 kJ/mol
# Density = 2.443548 g / cm^3
# Si number density = 24.491220 Si / 1000 Ang^3
#
#
#
# Elastic Constant Matrix: (Units=GPa)
#
#
# Indices 1 2 3 4 5 6 
#
# 1 112.0865 19.5048 48.3839 0.0000 -15.2316 0.0000
# 2 19.5048 106.7993 39.3817 0.0000 -5.5751 0.0000
# 3 48.3839 39.3817 99.2145 0.0000 -13.3819 0.0000
# 4 0.0000 0.0000 0.0000 31.5108 0.0000 -4.3682
# 5 -15.2316 -5.5751 -13.3819 0.0000 51.1019 0.0000
# 6 0.0000 0.0000 0.0000 -4.3682 0.0000 54.5429
#
#
#
# Elastic Compliance Matrix: (Units=1/GPa)
#
#
# Indices 1 2 3 4 5 6 
#
# 1 0.011500 -0.000032 -0.005322 0.000000 0.002031 0.000000
# 2 -0.000032 0.010969 -0.004331 0.000000 0.000053 0.000000
# 3 -0.005322 -0.004331 0.014633 0.000000 0.001773 0.000000
# 4 0.000000 0.000000 0.000000 0.032091 0.000000 0.002570
# 5 0.002031 0.000053 0.001773 0.000000 0.020644 0.000000
# 6 0.000000 0.000000 0.000000 0.002570 0.000000 0.018540
#
#
# Mechanical properties :
#
#
# Convention : Reuss Voigt Hill
#
# Bulk Modulus (GPa) = 56.39431 59.18234 57.78833
# Shear Modulus (GPa) = 37.40863 41.48643 39.44753
#
# Velocity S-wave (km/s) = 3.91248 4.12020 4.01768
# Velocity P-wave (km/s) = 6.59441 6.84485 6.72080
#
# Compressibility (1/GPa) = 0.01773228
#
# Stress axis : x y z
#
# Youngs Moduli (GPa) = 86.95308 91.16515 68.33930
#
# Poissons Ratio (x) = 0.00291 0.36369
# Poissons Ratio (y) = 0.00278 0.29600
# Poissons Ratio (z) = 0.46275 0.39486
#
# Static dielectric constant tensor:
#      x y z
#    x 4.654880 0.000000 0.978050 
#    y 0.000000 4.943970 0.000000 
#    z 0.978050 0.000000 18.629650 
# 
# 
# High freq. dielectric constant tensor:
#      x y z
#    x 1.990190 0.000000 -0.008170 
#    y 0.000000 1.981600 0.000000 
#    z -0.008170 0.000000 1.965340 
# 
# From -- ./inp_files/103485.got.cif
#   From: 2010.06.25/outbox.cif.g09.slc.cpg/sg15_52_cif.got.tgz:103485.got - 2010.06.28 07:06:18.
