data_PCOD8146088
_publ_section_title
;
Structure prediction by ZEFSAII (Michael W. Deem and Ramdas Pophale) SiO2 
 PCOD8146088
Probable space group: C 2/C
;
_chemical_formula_sum "Si O2"
_cell_formula_units_Z 32
_cell_length_a 13.887078
_cell_length_b 10.225802
_cell_length_c 14.330161
_cell_angle_alpha 90.000000
_cell_angle_beta 141.405571
_cell_angle_gamma 90.000000
_cell_volume 1269.425459
_symmetry_space_group_name_H-M "C 2/C"
_symmetry_group_IT_number 15
_symmetry_cell_setting 'monoclinic'
loop_
_space_group_symop_operation_xyz
x,y,z
-x,y,1/2-z
-x,-y,-z
x,-y,1/2+z
1/2+x,1/2+y,z
1/2-x,1/2+y,1/2-z
1/2-x,1/2-y,-z
1/2+x,1/2-y,1/2+z
loop_
_atom_site_type_symbol
_atom_site_label
_atom_site_fract_x
_atom_site_fract_y
_atom_site_fract_z
Si Si1 0.216255 0.818903 0.634450
Si Si2 0.632031 0.647253 0.610025
Si Si3 0.825651 0.447365 0.101593
Si Si4 0.331593 0.031250 0.908254
O O1 0.320168 0.787575 0.806822
O O2 0.310111 0.906733 0.632832
O O3 0.179144 0.678920 0.559484
O O4 0.048772 0.881391 0.530309
O O5 0.703871 0.648177 0.560529
O O6 0.714400 0.524850 0.729953
O O7 0.000000 0.398376 0.250000
O O8 0.785675 0.440995 0.961215
O O9 0.500000 0.000000 0.000000
#
# Coordination Sequence:
#
# PCOD8146088 Si02
#       4
#     8   8   8   8
#     4  10  23  42  67  98 129 168 223 263 322 394
#     4  10  24  40  69  97 132 167 217 276 317 389
#     4  12  21  41  68  94 132 173 213 269 329 376
#     4  10  22  40  66  93 131 167 213 268 321 380
#
# _framework density 25.208255000000001
#
# number of rings (size 3 to 8) (size 9 to 14) (size 15 to 20)
#    1.500    0.000    2.500    3.000    0.000    1.000 
#    0.000    5.000    5.500    0.000    0.000    0.000 
#    0.000    0.000    0.000    0.000    0.000    0.000 
#
# Total GULP energy -198325.538274 kJ/mol
# GULP energy per Si atom -12395.346142 kJ/mol
# Density = 2.515088 g / cm^3
# Si number density = 25.208255 Si / 1000 Ang^3
#
#
#
# Elastic Constant Matrix: (Units=GPa)
#
#
# Indices 1 2 3 4 5 6 
#
# 1 146.0949 -13.5517 56.1908 0.0000 -19.3552 0.0000
# 2 -13.5517 27.4742 0.4703 0.0000 3.9126 0.0000
# 3 56.1908 0.4703 129.0364 0.0000 2.5478 0.0000
# 4 0.0000 0.0000 0.0000 22.5584 0.0000 18.9268
# 5 -19.3552 3.9126 2.5478 0.0000 46.2065 0.0000
# 6 0.0000 0.0000 0.0000 18.9268 0.0000 37.3685
#
#
#
# Elastic Compliance Matrix: (Units=1/GPa)
#
#
# Indices 1 2 3 4 5 6 
#
# 1 0.009326 0.004132 -0.004151 0.000000 0.003786 0.000000
# 2 0.004132 0.038674 -0.001912 0.000000 -0.001438 0.000000
# 3 -0.004151 -0.001912 0.009606 0.000000 -0.002107 0.000000
# 4 0.000000 0.000000 0.000000 0.077088 0.000000 -0.039045
# 5 0.003786 -0.001438 -0.002107 0.000000 0.023466 0.000000
# 6 0.000000 0.000000 0.000000 -0.039045 0.000000 0.046536
#
#
# Mechanical properties :
#
#
# Convention : Reuss Voigt Hill
#
# Bulk Modulus (GPa) = 18.60673 43.20270 30.90472
# Shear Modulus (GPa) = 22.07772 38.52641 30.30207
#
# Velocity S-wave (km/s) = 2.96262 3.91362 3.47085
# Velocity P-wave (km/s) = 4.37037 6.13167 5.32436
#
# Compressibility (1/GPa) = 0.05374399
#
# Stress axis : x y z
#
# Youngs Moduli (GPa) = 107.22402 25.85749 104.10206
#
# Poissons Ratio (x) = -0.10685 0.43213
# Poissons Ratio (y) = -0.44306 0.19904
# Poissons Ratio (z) = 0.44509 0.04944
#
# Static dielectric constant tensor:
#      x y z
#    x 4.186090 0.000000 -0.109880 
#    y 0.000000 4.681380 0.000000 
#    z -0.109880 0.000000 4.392700 
# 
# 
# High freq. dielectric constant tensor:
#      x y z
#    x 1.996030 0.000000 0.001850 
#    y 0.000000 2.026300 0.000000 
#    z 0.001850 0.000000 2.004910 
# 
# From -- ./inp_files/37222.got.cif
#   From: 2010.06.25/outbox.cif.g09.slc.cpg/sg15_19_cif.got.tgz:37222.got - 2010.06.28 07:06:18.
