data_PCOD8146485
_publ_section_title
;
Structure prediction by ZEFSAII (Michael W. Deem and Ramdas Pophale) SiO2 
 PCOD8146485
Probable space group: C 2/C
;
_chemical_formula_sum "Si O2"
_cell_formula_units_Z 64
_cell_length_a 17.251207
_cell_length_b 11.901607
_cell_length_c 15.086253
_cell_angle_alpha 90.000000
_cell_angle_beta 99.949043
_cell_angle_gamma 90.000000
_cell_volume 3050.885200
_symmetry_space_group_name_H-M "C 2/C"
_symmetry_group_IT_number 15
_symmetry_cell_setting 'monoclinic'
loop_
_space_group_symop_operation_xyz
x,y,z
-x,y,1/2-z
-x,-y,-z
x,-y,1/2+z
1/2+x,1/2+y,z
1/2-x,1/2+y,1/2-z
1/2-x,1/2-y,-z
1/2+x,1/2-y,1/2+z
loop_
_atom_site_type_symbol
_atom_site_label
_atom_site_fract_x
_atom_site_fract_y
_atom_site_fract_z
Si Si1 0.646863 0.509973 0.753149
Si Si2 0.184816 0.558131 0.784448
Si Si3 0.183251 0.786820 0.860554
Si Si4 0.957950 0.933533 0.415631
Si Si5 0.067789 0.211832 0.831056
Si Si6 0.096797 0.555778 0.417981
Si Si7 0.358321 0.760669 0.957872
Si Si8 0.579840 0.019808 0.102914
O O1 0.727473 0.515954 0.715176
O O2 0.649180 0.405987 0.821503
O O3 0.573352 0.488383 0.671316
O O4 0.632421 0.629570 0.799076
O O5 0.178382 0.693959 0.781400
O O6 0.160019 0.519677 0.878323
O O7 0.129843 0.504055 0.699569
O O8 0.272787 0.800159 0.909581
O O9 0.132801 0.743413 0.934254
O O10 0.880751 0.863110 0.428503
O O11 0.028245 0.852997 0.402910
O O12 0.000000 0.000000 0.500000
O O13 0.109288 0.320816 0.879673
O O14 0.000000 0.251620 0.750000
O O15 0.112828 0.555918 0.527497
O O16 0.010697 0.499506 0.388689
O O17 0.417999 0.850255 0.927386
#
# Coordination Sequence:
#
# PCOD8146485 Si02
#       8
#     8   8   8   8   8   8   8   8
#     4  11  25  42  65  99 132 175 228 278 340 408
#     4  12  24  41  67 100 130 178 222 279 339 400
#     4  11  24  42  66  97 139 173 227 278 344 413
#     4  11  23  42  69  96 131 176 229 282 338 401
#     4  10  22  41  66  92 126 176 223 272 333 400
#     4  11  24  42  68  99 133 174 226 277 334 404
#     4  11  21  43  69  92 131 188 221 274 344 418
#     4  11  23  43  68 101 133 173 229 282 338 409
#
# _framework density 20.977519000000001
#
# number of rings (size 3 to 8) (size 9 to 14) (size 15 to 20)
#    0.000    1.000    5.000    1.875    3.500    1.000 
#    2.250    3.125    0.000    0.000    0.000    0.000 
#    0.000    0.000    0.000    0.000    0.000    0.000 
#
# Total GULP energy -396754.550215 kJ/mol
# GULP energy per Si atom -12398.579694 kJ/mol
# Density = 2.092977 g / cm^3
# Si number density = 20.977519 Si / 1000 Ang^3
#
#
#
# Elastic Constant Matrix: (Units=GPa)
#
#
# Indices 1 2 3 4 5 6 
#
# 1 55.2164 19.4166 18.2750 0.0000 -9.0492 0.0000
# 2 19.4166 102.6906 45.2630 0.0000 6.9424 0.0000
# 3 18.2750 45.2630 102.7296 0.0000 -1.4386 0.0000
# 4 0.0000 0.0000 0.0000 42.1584 0.0000 1.2267
# 5 -9.0492 6.9424 -1.4386 0.0000 33.2342 0.0000
# 6 0.0000 0.0000 0.0000 1.2267 0.0000 29.0956
#
#
#
# Elastic Compliance Matrix: (Units=1/GPa)
#
#
# Indices 1 2 3 4 5 6 
#
# 1 0.021083 -0.003479 -0.002128 0.000000 0.006375 0.000000
# 2 -0.003479 0.012917 -0.005126 0.000000 -0.003868 0.000000
# 3 -0.002128 -0.005126 0.012386 0.000000 0.001028 0.000000
# 4 0.000000 0.000000 0.000000 0.023749 0.000000 -0.001001
# 5 0.006375 -0.003868 0.001028 0.000000 0.032678 0.000000
# 6 0.000000 0.000000 0.000000 -0.001001 0.000000 0.034412
#
#
# Mechanical properties :
#
#
# Convention : Reuss Voigt Hill
#
# Bulk Modulus (GPa) = 40.13153 47.39398 43.76275
# Shear Modulus (GPa) = 29.94030 32.74310 31.34170
#
# Velocity S-wave (km/s) = 3.78200 3.95507 3.86950
# Velocity P-wave (km/s) = 6.18415 6.59534 6.39305
#
# Compressibility (1/GPa) = 0.02491806
#
# Stress axis : x y z
#
# Youngs Moduli (GPa) = 47.43098 77.41796 80.73616
#
# Poissons Ratio (x) = 0.26936 0.17183
# Poissons Ratio (y) = 0.16503 0.41389
# Poissons Ratio (z) = 0.10095 0.39688
#
# Static dielectric constant tensor:
#      x y z
#    x 3.692480 0.000000 -0.201950 
#    y 0.000000 3.907840 0.000000 
#    z -0.201950 0.000000 3.921380 
# 
# 
# High freq. dielectric constant tensor:
#      x y z
#    x 1.816820 0.000000 -0.018460 
#    y 0.000000 1.819020 0.000000 
#    z -0.018460 0.000000 1.829560 
# 
# From -- ./inp_files/161332.got.cif
#   From: 2010.06.25/outbox.cif.g09.slc.cpg/sg15_81_cif.got.tgz:161332.got - 2010.06.28 07:06:18.
