data_PCOD8146883
_publ_section_title
;
Structure prediction by ZEFSAII (Michael W. Deem and Ramdas Pophale) SiO2 
 PCOD8146883
Probable space group: C 2/C
;
_chemical_formula_sum "Si O2"
_cell_formula_units_Z 60
_cell_length_a 13.704988
_cell_length_b 24.102968
_cell_length_c 8.986567
_cell_angle_alpha 90.000000
_cell_angle_beta 82.311278
_cell_angle_gamma 90.000000
_cell_volume 2941.852146
_symmetry_space_group_name_H-M "C 2/C"
_symmetry_group_IT_number 15
_symmetry_cell_setting 'monoclinic'
loop_
_space_group_symop_operation_xyz
x,y,z
-x,y,1/2-z
-x,-y,-z
x,-y,1/2+z
1/2+x,1/2+y,z
1/2-x,1/2+y,1/2-z
1/2-x,1/2-y,-z
1/2+x,1/2-y,1/2+z
loop_
_atom_site_type_symbol
_atom_site_label
_atom_site_fract_x
_atom_site_fract_y
_atom_site_fract_z
Si Si1 0.120193 0.657781 0.309639
Si Si2 0.448432 0.631483 0.407407
Si Si3 0.450547 0.450795 0.418946
Si Si4 0.231034 0.468050 0.531852
Si Si5 0.634596 0.745862 0.010449
Si Si6 0.236867 0.929901 0.642948
Si Si7 0.500000 0.812657 0.250000
Si Si8 0.071322 0.622449 0.016747
O O1 0.100999 0.719909 0.371105
O O2 0.219503 0.632187 0.357427
O O3 0.036530 0.614550 0.387018
O O4 0.126588 0.661348 0.128580
O O5 0.500000 0.655510 0.250000
O O6 0.529584 0.607249 0.501923
O O7 0.395372 0.682058 0.502221
O O8 0.376692 0.580390 0.375672
O O9 0.500000 0.449255 0.250000
O O10 0.500000 0.500000 0.500000
O O11 0.332449 0.454178 0.423870
O O12 0.248489 0.461255 0.703361
O O13 0.210775 0.532641 0.495095
O O14 0.136979 0.433270 0.490874
O O15 0.583525 0.774191 0.162469
O O16 0.750000 0.750000 0.000000
O O17 0.441068 0.850180 0.142340
#
# Coordination Sequence:
#
# PCOD8146883 Si02
#       8
#     8   8   8   8   8   8   4   8
#     4   9  20  42  64  89 127 167 204 265 325 371
#     4  12  23  41  62  92 131 167 208 259 316 379
#     4  12  24  40  61  89 127 168 206 257 312 370
#     4  11  23  38  62  94 124 165 209 257 317 380
#     4  11  22  39  67  93 123 167 218 260 321 381
#     4  11  22  37  64  90 126 168 208 257 315 378
#     4  10  22  42  66  92 126 168 214 274 322 380
#     4   9  21  41  65  89 129 163 208 265 322 379
#
# _framework density 20.395316000000001
#
# number of rings (size 3 to 8) (size 9 to 14) (size 15 to 20)
#    0.000    1.333    4.667    1.200    0.000    3.733 
#    4.800    2.000    0.000    0.000    0.000    0.000 
#    0.000    0.000    0.000    0.000    0.000    0.000 
#
# Total GULP energy -371814.738702 kJ/mol
# GULP energy per Si atom -12393.824623 kJ/mol
# Density = 2.034889 g / cm^3
# Si number density = 20.395316 Si / 1000 Ang^3
#
#
#
# Elastic Constant Matrix: (Units=GPa)
#
#
# Indices 1 2 3 4 5 6 
#
# 1 84.5446 24.4158 13.0355 0.0000 1.8117 0.0000
# 2 24.4158 100.0986 44.1883 0.0000 9.5473 0.0000
# 3 13.0355 44.1883 98.8427 0.0000 7.9872 0.0000
# 4 0.0000 0.0000 0.0000 23.8721 0.0000 -11.2987
# 5 1.8117 9.5473 7.9872 0.0000 29.9156 0.0000
# 6 0.0000 0.0000 0.0000 -11.2987 0.0000 30.2041
#
#
#
# Elastic Compliance Matrix: (Units=1/GPa)
#
#
# Indices 1 2 3 4 5 6 
#
# 1 0.012737 -0.002967 -0.000376 0.000000 0.000276 0.000000
# 2 -0.002967 0.013330 -0.005354 0.000000 -0.002645 0.000000
# 3 -0.000376 -0.005354 0.012694 0.000000 -0.001658 0.000000
# 4 0.000000 0.000000 0.000000 0.050902 0.000000 0.019041
# 5 0.000276 -0.002645 -0.001658 0.000000 0.034697 0.000000
# 6 0.000000 0.000000 0.000000 0.019041 0.000000 0.040231
#
#
# Mechanical properties :
#
#
# Convention : Reuss Voigt Hill
#
# Bulk Modulus (GPa) = 46.80103 49.64057 48.22080
# Shear Modulus (GPa) = 26.43995 30.25478 28.34736
#
# Velocity S-wave (km/s) = 3.60443 3.85569 3.73218
# Velocity P-wave (km/s) = 6.34975 6.64935 6.50128
#
# Compressibility (1/GPa) = 0.02136705
#
# Stress axis : x y z
#
# Youngs Moduli (GPa) = 78.51135 75.02011 78.77642
#
# Poissons Ratio (x) = 0.22261 0.02958
# Poissons Ratio (y) = 0.23297 0.42178
# Poissons Ratio (z) = 0.02948 0.40166
#
# Static dielectric constant tensor:
#      x y z
#    x 3.661490 0.000000 -0.204730 
#    y 0.000000 3.351030 0.000000 
#    z -0.204730 0.000000 3.620250 
# 
# 
# High freq. dielectric constant tensor:
#      x y z
#    x 1.805150 0.000000 0.002800 
#    y 0.000000 1.786110 0.000000 
#    z 0.002800 0.000000 1.796440 
# 
# From -- ./inp_files/42172.got.cif
#   From: 2010.06.25/outbox.cif.g09.slc.cpg/sg15_22_cif.got.tgz:42172.got - 2010.06.28 07:06:18.
