data_PCOD8146231
_publ_section_title
;
Structure prediction by ZEFSAII (Michael W. Deem and Ramdas Pophale) SiO2 
 PCOD8146231
Probable space group: C 2/C
;
_chemical_formula_sum "Si O2"
_cell_formula_units_Z 56
_cell_length_a 14.350719
_cell_length_b 7.580020
_cell_length_c 22.962349
_cell_angle_alpha 90.000000
_cell_angle_beta 69.247000
_cell_angle_gamma 90.000000
_cell_volume 2335.748717
_symmetry_space_group_name_H-M "C 2/C"
_symmetry_group_IT_number 15
_symmetry_cell_setting 'monoclinic'
loop_
_space_group_symop_operation_xyz
x,y,z
-x,y,1/2-z
-x,-y,-z
x,-y,1/2+z
1/2+x,1/2+y,z
1/2-x,1/2+y,1/2-z
1/2-x,1/2-y,-z
1/2+x,1/2-y,1/2+z
loop_
_atom_site_type_symbol
_atom_site_label
_atom_site_fract_x
_atom_site_fract_y
_atom_site_fract_z
Si Si1 0.902623 0.380898 0.128651
Si Si2 0.390154 0.026910 0.255166
Si Si3 0.357343 0.221195 0.446921
Si Si4 0.190438 0.153090 0.664520
Si Si5 0.269847 0.259835 0.852686
Si Si6 0.391373 0.188253 0.931714
Si Si7 0.066863 0.291184 0.947519
O O1 0.878363 0.505725 0.189107
O O2 0.804184 0.269912 0.134391
O O3 0.934670 0.496563 0.064075
O O4 0.999361 0.261651 0.119485
O O5 0.500000 0.974798 0.250000
O O6 0.367053 0.231586 0.274652
O O7 0.316232 0.897285 0.305761
O O8 0.250000 0.250000 0.500000
O O9 0.363079 0.329645 0.385652
O O10 0.454971 0.287558 0.462259
O O11 0.370441 0.018303 0.428588
O O12 0.201595 0.949137 0.682564
O O13 0.309689 0.283437 0.910397
O O14 0.151147 0.221841 0.883423
O O15 0.390509 0.254849 0.998173
#
# Coordination Sequence:
#
# PCOD8146231 Si02
#       7
#     8   8   8   8   8   8   8
#     4  10  22  41  69 100 132 185 230 275 357 409
#     4  12  24  48  68  95 139 185 229 289 350 410
#     4  11  20  40  68 104 140 180 228 277 344 412
#     4  11  25  43  67 100 132 175 233 281 337 415
#     4  11  24  45  67 104 139 183 233 286 352 409
#     4  11  20  44  71  98 145 182 222 289 349 411
#     4  10  22  40  70 104 142 183 230 285 345 416
#
# _framework density 23.975182
#
# number of rings (size 3 to 8) (size 9 to 14) (size 15 to 20)
#    0.000    1.143    2.857    5.571    4.000    0.571 
#    2.571    1.429    0.000    0.000    0.000    0.000 
#    0.000    0.000    0.000    0.000    0.000    0.000 
#
# Total GULP energy -346975.763683 kJ/mol
# GULP energy per Si atom -12391.991560 kJ/mol
# Density = 2.392061 g / cm^3
# Si number density = 23.975182 Si / 1000 Ang^3
#
#
#
# Elastic Constant Matrix: (Units=GPa)
#
#
# Indices 1 2 3 4 5 6 
#
# 1 125.8224 12.0259 23.9685 0.0000 -21.5968 0.0001
# 2 12.0259 65.1061 18.7659 0.0000 -9.0182 0.0002
# 3 23.9685 18.7659 97.2926 0.0000 -1.5768 0.0000
# 4 0.0000 0.0000 0.0000 32.1674 0.0000 -1.6231
# 5 -21.5968 -9.0182 -1.5768 0.0000 46.4277 0.0000
# 6 0.0001 0.0002 0.0000 -1.6231 0.0000 27.7332
#
#
#
# Elastic Compliance Matrix: (Units=1/GPa)
#
#
# Indices 1 2 3 4 5 6 
#
# 1 0.009089 -0.000519 -0.002073 0.000000 0.004056 0.000000
# 2 -0.000519 0.016738 -0.003053 0.000000 0.002906 0.000000
# 3 -0.002073 -0.003053 0.011359 0.000000 -0.001172 0.000000
# 4 0.000000 0.000000 0.000000 0.031179 0.000000 0.001825
# 5 0.004056 0.002906 -0.001172 0.000000 0.023950 0.000000
# 6 0.000000 0.000000 0.000000 0.001825 0.000000 0.036165
#
#
# Mechanical properties :
#
#
# Convention : Reuss Voigt Hill
#
# Bulk Modulus (GPa) = 38.61916 44.19351 41.40634
# Shear Modulus (GPa) = 33.69200 36.82970 35.26085
#
# Velocity S-wave (km/s) = 3.75278 3.92364 3.83916
# Velocity P-wave (km/s) = 5.90938 6.24497 6.07949
#
# Compressibility (1/GPa) = 0.02589388
#
# Stress axis : x y z
#
# Youngs Moduli (GPa) = 110.02879 59.74388 88.03627
#
# Poissons Ratio (x) = 0.03103 0.18251
# Poissons Ratio (y) = 0.05714 0.26881
# Poissons Ratio (z) = 0.22810 0.18242
#
# Static dielectric constant tensor:
#      x y z
#    x 5.052290 0.000000 -0.093670 
#    y 0.000000 3.816170 0.000000 
#    z -0.093670 0.000000 4.217620 
# 
# 
# High freq. dielectric constant tensor:
#      x y z
#    x 1.983050 0.000000 -0.004540 
#    y 0.000000 1.906550 0.000000 
#    z -0.004540 0.000000 1.949760 
# 
# From -- ./inp_files/273062.got.cif
#   From: 2010.06.25/outbox.cif.g09.slc.cpg/sg15_137_cif.got.tgz:273062.got - 2010.06.28 07:06:18.
