data_PCOD8146738
_publ_section_title
;
Structure prediction by ZEFSAII (Michael W. Deem and Ramdas Pophale) SiO2 
 PCOD8146738
Probable space group: C 2/C
;
_chemical_formula_sum "Si O2"
_cell_formula_units_Z 56
_cell_length_a 11.715114
_cell_length_b 8.389145
_cell_length_c 28.679992
_cell_angle_alpha 90.000000
_cell_angle_beta 68.074271
_cell_angle_gamma 90.000000
_cell_volume 2614.785900
_symmetry_space_group_name_H-M "C 2/C"
_symmetry_group_IT_number 15
_symmetry_cell_setting 'monoclinic'
loop_
_space_group_symop_operation_xyz
x,y,z
-x,y,1/2-z
-x,-y,-z
x,-y,1/2+z
1/2+x,1/2+y,z
1/2-x,1/2+y,1/2-z
1/2-x,1/2-y,-z
1/2+x,1/2-y,1/2+z
loop_
_atom_site_type_symbol
_atom_site_label
_atom_site_fract_x
_atom_site_fract_y
_atom_site_fract_z
Si Si1 0.668634 0.817798 0.365333
Si Si2 0.064035 0.862444 0.192721
Si Si3 0.729794 0.119629 0.591756
Si Si4 0.178209 0.193667 0.465479
Si Si5 0.053554 0.899992 0.611886
Si Si6 0.988244 0.581346 0.360187
Si Si7 0.504758 0.690766 0.935922
O O1 0.798092 0.798860 0.319222
O O2 0.693239 0.808056 0.417802
O O3 0.583413 0.671236 0.364022
O O4 0.608228 0.981246 0.355913
O O5 0.000000 0.916048 0.250000
O O6 0.983456 0.717722 0.182501
O O7 0.077515 0.017778 0.158085
O O8 0.654767 0.268119 0.581714
O O9 0.849323 0.193900 0.598775
O O10 0.787335 0.991273 0.547601
O O11 0.627686 0.027726 0.639355
O O12 0.250000 0.250000 0.500000
O O13 0.033672 0.209379 0.503850
O O14 0.056495 0.025121 0.570015
O O15 0.942264 0.669541 0.414434
#
# Coordination Sequence:
#
# PCOD8146738 Si02
#       7
#     8   8   8   8   8   8   8
#     4  11  23  43  61  90 132 165 206 263 315 369
#     4  11  23  44  69  93 120 153 209 269 326 390
#     4  11  21  40  59  87 128 167 206 254 303 362
#     4  12  22  39  62  91 134 172 218 258 293 366
#     4  10  23  41  63  89 127 166 207 258 320 377
#     4  10  22  42  63  90 125 168 201 258 319 371
#     4  11  21  38  59  89 126 172 212 250 299 358
#
# _framework density 21.416668000000001
#
# number of rings (size 3 to 8) (size 9 to 14) (size 15 to 20)
#    0.000    1.143    4.286    2.143    0.000    2.286 
#    2.571    2.857    0.000    0.000    0.000    0.000 
#    0.000    0.000    0.000    0.000    0.000    0.000 
#
# Total GULP energy -346888.449367 kJ/mol
# GULP energy per Si atom -12388.873192 kJ/mol
# Density = 2.136792 g / cm^3
# Si number density = 21.416668 Si / 1000 Ang^3
#
#
#
# Elastic Constant Matrix: (Units=GPa)
#
#
# Indices 1 2 3 4 5 6 
#
# 1 104.1384 27.3412 30.6480 0.0000 -11.1142 0.0000
# 2 27.3412 75.1212 13.1662 0.0000 -5.5398 0.0000
# 3 30.6480 13.1662 97.3301 0.0000 -12.7835 0.0000
# 4 0.0000 0.0000 0.0000 16.0337 0.0000 -2.2437
# 5 -11.1142 -5.5398 -12.7835 0.0000 18.9849 0.0000
# 6 0.0000 0.0000 0.0000 -2.2437 0.0000 34.1660
#
#
#
# Elastic Compliance Matrix: (Units=1/GPa)
#
#
# Indices 1 2 3 4 5 6 
#
# 1 0.011747 -0.003505 -0.002694 0.000000 0.004040 0.000000
# 2 -0.003505 0.014839 -0.000663 0.000000 0.001832 0.000000
# 3 -0.002694 -0.000663 0.012045 0.000000 0.006340 0.000000
# 4 0.000000 0.000000 0.000000 0.062947 0.000000 0.004134
# 5 0.004040 0.001832 0.006340 0.000000 0.059842 0.000000
# 6 0.000000 0.000000 0.000000 0.004134 0.000000 0.029540
#
#
# Mechanical properties :
#
#
# Convention : Reuss Voigt Hill
#
# Bulk Modulus (GPa) = 40.15102 46.54450 43.34776
# Shear Modulus (GPa) = 23.47557 27.53253 25.50405
#
# Velocity S-wave (km/s) = 3.31439 3.58937 3.45461
# Velocity P-wave (km/s) = 5.78231 6.24164 6.01636
#
# Compressibility (1/GPa) = 0.02490597
#
# Stress axis : x y z
#
# Youngs Moduli (GPa) = 85.12819 67.39047 83.02163
#
# Poissons Ratio (x) = 0.23623 0.22368
# Poissons Ratio (y) = 0.29840 0.05504
# Poissons Ratio (z) = 0.22935 0.04468
#
# Static dielectric constant tensor:
#      x y z
#    x 4.187860 0.000000 -0.205100 
#    y 0.000000 4.153020 0.000000 
#    z -0.205100 0.000000 3.515350 
# 
# 
# High freq. dielectric constant tensor:
#      x y z
#    x 1.856320 0.000000 -0.020170 
#    y 0.000000 1.854440 0.000000 
#    z -0.020170 0.000000 1.793550 
# 
# From -- ./inp_files/291515.got.cif
#   From: 2010.06.25/outbox.cif.g09.slc.cpg/sg15_146_cif.got.tgz:291515.got - 2010.06.28 07:06:18.
