data_PCOD8146440
_publ_section_title
;
Structure prediction by ZEFSAII (Michael W. Deem and Ramdas Pophale) SiO2 
 PCOD8146440
Probable space group: C 2/C
;
_chemical_formula_sum "Si O2"
_cell_formula_units_Z 48
_cell_length_a 20.524104
_cell_length_b 15.934476
_cell_length_c 15.042057
_cell_angle_alpha 90.000000
_cell_angle_beta 26.495889
_cell_angle_gamma 90.000000
_cell_volume 2194.694908
_symmetry_space_group_name_H-M "C 2/C"
_symmetry_group_IT_number 15
_symmetry_cell_setting 'monoclinic'
loop_
_space_group_symop_operation_xyz
x,y,z
-x,y,1/2-z
-x,-y,-z
x,-y,1/2+z
1/2+x,1/2+y,z
1/2-x,1/2+y,1/2-z
1/2-x,1/2-y,-z
1/2+x,1/2-y,1/2+z
loop_
_atom_site_type_symbol
_atom_site_label
_atom_site_fract_x
_atom_site_fract_y
_atom_site_fract_z
Si Si1 0.663530 0.517940 0.653464
Si Si2 0.560861 0.089951 0.894893
Si Si3 0.286039 0.109292 0.135524
Si Si4 0.628947 0.250882 0.910119
Si Si5 0.321576 0.702032 0.830427
Si Si6 0.168351 0.994733 0.945581
O O1 0.761141 0.443658 0.576079
O O2 0.717106 0.603726 0.633265
O O3 0.683044 0.542040 0.526590
O O4 0.498920 0.486780 0.874890
O O5 0.734375 0.079712 0.664541
O O6 0.462087 0.120030 0.931207
O O7 0.555327 0.162423 0.975157
O O8 0.500000 0.000000 0.000000
O O9 0.194782 0.197004 0.245088
O O10 0.231614 0.066103 0.293447
O O11 0.497490 0.297856 0.121685
O O12 0.765017 0.244591 0.810011
O O13 0.250000 0.750000 0.000000
#
# Coordination Sequence:
#
# PCOD8146440 Si02
#       6
#     8   8   8   8   8   8
#     4  11  24  40  69  97 128 177 219 269 337 402
#     4  10  23  41  64  91 132 174 218 270 329 393
#     4  11  22  42  65  96 134 174 218 273 333 397
#     4  12  24  41  65  97 130 179 221 273 337 394
#     4  12  25  40  63  98 138 171 216 277 340 402
#     4  10  22  41  65  93 129 169 222 270 323 399
#
# _framework density 21.870920999999999
#
# number of rings (size 3 to 8) (size 9 to 14) (size 15 to 20)
#    0.000    1.000    3.333    4.000    7.000    0.667 
#    3.000    0.833    0.000    0.000    0.000    0.000 
#    0.000    0.000    0.000    0.000    0.000    0.000 
#
# Total GULP energy -297347.123888 kJ/mol
# GULP energy per Si atom -12389.463495 kJ/mol
# Density = 2.182114 g / cm^3
# Si number density = 21.870921 Si / 1000 Ang^3
#
#
#
# Elastic Constant Matrix: (Units=GPa)
#
#
# Indices 1 2 3 4 5 6 
#
# 1 85.6038 23.6890 7.4948 0.0005 -17.3442 -0.0003
# 2 23.6890 101.3311 11.1244 0.0004 -5.6177 -0.0003
# 3 7.4948 11.1244 54.5243 0.0011 -22.8933 -0.0008
# 4 0.0005 0.0004 0.0011 36.9185 -0.0008 -1.1790
# 5 -17.3442 -5.6177 -22.8933 -0.0008 31.1302 0.0005
# 6 -0.0003 -0.0003 -0.0008 -1.1790 0.0005 28.3373
#
#
#
# Elastic Compliance Matrix: (Units=1/GPa)
#
#
# Indices 1 2 3 4 5 6 
#
# 1 0.014180 -0.003084 0.002551 0.000000 0.009220 0.000000
# 2 -0.003084 0.010770 -0.002429 0.000000 -0.001561 0.000000
# 3 0.002551 -0.002429 0.027340 0.000000 0.021089 0.000000
# 4 0.000000 0.000000 0.000000 0.027123 0.000000 0.001128
# 5 0.009220 -0.001561 0.021089 0.000000 0.052487 0.000000
# 6 0.000000 0.000000 0.000000 0.001128 0.000000 0.035336
#
#
# Mechanical properties :
#
#
# Convention : Reuss Voigt Hill
#
# Bulk Modulus (GPa) = 21.56707 36.23060 28.89883
# Shear Modulus (GPa) = 26.50915 32.55394 29.53155
#
# Velocity S-wave (km/s) = 3.48526 3.86224 3.67858
# Velocity P-wave (km/s) = 5.10671 6.04076 5.59327
#
# Compressibility (1/GPa) = 0.04636699
#
# Stress axis : x y z
#
# Youngs Moduli (GPa) = 70.52280 92.85325 36.57636
#
# Poissons Ratio (x) = 0.28635 -0.09332
# Poissons Ratio (y) = 0.21748 0.08883
# Poissons Ratio (z) = -0.17992 0.22551
#
# Static dielectric constant tensor:
#      x y z
#    x 3.863350 0.000000 -0.452780 
#    y 0.000000 3.941250 0.000000 
#    z -0.452780 0.000000 4.404720 
# 
# 
# High freq. dielectric constant tensor:
#      x y z
#    x 1.850580 0.000000 -0.031340 
#    y 0.000000 1.854050 0.000000 
#    z -0.031340 0.000000 1.857290 
# 
# From -- ./inp_files/163192.got.cif
#   From: 2010.06.25/outbox.cif.g09.slc.cpg/sg15_82_cif.got.tgz:163192.got - 2010.06.28 07:06:18.
