data_PCOD8146929
_publ_section_title
;
Structure prediction by ZEFSAII (Michael W. Deem and Ramdas Pophale) SiO2 
 PCOD8146929
Probable space group: C 2/C
;
_chemical_formula_sum "Si O2"
_cell_formula_units_Z 56
_cell_length_a 15.752829
_cell_length_b 17.737277
_cell_length_c 11.500429
_cell_angle_alpha 90.000000
_cell_angle_beta 52.192022
_cell_angle_gamma 90.000000
_cell_volume 2538.779213
_symmetry_space_group_name_H-M "C 2/C"
_symmetry_group_IT_number 15
_symmetry_cell_setting 'monoclinic'
loop_
_space_group_symop_operation_xyz
x,y,z
-x,y,1/2-z
-x,-y,-z
x,-y,1/2+z
1/2+x,1/2+y,z
1/2-x,1/2+y,1/2-z
1/2-x,1/2-y,-z
1/2+x,1/2-y,1/2+z
loop_
_atom_site_type_symbol
_atom_site_label
_atom_site_fract_x
_atom_site_fract_y
_atom_site_fract_z
Si Si1 0.028281 0.339438 0.504360
Si Si2 0.130098 0.114867 0.285488
Si Si3 0.659355 0.106189 0.501705
Si Si4 0.500000 0.264506 0.250000
Si Si5 0.655938 0.385258 0.031901
Si Si6 0.387698 0.775996 0.286122
Si Si7 0.613312 0.943049 0.600768
Si Si8 0.500000 0.490974 0.750000
O O1 0.991699 0.285252 0.640751
O O2 0.111691 0.297860 0.349653
O O3 0.097809 0.412829 0.482875
O O4 0.923030 0.363937 0.524267
O O5 0.121706 0.132253 0.428444
O O6 0.134212 0.187594 0.197020
O O7 0.241367 0.075206 0.157480
O O8 0.032046 0.061031 0.332628
O O9 0.691917 0.172237 0.568076
O O10 0.619692 0.033013 0.606041
O O11 0.391680 0.316538 0.350219
O O12 0.784767 0.397392 0.930918
O O13 0.601555 0.461659 0.122198
O O14 0.500000 0.796584 0.250000
O O15 0.500000 0.915732 0.750000
#
# Coordination Sequence:
#
# PCOD8146929 Si02
#       8
#     8   8   8   4   8   8   8   4
#     4  11  23  43  69  99 139 185 227 293 349 418
#     4  12  22  43  71  98 140 183 234 293 357 412
#     4  11  25  43  67 103 140 182 240 284 351 421
#     4  11  24  46  70 105 142 182 240 287 350 432
#     4  11  26  45  72 104 139 186 233 296 355 424
#     4  10  22  42  66  98 136 182 232 289 345 413
#     4  12  24  45  69 101 143 183 232 289 353 421
#     4  11  24  48  68 103 136 182 244 287 358 424
#
# _framework density 22.057846999999999
#
# number of rings (size 3 to 8) (size 9 to 14) (size 15 to 20)
#    0.000    0.857    4.286    3.429    0.000    2.857 
#    0.000    0.000    0.000    0.000    0.000    0.000 
#    0.000    0.000    0.000    0.000    0.000    0.000 
#
# Total GULP energy -346954.421291 kJ/mol
# GULP energy per Si atom -12391.229332 kJ/mol
# Density = 2.200764 g / cm^3
# Si number density = 22.057847 Si / 1000 Ang^3
#
#
#
# Elastic Constant Matrix: (Units=GPa)
#
#
# Indices 1 2 3 4 5 6 
#
# 1 86.5348 36.3905 27.0767 0.0000 8.5485 0.0000
# 2 36.3905 120.9536 18.4679 0.0000 11.3294 0.0000
# 3 27.0767 18.4679 67.4617 0.0000 7.3687 0.0000
# 4 0.0000 0.0000 0.0000 30.9885 0.0000 6.3840
# 5 8.5485 11.3294 7.3687 0.0000 40.9361 0.0000
# 6 0.0000 0.0000 0.0000 6.3840 0.0000 31.9614
#
#
#
# Elastic Compliance Matrix: (Units=1/GPa)
#
#
# Indices 1 2 3 4 5 6 
#
# 1 0.014673 -0.003571 -0.004779 0.000000 -0.001216 0.000000
# 2 -0.003571 0.009661 -0.001021 0.000000 -0.001744 0.000000
# 3 -0.004779 -0.001021 0.017219 0.000000 -0.001819 0.000000
# 4 0.000000 0.000000 0.000000 0.033655 0.000000 -0.006722
# 5 -0.001216 -0.001744 -0.001819 0.000000 0.025492 0.000000
# 6 0.000000 0.000000 0.000000 -0.006722 0.000000 0.032630
#
#
# Mechanical properties :
#
#
# Convention : Reuss Voigt Hill
#
# Bulk Modulus (GPa) = 43.83653 48.75781 46.29717
# Shear Modulus (GPa) = 31.31307 33.64487 32.47897
#
# Velocity S-wave (km/s) = 3.77183 3.90975 3.84141
# Velocity P-wave (km/s) = 6.23583 6.52181 6.38042
#
# Compressibility (1/GPa) = 0.02281203
#
# Stress axis : x y z
#
# Youngs Moduli (GPa) = 68.15142 103.50542 58.07376
#
# Poissons Ratio (x) = 0.36963 0.27753
# Poissons Ratio (y) = 0.24338 0.05929
# Poissons Ratio (z) = 0.32569 0.10568
#
# Static dielectric constant tensor:
#      x y z
#    x 3.826860 0.000000 0.041950 
#    y 0.000000 3.985450 0.000000 
#    z 0.041950 0.000000 4.119510 
# 
# 
# High freq. dielectric constant tensor:
#      x y z
#    x 1.854870 0.000000 0.001090 
#    y 0.000000 1.881550 0.000000 
#    z 0.001090 0.000000 1.875570 
# 
# From -- ./inp_files/98719.got.cif
#   From: 2010.06.25/outbox.cif.g09.slc.cpg/sg15_50_cif.got.tgz:98719.got - 2010.06.28 07:06:18.
