data_PCOD8146381
_publ_section_title
;
Structure prediction by ZEFSAII (Michael W. Deem and Ramdas Pophale) SiO2 
 PCOD8146381
Probable space group: C 2/C
;
_chemical_formula_sum "Si O2"
_cell_formula_units_Z 32
_cell_length_a 8.827941
_cell_length_b 36.220435
_cell_length_c 5.005152
_cell_angle_alpha 90.000000
_cell_angle_beta 62.695355
_cell_angle_gamma 90.000000
_cell_volume 1422.089440
_symmetry_space_group_name_H-M "C 2/C"
_symmetry_group_IT_number 15
_symmetry_cell_setting 'monoclinic'
loop_
_space_group_symop_operation_xyz
x,y,z
-x,y,1/2-z
-x,-y,-z
x,-y,1/2+z
1/2+x,1/2+y,z
1/2-x,1/2+y,1/2-z
1/2-x,1/2-y,-z
1/2+x,1/2-y,1/2+z
loop_
_atom_site_type_symbol
_atom_site_label
_atom_site_fract_x
_atom_site_fract_y
_atom_site_fract_z
Si Si1 0.805743 0.708290 0.997889
Si Si2 0.805560 0.164990 0.889573
Si Si3 0.199957 0.020433 0.635976
Si Si4 0.887797 0.591289 0.577107
O O1 0.688974 0.684946 0.897689
O O2 0.000000 0.702897 0.750000
O O3 0.750000 0.750000 0.000000
O O4 0.767906 0.693218 0.326745
O O5 0.687116 0.129409 0.972412
O O6 0.000000 0.151961 0.750000
O O7 0.240799 0.060741 0.727067
O O8 0.000000 0.017657 0.750000
O O9 0.275925 0.009724 0.284869
O O10 0.000000 0.598235 0.750000
O O11 0.000000 0.574466 0.250000
#
# Coordination Sequence:
#
# PCOD8146381 Si02
#       4
#     8   8   8   8
#     4  12  25  44  68  97 131 168 213 265 323 385
#     4  12  25  44  67  94 129 171 217 265 322 385
#     4  10  22  41  64  91 126 168 213 262 319 383
#     4  12  25  41  64  94 129 168 213 267 325 382
#
# _framework density 22.502103000000002
#
# number of rings (size 3 to 8) (size 9 to 14) (size 15 to 20)
#    0.000    0.500    0.000    9.750    0.000    3.000 
#    0.000    7.500    0.000    0.000    0.000    0.000 
#    0.000    0.000    0.000    0.000    0.000    0.000 
#
# Total GULP energy -198310.344439 kJ/mol
# GULP energy per Si atom -12394.396527 kJ/mol
# Density = 2.245089 g / cm^3
# Si number density = 22.502103 Si / 1000 Ang^3
#
#
#
# Elastic Constant Matrix: (Units=GPa)
#
#
# Indices 1 2 3 4 5 6 
#
# 1 119.6456 45.7079 34.2432 0.0000 18.0866 0.0000
# 2 45.7079 146.0153 15.1328 0.0000 19.2389 0.0000
# 3 34.2432 15.1328 91.1591 0.0000 11.2484 0.0000
# 4 0.0000 0.0000 0.0000 32.7363 0.0000 15.0884
# 5 18.0866 19.2389 11.2484 0.0000 29.7335 0.0000
# 6 0.0000 0.0000 0.0000 15.0884 0.0000 -21.4004
#
#
#
# Elastic Compliance Matrix: (Units=1/GPa)
#
#
# Indices 1 2 3 4 5 6 
#
# 1 0.010808 -0.002565 -0.003176 0.000000 -0.003713 0.000000
# 2 -0.002565 0.008136 0.000073 0.000000 -0.003732 0.000000
# 3 -0.003176 0.000073 0.012502 0.000000 -0.002845 0.000000
# 4 0.000000 0.000000 0.000000 0.023055 0.000000 0.016255
# 5 -0.003713 -0.003732 -0.002845 0.000000 0.039382 0.000000
# 6 0.000000 0.000000 0.000000 0.016255 0.000000 -0.035267
#
#
# Mechanical properties :
#
#
# Convention : Reuss Voigt Hill
#
# Bulk Modulus (GPa) = 49.72532 60.77643 55.25087
# Shear Modulus (GPa) = 65.22860 25.66295 45.44577
#
# Velocity S-wave (km/s) = 5.38987 3.38075 4.49890
# Velocity P-wave (km/s) = 7.80258 6.50439 7.18288
#
# Compressibility (1/GPa) = 0.02011048
#
# Stress axis : x y z
#
# Youngs Moduli (GPa) = 92.52204 122.91694 79.98873
#
# Poissons Ratio (x) = 0.31527 0.25405
# Poissons Ratio (y) = 0.23731 -0.00587
# Poissons Ratio (z) = 0.29385 -0.00902
#
# Static dielectric constant tensor:
#      x y z
#    x 4.309850 0.000000 0.237780 
#    y 0.000000 3.872190 0.000000 
#    z 0.237780 0.000000 4.315090 
# 
# 
# High freq. dielectric constant tensor:
#      x y z
#    x 1.905140 0.000000 0.011530 
#    y 0.000000 1.895770 0.000000 
#    z 0.011530 0.000000 1.895010 
# 
# From -- ./inp_files/2577.got.cif
#   From: 2010.06.25/outbox.cif.g09.slc.cpg/sg15_2_cif.got.tgz:2577.got - 2010.06.28 07:06:18.
