data_PCOD8146354
_publ_section_title
;
Structure prediction by ZEFSAII (Michael W. Deem and Ramdas Pophale) SiO2 
 PCOD8146354
Probable space group: C 2/C
;
_chemical_formula_sum "Si O2"
_cell_formula_units_Z 52
_cell_length_a 8.017629
_cell_length_b 15.741028
_cell_length_c 24.359771
_cell_angle_alpha 90.000000
_cell_angle_beta 55.315624
_cell_angle_gamma 90.000000
_cell_volume 2528.029525
_symmetry_space_group_name_H-M "C 2/C"
_symmetry_group_IT_number 15
_symmetry_cell_setting 'monoclinic'
loop_
_space_group_symop_operation_xyz
x,y,z
-x,y,1/2-z
-x,-y,-z
x,-y,1/2+z
1/2+x,1/2+y,z
1/2-x,1/2+y,1/2-z
1/2-x,1/2-y,-z
1/2+x,1/2-y,1/2+z
loop_
_atom_site_type_symbol
_atom_site_label
_atom_site_fract_x
_atom_site_fract_y
_atom_site_fract_z
Si Si1 0.855350 0.463717 0.572640
Si Si2 0.158935 0.345835 0.265969
Si Si3 0.279173 0.602900 0.143385
Si Si4 0.451601 0.506279 0.695084
Si Si5 0.185925 0.844658 0.523485
Si Si6 0.000000 0.277478 0.750000
Si Si7 0.614433 0.043425 0.606858
O O1 0.656571 0.522163 0.621155
O O2 0.787447 0.371399 0.562967
O O3 0.000000 0.500000 0.500000
O O4 0.983883 0.465871 0.604509
O O5 0.299431 0.416589 0.211478
O O6 0.309784 0.275363 0.262339
O O7 0.000000 0.309908 0.250000
O O8 0.032110 0.386250 0.339460
O O9 0.355211 0.582325 0.191355
O O10 0.443658 0.651250 0.075268
O O11 0.083414 0.663337 0.184904
O O12 0.244857 0.507789 0.126468
O O13 0.500000 0.496589 0.750000
O O14 0.250000 0.750000 0.500000
O O15 0.246347 0.908323 0.463288
#
# Coordination Sequence:
#
# PCOD8146354 Si02
#       7
#     8   8   8   8   8   4   8
#     4   9  20  36  62  93 127 169 216 263 331 398
#     4  12  23  41  68  99 133 170 217 279 339 391
#     4  11  24  41  63  93 128 171 221 271 317 409
#     4  11  20  38  68  94 126 173 222 268 332 395
#     4  10  22  41  63  91 128 167 213 273 336 387
#     4  12  26  42  60  96 140 170 214 274 336 384
#     4  11  20  41  67  91 124 168 221 264 327 399
#
# _framework density 20.569381
#
# number of rings (size 3 to 8) (size 9 to 14) (size 15 to 20)
#    0.000    1.231    3.846    2.308    0.000    1.846 
#    5.538    0.769    0.000    0.000    0.000    0.000 
#    0.000    0.000    0.000    0.000    0.000    0.000 
#
# Total GULP energy -322143.307712 kJ/mol
# GULP energy per Si atom -12390.127220 kJ/mol
# Density = 2.052256 g / cm^3
# Si number density = 20.569381 Si / 1000 Ang^3
#
#
#
# Elastic Constant Matrix: (Units=GPa)
#
#
# Indices 1 2 3 4 5 6 
#
# 1 108.2319 48.0717 48.8496 0.0002 -1.0142 0.0001
# 2 48.0717 111.8715 59.6658 0.0000 -6.8448 0.0001
# 3 48.8496 59.6658 143.1615 0.0005 -25.2612 0.0002
# 4 0.0002 0.0000 0.0005 39.0650 -0.0003 -7.6786
# 5 -1.0142 -6.8448 -25.2612 -0.0003 37.0032 0.0000
# 6 0.0001 0.0001 0.0002 -7.6786 0.0000 28.7237
#
#
#
# Elastic Compliance Matrix: (Units=1/GPa)
#
#
# Indices 1 2 3 4 5 6 
#
# 1 0.012276 -0.003807 -0.003032 0.000000 -0.002438 0.000000
# 2 -0.003807 0.012730 -0.004104 0.000000 -0.000551 0.000000
# 3 -0.003032 -0.004104 0.010894 0.000000 0.006595 0.000000
# 4 0.000000 0.000000 0.000000 0.027018 0.000000 0.007223
# 5 -0.002438 -0.000551 0.006595 0.000000 0.031358 0.000000
# 6 0.000000 0.000000 0.000000 0.007223 0.000000 0.036745
#
#
# Mechanical properties :
#
#
# Convention : Reuss Voigt Hill
#
# Bulk Modulus (GPa) = 71.35926 75.15990 73.25958
# Shear Modulus (GPa) = 31.73036 34.73689 33.23363
#
# Velocity S-wave (km/s) = 3.93186 4.11392 4.02392
# Velocity P-wave (km/s) = 7.44177 7.69317 7.56851
#
# Compressibility (1/GPa) = 0.01401360
#
# Stress axis : x y z
#
# Youngs Moduli (GPa) = 81.45914 78.55717 91.79585
#
# Poissons Ratio (x) = 0.29906 0.27836
# Poissons Ratio (y) = 0.31011 0.37669
# Poissons Ratio (z) = 0.24702 0.32236
#
# Static dielectric constant tensor:
#      x y z
#    x 4.178110 0.000000 -0.063870 
#    y 0.000000 3.573410 0.000000 
#    z -0.063870 0.000000 3.998210 
# 
# 
# High freq. dielectric constant tensor:
#      x y z
#    x 1.810320 0.000000 -0.011820 
#    y 0.000000 1.780420 0.000000 
#    z -0.011820 0.000000 1.825900 
# 
# From -- ./inp_files/288615.got.cif
#   From: 2010.06.25/outbox.cif.g09.slc.cpg/sg15_145_cif.got.tgz:288615.got - 2010.06.28 07:06:18.
