data_PCOD8146409
_publ_section_title
;
Structure prediction by ZEFSAII (Michael W. Deem and Ramdas Pophale) SiO2 
 PCOD8146409
Probable space group: C 2/C
;
_chemical_formula_sum "Si O2"
_cell_formula_units_Z 64
_cell_length_a 25.143704
_cell_length_b 12.132638
_cell_length_c 13.178120
_cell_angle_alpha 90.000000
_cell_angle_beta 48.566919
_cell_angle_gamma 90.000000
_cell_volume 3013.993653
_symmetry_space_group_name_H-M "C 2/C"
_symmetry_group_IT_number 15
_symmetry_cell_setting 'monoclinic'
loop_
_space_group_symop_operation_xyz
x,y,z
-x,y,1/2-z
-x,-y,-z
x,-y,1/2+z
1/2+x,1/2+y,z
1/2-x,1/2+y,1/2-z
1/2-x,1/2-y,-z
1/2+x,1/2-y,1/2+z
loop_
_atom_site_type_symbol
_atom_site_label
_atom_site_fract_x
_atom_site_fract_y
_atom_site_fract_z
Si Si1 0.635729 0.914720 0.447982
Si Si2 0.117233 0.490764 0.690100
Si Si3 0.738315 0.981720 0.666949
Si Si4 0.652837 0.674608 0.967583
Si Si5 0.007684 0.307095 0.859088
Si Si6 0.279736 0.724451 0.220176
Si Si7 0.019300 0.874359 0.502234
Si Si8 0.390273 0.244053 0.758838
O O1 0.612481 0.984624 0.574648
O O2 0.566222 0.847820 0.496872
O O3 0.695844 0.820535 0.388533
O O4 0.668370 0.997035 0.324735
O O5 0.198774 0.454658 0.611246
O O6 0.063816 0.403745 0.807657
O O7 0.096824 0.612437 0.755804
O O8 0.789499 0.888784 0.647219
O O9 0.787288 0.084896 0.585433
O O10 0.695830 0.768173 0.851479
O O11 0.590086 0.624579 0.979883
O O12 0.626511 0.721087 0.106205
O O13 0.000000 0.279433 0.750000
O O14 0.032292 0.194430 0.882467
O O15 0.325706 0.726183 0.265321
O O16 0.959104 0.813270 0.642281
O O17 0.000000 0.000000 0.500000
#
# Coordination Sequence:
#
# PCOD8146409 Si02
#       8
#     8   8   8   8   8   8   8   8
#     4  10  22  41  64  99 130 173 220 275 338 385
#     4  11  23  41  70 101 129 175 222 282 338 392
#     4  11  23  40  64  97 136 173 222 274 330 398
#     4  11  25  40  66 104 127 178 227 269 338 397
#     4  10  23  43  68  98 130 172 223 276 336 395
#     4  11  22  43  66  94 140 177 219 276 338 393
#     4  12  26  47  67  97 137 181 225 274 336 402
#     4  12  24  45  69  98 138 174 226 281 335 395
#
# _framework density 21.234286000000001
#
# number of rings (size 3 to 8) (size 9 to 14) (size 15 to 20)
#    0.000    1.000    3.750    3.000    1.750    7.500 
#    2.250    0.000    0.000    0.000    0.000    0.000 
#    0.000    0.000    0.000    0.000    0.000    0.000 
#
# Total GULP energy -396692.212652 kJ/mol
# GULP energy per Si atom -12396.631645 kJ/mol
# Density = 2.118596 g / cm^3
# Si number density = 21.234286 Si / 1000 Ang^3
#
#
#
# Elastic Constant Matrix: (Units=GPa)
#
#
# Indices 1 2 3 4 5 6 
#
# 1 104.4027 49.0585 20.2137 0.0000 -19.2337 0.0000
# 2 49.0585 108.8366 29.2127 0.0000 4.3553 0.0000
# 3 20.2137 29.2127 82.9050 0.0000 -14.4446 0.0000
# 4 0.0000 0.0000 0.0000 18.7675 0.0000 1.5867
# 5 -19.2337 4.3553 -14.4446 0.0000 26.9190 0.0000
# 6 0.0000 0.0000 0.0000 1.5867 0.0000 35.8559
#
#
#
# Elastic Compliance Matrix: (Units=1/GPa)
#
#
# Indices 1 2 3 4 5 6 
#
# 1 0.015371 -0.007778 0.001242 0.000000 0.012907 0.000000
# 2 -0.007778 0.014475 -0.005053 0.000000 -0.010611 0.000000
# 3 0.001242 -0.005053 0.015264 0.000000 0.009895 0.000000
# 4 0.000000 0.000000 0.000000 0.053484 0.000000 -0.002367
# 5 0.012907 -0.010611 0.009895 0.000000 0.053397 0.000000
# 6 0.000000 0.000000 0.000000 -0.002367 0.000000 0.027994
#
#
# Mechanical properties :
#
#
# Convention : Reuss Voigt Hill
#
# Bulk Modulus (GPa) = 45.59689 54.79047 50.19368
# Shear Modulus (GPa) = 23.75601 29.48577 26.62089
#
# Velocity S-wave (km/s) = 3.34841 3.73042 3.54457
# Velocity P-wave (km/s) = 6.03896 6.66435 6.35935
#
# Compressibility (1/GPa) = 0.02193132
#
# Stress axis : x y z
#
# Youngs Moduli (GPa) = 65.05890 69.08470 65.51514
#
# Poissons Ratio (x) = 0.53736 -0.08137
# Poissons Ratio (y) = 0.50605 0.33103
# Poissons Ratio (z) = -0.08080 0.34907
#
# Static dielectric constant tensor:
#      x y z
#    x 3.903570 0.000000 -0.048110 
#    y 0.000000 3.860990 0.000000 
#    z -0.048110 0.000000 3.968430 
# 
# 
# High freq. dielectric constant tensor:
#      x y z
#    x 1.838550 0.000000 -0.003000 
#    y 0.000000 1.835740 0.000000 
#    z -0.003000 0.000000 1.837800 
# 
# From -- ./inp_files/177789.got.cif
#   From: 2010.06.25/outbox.cif.g09.slc.cpg/sg15_89_cif.got.tgz:177789.got - 2010.06.28 07:06:18.
