data_PCOD8146557
_publ_section_title
;
Structure prediction by ZEFSAII (Michael W. Deem and Ramdas Pophale) SiO2 
 PCOD8146557
Probable space group: C 2/C
;
_chemical_formula_sum "Si O2"
_cell_formula_units_Z 48
_cell_length_a 27.555577
_cell_length_b 8.081273
_cell_length_c 16.174439
_cell_angle_alpha 90.000000
_cell_angle_beta 139.246040
_cell_angle_gamma 90.000000
_cell_volume 2351.292812
_symmetry_space_group_name_H-M "C 2/C"
_symmetry_group_IT_number 15
_symmetry_cell_setting 'monoclinic'
loop_
_space_group_symop_operation_xyz
x,y,z
-x,y,1/2-z
-x,-y,-z
x,-y,1/2+z
1/2+x,1/2+y,z
1/2-x,1/2+y,1/2-z
1/2-x,1/2-y,-z
1/2+x,1/2-y,1/2+z
loop_
_atom_site_type_symbol
_atom_site_label
_atom_site_fract_x
_atom_site_fract_y
_atom_site_fract_z
Si Si1 0.802556 0.099884 0.733289
Si Si2 0.436413 0.787765 0.974865
Si Si3 0.317314 0.369769 0.898138
Si Si4 0.420076 0.394519 0.623416
Si Si5 0.322226 0.304739 0.640537
Si Si6 0.904339 0.657745 0.889317
O O1 0.885223 0.169560 0.853450
O O2 0.743813 0.246742 0.642830
O O3 0.777344 0.995205 0.781902
O O4 0.806573 0.986242 0.657738
O O5 0.408812 0.974054 0.929010
O O6 0.429363 0.737082 0.061415
O O7 0.519685 0.769942 0.049740
O O8 0.383761 0.273437 0.939046
O O9 0.358304 0.466649 0.024551
O O10 0.500000 0.473685 0.750000
O O11 0.391187 0.299683 0.666871
O O12 0.250000 0.250000 0.500000
O O13 0.340619 0.173251 0.736830
#
# Coordination Sequence:
#
# PCOD8146557 Si02
#       6
#     8   8   8   8   8   8
#     4  10  23  40  66  90 125 166 214 257 311 381
#     4  10  22  41  68  88 123 168 212 254 307 380
#     4  10  23  38  67  89 124 164 213 252 310 382
#     4  11  24  43  63  93 129 164 204 264 321 364
#     4  11  26  41  62  93 132 165 206 265 320 368
#     4  10  22  42  64  92 121 168 213 250 308 384
#
# _framework density 20.414300000000001
#
# number of rings (size 3 to 8) (size 9 to 14) (size 15 to 20)
#    0.000    1.667    1.667    1.000   16.333    2.667 
#    0.000    0.833    0.000    0.000    0.000    0.000 
#    0.000    0.000    0.000    0.000    0.000    0.000 
#
# Total GULP energy -297657.109107 kJ/mol
# GULP energy per Si atom -12402.379546 kJ/mol
# Density = 2.036784 g / cm^3
# Si number density = 20.414300 Si / 1000 Ang^3
#
#
#
# Elastic Constant Matrix: (Units=GPa)
#
#
# Indices 1 2 3 4 5 6 
#
# 1 75.3826 27.8905 39.5096 0.0000 -1.7660 0.0000
# 2 27.8905 95.2708 51.4319 0.0000 0.5398 0.0000
# 3 39.5096 51.4319 122.2783 0.0000 6.9388 0.0000
# 4 0.0000 0.0000 0.0000 32.8314 0.0000 6.9183
# 5 -1.7660 0.5398 6.9388 0.0000 29.5560 0.0000
# 6 0.0000 0.0000 0.0000 6.9183 0.0000 35.7357
#
#
#
# Elastic Compliance Matrix: (Units=1/GPa)
#
#
# Indices 1 2 3 4 5 6 
#
# 1 0.016547 -0.002466 -0.004427 0.000000 0.002073 0.000000
# 2 -0.002466 0.013983 -0.005130 0.000000 0.000802 0.000000
# 3 -0.004427 -0.005130 0.011935 0.000000 -0.002973 0.000000
# 4 0.000000 0.000000 0.000000 0.031754 0.000000 -0.006147
# 5 0.002073 0.000802 -0.002973 0.000000 0.034641 0.000000
# 6 0.000000 0.000000 0.000000 -0.006147 0.000000 0.029173
#
#
# Mechanical properties :
#
#
# Convention : Reuss Voigt Hill
#
# Bulk Modulus (GPa) = 54.29214 58.95509 56.62361
# Shear Modulus (GPa) = 29.72303 31.23127 30.47715
#
# Velocity S-wave (km/s) = 3.81988 3.91560 3.86804
# Velocity P-wave (km/s) = 6.79030 7.02742 6.90988
#
# Compressibility (1/GPa) = 0.01841887
#
# Stress axis : x y z
#
# Youngs Moduli (GPa) = 60.43458 71.51361 83.78706
#
# Poissons Ratio (x) = 0.17635 0.37092
# Poissons Ratio (y) = 0.14903 0.42985
# Poissons Ratio (z) = 0.26754 0.36689
#
# Static dielectric constant tensor:
#      x y z
#    x 3.028820 0.000000 -0.009990 
#    y 0.000000 3.777060 0.000000 
#    z -0.009990 0.000000 3.710110 
# 
# 
# High freq. dielectric constant tensor:
#      x y z
#    x 1.806080 0.000000 0.009790 
#    y 0.000000 1.794960 0.000000 
#    z 0.009790 0.000000 1.803100 
# 
# From -- ./inp_files/176953.got.cif
#   From: 2010.06.25/outbox.cif.g09.slc.cpg/sg15_89_cif.got.tgz:176953.got - 2010.06.28 07:06:18.
