data_PCOD8146445
_publ_section_title
;
Structure prediction by ZEFSAII (Michael W. Deem and Ramdas Pophale) SiO2 
 PCOD8146445
Probable space group: C 2/C
;
_chemical_formula_sum "Si O2"
_cell_formula_units_Z 36
_cell_length_a 23.510132
_cell_length_b 11.634950
_cell_length_c 12.720982
_cell_angle_alpha 90.000000
_cell_angle_beta 28.813076
_cell_angle_gamma 90.000000
_cell_volume 1677.048035
_symmetry_space_group_name_H-M "C 2/C"
_symmetry_group_IT_number 15
_symmetry_cell_setting 'monoclinic'
loop_
_space_group_symop_operation_xyz
x,y,z
-x,y,1/2-z
-x,-y,-z
x,-y,1/2+z
1/2+x,1/2+y,z
1/2-x,1/2+y,1/2-z
1/2-x,1/2-y,-z
1/2+x,1/2-y,1/2+z
loop_
_atom_site_type_symbol
_atom_site_label
_atom_site_fract_x
_atom_site_fract_y
_atom_site_fract_z
Si Si1 0.198837 0.123099 0.064165
Si Si2 0.412794 0.867718 0.091886
Si Si3 0.937341 0.399767 0.458586
Si Si4 0.172188 0.124240 0.337880
Si Si5 0.500000 0.465804 0.750000
O O1 0.183869 0.065766 0.203110
O O2 0.073548 0.117500 0.207701
O O3 0.250000 0.250000 0.000000
O O4 0.299463 0.066531 0.828570
O O5 0.505352 0.835112 0.034029
O O6 0.382121 0.751998 0.079481
O O7 0.460603 0.962833 0.933488
O O8 0.800944 0.364543 0.679525
O O9 0.000000 0.359358 0.250000
O O10 0.088026 0.045874 0.543001
#
# Coordination Sequence:
#
# PCOD8146445 Si02
#       5
#     8   8   8   8   4
#     4  10  22  41  65  94 127 168 219 254 318 383
#     4  10  23  42  63 101 125 169 221 256 332 386
#     4  11  22  42  69  91 135 167 213 276 315 389
#     4  11  24  42  66  97 126 174 211 266 327 383
#     4  12  24  44  64  96 140 164 210 278 316 384
#
# _framework density 21.466290000000001
#
# number of rings (size 3 to 8) (size 9 to 14) (size 15 to 20)
#    0.000    1.333    4.444    0.667    1.556    7.111 
#    4.000    1.111    0.000    0.000    0.000    0.000 
#    0.000    0.000    0.000    0.000    0.000    0.000 
#
# Total GULP energy -223120.582066 kJ/mol
# GULP energy per Si atom -12395.587893 kJ/mol
# Density = 2.141743 g / cm^3
# Si number density = 21.466290 Si / 1000 Ang^3
#
#
#
# Elastic Constant Matrix: (Units=GPa)
#
#
# Indices 1 2 3 4 5 6 
#
# 1 167.5557 45.4256 46.7150 0.0000 -41.1389 0.0000
# 2 45.4256 88.6525 23.5353 0.0000 -10.7987 0.0000
# 3 46.7150 23.5353 109.6590 0.0000 -16.7919 0.0000
# 4 0.0000 0.0000 0.0000 16.1205 0.0000 -4.9530
# 5 -41.1389 -10.7987 -16.7919 0.0000 44.1517 0.0000
# 6 0.0000 0.0000 0.0000 -4.9530 0.0000 32.6512
#
#
#
# Elastic Compliance Matrix: (Units=1/GPa)
#
#
# Indices 1 2 3 4 5 6 
#
# 1 0.009149 -0.003279 -0.002136 0.000000 0.006911 0.000000
# 2 -0.003279 0.013318 -0.001519 0.000000 -0.000376 0.000000
# 3 -0.002136 -0.001519 0.010611 0.000000 0.001674 0.000000
# 4 0.000000 0.000000 0.000000 0.065065 0.000000 0.009870
# 5 0.006911 -0.000376 0.001674 0.000000 0.029633 0.000000
# 6 0.000000 0.000000 0.000000 0.009870 0.000000 0.032124
#
#
# Mechanical properties :
#
#
# Convention : Reuss Voigt Hill
#
# Bulk Modulus (GPa) = 52.05398 66.35765 59.20581
# Shear Modulus (GPa) = 27.75120 35.26410 31.50765
#
# Velocity S-wave (km/s) = 3.59943 4.05750 3.83531
# Velocity P-wave (km/s) = 6.44797 7.27535 6.87412
#
# Compressibility (1/GPa) = 0.01921083
#
# Stress axis : x y z
#
# Youngs Moduli (GPa) = 109.29676 75.08760 94.23893
#
# Poissons Ratio (x) = 0.24624 0.20126
# Poissons Ratio (y) = 0.35843 0.14313
# Poissons Ratio (z) = 0.23341 0.11405
#
# Static dielectric constant tensor:
#      x y z
#    x 4.185740 0.000000 0.102930 
#    y 0.000000 3.537870 0.000000 
#    z 0.102930 0.000000 4.606530 
# 
# 
# High freq. dielectric constant tensor:
#      x y z
#    x 1.862210 0.000000 -0.008030 
#    y 0.000000 1.818500 0.000000 
#    z -0.008030 0.000000 1.847070 
# 
# From -- ./inp_files/85778.got.cif
#   From: 2010.06.25/outbox.cif.g09.slc.cpg/sg15_43_cif.got.tgz:85778.got - 2010.06.28 07:06:18.
