data_PCOD8146862
_publ_section_title
;
Structure prediction by ZEFSAII (Michael W. Deem and Ramdas Pophale) SiO2 
 PCOD8146862
Probable space group: C 2/C
;
_chemical_formula_sum "Si O2"
_cell_formula_units_Z 36
_cell_length_a 11.217387
_cell_length_b 14.790818
_cell_length_c 13.792096
_cell_angle_alpha 90.000000
_cell_angle_beta 39.586214
_cell_angle_gamma 90.000000
_cell_volume 1458.197090
_symmetry_space_group_name_H-M "C 2/C"
_symmetry_group_IT_number 15
_symmetry_cell_setting 'monoclinic'
loop_
_space_group_symop_operation_xyz
x,y,z
-x,y,1/2-z
-x,-y,-z
x,-y,1/2+z
1/2+x,1/2+y,z
1/2-x,1/2+y,1/2-z
1/2-x,1/2-y,-z
1/2+x,1/2-y,1/2+z
loop_
_atom_site_type_symbol
_atom_site_label
_atom_site_fract_x
_atom_site_fract_y
_atom_site_fract_z
Si Si1 0.319849 0.561093 0.609969
Si Si2 0.184001 0.334695 0.365252
Si Si3 0.500000 0.233405 0.250000
Si Si4 0.023058 0.824777 0.846104
Si Si5 0.398314 0.085542 0.164593
O O1 0.500000 0.500000 0.500000
O O2 0.328964 0.629609 0.694209
O O3 0.336213 0.620561 0.500631
O O4 0.131517 0.499119 0.742134
O O5 0.312019 0.294396 0.371479
O O6 0.047494 0.260795 0.401493
O O7 0.059893 0.421619 0.480152
O O8 0.481621 0.172794 0.166334
O O9 0.199566 0.892048 0.740874
O O10 0.000000 0.792493 0.750000
#
# Coordination Sequence:
#
# PCOD8146862 Si02
#       5
#     8   8   4   8   8
#     4  10  23  44  61  95 142 171 221 280 337 396
#     4  11  22  41  73  98 131 180 229 276 334 409
#     4  10  22  42  70 102 134 174 230 282 332 398
#     4  10  22  43  69  94 133 180 225 274 332 398
#     4  10  22  42  66 101 135 174 224 276 341 402
#
# _framework density 24.688020999999999
#
# number of rings (size 3 to 8) (size 9 to 14) (size 15 to 20)
#    0.000    1.778    0.000    4.000    0.000    7.111 
#   22.000    0.000    0.000    0.000    0.000    0.000 
#    0.000    0.000    0.000    0.000    0.000    0.000 
#
# Total GULP energy -223000.360892 kJ/mol
# GULP energy per Si atom -12388.908938 kJ/mol
# Density = 2.463183 g / cm^3
# Si number density = 24.688021 Si / 1000 Ang^3
#
#
#
# Elastic Constant Matrix: (Units=GPa)
#
#
# Indices 1 2 3 4 5 6 
#
# 1 106.6782 34.1987 42.1940 -0.0004 1.3791 0.0002
# 2 34.1987 103.7337 53.5313 -0.0008 -1.5192 0.0004
# 3 42.1940 53.5313 159.9613 -0.0018 11.3455 0.0007
# 4 -0.0004 -0.0008 -0.0018 48.8934 0.0011 -10.3457
# 5 1.3791 -1.5192 11.3455 0.0011 17.1147 -0.0001
# 6 0.0002 0.0004 0.0007 -10.3457 -0.0001 10.1641
#
#
#
# Elastic Compliance Matrix: (Units=1/GPa)
#
#
# Indices 1 2 3 4 5 6 
#
# 1 0.011008 -0.002560 -0.002065 0.000000 0.000255 0.000000
# 2 -0.002560 0.012488 -0.003775 0.000000 0.003817 0.000000
# 3 -0.002065 -0.003775 0.008470 0.000000 -0.005783 0.000000
# 4 0.000000 0.000000 0.000000 0.026067 -0.000002 0.026532
# 5 0.000255 0.003817 -0.005783 -0.000002 0.062582 -0.000001
# 6 0.000000 0.000000 0.000000 0.026532 -0.000001 0.125392
#
#
# Mechanical properties :
#
#
# Convention : Reuss Voigt Hill
#
# Bulk Modulus (GPa) = 65.93438 70.02458 67.97948
# Shear Modulus (GPa) = 18.66648 31.26438 24.96543
#
# Velocity S-wave (km/s) = 2.75270 3.56248 3.18344
# Velocity P-wave (km/s) = 6.07192 6.73402 6.41152
#
# Compressibility (1/GPa) = 0.01516659
#
# Stress axis : x y z
#
# Youngs Moduli (GPa) = 90.84227 80.07884 118.06927
#
# Poissons Ratio (x) = 0.20498 0.24383
# Poissons Ratio (y) = 0.23253 0.44566
# Poissons Ratio (z) = 0.18760 0.30226
#
# Static dielectric constant tensor:
#      x y z
#    x 4.184530 0.000000 -0.121960 
#    y 0.000000 4.867160 0.000010 
#    z -0.121960 0.000010 4.909640 
# 
# 
# High freq. dielectric constant tensor:
#      x y z
#    x 1.942220 0.000000 0.008220 
#    y 0.000000 1.989290 0.000000 
#    z 0.008220 0.000000 2.006030 
# 
# From -- ./inp_files/28718.got.cif
#   From: 2010.06.25/outbox.cif.g09.slc.cpg/sg15_15_cif.got.tgz:28718.got - 2010.06.28 07:06:18.
