data_PCOD8146140
_publ_section_title
;
Structure prediction by ZEFSAII (Michael W. Deem and Ramdas Pophale) SiO2 
 PCOD8146140
Probable space group: C 2/C
;
_chemical_formula_sum "Si O2"
_cell_formula_units_Z 32
_cell_length_a 7.308866
_cell_length_b 18.545735
_cell_length_c 10.733758
_cell_angle_alpha 90.000000
_cell_angle_beta 83.172970
_cell_angle_gamma 90.000000
_cell_volume 1444.626350
_symmetry_space_group_name_H-M "C 2/C"
_symmetry_group_IT_number 15
_symmetry_cell_setting 'monoclinic'
loop_
_space_group_symop_operation_xyz
x,y,z
-x,y,1/2-z
-x,-y,-z
x,-y,1/2+z
1/2+x,1/2+y,z
1/2-x,1/2+y,1/2-z
1/2-x,1/2-y,-z
1/2+x,1/2-y,1/2+z
loop_
_atom_site_type_symbol
_atom_site_label
_atom_site_fract_x
_atom_site_fract_y
_atom_site_fract_z
Si Si1 0.308532 0.618657 0.235711
Si Si2 0.386655 0.002921 0.881835
Si Si3 0.225582 0.355902 0.014610
Si Si4 0.435166 0.739289 0.060820
O O1 0.500000 0.577085 0.250000
O O2 0.212186 0.573690 0.133478
O O3 0.361903 0.699831 0.190432
O O4 0.813141 0.625984 0.129329
O O5 0.500000 0.021916 0.750000
O O6 0.247696 0.070211 0.910673
O O7 0.500000 0.000000 0.000000
O O8 0.043376 0.313855 0.079195
O O9 0.414383 0.311834 0.020728
O O10 0.250000 0.750000 0.000000
#
# Coordination Sequence:
#
# PCOD8146140 Si02
#       4
#     8   8   8   8
#     4  10  23  44  69  95 142 184 230 290 358 417
#     4  12  24  43  71 101 138 185 236 288 354 417
#     4  10  23  44  67  98 140 177 233 293 343 423
#     4  10  22  40  67  96 133 183 231 282 354 412
#
# _framework density 22.151056000000001
#
# number of rings (size 3 to 8) (size 9 to 14) (size 15 to 20)
#    0.000    1.500    2.500    1.500    0.000    9.000 
#    4.500    2.500    0.000    0.000    0.000    0.000 
#    0.000    0.000    0.000    0.000    0.000    0.000 
#
# Total GULP energy -198230.621468 kJ/mol
# GULP energy per Si atom -12389.413842 kJ/mol
# Density = 2.210064 g / cm^3
# Si number density = 22.151056 Si / 1000 Ang^3
#
#
#
# Elastic Constant Matrix: (Units=GPa)
#
#
# Indices 1 2 3 4 5 6 
#
# 1 114.5141 43.6034 43.9067 0.0000 16.9004 0.0000
# 2 43.6034 126.3975 57.3816 0.0000 -0.4776 0.0000
# 3 43.9067 57.3816 131.0394 0.0000 0.2542 0.0000
# 4 0.0000 0.0000 0.0000 45.4348 0.0000 -1.5963
# 5 16.9004 -0.4776 0.2542 0.0000 41.1751 0.0000
# 6 0.0000 0.0000 0.0000 -1.5963 0.0000 37.0838
#
#
#
# Elastic Compliance Matrix: (Units=1/GPa)
#
#
# Indices 1 2 3 4 5 6 
#
# 1 0.011501 -0.002796 -0.002620 0.000000 -0.004737 0.000000
# 2 -0.002796 0.010555 -0.003688 0.000000 0.001293 0.000000
# 3 -0.002620 -0.003688 0.010122 0.000000 0.000970 0.000000
# 4 0.000000 0.000000 0.000000 0.022043 0.000000 0.000949
# 5 -0.004737 0.001293 0.000970 0.000000 0.026240 0.000000
# 6 0.000000 0.000000 0.000000 0.000949 0.000000 0.027007
#
#
# Mechanical properties :
#
#
# Convention : Reuss Voigt Hill
#
# Bulk Modulus (GPa) = 71.57832 73.52605 72.55219
# Shear Modulus (GPa) = 38.36369 39.87602 39.11985
#
# Velocity S-wave (km/s) = 4.16614 4.24746 4.20700
# Velocity P-wave (km/s) = 7.45159 7.57098 7.51152
#
# Compressibility (1/GPa) = 0.01397071
#
# Stress axis : x y z
#
# Youngs Moduli (GPa) = 86.95077 94.74116 98.79350
#
# Poissons Ratio (x) = 0.26489 0.25884
# Poissons Ratio (y) = 0.24311 0.36432
# Poissons Ratio (z) = 0.22781 0.34938
#
# Static dielectric constant tensor:
#      x y z
#    x 4.401970 0.000000 0.191620 
#    y 0.000000 4.404200 0.000000 
#    z 0.191620 0.000000 4.155750 
# 
# 
# High freq. dielectric constant tensor:
#      x y z
#    x 1.873860 0.000000 -0.006160 
#    y 0.000000 1.878820 0.000000 
#    z -0.006160 0.000000 1.860900 
# 
# From -- ./inp_files/72236.got.cif
#   From: 2010.06.25/outbox.cif.g09.slc.cpg/sg15_37_cif.got.tgz:72236.got - 2010.06.28 07:06:18.
