data_PCOD8146708
_publ_section_title
;
Structure prediction by ZEFSAII (Michael W. Deem and Ramdas Pophale) SiO2 
 PCOD8146708
Probable space group: C 2/C
;
_chemical_formula_sum "Si O2"
_cell_formula_units_Z 40
_cell_length_a 10.524571
_cell_length_b 8.847320
_cell_length_c 21.757756
_cell_angle_alpha 90.000000
_cell_angle_beta 76.103762
_cell_angle_gamma 90.000000
_cell_volume 1966.661877
_symmetry_space_group_name_H-M "C 2/C"
_symmetry_group_IT_number 15
_symmetry_cell_setting 'monoclinic'
loop_
_space_group_symop_operation_xyz
x,y,z
-x,y,1/2-z
-x,-y,-z
x,-y,1/2+z
1/2+x,1/2+y,z
1/2-x,1/2+y,1/2-z
1/2-x,1/2-y,-z
1/2+x,1/2-y,1/2+z
loop_
_atom_site_type_symbol
_atom_site_label
_atom_site_fract_x
_atom_site_fract_y
_atom_site_fract_z
Si Si1 0.000000 0.247685 0.250000
Si Si2 0.608203 0.569373 0.031214
Si Si3 0.069193 0.495892 0.333535
Si Si4 0.148181 0.001636 0.661903
Si Si5 0.901121 0.572549 0.963289
Si Si6 0.000000 0.748375 0.250000
O O1 0.920994 0.350722 0.211384
O O2 0.892891 0.147012 0.296455
O O3 0.585143 0.500767 0.101627
O O4 0.588505 0.747844 0.034021
O O5 0.500000 0.500000 0.000000
O O6 0.752000 0.521196 0.991192
O O7 0.195270 0.499678 0.362965
O O8 0.940248 0.485343 0.390852
O O9 0.070280 0.646636 0.292792
O O10 0.107125 0.150108 0.703610
O O11 0.000000 0.500000 0.000000
#
# Coordination Sequence:
#
# PCOD8146708 Si02
#       6
#     4   8   8   8   8   4
#     4  10  22  42  62  92 126 172 206 258 330 368
#     4  11  26  43  66  97 129 172 213 267 323 379
#     4  11  22  43  66  93 126 166 213 265 316 378
#     4  11  22  43  64  92 131 164 213 263 317 381
#     4  11  24  44  67  93 129 171 217 266 318 380
#     4  10  26  38  64 100 122 166 212 262 314 388
#
# _framework density 20.339030999999999
#
# number of rings (size 3 to 8) (size 9 to 14) (size 15 to 20)
#    0.000    1.200    4.000    1.200    2.800    2.400 
#   14.400    0.000    0.000    0.000    0.000    0.000 
#    0.000    0.000    0.000    0.000    0.000    0.000 
#
# Total GULP energy -248083.964851 kJ/mol
# GULP energy per Si atom -12404.198243 kJ/mol
# Density = 2.029274 g / cm^3
# Si number density = 20.339031 Si / 1000 Ang^3
#
#
#
# Elastic Constant Matrix: (Units=GPa)
#
#
# Indices 1 2 3 4 5 6 
#
# 1 139.1187 50.4264 64.9106 0.0000 3.8416 0.0000
# 2 50.4264 115.9088 59.5692 0.0000 -1.1813 0.0000
# 3 64.9106 59.5692 155.9569 0.0000 -0.0247 0.0000
# 4 0.0000 0.0000 0.0000 -25.0637 0.0000 -7.8962
# 5 3.8416 -1.1813 -0.0247 0.0000 39.8398 0.0000
# 6 0.0000 0.0000 0.0000 -7.8962 0.0000 20.7361
#
#
#
# Elastic Compliance Matrix: (Units=1/GPa)
#
#
# Indices 1 2 3 4 5 6 
#
# 1 0.009559 -0.002643 -0.002969 0.000000 -0.001002 0.000000
# 2 -0.002643 0.011469 -0.003281 0.000000 0.000593 0.000000
# 3 -0.002969 -0.003281 0.008901 0.000000 0.000195 0.000000
# 4 0.000000 0.000000 0.000000 -0.035625 0.000000 -0.013566
# 5 -0.001002 0.000593 0.000195 0.000000 0.025215 0.000000
# 6 0.000000 0.000000 0.000000 -0.013566 0.000000 0.043059
#
#
# Mechanical properties :
#
#
# Convention : Reuss Voigt Hill
#
# Bulk Modulus (GPa) = 82.34740 84.53298 83.44019
# Shear Modulus (GPa) = 59.23251 22.84099 41.03675
#
# Velocity S-wave (km/s) = 5.40239 3.35477 4.49668
# Velocity P-wave (km/s) = 8.91570 7.52716 8.25069
#
# Compressibility (1/GPa) = 0.01214367
#
# Stress axis : x y z
#
# Youngs Moduli (GPa) = 104.61145 87.18843 112.34693
#
# Poissons Ratio (x) = 0.23044 0.33359
# Poissons Ratio (y) = 0.27648 0.36858
# Poissons Ratio (z) = 0.31062 0.28604
#
# Static dielectric constant tensor:
#      x y z
#    x 3.505420 0.000000 -0.078540 
#    y 0.000000 3.856230 0.000000 
#    z -0.078540 0.000000 3.898680 
# 
# 
# High freq. dielectric constant tensor:
#      x y z
#    x 1.791120 0.000000 -0.001560 
#    y 0.000000 1.802240 0.000000 
#    z -0.001560 0.000000 1.812430 
# 
# From -- ./inp_files/195115.got.cif
#   From: 2010.06.25/outbox.cif.g09.slc.cpg/sg15_98_cif.got.tgz:195115.got - 2010.06.28 07:06:18.
