data_PCOD8146723
_publ_section_title
;
Structure prediction by ZEFSAII (Michael W. Deem and Ramdas Pophale) SiO2 
 PCOD8146723
Probable space group: C 2/C
;
_chemical_formula_sum "Si O2"
_cell_formula_units_Z 40
_cell_length_a 25.470834
_cell_length_b 7.692978
_cell_length_c 18.326221
_cell_angle_alpha 90.000000
_cell_angle_beta 30.237666
_cell_angle_gamma 90.000000
_cell_volume 1808.364428
_symmetry_space_group_name_H-M "C 2/C"
_symmetry_group_IT_number 15
_symmetry_cell_setting 'monoclinic'
loop_
_space_group_symop_operation_xyz
x,y,z
-x,y,1/2-z
-x,-y,-z
x,-y,1/2+z
1/2+x,1/2+y,z
1/2-x,1/2+y,1/2-z
1/2-x,1/2-y,-z
1/2+x,1/2-y,1/2+z
loop_
_atom_site_type_symbol
_atom_site_label
_atom_site_fract_x
_atom_site_fract_y
_atom_site_fract_z
Si Si1 0.669917 0.656963 0.396545
Si Si2 0.962317 0.645908 0.715719
Si Si3 0.527914 0.534121 0.798360
Si Si4 0.354923 0.847206 0.770895
Si Si5 0.625739 0.964811 0.906207
O O1 0.576887 0.524598 0.526576
O O2 0.734011 0.684729 0.395668
O O3 0.615217 0.830277 0.432696
O O4 0.749273 0.580130 0.240260
O O5 0.063246 0.635784 0.542861
O O6 0.000000 0.593600 0.750000
O O7 0.870059 0.512231 0.806069
O O8 0.919498 0.843457 0.764338
O O9 0.500000 0.593594 0.750000
O O10 0.606619 0.670988 0.738757
O O11 0.417842 0.904183 0.621170
#
# Coordination Sequence:
#
# PCOD8146723 Si02
#       5
#     8   8   8   8   8
#     4  10  23  40  67  94 131 165 216 269 312 385
#     4  11  23  43  66  94 133 171 213 265 322 383
#     4  11  24  44  65  97 133 171 215 265 323 382
#     4  10  24  42  67  95 130 172 214 265 322 386
#     4  10  22  42  62  98 124 171 213 266 315 380
#
# _framework density 22.119434999999999
#
# number of rings (size 3 to 8) (size 9 to 14) (size 15 to 20)
#    1.200    0.400    2.000    2.400    0.000    3.200 
#    0.000    2.000    0.000    0.000    0.000    0.000 
#    0.000    0.000    0.000    0.000    0.000    0.000 
#
# Total GULP energy -247892.082003 kJ/mol
# GULP energy per Si atom -12394.604100 kJ/mol
# Density = 2.206909 g / cm^3
# Si number density = 22.119435 Si / 1000 Ang^3
#
#
#
# Elastic Constant Matrix: (Units=GPa)
#
#
# Indices 1 2 3 4 5 6 
#
# 1 102.0200 52.8256 6.9406 -0.0091 15.6121 -0.0093
# 2 52.8256 110.4754 8.0522 -0.0259 9.9998 -0.0089
# 3 6.9406 8.0522 22.8592 -0.0185 3.6833 -0.0036
# 4 -0.0091 -0.0259 -0.0185 15.9721 0.0089 9.6595
# 5 15.6121 9.9998 3.6833 0.0089 29.0004 0.0097
# 6 -0.0093 -0.0089 -0.0036 9.6595 0.0097 11.5806
#
#
#
# Elastic Compliance Matrix: (Units=1/GPa)
#
#
# Indices 1 2 3 4 5 6 
#
# 1 0.013810 -0.006044 -0.001227 -0.000014 -0.005195 0.000022
# 2 -0.006044 0.012171 -0.002348 0.000023 -0.000645 -0.000015
# 3 -0.001227 -0.002348 0.045643 0.000084 -0.004327 -0.000055
# 4 -0.000014 0.000023 0.000084 0.126343 -0.000015 -0.105384
# 5 -0.005195 -0.000645 -0.004327 -0.000015 0.038051 -0.000025
# 6 0.000022 -0.000015 -0.000055 -0.105384 -0.000025 0.174253
#
#
# Mechanical properties :
#
#
# Convention : Reuss Voigt Hill
#
# Bulk Modulus (GPa) = 19.08920 41.22127 30.15524
# Shear Modulus (GPa) = 11.18642 22.47972 16.83307
#
# Velocity S-wave (km/s) = 2.25128 3.19139 2.76163
# Velocity P-wave (km/s) = 3.92511 5.67945 4.88173
#
# Compressibility (1/GPa) = 0.05238564
#
# Stress axis : x y z
#
# Youngs Moduli (GPa) = 72.41206 82.16074 21.90916
#
# Poissons Ratio (x) = 0.49656 0.02689
# Poissons Ratio (y) = 0.43764 0.05145
# Poissons Ratio (z) = 0.08886 0.19294
#
# Static dielectric constant tensor:
#      x y z
#    x 3.859050 -0.000010 0.115190 
#    y -0.000010 3.855580 0.000030 
#    z 0.115190 0.000030 3.919290 
# 
# 
# High freq. dielectric constant tensor:
#      x y z
#    x 1.866490 0.000000 0.003820 
#    y 0.000000 1.874550 0.000000 
#    z 0.003820 0.000000 1.859410 
# 
# From -- ./inp_files/218103.got.cif
#   From: 2010.06.25/outbox.cif.g09.slc.cpg/sg15_110_cif.got.tgz:218103.got - 2010.06.28 07:06:18.
