data_PCOD8146487
_publ_section_title
;
Structure prediction by ZEFSAII (Michael W. Deem and Ramdas Pophale) SiO2 
 PCOD8146487
Probable space group: C 2/C
;
_chemical_formula_sum "Si O2"
_cell_formula_units_Z 48
_cell_length_a 8.580933
_cell_length_b 24.457118
_cell_length_c 11.847163
_cell_angle_alpha 90.000000
_cell_angle_beta 62.080494
_cell_angle_gamma 90.000000
_cell_volume 2196.913437
_symmetry_space_group_name_H-M "C 2/C"
_symmetry_group_IT_number 15
_symmetry_cell_setting 'monoclinic'
loop_
_space_group_symop_operation_xyz
x,y,z
-x,y,1/2-z
-x,-y,-z
x,-y,1/2+z
1/2+x,1/2+y,z
1/2-x,1/2+y,1/2-z
1/2-x,1/2-y,-z
1/2+x,1/2-y,1/2+z
loop_
_atom_site_type_symbol
_atom_site_label
_atom_site_fract_x
_atom_site_fract_y
_atom_site_fract_z
Si Si1 0.394671 0.631499 0.581467
Si Si2 0.040870 0.244887 0.556748
Si Si3 0.257379 0.582137 0.076215
Si Si4 0.500000 0.172469 0.250000
Si Si5 0.000000 0.504803 0.750000
Si Si6 0.832544 0.413781 0.146606
Si Si7 0.561358 0.814352 0.104191
O O1 0.495182 0.682741 0.604224
O O2 0.535488 0.592704 0.467857
O O3 0.315945 0.594609 0.708065
O O4 0.251614 0.655920 0.542864
O O5 0.250000 0.250000 0.500000
O O6 0.935415 0.286872 0.673095
O O7 0.958252 0.258871 0.461385
O O8 0.160220 0.636873 0.149306
O O9 0.175949 0.531559 0.172789
O O10 0.242240 0.568136 0.948331
O O11 0.030559 0.541383 0.850917
O O12 0.930871 0.357156 0.090129
O O13 0.500000 0.799255 0.250000
#
# Coordination Sequence:
#
# PCOD8146487 Si02
#       7
#     8   8   8   4   4   8   8
#     4  11  23  40  66  99 130 172 222 268 329 406
#     4  12  24  40  66  99 136 184 217 258 327 402
#     4  11  24  41  67  96 129 170 224 280 336 407
#     4  11  24  38  64 100 138 168 222 263 328 394
#     4  11  24  44  70  88 126 176 226 287 358 382
#     4  11  21  45  65  92 128 174 222 280 335 403
#     4  10  22  41  66  92 139 176 216 271 324 389
#
# _framework density 21.848835000000001
#
# number of rings (size 3 to 8) (size 9 to 14) (size 15 to 20)
#    0.000    1.000    5.833    1.500    7.000    0.667 
#    0.000    0.833    0.000    0.000    0.000    0.000 
#    0.000    0.000    0.000    0.000    0.000    0.000 
#
# Total GULP energy -297522.039545 kJ/mol
# GULP energy per Si atom -12396.751648 kJ/mol
# Density = 2.179911 g / cm^3
# Si number density = 21.848835 Si / 1000 Ang^3
#
#
#
# Elastic Constant Matrix: (Units=GPa)
#
#
# Indices 1 2 3 4 5 6 
#
# 1 89.5776 -2.0879 38.3057 0.0000 -4.8631 0.0000
# 2 -2.0879 75.9411 29.2117 0.0000 -2.9677 0.0000
# 3 38.3057 29.2117 76.9178 0.0000 -6.9140 0.0000
# 4 0.0000 0.0000 0.0000 26.0279 0.0000 1.3967
# 5 -4.8631 -2.9677 -6.9140 0.0000 41.3378 0.0000
# 6 0.0000 0.0000 0.0000 1.3967 0.0000 30.6332
#
#
#
# Elastic Compliance Matrix: (Units=1/GPa)
#
#
# Indices 1 2 3 4 5 6 
#
# 1 0.015111 0.003879 -0.008948 0.000000 0.000560 0.000000
# 2 0.003879 0.016418 -0.008142 0.000000 0.000273 0.000000
# 3 -0.008948 -0.008142 0.020714 0.000000 0.001827 0.000000
# 4 0.000000 0.000000 0.000000 0.038515 0.000000 -0.001756
# 5 0.000560 0.000273 0.001827 0.000000 0.024582 0.000000
# 6 0.000000 0.000000 0.000000 -0.001756 0.000000 0.032724
#
#
# Mechanical properties :
#
#
# Convention : Reuss Voigt Hill
#
# Bulk Modulus (GPa) = 38.73051 41.47727 40.10389
# Shear Modulus (GPa) = 27.30860 31.40024 29.35442
#
# Velocity S-wave (km/s) = 3.53921 3.79510 3.66939
# Velocity P-wave (km/s) = 5.87081 6.18293 6.02889
#
# Compressibility (1/GPa) = 0.02581944
#
# Stress axis : x y z
#
# Youngs Moduli (GPa) = 66.17758 60.91046 48.27689
#
# Poissons Ratio (x) = -0.23630 0.43200
# Poissons Ratio (y) = -0.25673 0.39309
# Poissons Ratio (z) = 0.59218 0.49596
#
# Static dielectric constant tensor:
#      x y z
#    x 3.906260 0.000000 -0.137940 
#    y 0.000000 3.995680 0.000000 
#    z -0.137940 0.000000 3.964390 
# 
# 
# High freq. dielectric constant tensor:
#      x y z
#    x 1.849000 0.000000 -0.010750 
#    y 0.000000 1.861950 0.000000 
#    z -0.010750 0.000000 1.852870 
# 
# From -- ./inp_files/80567.got.cif
#   From: 2010.06.25/outbox.cif.g09.slc.cpg/sg15_41_cif.got.tgz:80567.got - 2010.06.28 07:06:18.
