data_PCOD8146162
_publ_section_title
;
Structure prediction by ZEFSAII (Michael W. Deem and Ramdas Pophale) SiO2 
 PCOD8146162
Probable space group: C 2/C
;
_chemical_formula_sum "Si O2"
_cell_formula_units_Z 40
_cell_length_a 11.354747
_cell_length_b 14.608821
_cell_length_c 14.433724
_cell_angle_alpha 90.000000
_cell_angle_beta 132.907107
_cell_angle_gamma 90.000000
_cell_volume 1753.694837
_symmetry_space_group_name_H-M "C 2/C"
_symmetry_group_IT_number 15
_symmetry_cell_setting 'monoclinic'
loop_
_space_group_symop_operation_xyz
x,y,z
-x,y,1/2-z
-x,-y,-z
x,-y,1/2+z
1/2+x,1/2+y,z
1/2-x,1/2+y,1/2-z
1/2-x,1/2-y,-z
1/2+x,1/2-y,1/2+z
loop_
_atom_site_type_symbol
_atom_site_label
_atom_site_fract_x
_atom_site_fract_y
_atom_site_fract_z
Si Si1 0.062647 0.230490 0.387236
Si Si2 0.220547 0.648153 0.734237
Si Si3 0.137334 0.946982 0.022246
Si Si4 0.245150 0.897526 0.449058
Si Si5 0.489412 0.237419 0.138859
O O1 0.250000 0.250000 0.500000
O O2 0.035134 0.134274 0.421829
O O3 0.000000 0.222638 0.250000
O O4 0.958401 0.312049 0.378288
O O5 0.229051 0.586356 0.831341
O O6 0.283144 0.591443 0.677138
O O7 0.338059 0.736130 0.811622
O O8 0.230319 0.005590 0.993206
O O9 0.000000 0.000000 0.000000
O O10 0.421750 0.852115 0.551035
O O11 0.121727 0.827510 0.431354
O O12 0.500000 0.207047 0.250000
#
# Coordination Sequence:
#
# PCOD8146162 Si02
#       5
#     8   8   8   8   8
#     4  12  28  52  75 102 150 206 256 305 381 460
#     4  11  23  46  75 103 146 200 252 305 383 447
#     4  12  26  44  73 113 147 196 251 312 367 450
#     4  10  22  40  68 110 147 185 242 311 369 446
#     4   9  19  38  68 105 145 184 234 297 379 446
#
# _framework density 22.808985
#
# number of rings (size 3 to 8) (size 9 to 14) (size 15 to 20)
#    0.000    1.200    4.000    1.200    8.400    0.000 
#    3.600    1.000    0.000    0.000    0.000    0.000 
#    0.000    0.000    0.000    0.000    0.000    0.000 
#
# Total GULP energy -247943.882609 kJ/mol
# GULP energy per Si atom -12397.194130 kJ/mol
# Density = 2.275707 g / cm^3
# Si number density = 22.808985 Si / 1000 Ang^3
#
#
#
# Elastic Constant Matrix: (Units=GPa)
#
#
# Indices 1 2 3 4 5 6 
#
# 1 109.8510 55.1222 54.2981 0.0000 2.1642 0.0000
# 2 55.1222 114.7396 64.5821 0.0000 -12.3674 0.0000
# 3 54.2981 64.5821 130.6092 0.0000 1.2304 0.0000
# 4 0.0000 0.0000 0.0000 37.5619 0.0000 -5.9883
# 5 2.1642 -12.3674 1.2304 0.0000 48.4322 0.0000
# 6 0.0000 0.0000 0.0000 -5.9883 0.0000 35.5167
#
#
#
# Elastic Compliance Matrix: (Units=1/GPa)
#
#
# Indices 1 2 3 4 5 6 
#
# 1 0.013016 -0.004712 -0.003065 0.000000 -0.001707 0.000000
# 2 -0.004712 0.014311 -0.005155 0.000000 0.003996 0.000000
# 3 -0.003065 -0.005155 0.011494 0.000000 -0.001471 0.000000
# 4 0.000000 0.000000 0.000000 0.027358 0.000000 0.004613
# 5 -0.001707 0.003996 -0.001471 0.000000 0.021781 0.000000
# 6 0.000000 0.000000 0.000000 0.004613 0.000000 0.028934
#
#
# Mechanical properties :
#
#
# Convention : Reuss Voigt Hill
#
# Bulk Modulus (GPa) = 77.18106 78.13384 77.65745
# Shear Modulus (GPa) = 33.99539 36.38198 35.18869
#
# Velocity S-wave (km/s) = 3.86481 3.99817 3.93205
# Velocity P-wave (km/s) = 7.33670 7.45948 7.39834
#
# Compressibility (1/GPa) = 0.01295655
#
# Stress axis : x y z
#
# Youngs Moduli (GPa) = 76.82611 69.87408 87.00339
#
# Poissons Ratio (x) = 0.32924 0.26670
# Poissons Ratio (y) = 0.36199 0.44853
# Poissons Ratio (z) = 0.23550 0.36023
#
# Static dielectric constant tensor:
#      x y z
#    x 4.296890 0.000000 0.334840 
#    y 0.000000 6.081960 0.000000 
#    z 0.334840 0.000000 5.318130 
# 
# 
# High freq. dielectric constant tensor:
#      x y z
#    x 1.899190 0.000000 -0.010970 
#    y 0.000000 1.875430 0.000000 
#    z -0.010970 0.000000 1.914640 
# 
# From -- ./inp_files/143924.got.cif
#   From: 2010.06.25/outbox.cif.g09.slc.cpg/sg15_72_cif.got.tgz:143924.got - 2010.06.28 07:06:18.
