data_PCOD8146302
_publ_section_title
;
Structure prediction by ZEFSAII (Michael W. Deem and Ramdas Pophale) SiO2 
 PCOD8146302
Probable space group: C 2/C
;
_chemical_formula_sum "Si O2"
_cell_formula_units_Z 56
_cell_length_a 12.329558
_cell_length_b 8.129220
_cell_length_c 28.044248
_cell_angle_alpha 90.000000
_cell_angle_beta 63.447571
_cell_angle_gamma 90.000000
_cell_volume 2514.392088
_symmetry_space_group_name_H-M "C 2/C"
_symmetry_group_IT_number 15
_symmetry_cell_setting 'monoclinic'
loop_
_space_group_symop_operation_xyz
x,y,z
-x,y,1/2-z
-x,-y,-z
x,-y,1/2+z
1/2+x,1/2+y,z
1/2-x,1/2+y,1/2-z
1/2-x,1/2-y,-z
1/2+x,1/2-y,1/2+z
loop_
_atom_site_type_symbol
_atom_site_label
_atom_site_fract_x
_atom_site_fract_y
_atom_site_fract_z
Si Si1 0.405703 0.723990 0.003212
Si Si2 0.794202 0.495568 0.185271
Si Si3 0.453782 0.552824 0.132593
Si Si4 0.750442 0.767493 0.619574
Si Si5 0.869418 0.138677 0.480359
Si Si6 0.608683 0.743343 0.262482
Si Si7 0.977521 0.680918 0.389803
O O1 0.345031 0.548538 0.001428
O O2 0.416591 0.835964 0.953968
O O3 0.315140 0.807078 0.059312
O O4 0.540747 0.713229 0.997768
O O5 0.724585 0.378110 0.161958
O O6 0.710035 0.649963 0.211998
O O7 0.825532 0.401623 0.228132
O O8 0.920293 0.544003 0.135690
O O9 0.332408 0.591714 0.126814
O O10 0.568042 0.637874 0.084050
O O11 0.446737 0.621856 0.187099
O O12 0.464070 0.358283 0.130436
O O13 0.623238 0.850316 0.630847
O O14 0.750000 0.250000 0.500000
O O15 0.500000 0.803060 0.250000
#
# Coordination Sequence:
#
# PCOD8146302 Si02
#       7
#     8   8   8   8   8   8   8
#     4   9  20  35  56  92 127 159 203 242 292 372
#     4  11  26  41  63  93 116 157 212 252 304 372
#     4   9  21  41  62  89 122 157 204 249 298 368
#     4  10  22  41  61  91 129 159 197 250 302 358
#     4   9  18  35  61  90 125 165 199 243 300 357
#     4  11  24  44  65  87 118 157 204 259 310 355
#     4  11  22  39  63  90 125 163 196 247 305 355
#
# _framework density 22.271785000000001
#
# number of rings (size 3 to 8) (size 9 to 14) (size 15 to 20)
#    0.000    2.000    0.000    3.000    0.000   10.857 
#    0.000    2.143    0.000    0.000    0.000    0.000 
#    0.000    0.000    0.000    0.000    0.000    0.000 
#
# Total GULP energy -347261.517577 kJ/mol
# GULP energy per Si atom -12402.197056 kJ/mol
# Density = 2.222109 g / cm^3
# Si number density = 22.271785 Si / 1000 Ang^3
#
#
#
# Elastic Constant Matrix: (Units=GPa)
#
#
# Indices 1 2 3 4 5 6 
#
# 1 119.2535 17.0583 31.5257 0.0000 4.4515 0.0000
# 2 17.0583 30.4027 2.7995 0.0000 -6.5330 0.0000
# 3 31.5257 2.7995 76.9716 0.0000 6.7663 0.0000
# 4 0.0000 0.0000 0.0000 38.5465 0.0000 -9.0068
# 5 4.4515 -6.5330 6.7663 0.0000 28.7830 0.0000
# 6 0.0000 0.0000 0.0000 -9.0068 0.0000 23.7693
#
#
#
# Elastic Compliance Matrix: (Units=1/GPa)
#
#
# Indices 1 2 3 4 5 6 
#
# 1 0.010314 -0.005869 -0.003833 0.000000 -0.002026 0.000000
# 2 -0.005869 0.038219 0.000175 0.000000 0.009541 0.000000
# 3 -0.003833 0.000175 0.014806 0.000000 -0.002848 0.000000
# 4 0.000000 0.000000 0.000000 0.028463 0.000000 0.010785
# 5 -0.002026 0.009541 -0.002848 0.000000 0.037891 0.000000
# 6 0.000000 0.000000 0.000000 0.010785 0.000000 0.046158
#
#
# Mechanical properties :
#
#
# Convention : Reuss Voigt Hill
#
# Bulk Modulus (GPa) = 22.58120 36.59945 29.59032
# Shear Modulus (GPa) = 23.84744 29.90271 26.87507
#
# Velocity S-wave (km/s) = 3.27578 3.66816 3.47751
# Velocity P-wave (km/s) = 4.94657 5.86595 5.42577
#
# Compressibility (1/GPa) = 0.04428463
#
# Stress axis : x y z
#
# Youngs Moduli (GPa) = 96.95618 26.16490 67.54212
#
# Poissons Ratio (x) = 0.15357 0.25887
# Poissons Ratio (y) = 0.56908 -0.01183
# Poissons Ratio (z) = 0.37161 -0.00458
#
# Static dielectric constant tensor:
#      x y z
#    x 4.065250 0.000000 0.152460 
#    y 0.000000 3.692140 0.000000 
#    z 0.152460 0.000000 4.175520 
# 
# 
# High freq. dielectric constant tensor:
#      x y z
#    x 1.887170 0.000000 0.005600 
#    y 0.000000 1.856110 0.000000 
#    z 0.005600 0.000000 1.884080 
# 
# From -- ./inp_files/291619.got.cif
#   From: 2010.06.25/outbox.cif.g09.slc.cpg/sg15_146_cif.got.tgz:291619.got - 2010.06.28 07:06:18.
