data_PCOD8146568
_publ_section_title
;
Structure prediction by ZEFSAII (Michael W. Deem and Ramdas Pophale) SiO2 
 PCOD8146568
Probable space group: C 2/C
;
_chemical_formula_sum "Si O2"
_cell_formula_units_Z 40
_cell_length_a 17.919964
_cell_length_b 11.747098
_cell_length_c 16.274650
_cell_angle_alpha 90.000000
_cell_angle_beta 32.285556
_cell_angle_gamma 90.000000
_cell_volume 1829.927447
_symmetry_space_group_name_H-M "C 2/C"
_symmetry_group_IT_number 15
_symmetry_cell_setting 'monoclinic'
loop_
_space_group_symop_operation_xyz
x,y,z
-x,y,1/2-z
-x,-y,-z
x,-y,1/2+z
1/2+x,1/2+y,z
1/2-x,1/2+y,1/2-z
1/2-x,1/2-y,-z
1/2+x,1/2-y,1/2+z
loop_
_atom_site_type_symbol
_atom_site_label
_atom_site_fract_x
_atom_site_fract_y
_atom_site_fract_z
Si Si1 0.253912 0.507660 0.117192
Si Si2 0.468479 0.062146 0.444945
Si Si3 0.147357 0.391138 0.066688
Si Si4 0.328031 0.275207 0.097334
Si Si5 0.385450 0.702451 0.081866
O O1 0.264333 0.449094 0.017019
O O2 0.253166 0.397408 0.177219
O O3 0.380794 0.593605 0.023882
O O4 0.109717 0.576240 0.260056
O O5 0.394976 0.184293 0.518859
O O6 0.500000 0.000000 0.500000
O O7 0.362736 0.981145 0.496727
O O8 0.000000 0.369164 0.250000
O O9 0.192809 0.274458 0.976577
O O10 0.257421 0.195184 0.231877
O O11 0.489772 0.295631 0.968165
#
# Coordination Sequence:
#
# PCOD8146568 Si02
#       5
#     8   8   8   8   8
#     4  11  23  39  62 100 130 167 217 277 323 377
#     4  11  19  41  66  90 125 181 217 255 326 403
#     4  10  22  41  68  95 132 172 212 265 333 395
#     4  12  23  41  69  96 132 170 222 267 322 393
#     4  12  23  40  70  95 128 172 223 268 317 390
#
# _framework density 21.858789999999999
#
# number of rings (size 3 to 8) (size 9 to 14) (size 15 to 20)
#    0.000    0.800    6.000    2.400    0.000    0.800 
#    0.000    0.000    0.000    0.000    0.000    0.000 
#    0.000    0.000    0.000    0.000    0.000    0.000 
#
# Total GULP energy -247862.967581 kJ/mol
# GULP energy per Si atom -12393.148379 kJ/mol
# Density = 2.180904 g / cm^3
# Si number density = 21.858790 Si / 1000 Ang^3
#
#
#
# Elastic Constant Matrix: (Units=GPa)
#
#
# Indices 1 2 3 4 5 6 
#
# 1 97.3864 47.4241 27.3792 0.0001 6.7684 -0.0001
# 2 47.4241 139.6368 48.0747 0.0001 16.3880 -0.0001
# 3 27.3792 48.0747 68.8667 0.0002 5.5107 -0.0002
# 4 0.0001 0.0001 0.0002 33.5556 -0.0001 4.2804
# 5 6.7684 16.3880 5.5107 -0.0001 20.6902 0.0001
# 6 -0.0001 -0.0001 -0.0002 4.2804 0.0001 41.9993
#
#
#
# Elastic Compliance Matrix: (Units=1/GPa)
#
#
# Indices 1 2 3 4 5 6 
#
# 1 0.012680 -0.003286 -0.002681 0.000000 -0.000831 0.000000
# 2 -0.003286 0.011023 -0.005902 0.000000 -0.006084 0.000000
# 3 -0.002681 -0.005902 0.019682 0.000000 0.000310 0.000000
# 4 0.000000 0.000000 0.000000 0.030194 0.000000 -0.003077
# 5 -0.000831 -0.006084 0.000310 0.000000 0.053341 0.000000
# 6 0.000000 0.000000 0.000000 -0.003077 0.000000 0.024124
#
#
# Mechanical properties :
#
#
# Convention : Reuss Voigt Hill
#
# Bulk Modulus (GPa) = 50.89604 61.29397 56.09500
# Shear Modulus (GPa) = 27.57397 31.44981 29.51189
#
# Velocity S-wave (km/s) = 3.55556 3.79723 3.67838
# Velocity P-wave (km/s) = 6.33960 6.87946 6.61504
#
# Compressibility (1/GPa) = 0.01964790
#
# Stress axis : x y z
#
# Youngs Moduli (GPa) = 78.86460 90.71545 50.80790
#
# Poissons Ratio (x) = 0.29808 0.13620
# Poissons Ratio (y) = 0.25914 0.29987
# Poissons Ratio (z) = 0.21142 0.53541
#
# Static dielectric constant tensor:
#      x y z
#    x 4.188080 0.000000 0.162750 
#    y 0.000000 4.305900 0.000000 
#    z 0.162750 0.000000 3.580930 
# 
# 
# High freq. dielectric constant tensor:
#      x y z
#    x 1.862970 0.000000 0.007140 
#    y 0.000000 1.872670 0.000000 
#    z 0.007140 0.000000 1.828160 
# 
# From -- ./inp_files/110745.got.cif
#   From: 2010.06.25/outbox.cif.g09.slc.cpg/sg15_56_cif.got.tgz:110745.got - 2010.06.28 07:06:18.
