data_PCOD8146927
_publ_section_title
;
Structure prediction by ZEFSAII (Michael W. Deem and Ramdas Pophale) SiO2 
 PCOD8146927
Probable space group: C 2/C
;
_chemical_formula_sum "Si O2"
_cell_formula_units_Z 36
_cell_length_a 20.072947
_cell_length_b 8.389975
_cell_length_c 9.416724
_cell_angle_alpha 90.000000
_cell_angle_beta 85.136383
_cell_angle_gamma 90.000000
_cell_volume 1580.174596
_symmetry_space_group_name_H-M "C 2/C"
_symmetry_group_IT_number 15
_symmetry_cell_setting 'monoclinic'
loop_
_space_group_symop_operation_xyz
x,y,z
-x,y,1/2-z
-x,-y,-z
x,-y,1/2+z
1/2+x,1/2+y,z
1/2-x,1/2+y,1/2-z
1/2-x,1/2-y,-z
1/2+x,1/2-y,1/2+z
loop_
_atom_site_type_symbol
_atom_site_label
_atom_site_fract_x
_atom_site_fract_y
_atom_site_fract_z
Si Si1 0.360735 0.117438 0.345369
Si Si2 0.500000 0.139405 0.250000
Si Si3 0.358186 0.477703 0.355547
Si Si4 0.219611 0.399591 0.924634
Si Si5 0.060919 0.908961 0.420819
O O1 0.436333 0.040082 0.322377
O O2 0.367857 0.295365 0.408685
O O3 0.331046 0.143678 0.192263
O O4 0.315732 0.010148 0.452737
O O5 0.533625 0.242054 0.369764
O O6 0.280147 0.505310 0.338051
O O7 0.405055 0.509964 0.211797
O O8 0.381597 0.606294 0.469908
O O9 0.250000 0.250000 0.000000
O O10 0.000000 0.000000 0.500000
#
# Coordination Sequence:
#
# PCOD8146927 Si02
#       5
#     8   4   8   8   8
#     4  11  24  43  67  91 134 172 218 274 323 391
#     4  10  22  42  66  98 136 168 222 268 334 394
#     4  11  23  40  68  96 130 167 219 272 327 385
#     4  12  25  44  65  96 132 173 221 267 330 391
#     4  11  18  37  65  99 127 162 213 267 323 388
#
# _framework density 22.782292000000002
#
# number of rings (size 3 to 8) (size 9 to 14) (size 15 to 20)
#    0.000    0.889    4.444    6.000    0.000    2.667 
#    0.000    0.000    0.000    0.000    0.000    0.000 
#    0.000    0.000    0.000    0.000    0.000    0.000 
#
# Total GULP energy -223091.625392 kJ/mol
# GULP energy per Si atom -12393.979188 kJ/mol
# Density = 2.273044 g / cm^3
# Si number density = 22.782292 Si / 1000 Ang^3
#
#
#
# Elastic Constant Matrix: (Units=GPa)
#
#
# Indices 1 2 3 4 5 6 
#
# 1 182.2125 39.2805 56.3804 0.0000 -20.7314 0.0000
# 2 39.2805 50.3598 30.6828 0.0000 -17.1823 0.0000
# 3 56.3804 30.6828 133.0740 0.0000 -6.6640 0.0000
# 4 0.0000 0.0000 0.0000 23.8294 0.0000 -2.0602
# 5 -20.7314 -17.1823 -6.6640 0.0000 57.6833 0.0000
# 6 0.0000 0.0000 0.0000 -2.0602 0.0000 32.5622
#
#
#
# Elastic Compliance Matrix: (Units=1/GPa)
#
#
# Indices 1 2 3 4 5 6 
#
# 1 0.007092 -0.003889 -0.002050 0.000000 0.001154 0.000000
# 2 -0.003889 0.027763 -0.004435 0.000000 0.006360 0.000000
# 3 -0.002050 -0.004435 0.009357 0.000000 -0.000977 0.000000
# 4 0.000000 0.000000 0.000000 0.042196 0.000000 0.002670
# 5 0.001154 0.006360 -0.000977 0.000000 0.019532 0.000000
# 6 0.000000 0.000000 0.000000 0.002670 0.000000 0.030879
#
#
# Mechanical properties :
#
#
# Convention : Reuss Voigt Hill
#
# Bulk Modulus (GPa) = 42.62055 68.70374 55.66215
# Shear Modulus (GPa) = 30.23184 38.76850 34.50017
#
# Velocity S-wave (km/s) = 3.64674 4.12964 3.89568
# Velocity P-wave (km/s) = 6.03986 7.27741 6.68732
#
# Compressibility (1/GPa) = 0.02346286
#
# Stress axis : x y z
#
# Youngs Moduli (GPa) = 141.00111 36.01975 106.87247
#
# Poissons Ratio (x) = 0.14008 0.21912
# Poissons Ratio (y) = 0.54836 0.47398
# Poissons Ratio (z) = 0.28910 0.15975
#
# Static dielectric constant tensor:
#      x y z
#    x 5.031320 0.000000 -0.037270 
#    y 0.000000 3.766170 0.000000 
#    z -0.037270 0.000000 4.400870 
# 
# 
# High freq. dielectric constant tensor:
#      x y z
#    x 1.943850 0.000000 -0.008150 
#    y 0.000000 1.859370 0.000000 
#    z -0.008150 0.000000 1.900890 
# 
# From -- ./inp_files/53610.got.cif
#   From: 2010.06.25/outbox.cif.g09.slc.cpg/sg15_27_cif.got.tgz:53610.got - 2010.06.28 07:06:18.
