data_PCOD8146109
_publ_section_title
;
Structure prediction by ZEFSAII (Michael W. Deem and Ramdas Pophale) SiO2 
 PCOD8146109
Probable space group: C 2/C
;
_chemical_formula_sum "Si O2"
_cell_formula_units_Z 52
_cell_length_a 14.407844
_cell_length_b 19.558993
_cell_length_c 8.433690
_cell_angle_alpha 90.000000
_cell_angle_beta 91.461916
_cell_angle_gamma 90.000000
_cell_volume 2375.864881
_symmetry_space_group_name_H-M "C 2/C"
_symmetry_group_IT_number 15
_symmetry_cell_setting 'monoclinic'
loop_
_space_group_symop_operation_xyz
x,y,z
-x,y,1/2-z
-x,-y,-z
x,-y,1/2+z
1/2+x,1/2+y,z
1/2-x,1/2+y,1/2-z
1/2-x,1/2-y,-z
1/2+x,1/2-y,1/2+z
loop_
_atom_site_type_symbol
_atom_site_label
_atom_site_fract_x
_atom_site_fract_y
_atom_site_fract_z
Si Si1 0.901270 0.900630 0.723715
Si Si2 0.306664 0.934766 0.369795
Si Si3 0.893079 0.440631 0.703621
Si Si4 0.500000 0.396958 0.250000
Si Si5 0.384545 0.485943 0.014116
Si Si6 0.805644 0.825454 0.317724
Si Si7 0.730712 0.173765 0.169919
O O1 0.821253 0.849039 0.776995
O O2 0.000000 0.862701 0.750000
O O3 0.891726 0.931912 0.545528
O O4 0.895271 0.970910 0.827901
O O5 0.379283 0.922208 0.516889
O O6 0.217926 0.968480 0.441614
O O7 0.272977 0.864527 0.287348
O O8 0.349909 0.985001 0.239918
O O9 0.848994 0.382438 0.813380
O O10 0.000000 0.442776 0.750000
O O11 0.467559 0.443703 0.100952
O O12 0.411242 0.350889 0.297272
O O13 0.771059 0.826499 0.495642
O O14 0.805201 0.745825 0.266404
#
# Coordination Sequence:
#
# PCOD8146109 Si02
#       7
#     8   8   8   4   8   8   8
#     4  12  23  36  62  96 131 164 211 264 327 398
#     4  11  22  43  65  96 130 169 221 278 332 385
#     4  12  25  43  71  99 127 179 226 281 330 397
#     4  10  22  40  66  98 126 172 222 260 332 394
#     4  11  21  36  60  96 126 161 202 266 328 371
#     4  10  25  44  68  92 138 179 216 277 328 400
#     4  11  24  45  64  98 135 179 217 271 337 386
#
# _framework density 21.886765
#
# number of rings (size 3 to 8) (size 9 to 14) (size 15 to 20)
#    0.000    0.923    3.846    2.769    5.385    0.615 
#    0.000    3.846    0.000    0.000    0.000    0.000 
#    0.000    0.000    0.000    0.000    0.000    0.000 
#
# Total GULP energy -322240.035177 kJ/mol
# GULP energy per Si atom -12393.847507 kJ/mol
# Density = 2.183695 g / cm^3
# Si number density = 21.886765 Si / 1000 Ang^3
#
#
#
# Elastic Constant Matrix: (Units=GPa)
#
#
# Indices 1 2 3 4 5 6 
#
# 1 116.0086 55.9201 16.2761 0.0000 11.5618 0.0000
# 2 55.9201 126.8838 35.8775 0.0000 3.6152 0.0000
# 3 16.2761 35.8775 61.1110 0.0000 7.8412 0.0000
# 4 0.0000 0.0000 0.0000 23.1181 0.0000 -0.3620
# 5 11.5618 3.6152 7.8412 0.0000 34.2754 0.0000
# 6 0.0000 0.0000 0.0000 -0.3620 0.0000 31.4735
#
#
#
# Elastic Compliance Matrix: (Units=1/GPa)
#
#
# Indices 1 2 3 4 5 6 
#
# 1 0.011311 -0.004987 0.000348 0.000000 -0.003369 0.000000
# 2 -0.004987 0.011652 -0.005739 0.000000 0.001766 0.000000
# 3 0.000348 -0.005739 0.020170 0.000000 -0.004126 0.000000
# 4 0.000000 0.000000 0.000000 0.043264 0.000000 0.000498
# 5 -0.003369 0.001766 -0.004126 0.000000 0.031070 0.000000
# 6 0.000000 0.000000 0.000000 0.000498 0.000000 0.031779
#
#
# Mechanical properties :
#
#
# Convention : Reuss Voigt Hill
#
# Bulk Modulus (GPa) = 44.69171 57.79453 51.24312
# Shear Modulus (GPa) = 28.17539 30.83538 29.50538
#
# Velocity S-wave (km/s) = 3.59182 3.75755 3.67562
# Velocity P-wave (km/s) = 6.13722 6.72971 6.44028
#
# Compressibility (1/GPa) = 0.02237551
#
# Stress axis : x y z
#
# Youngs Moduli (GPa) = 88.40880 85.82492 49.57926
#
# Poissons Ratio (x) = 0.42804 -0.01724
# Poissons Ratio (y) = 0.44093 0.28453
# Poissons Ratio (z) = -0.03074 0.49254
#
# Static dielectric constant tensor:
#      x y z
#    x 4.349510 0.000000 0.103990 
#    y 0.000000 4.104060 0.000000 
#    z 0.103990 0.000000 4.306930 
# 
# 
# High freq. dielectric constant tensor:
#      x y z
#    x 1.877760 0.000000 -0.005620 
#    y 0.000000 1.840510 0.000000 
#    z -0.005620 0.000000 1.871650 
# 
# From -- ./inp_files/40828.got.cif
#   From: 2010.06.25/outbox.cif.g09.slc.cpg/sg15_21_cif.got.tgz:40828.got - 2010.06.28 07:06:18.
