data_PCOD8146982
_publ_section_title
;
Structure prediction by ZEFSAII (Michael W. Deem and Ramdas Pophale) SiO2 
 PCOD8146982
Probable space group: C 2/C
;
_chemical_formula_sum "Si O2"
_cell_formula_units_Z 60
_cell_length_a 11.580711
_cell_length_b 8.416317
_cell_length_c 29.171145
_cell_angle_alpha 90.000000
_cell_angle_beta 95.434287
_cell_angle_gamma 90.000000
_cell_volume 2830.443142
_symmetry_space_group_name_H-M "C 2/C"
_symmetry_group_IT_number 15
_symmetry_cell_setting 'monoclinic'
loop_
_space_group_symop_operation_xyz
x,y,z
-x,y,1/2-z
-x,-y,-z
x,-y,1/2+z
1/2+x,1/2+y,z
1/2-x,1/2+y,1/2-z
1/2-x,1/2-y,-z
1/2+x,1/2-y,1/2+z
loop_
_atom_site_type_symbol
_atom_site_label
_atom_site_fract_x
_atom_site_fract_y
_atom_site_fract_z
Si Si1 0.613700 0.011812 0.681026
Si Si2 0.881226 0.547163 0.630525
Si Si3 0.000000 0.323237 0.750000
Si Si4 0.949838 0.102504 0.578842
Si Si5 0.671747 0.755556 0.611962
Si Si6 0.841703 0.207564 0.666711
Si Si7 0.406175 0.068225 0.031492
Si Si8 0.767745 0.905986 0.530120
O O1 0.496329 0.103252 0.661870
O O2 0.723395 0.127696 0.681175
O O3 0.597648 0.940050 0.731355
O O4 0.610866 0.854757 0.649262
O O5 0.791268 0.687964 0.635306
O O6 0.823424 0.387362 0.648800
O O7 0.908133 0.536674 0.577671
O O8 0.064105 0.208786 0.788827
O O9 0.884588 0.104480 0.625273
O O10 0.922651 0.250414 0.545124
O O11 0.088242 0.108275 0.592882
O O12 0.901420 0.947427 0.549703
O O13 0.689893 0.881727 0.572166
O O14 0.500000 0.000000 0.000000
O O15 0.281956 0.051891 0.001493
O O16 0.750000 0.750000 0.500000
#
# Coordination Sequence:
#
# PCOD8146982 Si02
#       8
#     8   8   4   8   8   8   8   8
#     4  11  22  45  71  92 132 167 206 269 330 394
#     4  10  23  41  63  94 128 173 218 260 324 383
#     4  10  22  42  68 104 122 156 216 264 326 406
#     4  11  23  41  65  90 129 184 216 265 339 382
#     4  12  22  42  66  93 133 173 216 273 323 382
#     4  10  22  44  69  94 129 171 209 264 335 394
#     4  11  20  40  60  87 128 173 227 272 310 376
#     4  12  24  39  59  96 132 172 230 272 313 380
#
# _framework density 21.198094000000001
#
# number of rings (size 3 to 8) (size 9 to 14) (size 15 to 20)
#    0.000    1.067    8.000    0.400    0.000    3.733 
#    0.000    0.000    0.000    0.000    0.000    0.000 
#    0.000    0.000    0.000    0.000    0.000    0.000 
#
# Total GULP energy -371816.813285 kJ/mol
# GULP energy per Si atom -12393.893776 kJ/mol
# Density = 2.114985 g / cm^3
# Si number density = 21.198094 Si / 1000 Ang^3
#
#
#
# Elastic Constant Matrix: (Units=GPa)
#
#
# Indices 1 2 3 4 5 6 
#
# 1 121.1195 44.2528 42.7145 0.0000 17.2117 0.0000
# 2 44.2528 62.2237 40.2872 0.0000 9.7429 0.0000
# 3 42.7145 40.2872 108.8668 0.0000 10.3370 0.0000
# 4 0.0000 0.0000 0.0000 26.0514 0.0000 6.6233
# 5 17.2117 9.7429 10.3370 0.0000 33.3203 0.0000
# 6 0.0000 0.0000 0.0000 6.6233 0.0000 47.0493
#
#
#
# Elastic Compliance Matrix: (Units=1/GPa)
#
#
# Indices 1 2 3 4 5 6 
#
# 1 0.011856 -0.006678 -0.001839 0.000000 -0.003601 0.000000
# 2 -0.006678 0.025391 -0.006593 0.000000 -0.001930 0.000000
# 3 -0.001839 -0.006593 0.012440 0.000000 -0.000982 0.000000
# 4 0.000000 0.000000 0.000000 0.039810 0.000000 -0.005604
# 5 -0.003601 -0.001930 -0.000982 0.000000 0.032741 0.000000
# 6 0.000000 0.000000 0.000000 -0.005604 0.000000 0.022043
#
#
# Mechanical properties :
#
#
# Convention : Reuss Voigt Hill
#
# Bulk Modulus (GPa) = 51.36512 60.74657 56.05584
# Shear Modulus (GPa) = 27.62584 32.28123 29.95354
#
# Velocity S-wave (km/s) = 3.61393 3.90659 3.76311
# Velocity P-wave (km/s) = 6.45737 7.00481 6.73665
#
# Compressibility (1/GPa) = 0.01946847
#
# Stress axis : x y z
#
# Youngs Moduli (GPa) = 84.34295 39.38421 80.38594
#
# Poissons Ratio (x) = 0.26299 0.14782
# Poissons Ratio (y) = 0.56321 0.52998
# Poissons Ratio (z) = 0.15509 0.25966
#
# Static dielectric constant tensor:
#      x y z
#    x 4.186290 0.000000 0.486600 
#    y 0.000000 4.094850 0.000000 
#    z 0.486600 0.000000 4.871010 
# 
# 
# High freq. dielectric constant tensor:
#      x y z
#    x 1.835280 0.000000 0.001140 
#    y 0.000000 1.804070 0.000000 
#    z 0.001140 0.000000 1.843440 
# 
# From -- ./inp_files/310012.got.cif
#   From: 2010.06.25/outbox.cif.g09.slc.cpg/sg15_156_cif.got.tgz:310012.got - 2010.06.28 07:06:18.
