data_PCOD8146257
_publ_section_title
;
Structure prediction by ZEFSAII (Michael W. Deem and Ramdas Pophale) SiO2 
 PCOD8146257
Probable space group: C 2/C
;
_chemical_formula_sum "Si O2"
_cell_formula_units_Z 56
_cell_length_a 32.068369
_cell_length_b 10.670585
_cell_length_c 16.063501
_cell_angle_alpha 90.000000
_cell_angle_beta 27.629245
_cell_angle_gamma 90.000000
_cell_volume 2549.104552
_symmetry_space_group_name_H-M "C 2/C"
_symmetry_group_IT_number 15
_symmetry_cell_setting 'monoclinic'
loop_
_space_group_symop_operation_xyz
x,y,z
-x,y,1/2-z
-x,-y,-z
x,-y,1/2+z
1/2+x,1/2+y,z
1/2-x,1/2+y,1/2-z
1/2-x,1/2-y,-z
1/2+x,1/2-y,1/2+z
loop_
_atom_site_type_symbol
_atom_site_label
_atom_site_fract_x
_atom_site_fract_y
_atom_site_fract_z
Si Si1 0.205499 0.141262 0.524604
Si Si2 0.752661 0.800625 0.296634
Si Si3 0.782982 0.473536 0.515746
Si Si4 0.538864 0.295746 0.595745
Si Si5 0.051300 0.390829 0.362720
Si Si6 0.990554 0.050153 0.609699
Si Si7 0.347431 0.272550 0.684100
O O1 0.250000 0.250000 0.500000
O O2 0.234151 0.169329 0.378662
O O3 0.097534 0.136087 0.723313
O O4 0.243124 0.011149 0.495146
O O5 0.688430 0.806333 0.330550
O O6 0.728765 0.917941 0.396226
O O7 0.854687 0.810821 0.086515
O O8 0.888596 0.447494 0.318050
O O9 0.734756 0.348471 0.630942
O O10 0.500000 0.238233 0.750000
O O11 0.519313 0.205646 0.552133
O O12 0.489590 0.429520 0.671127
O O13 0.116022 0.322203 0.312544
O O14 0.000000 0.500000 0.500000
O O15 0.075047 0.134785 0.484587
O O16 0.000000 0.000000 0.500000
#
# Coordination Sequence:
#
# PCOD8146257 Si02
#       7
#     8   8   8   8   8   8   8
#     4  10  22  40  72 100 141 186 233 291 351 412
#     4  11  26  45  71 106 144 184 242 294 352 422
#     4  11  23  46  70 104 143 188 235 289 355 424
#     4  12  26  48  72 105 143 190 236 294 356 423
#     4  12  28  46  73 104 145 189 233 292 364 421
#     4  12  22  45  75 105 141 186 243 295 345 433
#     4  12  26  45  74 106 144 184 241 294 357 421
#
# _framework density 21.968499000000001
#
# number of rings (size 3 to 8) (size 9 to 14) (size 15 to 20)
#    0.000    0.571    4.286    3.000    6.000    4.571 
#    0.000    0.000    0.000    0.000    0.000    0.000 
#    0.000    0.000    0.000    0.000    0.000    0.000 
#
# Total GULP energy -347309.124271 kJ/mol
# GULP energy per Si atom -12403.897295 kJ/mol
# Density = 2.191850 g / cm^3
# Si number density = 21.968499 Si / 1000 Ang^3
#
#
#
# Elastic Constant Matrix: (Units=GPa)
#
#
# Indices 1 2 3 4 5 6 
#
# 1 131.2798 45.6595 33.0695 0.0000 -3.5156 0.0000
# 2 45.6595 105.7399 57.1982 0.0000 -0.5269 0.0000
# 3 33.0695 57.1982 131.6994 0.0000 -11.7454 0.0000
# 4 0.0000 0.0000 0.0000 43.2154 0.0000 -4.9600
# 5 -3.5156 -0.5269 -11.7454 0.0000 36.7351 0.0000
# 6 0.0000 0.0000 0.0000 -4.9600 0.0000 26.2076
#
#
#
# Elastic Compliance Matrix: (Units=1/GPa)
#
#
# Indices 1 2 3 4 5 6 
#
# 1 0.009032 -0.003528 -0.000683 0.000000 0.000596 0.000000
# 2 -0.003528 0.013829 -0.005283 0.000000 -0.001829 0.000000
# 3 -0.000683 -0.005283 0.010341 0.000000 0.003165 0.000000
# 4 0.000000 0.000000 0.000000 0.023654 0.000000 0.004477
# 5 0.000596 -0.001829 0.003165 0.000000 0.028265 0.000000
# 6 0.000000 0.000000 0.000000 0.004477 0.000000 0.039004
#
#
# Mechanical properties :
#
#
# Convention : Reuss Voigt Hill
#
# Bulk Modulus (GPa) = 70.34839 71.17483 70.76161
# Shear Modulus (GPa) = 33.81756 36.75109 35.28432
#
# Velocity S-wave (km/s) = 3.92773 4.09455 4.01201
# Velocity P-wave (km/s) = 7.25681 7.40423 7.33089
#
# Compressibility (1/GPa) = 0.01421497
#
# Stress axis : x y z
#
# Youngs Moduli (GPa) = 110.71410 72.30929 96.69865
#
# Poissons Ratio (x) = 0.25511 0.06601
# Poissons Ratio (y) = 0.39060 0.51090
# Poissons Ratio (z) = 0.07558 0.38204
#
# Static dielectric constant tensor:
#      x y z
#    x 4.211300 0.000000 0.004180 
#    y 0.000000 4.171540 0.000000 
#    z 0.004180 0.000000 4.281310 
# 
# 
# High freq. dielectric constant tensor:
#      x y z
#    x 1.867570 0.000000 -0.003080 
#    y 0.000000 1.865300 0.000000 
#    z -0.003080 0.000000 1.874160 
# 
# From -- ./inp_files/181905.got.cif
#   From: 2010.06.25/outbox.cif.g09.slc.cpg/sg15_91_cif.got.tgz:181905.got - 2010.06.28 07:06:18.
