data_PCOD8146584
_publ_section_title
;
Structure prediction by ZEFSAII (Michael W. Deem and Ramdas Pophale) SiO2 
 PCOD8146584
Probable space group: C 2/C
;
_chemical_formula_sum "Si O2"
_cell_formula_units_Z 40
_cell_length_a 24.552819
_cell_length_b 12.419117
_cell_length_c 11.002736
_cell_angle_alpha 90.000000
_cell_angle_beta 32.530347
_cell_angle_gamma 90.000000
_cell_volume 1804.139668
_symmetry_space_group_name_H-M "C 2/C"
_symmetry_group_IT_number 15
_symmetry_cell_setting 'monoclinic'
loop_
_space_group_symop_operation_xyz
x,y,z
-x,y,1/2-z
-x,-y,-z
x,-y,1/2+z
1/2+x,1/2+y,z
1/2-x,1/2+y,1/2-z
1/2-x,1/2-y,-z
1/2+x,1/2-y,1/2+z
loop_
_atom_site_type_symbol
_atom_site_label
_atom_site_fract_x
_atom_site_fract_y
_atom_site_fract_z
Si Si1 0.858533 0.344937 0.846327
Si Si2 0.302473 0.364165 0.550760
Si Si3 0.970474 0.287521 0.170651
Si Si4 0.908314 0.949685 0.743400
Si Si5 0.295384 0.929631 0.525411
O O1 0.752365 0.355207 0.975767
O O2 0.946922 0.319717 0.584649
O O3 0.859530 0.251925 0.949475
O O4 0.861512 0.459873 0.909259
O O5 0.378802 0.466384 0.406240
O O6 0.221983 0.382135 0.807686
O O7 0.948306 0.161044 0.223069
O O8 0.867461 0.345262 0.320841
O O9 0.000000 0.328513 0.250000
O O10 0.812038 0.933047 0.838210
O O11 0.000000 0.000000 0.500000
#
# Coordination Sequence:
#
# PCOD8146584 Si02
#       5
#     8   8   8   8   8
#     4  10  22  44  66  97 136 167 222 276 330 403
#     4  10  22  41  68  99 128 176 218 274 335 394
#     4  12  24  44  70  97 132 180 221 272 344 392
#     4  11  25  42  66  98 137 172 224 279 320 399
#     4  11  25  42  70  98 136 173 223 274 337 394
#
# _framework density 22.171232
#
# number of rings (size 3 to 8) (size 9 to 14) (size 15 to 20)
#    0.000    1.200    4.000    1.200    5.600    0.000 
#    0.000    0.000    0.000    0.000    0.000    0.000 
#    0.000    0.000    0.000    0.000    0.000    0.000 
#
# Total GULP energy -247878.387107 kJ/mol
# GULP energy per Si atom -12393.919355 kJ/mol
# Density = 2.212077 g / cm^3
# Si number density = 22.171232 Si / 1000 Ang^3
#
#
#
# Elastic Constant Matrix: (Units=GPa)
#
#
# Indices 1 2 3 4 5 6 
#
# 1 41.3291 22.2978 18.8166 0.0000 -1.7835 0.0000
# 2 22.2978 130.5616 87.5425 0.0000 12.2799 0.0000
# 3 18.8166 87.5425 160.1494 0.0000 3.3791 0.0000
# 4 0.0000 0.0000 0.0000 53.5651 0.0000 -0.5682
# 5 -1.7835 12.2799 3.3791 0.0000 38.3550 0.0000
# 6 0.0000 0.0000 0.0000 -0.5682 0.0000 22.3677
#
#
#
# Elastic Compliance Matrix: (Units=1/GPa)
#
#
# Indices 1 2 3 4 5 6 
#
# 1 0.027024 -0.004266 -0.000900 0.000000 0.002702 0.000000
# 2 -0.004266 0.013194 -0.006630 0.000000 -0.003839 0.000000
# 3 -0.000900 -0.006630 0.009949 0.000000 0.001204 0.000000
# 4 0.000000 0.000000 0.000000 0.018674 0.000000 0.000474
# 5 0.002702 -0.003839 0.001204 0.000000 0.027321 0.000000
# 6 0.000000 0.000000 0.000000 0.000474 0.000000 0.044719
#
#
# Mechanical properties :
#
#
# Convention : Reuss Voigt Hill
#
# Bulk Modulus (GPa) = 37.62995 65.48375 51.55685
# Shear Modulus (GPa) = 28.84637 36.41644 32.63140
#
# Velocity S-wave (km/s) = 3.61095 4.05718 3.84055
# Velocity P-wave (km/s) = 5.86469 7.17964 6.55522
#
# Compressibility (1/GPa) = 0.02657458
#
# Stress axis : x y z
#
# Youngs Moduli (GPa) = 37.00419 75.78974 100.51397
#
# Poissons Ratio (x) = 0.32329 0.09051
# Poissons Ratio (y) = 0.15784 0.66644
# Poissons Ratio (z) = 0.03332 0.50251
#
# Static dielectric constant tensor:
#      x y z
#    x 3.607150 0.000000 -0.192180 
#    y 0.000000 4.783440 0.000000 
#    z -0.192180 0.000000 4.136890 
# 
# 
# High freq. dielectric constant tensor:
#      x y z
#    x 1.835330 0.000000 -0.006190 
#    y 0.000000 1.898000 0.000000 
#    z -0.006190 0.000000 1.889730 
# 
# From -- ./inp_files/94535.got.cif
#   From: 2010.06.25/outbox.cif.g09.slc.cpg/sg15_48_cif.got.tgz:94535.got - 2010.06.28 07:06:18.
