data_PCOD8146075
_publ_section_title
;
Structure prediction by ZEFSAII (Michael W. Deem and Ramdas Pophale) SiO2 
 PCOD8146075
Probable space group: C 2/C
;
_chemical_formula_sum "Si O2"
_cell_formula_units_Z 36
_cell_length_a 12.829944
_cell_length_b 8.305573
_cell_length_c 14.354528
_cell_angle_alpha 90.000000
_cell_angle_beta 102.644774
_cell_angle_gamma 90.000000
_cell_volume 1492.519640
_symmetry_space_group_name_H-M "C 2/C"
_symmetry_group_IT_number 15
_symmetry_cell_setting 'monoclinic'
loop_
_space_group_symop_operation_xyz
x,y,z
-x,y,1/2-z
-x,-y,-z
x,-y,1/2+z
1/2+x,1/2+y,z
1/2-x,1/2+y,1/2-z
1/2-x,1/2-y,-z
1/2+x,1/2-y,1/2+z
loop_
_atom_site_type_symbol
_atom_site_label
_atom_site_fract_x
_atom_site_fract_y
_atom_site_fract_z
Si Si1 0.292643 0.442114 0.168512
Si Si2 0.581455 0.894493 0.572664
Si Si3 0.000000 0.574247 0.250000
Si Si4 0.723867 0.934917 0.839846
Si Si5 0.613288 0.563621 0.489205
O O1 0.174842 0.480956 0.110635
O O2 0.309771 0.251494 0.172298
O O3 0.306563 0.511907 0.275476
O O4 0.378936 0.531943 0.119760
O O5 0.533705 0.827447 0.662190
O O6 0.624288 0.750043 0.517474
O O7 0.500000 0.000000 0.500000
O O8 0.107629 0.474118 0.303170
O O9 0.784169 0.970558 0.947535
O O10 0.500000 0.500000 0.500000
#
# Coordination Sequence:
#
# PCOD8146075 Si02
#       5
#     8   8   4   8   8
#     4  11  24  41  66  96 131 175 223 280 338 405
#     4  11  23  41  65  97 132 175 223 277 337 404
#     4  10  22  40  66  90 128 172 214 278 334 388
#     4  11  23  43  65  96 131 174 225 277 340 403
#     4  12  25  42  67  97 133 177 223 278 338 408
#
# _framework density 24.120284999999999
#
# number of rings (size 3 to 8) (size 9 to 14) (size 15 to 20)
#    0.000    0.889    0.000    8.000    0.000    4.444 
#    0.000    0.000    0.000    1.333    0.000    0.000 
#    0.000    0.000    0.000    0.000    0.000    0.000 
#
# Total GULP energy -223052.443133 kJ/mol
# GULP energy per Si atom -12391.802396 kJ/mol
# Density = 2.406539 g / cm^3
# Si number density = 24.120285 Si / 1000 Ang^3
#
#
#
# Elastic Constant Matrix: (Units=GPa)
#
#
# Indices 1 2 3 4 5 6 
#
# 1 118.2663 4.7089 30.2853 0.0000 -5.8823 0.0000
# 2 4.7089 93.5939 30.1368 0.0000 -9.3619 0.0000
# 3 30.2853 30.1368 86.6743 0.0000 -27.0298 0.0000
# 4 0.0000 0.0000 0.0000 34.5400 0.0000 -0.9976
# 5 -5.8823 -9.3619 -27.0298 0.0000 57.5668 0.0000
# 6 0.0000 0.0000 0.0000 -0.9976 0.0000 23.5394
#
#
#
# Elastic Compliance Matrix: (Units=1/GPa)
#
#
# Indices 1 2 3 4 5 6 
#
# 1 0.009344 0.000655 -0.003704 0.000000 -0.000678 0.000000
# 2 0.000655 0.012077 -0.004446 0.000000 -0.000056 0.000000
# 3 -0.003704 -0.004446 0.016441 0.000000 0.006618 0.000000
# 4 0.000000 0.000000 0.000000 0.028987 0.000000 0.001228
# 5 -0.000678 -0.000056 0.006618 0.000000 0.020400 0.000000
# 6 0.000000 0.000000 0.000000 0.001228 0.000000 0.042534
#
#
# Mechanical properties :
#
#
# Convention : Reuss Voigt Hill
#
# Bulk Modulus (GPa) = 43.71962 47.64406 45.68184
# Shear Modulus (GPa) = 32.80859 38.68949 35.74904
#
# Velocity S-wave (km/s) = 3.69210 4.00937 3.85400
# Velocity P-wave (km/s) = 6.02831 6.42098 6.22774
#
# Compressibility (1/GPa) = 0.02287302
#
# Stress axis : x y z
#
# Youngs Moduli (GPa) = 107.01784 82.79951 60.82182
#
# Poissons Ratio (x) = -0.05421 0.22529
# Poissons Ratio (y) = -0.07007 0.27040
# Poissons Ratio (z) = 0.39640 0.36810
#
# Static dielectric constant tensor:
#      x y z
#    x 4.929180 0.000000 1.389470 
#    y 0.000000 4.045970 0.000000 
#    z 1.389470 0.000000 16.835440 
# 
# 
# High freq. dielectric constant tensor:
#      x y z
#    x 1.976630 0.000000 -0.006530 
#    y 0.000000 1.918510 0.000000 
#    z -0.006530 0.000000 1.981520 
# 
# From -- ./inp_files/150193.got.cif
#   From: 2010.06.25/outbox.cif.g09.slc.cpg/sg15_76_cif.got.tgz:150193.got - 2010.06.28 07:06:18.
