data_PCOD8146001
_publ_section_title
;
Structure prediction by ZEFSAII (Michael W. Deem and Ramdas Pophale) SiO2 
 PCOD8146001
Probable space group: C 2/C
;
_chemical_formula_sum "Si O2"
_cell_formula_units_Z 36
_cell_length_a 12.313258
_cell_length_b 8.383521
_cell_length_c 16.251594
_cell_angle_alpha 90.000000
_cell_angle_beta 94.450666
_cell_angle_gamma 90.000000
_cell_volume 1672.568123
_symmetry_space_group_name_H-M "C 2/C"
_symmetry_group_IT_number 15
_symmetry_cell_setting 'monoclinic'
loop_
_space_group_symop_operation_xyz
x,y,z
-x,y,1/2-z
-x,-y,-z
x,-y,1/2+z
1/2+x,1/2+y,z
1/2-x,1/2+y,1/2-z
1/2-x,1/2-y,-z
1/2+x,1/2-y,1/2+z
loop_
_atom_site_type_symbol
_atom_site_label
_atom_site_fract_x
_atom_site_fract_y
_atom_site_fract_z
Si Si1 0.052564 0.662825 0.100764
Si Si2 0.991679 0.304959 0.414636
Si Si3 0.330510 0.401740 0.804342
Si Si4 0.222179 0.698638 0.848196
Si Si5 0.000000 0.134473 0.750000
O O1 0.177858 0.717689 0.098655
O O2 0.048688 0.475452 0.121083
O O3 0.989761 0.756434 0.168593
O O4 0.989233 0.700242 0.012885
O O5 0.111559 0.263857 0.388806
O O6 0.910089 0.170606 0.377590
O O7 0.238087 0.506341 0.845091
O O8 0.278550 0.264926 0.745291
O O9 0.394033 0.523960 0.748598
#
# Coordination Sequence:
#
# PCOD8146001 Si02
#       5
#     8   8   8   8   4
#     4  10  25  42  66  95 129 165 221 257 326 372
#     4  11  23  46  64  93 131 171 204 278 312 377
#     4  11  23  40  67  97 128 169 220 254 328 371
#     4  11  23  40  66  96 126 171 213 263 312 392
#     4  10  22  40  64  96 124 172 206 270 306 390
#
# _framework density 21.523785
#
# number of rings (size 3 to 8) (size 9 to 14) (size 15 to 20)
#    0.000    1.333    2.222    2.000    9.333    3.556 
#    4.000    2.222    0.000    0.000    0.000    0.000 
#    0.000    0.000    0.000    0.000    0.000    0.000 
#
# Total GULP energy -223280.256998 kJ/mol
# GULP energy per Si atom -12404.458722 kJ/mol
# Density = 2.147480 g / cm^3
# Si number density = 21.523785 Si / 1000 Ang^3
#
#
#
# Elastic Constant Matrix: (Units=GPa)
#
#
# Indices 1 2 3 4 5 6 
#
# 1 34.4358 35.5110 21.7699 0.0000 12.3423 0.0000
# 2 35.5110 125.8846 59.8528 0.0000 10.5587 0.0000
# 3 21.7699 59.8528 98.7877 0.0000 7.9508 0.0000
# 4 0.0000 0.0000 0.0000 40.2145 0.0000 9.6870
# 5 12.3423 10.5587 7.9508 0.0000 27.4042 0.0000
# 6 0.0000 0.0000 0.0000 9.6870 0.0000 38.2913
#
#
#
# Elastic Compliance Matrix: (Units=1/GPa)
#
#
# Indices 1 2 3 4 5 6 
#
# 1 0.047846 -0.010853 -0.002632 0.000000 -0.016604 0.000000
# 2 -0.010853 0.013775 -0.006062 0.000000 0.001339 0.000000
# 3 -0.002632 -0.006062 0.014429 0.000000 -0.000665 0.000000
# 4 0.000000 0.000000 0.000000 0.026480 0.000000 -0.006699
# 5 -0.016604 0.001339 -0.000665 0.000000 0.043646 0.000000
# 6 0.000000 0.000000 0.000000 -0.006699 0.000000 0.027810
#
#
# Mechanical properties :
#
#
# Convention : Reuss Voigt Hill
#
# Bulk Modulus (GPa) = 27.05889 54.81950 40.93920
# Shear Modulus (GPa) = 22.18271 30.64696 26.41484
#
# Velocity S-wave (km/s) = 3.21380 3.77751 3.50700
# Velocity P-wave (km/s) = 5.13520 6.67463 5.95487
#
# Compressibility (1/GPa) = 0.03695643
#
# Stress axis : x y z
#
# Youngs Moduli (GPa) = 20.90020 72.59372 69.30394
#
# Poissons Ratio (x) = 0.78786 0.18241
# Poissons Ratio (y) = 0.22683 0.42013
# Poissons Ratio (z) = 0.05501 0.44008
#
# Static dielectric constant tensor:
#      x y z
#    x 3.794710 0.000000 0.012330 
#    y 0.000000 4.141230 0.000000 
#    z 0.012330 0.000000 3.756650 
# 
# 
# High freq. dielectric constant tensor:
#      x y z
#    x 1.842320 0.000000 0.006070 
#    y 0.000000 1.860340 0.000000 
#    z 0.006070 0.000000 1.840130 
# 
# From -- ./inp_files/150300.got.cif
#   From: 2010.06.25/outbox.cif.g09.slc.cpg/sg15_76_cif.got.tgz:150300.got - 2010.06.28 07:06:18.
