data_PCOD8146210
_publ_section_title
;
Structure prediction by ZEFSAII (Michael W. Deem and Ramdas Pophale) SiO2 
 PCOD8146210
Probable space group: C 2/C
;
_chemical_formula_sum "Si O2"
_cell_formula_units_Z 52
_cell_length_a 10.053535
_cell_length_b 15.254873
_cell_length_c 22.980885
_cell_angle_alpha 90.000000
_cell_angle_beta 134.052826
_cell_angle_gamma 90.000000
_cell_volume 2533.035041
_symmetry_space_group_name_H-M "C 2/C"
_symmetry_group_IT_number 15
_symmetry_cell_setting 'monoclinic'
loop_
_space_group_symop_operation_xyz
x,y,z
-x,y,1/2-z
-x,-y,-z
x,-y,1/2+z
1/2+x,1/2+y,z
1/2-x,1/2+y,1/2-z
1/2-x,1/2-y,-z
1/2+x,1/2-y,1/2+z
loop_
_atom_site_type_symbol
_atom_site_label
_atom_site_fract_x
_atom_site_fract_y
_atom_site_fract_z
Si Si1 0.994854 0.760036 0.468548
Si Si2 0.034963 0.483970 0.373198
Si Si3 0.322254 0.734491 0.354253
Si Si4 0.188721 0.074907 0.835060
Si Si5 0.760448 0.894109 0.019295
Si Si6 0.419883 0.204423 0.662213
Si Si7 0.000000 0.403285 0.750000
O O1 0.776995 0.748000 0.393539
O O2 0.039781 0.774926 0.549625
O O3 0.062135 0.842833 0.451296
O O4 0.087833 0.671657 0.473116
O O5 0.859325 0.480541 0.362378
O O6 0.974366 0.536687 0.298171
O O7 0.204873 0.529634 0.457956
O O8 0.104805 0.387490 0.378279
O O9 0.205096 0.823287 0.323155
O O10 0.441495 0.733050 0.331457
O O11 0.183040 0.654002 0.312261
O O12 0.000000 0.037738 0.750000
O O13 0.181849 0.062438 0.902314
O O14 0.500000 0.187567 0.750000
#
# Coordination Sequence:
#
# PCOD8146210 Si02
#       7
#     8   8   8   8   8   8   4
#     4  10  22  41  66  94 122 167 219 257 322 385
#     4  11  24  42  59  95 133 164 213 267 320 376
#     4  10  22  41  67  89 125 172 214 264 315 388
#     4  10  22  41  66  94 127 171 212 261 324 387
#     4  10  22  40  69  92 125 170 213 264 315 391
#     4  11  25  40  63  93 129 168 211 271 322 377
#     4  12  22  42  64  92 128 166 220 266 320 380
#
# _framework density 20.528732999999999
#
# number of rings (size 3 to 8) (size 9 to 14) (size 15 to 20)
#    0.000    1.538    3.077    0.923    6.462    0.615 
#    5.538    0.000    0.000    0.000    0.000    0.000 
#    0.000    0.000    0.000    0.000    0.000    0.000 
#
# Total GULP energy -322578.550856 kJ/mol
# GULP energy per Si atom -12406.867341 kJ/mol
# Density = 2.048201 g / cm^3
# Si number density = 20.528733 Si / 1000 Ang^3
#
#
#
# Elastic Constant Matrix: (Units=GPa)
#
#
# Indices 1 2 3 4 5 6 
#
# 1 89.7561 10.7388 32.1478 0.0000 -14.9200 0.0000
# 2 10.7388 47.3227 8.8583 0.0000 -4.8030 0.0000
# 3 32.1478 8.8583 103.8278 0.0000 -9.1743 0.0000
# 4 0.0000 0.0000 0.0000 47.6031 0.0000 -8.4935
# 5 -14.9200 -4.8030 -9.1743 0.0000 42.1631 0.0000
# 6 0.0000 0.0000 0.0000 -8.4935 0.0000 25.0003
#
#
#
# Elastic Compliance Matrix: (Units=1/GPa)
#
#
# Indices 1 2 3 4 5 6 
#
# 1 0.013286 -0.001963 -0.003620 0.000000 0.003690 0.000000
# 2 -0.001963 0.021946 -0.001127 0.000000 0.001560 0.000000
# 3 -0.003620 -0.001127 0.010934 0.000000 0.000970 0.000000
# 4 0.000000 0.000000 0.000000 0.022363 0.000000 0.007597
# 5 0.003690 0.001560 0.000970 0.000000 0.025412 0.000000
# 6 0.000000 0.000000 0.000000 0.007597 0.000000 0.042581
#
#
# Mechanical properties :
#
#
# Convention : Reuss Voigt Hill
#
# Bulk Modulus (GPa) = 30.53730 38.26628 34.40179
# Shear Modulus (GPa) = 31.08352 35.56408 33.32380
#
# Velocity S-wave (km/s) = 3.89543 4.16673 4.03336
# Velocity P-wave (km/s) = 5.92791 6.46759 6.20362
#
# Compressibility (1/GPa) = 0.03274684
#
# Stress axis : x y z
#
# Youngs Moduli (GPa) = 75.26604 45.56596 91.45726
#
# Poissons Ratio (x) = 0.08944 0.33110
# Poissons Ratio (y) = 0.14773 0.10305
# Poissons Ratio (z) = 0.27248 0.05134
#
# Static dielectric constant tensor:
#      x y z
#    x 3.825400 0.000000 -0.190540 
#    y 0.000000 3.583620 0.000000 
#    z -0.190540 0.000000 3.657320 
# 
# 
# High freq. dielectric constant tensor:
#      x y z
#    x 1.812380 0.000000 -0.010530 
#    y 0.000000 1.790230 0.000000 
#    z -0.010530 0.000000 1.809650 
# 
# From -- ./inp_files/182920.got.cif
#   From: 2010.06.25/outbox.cif.g09.slc.cpg/sg15_92_cif.got.tgz:182920.got - 2010.06.28 07:06:18.
