data_PCOD8146233
_publ_section_title
;
Structure prediction by ZEFSAII (Michael W. Deem and Ramdas Pophale) SiO2 
 PCOD8146233
Probable space group: C 2/C
;
_chemical_formula_sum "Si O2"
_cell_formula_units_Z 60
_cell_length_a 26.084747
_cell_length_b 8.215849
_cell_length_c 23.201758
_cell_angle_alpha 90.000000
_cell_angle_beta 148.850349
_cell_angle_gamma 90.000000
_cell_volume 2572.062918
_symmetry_space_group_name_H-M "C 2/C"
_symmetry_group_IT_number 15
_symmetry_cell_setting 'monoclinic'
loop_
_space_group_symop_operation_xyz
x,y,z
-x,y,1/2-z
-x,-y,-z
x,-y,1/2+z
1/2+x,1/2+y,z
1/2-x,1/2+y,1/2-z
1/2-x,1/2-y,-z
1/2+x,1/2-y,1/2+z
loop_
_atom_site_type_symbol
_atom_site_label
_atom_site_fract_x
_atom_site_fract_y
_atom_site_fract_z
Si Si1 0.188633 0.569717 0.730551
Si Si2 0.003218 0.438456 0.134878
Si Si3 0.482371 0.318786 0.116159
Si Si4 0.144712 0.982324 0.925524
Si Si5 0.695798 0.568433 0.852754
Si Si6 0.187644 0.772328 0.620664
Si Si7 0.197769 0.247588 0.572366
Si Si8 0.000000 0.287476 0.250000
O O1 0.090616 0.593388 0.674140
O O2 0.164816 0.623743 0.642355
O O3 0.229012 0.385453 0.770106
O O4 0.276364 0.681818 0.839666
O O5 0.974710 0.625549 0.107710
O O6 0.034047 0.398809 0.229629
O O7 0.912275 0.320661 0.030893
O O8 0.436602 0.391745 0.130112
O O9 0.592865 0.390213 0.220837
O O10 0.414041 0.369299 0.994618
O O11 0.095366 0.820739 0.853092
O O12 0.198741 0.079654 0.925493
O O13 0.211959 0.907962 0.042049
O O14 0.774295 0.697625 0.903618
O O15 0.721392 0.383423 0.863828
#
# Coordination Sequence:
#
# PCOD8146233 Si02
#       8
#     8   8   8   8   8   8   8   4
#     4  12  27  50  74 102 148 194 245 315 360 432
#     4  11  26  45  73 105 149 187 239 301 368 431
#     4  12  25  47  72 110 145 188 246 300 369 437
#     4  11  23  44  72 109 156 187 240 298 364 446
#     4  12  24  46  74 106 153 191 234 308 364 441
#     4  12  28  48  71 108 142 197 255 297 373 436
#     4  11  25  47  73 110 144 193 248 289 373 445
#     4  10  22  40  70 106 146 192 230 288 368 440
#
# _framework density 23.327577999999999
#
# number of rings (size 3 to 8) (size 9 to 14) (size 15 to 20)
#    0.000    0.533    5.333    2.000    3.733    3.200 
#    0.000    2.000    0.000    0.000    0.000    0.000 
#    0.000    0.000    0.000    0.000    0.000    0.000 
#
# Total GULP energy -371888.039271 kJ/mol
# GULP energy per Si atom -12396.267976 kJ/mol
# Density = 2.327448 g / cm^3
# Si number density = 23.327578 Si / 1000 Ang^3
#
#
#
# Elastic Constant Matrix: (Units=GPa)
#
#
# Indices 1 2 3 4 5 6 
#
# 1 110.5400 33.2217 44.0893 0.0000 9.0401 0.0000
# 2 33.2217 66.0839 30.8743 0.0000 15.3926 0.0000
# 3 44.0893 30.8743 109.5468 0.0000 3.5880 0.0000
# 4 0.0000 0.0000 0.0000 45.4766 0.0000 -1.3185
# 5 9.0401 15.3926 3.5880 0.0000 23.3273 0.0000
# 6 0.0000 0.0000 0.0000 -1.3185 0.0000 31.0240
#
#
#
# Elastic Compliance Matrix: (Units=1/GPa)
#
#
# Indices 1 2 3 4 5 6 
#
# 1 0.011769 -0.003906 -0.003589 0.000000 -0.001431 0.000000
# 2 -0.003906 0.021927 -0.004205 0.000000 -0.012308 0.000000
# 3 -0.003589 -0.004205 0.011680 0.000000 0.002369 0.000000
# 4 0.000000 0.000000 0.000000 0.022016 0.000000 0.000936
# 5 -0.001431 -0.012308 0.002369 0.000000 0.051180 0.000000
# 6 0.000000 0.000000 0.000000 0.000936 0.000000 0.032273
#
#
# Mechanical properties :
#
#
# Convention : Reuss Voigt Hill
#
# Bulk Modulus (GPa) = 45.50204 55.83792 50.66998
# Shear Modulus (GPa) = 27.53735 31.83129 29.68432
#
# Velocity S-wave (km/s) = 3.43951 3.69797 3.57108
# Velocity P-wave (km/s) = 5.94321 6.49782 6.22669
#
# Compressibility (1/GPa) = 0.02197703
#
# Stress axis : x y z
#
# Youngs Moduli (GPa) = 84.96892 45.60502 85.61407
#
# Poissons Ratio (x) = 0.17816 0.30725
# Poissons Ratio (y) = 0.33193 0.35997
# Poissons Ratio (z) = 0.30494 0.19175
#
# Static dielectric constant tensor:
#      x y z
#    x 4.164560 0.000000 -0.190400 
#    y 0.000000 4.301340 0.000000 
#    z -0.190400 0.000000 4.483270 
# 
# 
# High freq. dielectric constant tensor:
#      x y z
#    x 1.912180 0.000000 -0.003840 
#    y 0.000000 1.932390 0.000000 
#    z -0.003840 0.000000 1.930600 
# 
# From -- ./inp_files/283404.got.cif
#   From: 2010.06.25/outbox.cif.g09.slc.cpg/sg15_142_cif.got.tgz:283404.got - 2010.06.28 07:06:18.
