data_PCOD8146416
_publ_section_title
;
Structure prediction by ZEFSAII (Michael W. Deem and Ramdas Pophale) SiO2 
 PCOD8146416
Probable space group: C 2/C
;
_chemical_formula_sum "Si O2"
_cell_formula_units_Z 64
_cell_length_a 13.440312
_cell_length_b 8.976364
_cell_length_c 27.657561
_cell_angle_alpha 90.000000
_cell_angle_beta 122.805518
_cell_angle_gamma 90.000000
_cell_volume 2804.586622
_symmetry_space_group_name_H-M "C 2/C"
_symmetry_group_IT_number 15
_symmetry_cell_setting 'monoclinic'
loop_
_space_group_symop_operation_xyz
x,y,z
-x,y,1/2-z
-x,-y,-z
x,-y,1/2+z
1/2+x,1/2+y,z
1/2-x,1/2+y,1/2-z
1/2-x,1/2-y,-z
1/2+x,1/2-y,1/2+z
loop_
_atom_site_type_symbol
_atom_site_label
_atom_site_fract_x
_atom_site_fract_y
_atom_site_fract_z
Si Si1 0.426251 0.894269 0.119038
Si Si2 0.233696 0.793136 0.352987
Si Si3 0.972873 0.377711 0.454015
Si Si4 0.951745 0.151199 0.529098
Si Si5 0.186488 0.997214 0.079766
Si Si6 0.588019 0.714777 0.227584
Si Si7 0.470624 0.232155 0.135064
Si Si8 0.691640 0.610800 0.734330
O O1 0.429602 0.878865 0.062148
O O2 0.291250 0.875949 0.101766
O O3 0.505357 0.761460 0.161117
O O4 0.474374 0.057099 0.148320
O O5 0.342095 0.902399 0.396080
O O6 0.270604 0.623481 0.371996
O O7 0.197179 0.814055 0.288281
O O8 0.119484 0.827407 0.355762
O O9 0.981159 0.225529 0.485280
O O10 0.000000 0.500000 0.500000
O O11 0.070472 0.065244 0.575245
O O12 0.922819 0.255411 0.566994
O O13 0.840044 0.050603 0.483083
O O14 0.500000 0.694127 0.250000
O O15 0.659665 0.563886 0.232480
O O16 0.683166 0.850668 0.259672
O O17 0.597327 0.304475 0.176405
#
# Coordination Sequence:
#
# PCOD8146416 Si02
#       8
#     8   8   8   8   8   8   8   8
#     4  11  24  45  68 107 142 195 243 302 379 442
#     4  10  23  44  69 101 138 185 242 302 368 443
#     4  11  22  40  67  98 144 182 237 304 361 443
#     4  10  22  41  65 105 138 190 237 297 371 436
#     4   9  23  41  69  99 144 182 241 296 374 442
#     4  12  29  50  76 111 150 197 253 309 377 453
#     4  11  24  41  74 102 137 191 246 299 371 442
#     4  12  27  49  76 108 148 192 246 314 375 446
#
# _framework density 22.819762999999998
#
# number of rings (size 3 to 8) (size 9 to 14) (size 15 to 20)
#    0.000    1.250    2.500    1.875    5.250    6.000 
#    2.250    0.625    0.000    0.000    0.000    0.000 
#    0.000    0.000    0.000    0.000    0.000    0.000 
#
# Total GULP energy -396585.584676 kJ/mol
# GULP energy per Si atom -12393.299521 kJ/mol
# Density = 2.276782 g / cm^3
# Si number density = 22.819763 Si / 1000 Ang^3
#
#
#
# Elastic Constant Matrix: (Units=GPa)
#
#
# Indices 1 2 3 4 5 6 
#
# 1 95.3404 41.2854 24.3784 0.0000 -1.6690 0.0000
# 2 41.2854 70.7380 33.1231 0.0000 8.9288 0.0000
# 3 24.3784 33.1231 100.3565 0.0000 -9.8394 0.0000
# 4 0.0000 0.0000 0.0000 37.6669 0.0000 7.5665
# 5 -1.6690 8.9288 -9.8394 0.0000 39.0028 0.0000
# 6 0.0000 0.0000 0.0000 7.5665 0.0000 32.2757
#
#
#
# Elastic Compliance Matrix: (Units=1/GPa)
#
#
# Indices 1 2 3 4 5 6 
#
# 1 0.014303 -0.008444 -0.000449 0.000000 0.002432 0.000000
# 2 -0.008444 0.022872 -0.006200 0.000000 -0.007162 0.000000
# 3 -0.000449 -0.006200 0.012568 0.000000 0.004571 0.000000
# 4 0.000000 0.000000 0.000000 0.027860 0.000000 -0.006531
# 5 0.002432 -0.007162 0.004571 0.000000 0.028536 0.000000
# 6 0.000000 0.000000 0.000000 -0.006531 0.000000 0.032514
#
#
# Mechanical properties :
#
#
# Convention : Reuss Voigt Hill
#
# Bulk Modulus (GPa) = 51.13375 51.55654 51.34514
# Shear Modulus (GPa) = 28.51297 32.96562 30.73930
#
# Velocity S-wave (km/s) = 3.53864 3.80492 3.67420
# Velocity P-wave (km/s) = 6.25718 6.47651 6.36779
#
# Compressibility (1/GPa) = 0.01955656
#
# Stress axis : x y z
#
# Youngs Moduli (GPa) = 69.91645 43.72112 79.56750
#
# Poissons Ratio (x) = 0.36920 0.03571
# Poissons Ratio (y) = 0.59041 0.49331
# Poissons Ratio (z) = 0.03138 0.27107
#
# Static dielectric constant tensor:
#      x y z
#    x -64.022790 0.000000 17.643390 
#    y 0.000000 11.192980 0.000000 
#    z 17.643390 0.000000 -0.258410 
# 
# 
# High freq. dielectric constant tensor:
#      x y z
#    x 1.905200 0.000000 0.003720 
#    y 0.000000 1.886490 0.000000 
#    z 0.003720 0.000000 1.912740 
# 
# From -- ./inp_files/313165.got.cif
#   From: 2010.06.25/outbox.cif.g09.slc.cpg/sg15_157_cif.got.tgz:313165.got - 2010.06.28 07:06:18.
