data_PCOD8146721
_publ_section_title
;
Structure prediction by ZEFSAII (Michael W. Deem and Ramdas Pophale) SiO2 
 PCOD8146721
Probable space group: C 2/C
;
_chemical_formula_sum "Si O2"
_cell_formula_units_Z 60
_cell_length_a 14.259855
_cell_length_b 16.767442
_cell_length_c 23.717708
_cell_angle_alpha 90.000000
_cell_angle_beta 28.336587
_cell_angle_gamma 90.000000
_cell_volume 2691.711119
_symmetry_space_group_name_H-M "C 2/C"
_symmetry_group_IT_number 15
_symmetry_cell_setting 'monoclinic'
loop_
_space_group_symop_operation_xyz
x,y,z
-x,y,1/2-z
-x,-y,-z
x,-y,1/2+z
1/2+x,1/2+y,z
1/2-x,1/2+y,1/2-z
1/2-x,1/2-y,-z
1/2+x,1/2-y,1/2+z
loop_
_atom_site_type_symbol
_atom_site_label
_atom_site_fract_x
_atom_site_fract_y
_atom_site_fract_z
Si Si1 0.226799 0.031966 0.989623
Si Si2 0.913938 0.752859 0.238288
Si Si3 0.483744 0.763793 0.997387
Si Si4 0.000000 0.505329 0.250000
Si Si5 0.720112 0.468005 0.804529
Si Si6 0.562299 0.878795 0.581016
Si Si7 0.370188 0.183153 0.967420
Si Si8 0.709135 0.653866 0.795881
O O1 0.381911 0.048477 0.857175
O O2 0.270480 0.096479 0.014105
O O3 0.262628 0.942519 0.996537
O O4 0.010841 0.050448 0.078080
O O5 0.692005 0.724729 0.372257
O O6 0.045082 0.681070 0.143465
O O7 0.921662 0.826019 0.190152
O O8 0.000000 0.787560 0.250000
O O9 0.401506 0.829089 0.995430
O O10 0.604961 0.692531 0.905066
O O11 0.625343 0.806918 0.967408
O O12 0.830609 0.556242 0.305584
O O13 0.849403 0.424082 0.687617
O O14 0.739861 0.561630 0.787274
O O15 0.580433 0.193135 0.826132
O O16 0.250000 0.250000 0.000000
#
# Coordination Sequence:
#
# PCOD8146721 Si02
#       8
#     8   8   8   4   8   8   8   8
#     4  11  25  41  67 100 133 179 225 284 335 405
#     4  10  24  41  66  98 133 173 228 276 333 414
#     4  10  25  43  71  92 137 188 217 287 345 399
#     4  10  22  42  62  96 132 174 210 284 332 394
#     4  11  24  41  68  97 135 168 227 278 336 402
#     4  10  24  46  66 100 139 175 230 280 339 410
#     4  11  25  45  66  97 136 174 232 279 334 417
#     4  10  23  45  63  99 131 175 225 275 343 403
#
# _framework density 22.290654
#
# number of rings (size 3 to 8) (size 9 to 14) (size 15 to 20)
#    0.000    1.600    2.667    0.400   14.933    2.133 
#    0.000    0.000    0.000    0.000    0.000    0.000 
#    0.000    0.000    0.000    0.000    0.000    0.000 
#
# Total GULP energy -371698.582870 kJ/mol
# GULP energy per Si atom -12389.952762 kJ/mol
# Density = 2.223992 g / cm^3
# Si number density = 22.290654 Si / 1000 Ang^3
#
#
#
# Elastic Constant Matrix: (Units=GPa)
#
#
# Indices 1 2 3 4 5 6 
#
# 1 134.1656 17.5865 18.8770 0.0097 -0.1622 0.0034
# 2 17.5865 64.5723 -0.4908 -0.0177 8.9534 0.0053
# 3 18.8770 -0.4908 66.1401 -0.1208 4.1232 0.0203
# 4 0.0097 -0.0177 -0.1208 34.7890 0.0046 -8.5699
# 5 -0.1622 8.9534 4.1232 0.0046 37.9429 0.0033
# 6 0.0034 0.0053 0.0203 -8.5699 0.0033 24.9234
#
#
#
# Elastic Compliance Matrix: (Units=1/GPa)
#
#
# Indices 1 2 3 4 5 6 
#
# 1 0.008096 -0.002340 -0.002381 -0.000013 0.000846 -0.000003
# 2 -0.002340 0.016695 0.001045 0.000014 -0.004063 0.000001
# 3 -0.002381 0.001045 0.015931 0.000059 -0.001988 0.000008
# 4 -0.000013 0.000014 0.000059 0.031405 -0.000014 0.010799
# 5 0.000846 -0.004063 -0.001988 -0.000014 0.027534 -0.000006
# 6 -0.000003 0.000001 0.000008 0.010799 -0.000006 0.043836
#
#
# Mechanical properties :
#
#
# Convention : Reuss Voigt Hill
#
# Bulk Modulus (GPa) = 29.96691 37.42482 33.69586
# Shear Modulus (GPa) = 30.86940 34.79141 32.83040
#
# Velocity S-wave (km/s) = 3.72541 3.95499 3.84191
# Velocity P-wave (km/s) = 5.65489 6.13855 5.90168
#
# Compressibility (1/GPa) = 0.03337014
#
# Stress axis : x y z
#
# Youngs Moduli (GPa) = 123.51378 59.89717 62.77176
#
# Poissons Ratio (x) = 0.14018 0.14945
# Poissons Ratio (y) = 0.28907 -0.06561
# Poissons Ratio (z) = 0.29407 -0.06260
#
# Static dielectric constant tensor:
#      x y z
#    x 4.339490 0.000010 -0.156360 
#    y 0.000010 3.950660 0.000320 
#    z -0.156360 0.000320 4.297840 
# 
# 
# High freq. dielectric constant tensor:
#      x y z
#    x 1.883300 0.000000 -0.010940 
#    y 0.000000 1.870960 0.000010 
#    z -0.010940 0.000010 1.879550 
# 
# From -- ./inp_files/274712.got.cif
#   From: 2010.06.25/outbox.cif.g09.slc.cpg/sg15_138_cif.got.tgz:274712.got - 2010.06.28 07:06:18.
