data_PCOD8146336
_publ_section_title
;
Structure prediction by ZEFSAII (Michael W. Deem and Ramdas Pophale) SiO2 
 PCOD8146336
Probable space group: C 2/C
;
_chemical_formula_sum "Si O2"
_cell_formula_units_Z 64
_cell_length_a 14.903488
_cell_length_b 11.468237
_cell_length_c 27.657320
_cell_angle_alpha 90.000000
_cell_angle_beta 42.254156
_cell_angle_gamma 90.000000
_cell_volume 3178.598105
_symmetry_space_group_name_H-M "C 2/C"
_symmetry_group_IT_number 15
_symmetry_cell_setting 'monoclinic'
loop_
_space_group_symop_operation_xyz
x,y,z
-x,y,1/2-z
-x,-y,-z
x,-y,1/2+z
1/2+x,1/2+y,z
1/2-x,1/2+y,1/2-z
1/2-x,1/2-y,-z
1/2+x,1/2-y,1/2+z
loop_
_atom_site_type_symbol
_atom_site_label
_atom_site_fract_x
_atom_site_fract_y
_atom_site_fract_z
Si Si1 0.157080 0.495161 0.938522
Si Si2 0.475720 0.747467 0.393244
Si Si3 0.458087 0.395057 0.051288
Si Si4 0.653560 0.814753 0.687971
Si Si5 0.157539 0.036069 0.322704
Si Si6 0.282581 0.740106 0.556749
Si Si7 0.220394 0.404667 0.316075
Si Si8 0.790785 0.262854 0.039001
O O1 0.213044 0.378401 0.939184
O O2 0.214454 0.502498 0.861520
O O3 0.209591 0.600328 0.950380
O O4 0.000000 0.500000 0.000000
O O5 0.565722 0.640013 0.338313
O O6 0.391263 0.703308 0.473034
O O7 0.369801 0.792054 0.395718
O O8 0.571587 0.854464 0.368228
O O9 0.436364 0.440961 0.114085
O O10 0.320458 0.334407 0.088658
O O11 0.500000 0.500000 0.000000
O O12 0.564847 0.291760 0.009342
O O13 0.500000 0.850221 0.750000
O O14 0.739017 0.917558 0.678300
O O15 0.677411 0.697679 0.709825
O O16 0.692228 0.800370 0.616178
O O17 0.233420 0.972767 0.249404
O O18 0.750000 0.250000 0.000000
#
# Coordination Sequence:
#
# PCOD8146336 Si02
#       8
#     8   8   8   8   8   8   8   8
#     4  11  21  42  64  93 129 163 213 266 315 373
#     4  10  22  41  62  96 127 164 212 260 333 371
#     4  12  22  42  64  92 127 167 212 264 325 371
#     4  10  23  43  60  90 132 164 207 269 320 369
#     4  11  24  41  64  91 132 169 205 266 321 389
#     4  11  22  39  69  95 127 165 212 276 311 384
#     4  10  23  42  63  90 130 170 206 257 323 392
#     4  11  25  40  66  99 127 165 222 268 314 392
#
# _framework density 20.134663
#
# number of rings (size 3 to 8) (size 9 to 14) (size 15 to 20)
#    0.000    1.250    5.000    0.750    3.500    5.000 
#    0.000    1.250    0.000    0.000    0.000    0.000 
#    0.000    0.000    0.000    0.000    0.000    0.000 
#
# Total GULP energy -396857.685237 kJ/mol
# GULP energy per Si atom -12401.802664 kJ/mol
# Density = 2.008884 g / cm^3
# Si number density = 20.134663 Si / 1000 Ang^3
#
#
#
# Elastic Constant Matrix: (Units=GPa)
#
#
# Indices 1 2 3 4 5 6 
#
# 1 111.8769 28.7526 39.7429 0.0000 -0.2308 0.0000
# 2 28.7526 75.4524 21.4900 0.0000 7.7772 0.0000
# 3 39.7429 21.4900 96.9657 0.0000 9.1268 0.0000
# 4 0.0000 0.0000 0.0000 31.1531 0.0000 6.7577
# 5 -0.2308 7.7772 9.1268 0.0000 43.0072 0.0000
# 6 0.0000 0.0000 0.0000 6.7577 0.0000 22.9332
#
#
#
# Elastic Compliance Matrix: (Units=1/GPa)
#
#
# Indices 1 2 3 4 5 6 
#
# 1 0.011210 -0.003285 -0.004008 0.000000 0.001505 0.000000
# 2 -0.003285 0.015268 -0.001812 0.000000 -0.002394 0.000000
# 3 -0.004008 -0.001812 0.012580 0.000000 -0.002363 0.000000
# 4 0.000000 0.000000 0.000000 0.034291 0.000000 -0.010105
# 5 0.001505 -0.002394 -0.002363 0.000000 0.024195 0.000000
# 6 0.000000 0.000000 0.000000 -0.010105 0.000000 0.046582
#
#
# Mechanical properties :
#
#
# Convention : Reuss Voigt Hill
#
# Bulk Modulus (GPa) = 47.96824 51.58511 49.77667
# Shear Modulus (GPa) = 29.53599 32.37266 30.95433
#
# Velocity S-wave (km/s) = 3.83420 4.01410 3.92518
# Velocity P-wave (km/s) = 6.59370 6.86729 6.73188
#
# Compressibility (1/GPa) = 0.02084713
#
# Stress axis : x y z
#
# Youngs Moduli (GPa) = 89.20931 65.49588 79.49320
#
# Poissons Ratio (x) = 0.21517 0.31861
# Poissons Ratio (y) = 0.29307 0.14404
# Poissons Ratio (z) = 0.35755 0.11868
#
# Static dielectric constant tensor:
#      x y z
#    x 4.270810 0.000000 0.220950 
#    y 0.000000 3.662140 0.000000 
#    z 0.220950 0.000000 3.704340 
# 
# 
# High freq. dielectric constant tensor:
#      x y z
#    x 1.789490 0.000000 -0.002990 
#    y 0.000000 1.790000 0.000000 
#    z -0.002990 0.000000 1.778810 
# 
# From -- ./inp_files/296114.got.cif
#   From: 2010.06.25/outbox.cif.g09.slc.cpg/sg15_149_cif.got.tgz:296114.got - 2010.06.28 07:06:18.
