data_PCOD8146457
_publ_section_title
;
Structure prediction by ZEFSAII (Michael W. Deem and Ramdas Pophale) SiO2 
 PCOD8146457
Probable space group: C 2/C
;
_chemical_formula_sum "Si O2"
_cell_formula_units_Z 32
_cell_length_a 9.181718
_cell_length_b 11.496738
_cell_length_c 29.959822
_cell_angle_alpha 90.000000
_cell_angle_beta 150.631789
_cell_angle_gamma 90.000000
_cell_volume 1550.980222
_symmetry_space_group_name_H-M "C 2/C"
_symmetry_group_IT_number 15
_symmetry_cell_setting 'monoclinic'
loop_
_space_group_symop_operation_xyz
x,y,z
-x,y,1/2-z
-x,-y,-z
x,-y,1/2+z
1/2+x,1/2+y,z
1/2-x,1/2+y,1/2-z
1/2-x,1/2-y,-z
1/2+x,1/2-y,1/2+z
loop_
_atom_site_type_symbol
_atom_site_label
_atom_site_fract_x
_atom_site_fract_y
_atom_site_fract_z
Si Si1 0.436838 0.863223 0.599102
Si Si2 0.822869 0.805572 0.402420
Si Si3 0.230051 0.447450 0.595667
Si Si4 0.607513 0.988203 0.730647
O O1 0.550445 0.735127 0.612743
O O2 0.593384 0.960428 0.609119
O O3 0.081473 0.870942 0.498934
O O4 0.529691 0.886603 0.674629
O O5 0.720061 0.690155 0.401833
O O6 0.548401 0.891161 0.323728
O O7 0.541751 0.513586 0.675181
O O8 0.000000 0.500000 0.500000
O O9 0.500000 0.943323 0.750000
#
# Coordination Sequence:
#
# PCOD8146457 Si02
#       4
#     8   8   8   8
#     4   9  21  45  67  93 125 180 220 269 341 391
#     4   9  22  41  74  86 134 178 217 275 346 378
#     4  10  22  41  65  95 131 176 221 272 330 404
#     4  12  24  37  67 100 132 170 229 274 328 403
#
# _framework density 20.632113
#
# number of rings (size 3 to 8) (size 9 to 14) (size 15 to 20)
#    1.500    0.500    0.000    3.000    3.500    0.000 
#    0.000    7.500    0.000    0.000    0.000    0.000 
#    0.000    0.000    0.000    0.000    0.000    0.000 
#
# Total GULP energy -198306.824267 kJ/mol
# GULP energy per Si atom -12394.176517 kJ/mol
# Density = 2.058515 g / cm^3
# Si number density = 20.632113 Si / 1000 Ang^3
#
#
#
# Elastic Constant Matrix: (Units=GPa)
#
#
# Indices 1 2 3 4 5 6 
#
# 1 87.1071 33.0358 69.7335 0.0000 -0.1078 0.0000
# 2 33.0358 71.9579 60.8612 -0.0002 7.3654 0.0002
# 3 69.7335 60.8612 190.9451 -0.0020 19.5911 0.0006
# 4 0.0000 -0.0002 -0.0020 27.8730 0.0000 0.8623
# 5 -0.1078 7.3654 19.5911 0.0000 47.3304 0.0001
# 6 0.0000 0.0002 0.0006 0.8623 0.0001 25.2798
#
#
#
# Elastic Compliance Matrix: (Units=1/GPa)
#
#
# Indices 1 2 3 4 5 6 
#
# 1 0.017189 -0.003596 -0.005423 0.000000 0.002843 0.000000
# 2 -0.003596 0.019788 -0.004885 0.000000 -0.001066 0.000000
# 3 -0.005423 -0.004885 0.009084 0.000001 -0.003012 0.000000
# 4 0.000000 0.000000 0.000001 0.035915 0.000000 -0.001225
# 5 0.002843 -0.001066 -0.003012 0.000000 0.022547 0.000000
# 6 0.000000 0.000000 0.000000 -0.001225 0.000000 0.039599
#
#
# Mechanical properties :
#
#
# Convention : Reuss Voigt Hill
#
# Bulk Modulus (GPa) = 54.78320 75.25234 65.01777
# Shear Modulus (GPa) = 28.08776 32.52192 30.30484
#
# Velocity S-wave (km/s) = 3.69367 3.97454 3.83668
# Velocity P-wave (km/s) = 6.69335 7.59047 7.15598
#
# Compressibility (1/GPa) = 0.01825377
#
# Stress axis : x y z
#
# Youngs Moduli (GPa) = 58.17781 50.53471 110.08825
#
# Poissons Ratio (x) = 0.18170 0.59701
# Poissons Ratio (y) = 0.20919 0.53776
# Poissons Ratio (z) = 0.31550 0.24685
#
# Static dielectric constant tensor:
#      x y z
#    x 3.694900 0.000000 0.134290 
#    y 0.000000 3.501990 0.000000 
#    z 0.134290 0.000000 3.817400 
# 
# 
# High freq. dielectric constant tensor:
#      x y z
#    x 1.787140 0.000000 0.010630 
#    y 0.000000 1.783200 0.000000 
#    z 0.010630 0.000000 1.825420 
# 
# From -- ./inp_files/188277.got.cif
#   From: 2010.06.25/outbox.cif.g09.slc.cpg/sg15_95_cif.got.tgz:188277.got - 2010.06.28 07:06:18.
