data_PCOD8146976
_publ_section_title
;
Structure prediction by ZEFSAII (Michael W. Deem and Ramdas Pophale) SiO2 
 PCOD8146976
Probable space group: C 2/C
;
_chemical_formula_sum "Si O2"
_cell_formula_units_Z 64
_cell_length_a 27.485447
_cell_length_b 9.346274
_cell_length_c 20.594736
_cell_angle_alpha 90.000000
_cell_angle_beta 31.815050
_cell_angle_gamma 90.000000
_cell_volume 2789.045897
_symmetry_space_group_name_H-M "C 2/C"
_symmetry_group_IT_number 15
_symmetry_cell_setting 'monoclinic'
loop_
_space_group_symop_operation_xyz
x,y,z
-x,y,1/2-z
-x,-y,-z
x,-y,1/2+z
1/2+x,1/2+y,z
1/2-x,1/2+y,1/2-z
1/2-x,1/2-y,-z
1/2+x,1/2-y,1/2+z
loop_
_atom_site_type_symbol
_atom_site_label
_atom_site_fract_x
_atom_site_fract_y
_atom_site_fract_z
Si Si1 0.038046 0.458702 0.887079
Si Si2 0.527302 0.739440 0.805314
Si Si3 0.304808 0.057382 0.426663
Si Si4 0.172487 0.234660 0.500270
Si Si5 0.460154 0.454255 0.648260
Si Si6 0.782102 0.351147 0.762828
Si Si7 0.359410 0.446425 0.135184
Si Si8 0.058004 0.329042 0.251732
O O1 0.994247 0.308328 0.912598
O O2 0.149151 0.439364 0.767514
O O3 0.011911 0.572731 0.860283
O O4 0.000000 0.500000 0.000000
O O5 0.609206 0.839470 0.688756
O O6 0.563875 0.581916 0.775966
O O7 0.437383 0.732672 0.860977
O O8 0.215126 0.091781 0.485618
O O9 0.283672 0.115226 0.523497
O O10 0.340219 0.893905 0.382025
O O11 0.198610 0.225438 0.395622
O O12 0.568937 0.453462 0.506448
O O13 0.400981 0.473542 0.650456
O O14 0.428833 0.321428 0.727978
O O15 0.735719 0.467614 0.768514
O O16 0.839318 0.223526 0.663926
O O17 0.000000 0.322082 0.250000
#
# Coordination Sequence:
#
# PCOD8146976 Si02
#       8
#     8   8   8   8   8   8   8   8
#     4  11  24  43  73 106 138 188 251 303 360 436
#     4  11  21  42  68  94 133 184 235 293 358 433
#     4  10  22  42  67  99 136 176 247 291 346 431
#     4  11  21  38  69  98 130 182 237 290 347 433
#     4  11  24  45  68  97 148 180 237 288 372 440
#     4  12  24  43  69 105 139 181 243 298 378 423
#     4  11  26  44  69 106 137 185 233 308 363 443
#     4  11  24  43  68 104 144 190 235 305 364 434
#
# _framework density 22.946915000000001
#
# number of rings (size 3 to 8) (size 9 to 14) (size 15 to 20)
#    0.000    1.000    5.000    2.625    5.250    1.000 
#    2.250    0.000    0.000    9.750    0.000    0.000 
#    0.000    0.000    0.000    0.000    0.000    0.000 
#
# Total GULP energy -396455.978377 kJ/mol
# GULP energy per Si atom -12389.249324 kJ/mol
# Density = 2.289469 g / cm^3
# Si number density = 22.946915 Si / 1000 Ang^3
#
#
#
# Elastic Constant Matrix: (Units=GPa)
#
#
# Indices 1 2 3 4 5 6 
#
# 1 123.2896 46.5528 21.6955 0.0020 -17.7549 0.0006
# 2 46.5528 141.2900 15.3235 -0.0067 -2.0583 0.0083
# 3 21.6955 15.3235 62.5440 -0.0127 -15.2672 0.0019
# 4 0.0020 -0.0067 -0.0127 39.7325 0.0011 3.3568
# 5 -17.7549 -2.0583 -15.2672 0.0011 38.0275 -0.0003
# 6 0.0006 0.0083 0.0019 3.3568 -0.0003 35.6829
#
#
#
# Elastic Compliance Matrix: (Units=1/GPa)
#
#
# Indices 1 2 3 4 5 6 
#
# 1 0.010153 -0.003091 -0.001827 -0.000002 0.003839 0.000001
# 2 -0.003091 0.008216 -0.001313 0.000001 -0.001526 -0.000002
# 3 -0.001827 -0.001313 0.018535 0.000006 0.006517 -0.000001
# 4 -0.000002 0.000001 0.000006 0.025370 0.000001 -0.002387
# 5 0.003839 -0.001526 0.006517 0.000001 0.030623 0.000000
# 6 0.000001 -0.000002 -0.000001 -0.002387 0.000000 0.028249
#
#
# Mechanical properties :
#
#
# Convention : Reuss Voigt Hill
#
# Bulk Modulus (GPa) = 40.91475 54.91859 47.91667
# Shear Modulus (GPa) = 35.27175 38.92535 37.09855
#
# Velocity S-wave (km/s) = 3.92484 4.12311 4.02520
# Velocity P-wave (km/s) = 6.19742 6.83020 6.52149
#
# Compressibility (1/GPa) = 0.02444106
#
# Stress axis : x y z
#
# Youngs Moduli (GPa) = 98.49736 121.70964 53.95132
#
# Poissons Ratio (x) = 0.37620 0.09858
# Poissons Ratio (y) = 0.30446 0.07085
# Poissons Ratio (z) = 0.17998 0.15983
#
# Static dielectric constant tensor:
#      x y z
#    x 4.528380 -0.000140 0.237350 
#    y -0.000140 4.623570 0.000040 
#    z 0.237350 0.000040 4.267220 
# 
# 
# High freq. dielectric constant tensor:
#      x y z
#    x 1.922460 0.000000 0.003770 
#    y 0.000000 1.894310 0.000000 
#    z 0.003770 0.000000 1.900890 
# 
# From -- ./inp_files/284406.got.cif
#   From: 2010.06.25/outbox.cif.g09.slc.cpg/sg15_143_cif.got.tgz:284406.got - 2010.06.28 07:06:18.
