data_PCOD8146689
_publ_section_title
;
Structure prediction by ZEFSAII (Michael W. Deem and Ramdas Pophale) SiO2 
 PCOD8146689
Probable space group: C 2/C
;
_chemical_formula_sum "Si O2"
_cell_formula_units_Z 60
_cell_length_a 12.979669
_cell_length_b 13.501778
_cell_length_c 21.792023
_cell_angle_alpha 90.000000
_cell_angle_beta 51.795933
_cell_angle_gamma 90.000000
_cell_volume 3001.036900
_symmetry_space_group_name_H-M "C 2/C"
_symmetry_group_IT_number 15
_symmetry_cell_setting 'monoclinic'
loop_
_space_group_symop_operation_xyz
x,y,z
-x,y,1/2-z
-x,-y,-z
x,-y,1/2+z
1/2+x,1/2+y,z
1/2-x,1/2+y,1/2-z
1/2-x,1/2-y,-z
1/2+x,1/2-y,1/2+z
loop_
_atom_site_type_symbol
_atom_site_label
_atom_site_fract_x
_atom_site_fract_y
_atom_site_fract_z
Si Si1 0.758719 0.618529 0.288793
Si Si2 0.181255 0.940703 0.392468
Si Si3 0.649779 0.599116 0.194820
Si Si4 0.391343 0.414416 0.475340
Si Si5 0.708180 0.243471 0.445321
Si Si6 0.900081 0.752119 0.564004
Si Si7 0.316518 0.608125 0.870382
Si Si8 0.000000 0.734229 0.250000
O O1 0.768031 0.507401 0.314191
O O2 0.727200 0.620637 0.228743
O O3 0.639139 0.678554 0.364050
O O4 0.900325 0.667868 0.247073
O O5 0.250931 0.838362 0.387726
O O6 0.046877 0.918438 0.405934
O O7 0.152020 0.994687 0.466913
O O8 0.500000 0.638307 0.250000
O O9 0.726554 0.648339 0.110055
O O10 0.647636 0.480944 0.187730
O O11 0.352612 0.310192 0.520586
O O12 0.314661 0.428638 0.440654
O O13 0.750000 0.250000 0.500000
O O14 0.552733 0.231955 0.504875
O O15 0.827662 0.646952 0.594491
O O16 0.419793 0.697809 0.826683
#
# Coordination Sequence:
#
# PCOD8146689 Si02
#       8
#     8   8   8   8   8   8   8   4
#     4  10  22  42  61  94 129 164 221 261 327 387
#     4   9  19  36  59  86 118 165 201 258 311 376
#     4  12  25  40  63  94 129 174 213 264 323 391
#     4   9  17  34  63  89 116 151 212 252 313 377
#     4  11  23  41  62  91 128 171 214 260 323 386
#     4   9  21  39  63  92 119 165 211 270 312 370
#     4  11  21  38  63  91 121 164 209 264 318 369
#     4  10  24  40  62  90 128 168 208 270 314 386
#
# _framework density 19.993089999999999
#
# number of rings (size 3 to 8) (size 9 to 14) (size 15 to 20)
#    0.000    1.867    0.667    3.600    3.733    1.600 
#    3.600    0.000    0.000    0.000    0.000    0.000 
#    0.000    0.000    0.000    0.000    0.000    0.000 
#
# Total GULP energy -372010.309099 kJ/mol
# GULP energy per Si atom -12400.343637 kJ/mol
# Density = 1.994759 g / cm^3
# Si number density = 19.993090 Si / 1000 Ang^3
#
#
#
# Elastic Constant Matrix: (Units=GPa)
#
#
# Indices 1 2 3 4 5 6 
#
# 1 109.8427 46.7995 58.1608 0.0000 8.3836 0.0000
# 2 46.7995 94.0780 37.4791 0.0000 -5.2139 0.0000
# 3 58.1608 37.4791 92.3034 0.0000 4.3100 0.0000
# 4 0.0000 0.0000 0.0000 33.3018 0.0000 -4.2753
# 5 8.3836 -5.2139 4.3100 0.0000 41.0933 0.0000
# 6 0.0000 0.0000 0.0000 -4.2753 0.0000 25.8849
#
#
#
# Elastic Compliance Matrix: (Units=1/GPa)
#
#
# Indices 1 2 3 4 5 6 
#
# 1 0.015408 -0.004790 -0.007626 0.000000 -0.002951 0.000000
# 2 -0.004790 0.014364 -0.002959 0.000000 0.003110 0.000000
# 3 -0.007626 -0.002959 0.016868 0.000000 -0.000589 0.000000
# 4 0.000000 0.000000 0.000000 0.030679 0.000000 0.005067
# 5 -0.002951 0.003110 -0.000589 0.000000 0.025393 0.000000
# 6 0.000000 0.000000 0.000000 0.005067 0.000000 0.039469
#
#
# Mechanical properties :
#
#
# Convention : Reuss Voigt Hill
#
# Bulk Modulus (GPa) = 62.93588 64.56697 63.75143
# Shear Modulus (GPa) = 28.05398 30.30830 29.18114
#
# Velocity S-wave (km/s) = 3.74997 3.89773 3.82457
# Velocity P-wave (km/s) = 7.09203 7.25404 7.17349
#
# Compressibility (1/GPa) = 0.01588919
#
# Stress axis : x y z
#
# Youngs Moduli (GPa) = 64.90175 69.62013 59.28450
#
# Poissons Ratio (x) = 0.33350 0.45209
# Poissons Ratio (y) = 0.31090 0.17543
# Poissons Ratio (z) = 0.49492 0.20601
#
# Static dielectric constant tensor:
#      x y z
#    x 3.521180 0.000000 -0.038660 
#    y 0.000000 3.808280 0.000000 
#    z -0.038660 0.000000 3.532860 
# 
# 
# High freq. dielectric constant tensor:
#      x y z
#    x 1.773690 0.000000 0.006950 
#    y 0.000000 1.783990 0.000000 
#    z 0.006950 0.000000 1.775260 
# 
# From -- ./inp_files/238714.got.cif
#   From: 2010.06.25/outbox.cif.g09.slc.cpg/sg15_120_cif.got.tgz:238714.got - 2010.06.28 07:06:18.
