data_PCOD8146216
_publ_section_title
;
Structure prediction by ZEFSAII (Michael W. Deem and Ramdas Pophale) SiO2 
 PCOD8146216
Probable space group: C 2/C
;
_chemical_formula_sum "Si O2"
_cell_formula_units_Z 40
_cell_length_a 8.144381
_cell_length_b 24.230527
_cell_length_c 16.854992
_cell_angle_alpha 90.000000
_cell_angle_beta 33.331433
_cell_angle_gamma 90.000000
_cell_volume 1827.689361
_symmetry_space_group_name_H-M "C 2/C"
_symmetry_group_IT_number 15
_symmetry_cell_setting 'monoclinic'
loop_
_space_group_symop_operation_xyz
x,y,z
-x,y,1/2-z
-x,-y,-z
x,-y,1/2+z
1/2+x,1/2+y,z
1/2-x,1/2+y,1/2-z
1/2-x,1/2-y,-z
1/2+x,1/2-y,1/2+z
loop_
_atom_site_type_symbol
_atom_site_label
_atom_site_fract_x
_atom_site_fract_y
_atom_site_fract_z
Si Si1 0.688026 0.058079 0.098505
Si Si2 0.453981 0.750148 0.174499
Si Si3 0.190310 0.563875 0.594743
Si Si4 0.810536 0.645785 0.159064
Si Si5 0.674134 0.147205 0.862825
O O1 0.500000 0.043694 0.250000
O O2 0.505841 0.096342 0.113283
O O3 0.745763 0.997697 0.035683
O O4 0.990183 0.088246 0.005902
O O5 0.500000 0.757953 0.250000
O O6 0.264339 0.692903 0.244388
O O7 0.260582 0.801989 0.223089
O O8 0.750000 0.750000 0.000000
O O9 0.000000 0.564221 0.750000
O O10 0.039312 0.600946 0.588582
O O11 0.500000 0.621725 0.250000
O O12 0.003713 0.671218 0.008809
O O13 0.000000 0.121130 0.750000
#
# Coordination Sequence:
#
# PCOD8146216 Si02
#       5
#     8   8   8   8   8
#     4  10  22  40  69  97 130 181 228 273 343 413
#     4  11  23  46  70  96 137 181 229 286 339 409
#     4  10  22  43  65  97 136 176 224 279 341 413
#     4  11  23  42  67  99 136 176 229 285 343 405
#     4  12  25  42  66  99 137 178 229 285 346 404
#
# _framework density 21.885556000000001
#
# number of rings (size 3 to 8) (size 9 to 14) (size 15 to 20)
#    0.000    1.200    4.000    3.000    0.000    3.200 
#    0.000    0.000    0.000    0.000    0.000    0.000 
#    0.000    0.000    0.000    0.000    0.000    0.000 
#
# Total GULP energy -247856.503289 kJ/mol
# GULP energy per Si atom -12392.825164 kJ/mol
# Density = 2.183574 g / cm^3
# Si number density = 21.885556 Si / 1000 Ang^3
#
#
#
# Elastic Constant Matrix: (Units=GPa)
#
#
# Indices 1 2 3 4 5 6 
#
# 1 122.0251 74.9703 50.9260 -0.0002 -30.1794 -0.0003
# 2 74.9703 127.2304 33.1331 -0.0001 -13.1235 -0.0004
# 3 50.9260 33.1331 137.7032 -0.0002 -9.7100 -0.0016
# 4 -0.0002 -0.0001 -0.0002 29.2609 0.0001 -4.4421
# 5 -30.1794 -13.1235 -9.7100 0.0001 52.0316 0.0005
# 6 -0.0003 -0.0004 -0.0016 -4.4421 0.0005 23.3555
#
#
#
# Elastic Compliance Matrix: (Units=1/GPa)
#
#
# Indices 1 2 3 4 5 6 
#
# 1 0.016254 -0.007937 -0.003625 0.000000 0.006749 0.000000
# 2 -0.007937 0.012424 -0.000160 0.000000 -0.001500 0.000000
# 3 -0.003625 -0.000160 0.008603 0.000000 -0.000538 0.000001
# 4 0.000000 0.000000 0.000000 0.035191 0.000000 0.006693
# 5 0.006749 -0.001500 -0.000538 0.000000 0.022655 -0.000001
# 6 0.000000 0.000000 0.000001 0.006693 -0.000001 0.044089
#
#
# Mechanical properties :
#
#
# Convention : Reuss Voigt Hill
#
# Bulk Modulus (GPa) = 72.27458 78.33528 75.30493
# Shear Modulus (GPa) = 29.89127 36.12489 33.00808
#
# Velocity S-wave (km/s) = 3.69968 4.06720 3.88778
# Velocity P-wave (km/s) = 7.16559 7.61098 7.39164
#
# Compressibility (1/GPa) = 0.01383612
#
# Stress axis : x y z
#
# Youngs Moduli (GPa) = 61.52444 80.49188 116.23522
#
# Poissons Ratio (x) = 0.63888 0.42139
# Poissons Ratio (y) = 0.48833 0.01856
# Poissons Ratio (z) = 0.22305 0.01285
#
# Static dielectric constant tensor:
#      x y z
#    x 3.930090 0.000000 -0.023040 
#    y 0.000000 4.217340 0.000000 
#    z -0.023040 0.000000 4.144810 
# 
# 
# High freq. dielectric constant tensor:
#      x y z
#    x 1.851130 0.000000 -0.005920 
#    y 0.000000 1.857430 0.000000 
#    z -0.005920 0.000000 1.876910 
# 
# From -- ./inp_files/193430.got.cif
#   From: 2010.06.25/outbox.cif.g09.slc.cpg/sg15_97_cif.got.tgz:193430.got - 2010.06.28 07:06:18.
