data_PCOD8146539
_publ_section_title
;
Structure prediction by ZEFSAII (Michael W. Deem and Ramdas Pophale) SiO2 
 PCOD8146539
Probable space group: C 2/C
;
_chemical_formula_sum "Si O2"
_cell_formula_units_Z 44
_cell_length_a 13.268028
_cell_length_b 17.725191
_cell_length_c 14.433032
_cell_angle_alpha 90.000000
_cell_angle_beta 148.306678
_cell_angle_gamma 90.000000
_cell_volume 1783.290926
_symmetry_space_group_name_H-M "C 2/C"
_symmetry_group_IT_number 15
_symmetry_cell_setting 'monoclinic'
loop_
_space_group_symop_operation_xyz
x,y,z
-x,y,1/2-z
-x,-y,-z
x,-y,1/2+z
1/2+x,1/2+y,z
1/2-x,1/2+y,1/2-z
1/2-x,1/2-y,-z
1/2+x,1/2-y,1/2+z
loop_
_atom_site_type_symbol
_atom_site_label
_atom_site_fract_x
_atom_site_fract_y
_atom_site_fract_z
Si Si1 0.298319 0.228448 0.829635
Si Si2 0.990305 0.979347 0.884881
Si Si3 0.500000 0.132852 0.750000
Si Si4 0.382634 0.319430 0.480660
Si Si5 0.323866 0.999172 0.007023
Si Si6 0.007269 0.344828 0.651640
O O1 0.160545 0.171689 0.664644
O O2 0.207612 0.312911 0.768648
O O3 0.488582 0.243426 0.914209
O O4 0.334227 0.191730 0.957222
O O5 0.169361 0.015674 0.968542
O O6 0.008178 0.889549 0.890405
O O7 0.786650 0.998379 0.677989
O O8 0.000000 0.000000 0.000000
O O9 0.322538 0.188706 0.629933
O O10 0.444075 0.077444 0.619826
O O11 0.484705 0.064875 0.129506
O O12 0.000000 0.314528 0.750000
#
# Coordination Sequence:
#
# PCOD8146539 Si02
#       6
#     8   8   4   8   8   8
#     4  10  24  42  64  98 129 179 219 266 328 404
#     4  10  22  41  67  96 133 174 223 284 333 389
#     4  10  22  44  66  94 130 174 222 282 330 384
#     4  10  23  42  64  94 132 168 228 268 329 396
#     4  10  22  41  67  99 131 173 226 276 343 393
#     4  11  22  42  64  94 136 171 216 266 331 402
#
# _framework density 24.673483000000001
#
# number of rings (size 3 to 8) (size 9 to 14) (size 15 to 20)
#    0.000    1.818    0.909    1.636    2.545    3.636 
#    6.545    5.455    0.000    0.000    0.000    0.000 
#    0.000    0.000    0.000    0.000    0.000    0.000 
#
# Total GULP energy -272576.023311 kJ/mol
# GULP energy per Si atom -12389.819241 kJ/mol
# Density = 2.461733 g / cm^3
# Si number density = 24.673483 Si / 1000 Ang^3
#
#
#
# Elastic Constant Matrix: (Units=GPa)
#
#
# Indices 1 2 3 4 5 6 
#
# 1 72.5426 18.7671 21.6305 -0.0012 -7.8703 -0.0012
# 2 18.7671 66.5832 22.0356 -0.0012 3.3562 -0.0008
# 3 21.6305 22.0356 116.8938 -0.0001 -18.2377 -0.0003
# 4 -0.0012 -0.0012 -0.0001 28.0321 0.0018 -3.2731
# 5 -7.8703 3.3562 -18.2377 0.0018 39.3073 0.0010
# 6 -0.0012 -0.0008 -0.0003 -3.2731 0.0010 33.8415
#
#
#
# Elastic Compliance Matrix: (Units=1/GPa)
#
#
# Indices 1 2 3 4 5 6 
#
# 1 0.015614 -0.003964 -0.001726 0.000000 0.002664 0.000000
# 2 -0.003964 0.017356 -0.003119 0.000001 -0.003723 0.000000
# 3 -0.001726 -0.003119 0.010187 0.000000 0.004647 0.000000
# 4 0.000000 0.000001 0.000000 0.036081 -0.000002 0.003490
# 5 0.002664 -0.003723 0.004647 -0.000002 0.028448 -0.000001
# 6 0.000000 0.000000 0.000000 0.003490 -0.000001 0.029887
#
#
# Mechanical properties :
#
#
# Convention : Reuss Voigt Hill
#
# Bulk Modulus (GPa) = 39.15648 42.32065 40.73857
# Shear Modulus (GPa) = 30.54267 33.14194 31.84231
#
# Velocity S-wave (km/s) = 3.52216 3.66897 3.59632
# Velocity P-wave (km/s) = 5.69606 5.92773 5.81305
#
# Compressibility (1/GPa) = 0.02553856
#
# Stress axis : x y z
#
# Youngs Moduli (GPa) = 64.04391 57.61697 98.16141
#
# Poissons Ratio (x) = 0.22839 0.16947
# Poissons Ratio (y) = 0.25387 0.30618
# Poissons Ratio (z) = 0.11057 0.17971
#
# Static dielectric constant tensor:
#      x y z
#    x 4.346940 0.000000 -0.009470 
#    y 0.000000 4.055230 -0.000010 
#    z -0.009470 -0.000010 4.811410 
# 
# 
# High freq. dielectric constant tensor:
#      x y z
#    x 1.964260 0.000000 -0.006190 
#    y 0.000000 1.958650 0.000000 
#    z -0.006190 0.000000 2.009120 
# 
# From -- ./inp_files/156276.got.cif
#   From: 2010.06.25/outbox.cif.g09.slc.cpg/sg15_79_cif.got.tgz:156276.got - 2010.06.28 07:06:18.
