data_PCOD8146468
_publ_section_title
;
Structure prediction by ZEFSAII (Michael W. Deem and Ramdas Pophale) SiO2 
 PCOD8146468
Probable space group: C 2/C
;
_chemical_formula_sum "Si O2"
_cell_formula_units_Z 56
_cell_length_a 14.289746
_cell_length_b 18.228269
_cell_length_c 11.584849
_cell_angle_alpha 90.000000
_cell_angle_beta 114.884828
_cell_angle_gamma 90.000000
_cell_volume 2737.423813
_symmetry_space_group_name_H-M "C 2/C"
_symmetry_group_IT_number 15
_symmetry_cell_setting 'monoclinic'
loop_
_space_group_symop_operation_xyz
x,y,z
-x,y,1/2-z
-x,-y,-z
x,-y,1/2+z
1/2+x,1/2+y,z
1/2-x,1/2+y,1/2-z
1/2-x,1/2-y,-z
1/2+x,1/2-y,1/2+z
loop_
_atom_site_type_symbol
_atom_site_label
_atom_site_fract_x
_atom_site_fract_y
_atom_site_fract_z
Si Si1 0.606247 0.587896 0.372099
Si Si2 0.196377 0.765471 0.313959
Si Si3 0.040976 0.178389 0.555619
Si Si4 0.254161 0.108814 0.253128
Si Si5 0.481532 0.952325 0.872523
Si Si6 0.593211 0.453058 0.498322
Si Si7 0.597838 0.803757 0.974649
O O1 0.500000 0.586932 0.250000
O O2 0.590884 0.643501 0.468874
O O3 0.702356 0.617816 0.350684
O O4 0.637364 0.503520 0.418856
O O5 0.137054 0.812862 0.189820
O O6 0.243200 0.689904 0.294275
O O7 0.293398 0.814896 0.404128
O O8 0.115291 0.746157 0.371275
O O9 0.952845 0.125272 0.565116
O O10 0.988465 0.257534 0.498846
O O11 0.364652 0.072522 0.320747
O O12 0.183381 0.057116 0.137615
O O13 0.500000 0.987127 0.750000
O O14 0.557806 0.883285 0.918832
O O15 0.500000 0.000000 0.000000
O O16 0.500000 0.500000 0.500000
#
# Coordination Sequence:
#
# PCOD8146468 Si02
#       7
#     8   8   8   8   8   8   8
#     4  11  23  41  64 101 141 172 215 287 355 409
#     4  11  23  40  74  98 132 179 235 283 347 408
#     4  11  21  41  66  99 132 170 224 281 345 410
#     4  12  23  45  67  95 138 184 223 289 352 403
#     4  12  28  50  71  98 143 189 238 289 342 423
#     4  10  22  41  65  99 134 169 226 280 354 407
#     4  11  22  46  67  98 131 178 233 288 338 409
#
# _framework density 20.457190000000001
#
# number of rings (size 3 to 8) (size 9 to 14) (size 15 to 20)
#    0.000    0.857    7.143    0.429    2.000    4.000 
#    0.000    0.714    0.000    0.000    0.000    0.000 
#    0.000    0.000    0.000    0.000    0.000    0.000 
#
# Total GULP energy -347010.509344 kJ/mol
# GULP energy per Si atom -12393.232477 kJ/mol
# Density = 2.041063 g / cm^3
# Si number density = 20.457190 Si / 1000 Ang^3
#
#
#
# Elastic Constant Matrix: (Units=GPa)
#
#
# Indices 1 2 3 4 5 6 
#
# 1 106.4618 25.4111 57.1699 0.0000 3.3274 0.0000
# 2 25.4111 69.7801 55.0355 0.0000 6.8971 0.0000
# 3 57.1699 55.0355 156.3457 0.0000 10.9897 0.0000
# 4 0.0000 0.0000 0.0000 34.9995 0.0000 9.9089
# 5 3.3274 6.8971 10.9897 0.0000 38.1937 0.0000
# 6 0.0000 0.0000 0.0000 9.9089 0.0000 22.5766
#
#
#
# Elastic Compliance Matrix: (Units=1/GPa)
#
#
# Indices 1 2 3 4 5 6 
#
# 1 0.011768 -0.001253 -0.003884 0.000000 0.000319 0.000000
# 2 -0.001253 0.020069 -0.006490 0.000000 -0.001647 0.000000
# 3 -0.003884 -0.006490 0.010201 0.000000 -0.001425 0.000000
# 4 0.000000 0.000000 0.000000 0.032626 0.000000 -0.014320
# 5 0.000319 -0.001647 -0.001425 0.000000 0.026862 0.000000
# 6 0.000000 0.000000 0.000000 -0.014320 0.000000 0.050579
#
#
# Mechanical properties :
#
#
# Convention : Reuss Voigt Hill
#
# Bulk Modulus (GPa) = 53.24217 67.53560 60.38889
# Shear Modulus (GPa) = 27.52971 32.15205 29.84088
#
# Velocity S-wave (km/s) = 3.67239 3.96874 3.82343
# Velocity P-wave (km/s) = 6.63811 7.35432 7.00537
#
# Compressibility (1/GPa) = 0.01878210
#
# Stress axis : x y z
#
# Youngs Moduli (GPa) = 84.97508 49.82815 98.02666
#
# Poissons Ratio (x) = 0.06245 0.38077
# Poissons Ratio (y) = 0.10651 0.63623
# Poissons Ratio (z) = 0.33008 0.32340
#
# Static dielectric constant tensor:
#      x y z
#    x 3.950710 0.000000 0.017380 
#    y 0.000000 4.095660 0.000000 
#    z 0.017380 0.000000 4.010770 
# 
# 
# High freq. dielectric constant tensor:
#      x y z
#    x 1.806660 0.000000 0.012190 
#    y 0.000000 1.795830 0.000000 
#    z 0.012190 0.000000 1.806270 
# 
# From -- ./inp_files/98837.got.cif
#   From: 2010.06.25/outbox.cif.g09.slc.cpg/sg15_50_cif.got.tgz:98837.got - 2010.06.28 07:06:18.
