data_PCOD8146047
_publ_section_title
;
Structure prediction by ZEFSAII (Michael W. Deem and Ramdas Pophale) SiO2 
 PCOD8146047
Probable space group: C 2/C
;
_chemical_formula_sum "Si O2"
_cell_formula_units_Z 40
_cell_length_a 8.980674
_cell_length_b 8.595455
_cell_length_c 23.454218
_cell_angle_alpha 90.000000
_cell_angle_beta 81.708267
_cell_angle_gamma 90.000000
_cell_volume 1791.575086
_symmetry_space_group_name_H-M "C 2/C"
_symmetry_group_IT_number 15
_symmetry_cell_setting 'monoclinic'
loop_
_space_group_symop_operation_xyz
x,y,z
-x,y,1/2-z
-x,-y,-z
x,-y,1/2+z
1/2+x,1/2+y,z
1/2-x,1/2+y,1/2-z
1/2-x,1/2-y,-z
1/2+x,1/2-y,1/2+z
loop_
_atom_site_type_symbol
_atom_site_label
_atom_site_fract_x
_atom_site_fract_y
_atom_site_fract_z
Si Si1 0.329532 0.667232 0.578658
Si Si2 0.970265 0.662083 0.973310
Si Si3 0.681563 0.341847 0.680892
Si Si4 0.827448 0.811889 0.275435
Si Si5 0.379833 0.340366 0.630368
O O1 0.177085 0.629587 0.554835
O O2 0.453415 0.712203 0.524962
O O3 0.298802 0.812671 0.622700
O O4 0.386110 0.519044 0.610854
O O5 0.101506 0.726587 0.925090
O O6 0.000000 0.500000 0.000000
O O7 0.719806 0.217045 0.727539
O O8 0.702648 0.512437 0.704607
O O9 0.511369 0.314972 0.669448
O O10 0.778578 0.700458 0.330792
O O11 0.000000 0.777593 0.250000
#
# Coordination Sequence:
#
# PCOD8146047 Si02
#       5
#     8   8   8   8   8
#     4  10  22  41  65  95 126 162 209 259 312 374
#     4  10  22  40  65  96 128 163 206 257 314 373
#     4  11  24  43  64  91 127 165 211 260 314 373
#     4  12  25  41  64  93 126 166 212 260 313 371
#     4  11  24  43  66  93 129 168 209 259 313 374
#
# _framework density 22.326722
#
# number of rings (size 3 to 8) (size 9 to 14) (size 15 to 20)
#    0.000    1.200    0.000    6.000    0.000    8.800 
#    0.000    1.000    0.000    0.000    0.000    0.000 
#    0.000    0.000    0.000    0.000    0.000    0.000 
#
# Total GULP energy -248027.885747 kJ/mol
# GULP energy per Si atom -12401.394287 kJ/mol
# Density = 2.227591 g / cm^3
# Si number density = 22.326722 Si / 1000 Ang^3
#
#
#
# Elastic Constant Matrix: (Units=GPa)
#
#
# Indices 1 2 3 4 5 6 
#
# 1 85.4261 63.5022 85.1165 0.0000 -18.3059 0.0000
# 2 63.5022 126.3183 71.7458 0.0000 6.6821 0.0000
# 3 85.1165 71.7458 167.4668 0.0000 -10.7932 0.0000
# 4 0.0000 0.0000 0.0000 59.6547 0.0000 6.8116
# 5 -18.3059 6.6821 -10.7932 0.0000 27.7957 0.0000
# 6 0.0000 0.0000 0.0000 6.8116 0.0000 26.3644
#
#
#
# Elastic Compliance Matrix: (Units=1/GPa)
#
#
# Indices 1 2 3 4 5 6 
#
# 1 0.040721 -0.014513 -0.012847 0.000000 0.025319 0.000000
# 2 -0.014513 0.016178 -0.000432 0.000000 -0.013615 0.000000
# 3 -0.012847 -0.000432 0.012459 0.000000 -0.003519 0.000000
# 4 0.000000 0.000000 0.000000 0.017273 0.000000 -0.004463
# 5 0.025319 -0.013615 -0.003519 0.000000 0.054558 0.000000
# 6 0.000000 0.000000 0.000000 -0.004463 0.000000 0.039083
#
#
# Mechanical properties :
#
#
# Convention : Reuss Voigt Hill
#
# Bulk Modulus (GPa) = 72.60461 91.10446 81.85453
# Shear Modulus (GPa) = 20.79451 33.35275 27.07363
#
# Velocity S-wave (km/s) = 3.05515 3.86923 3.48603
# Velocity P-wave (km/s) = 6.71081 7.80096 7.27633
#
# Compressibility (1/GPa) = 0.01377323
#
# Stress axis : x y z
#
# Youngs Moduli (GPa) = 24.55750 61.81137 80.26180
#
# Poissons Ratio (x) = 0.89710 1.03113
# Poissons Ratio (y) = 0.35641 0.03467
# Poissons Ratio (z) = 0.31549 0.02670
#
# Static dielectric constant tensor:
#      x y z
#    x 3.925820 0.000000 -0.073080 
#    y 0.000000 3.894710 0.000000 
#    z -0.073080 0.000000 4.812520 
# 
# 
# High freq. dielectric constant tensor:
#      x y z
#    x 1.863010 0.000000 -0.001190 
#    y 0.000000 1.880200 0.000000 
#    z -0.001190 0.000000 1.912870 
# 
# From -- ./inp_files/262426.got.cif
#   From: 2010.06.25/outbox.cif.g09.slc.cpg/sg15_132_cif.got.tgz:262426.got - 2010.06.28 07:06:18.
