data_PCOD8146093
_publ_section_title
;
Structure prediction by ZEFSAII (Michael W. Deem and Ramdas Pophale) SiO2 
 PCOD8146093
Probable space group: C 2/C
;
_chemical_formula_sum "Si O2"
_cell_formula_units_Z 44
_cell_length_a 11.802033
_cell_length_b 24.125537
_cell_length_c 5.594928
_cell_angle_alpha 90.000000
_cell_angle_beta 83.508981
_cell_angle_gamma 90.000000
_cell_volume 1582.833915
_symmetry_space_group_name_H-M "C 2/C"
_symmetry_group_IT_number 15
_symmetry_cell_setting 'monoclinic'
loop_
_space_group_symop_operation_xyz
x,y,z
-x,y,1/2-z
-x,-y,-z
x,-y,1/2+z
1/2+x,1/2+y,z
1/2-x,1/2+y,1/2-z
1/2-x,1/2-y,-z
1/2+x,1/2-y,1/2+z
loop_
_atom_site_type_symbol
_atom_site_label
_atom_site_fract_x
_atom_site_fract_y
_atom_site_fract_z
Si Si1 0.865701 0.528587 0.804392
Si Si2 0.000000 0.330105 0.750000
Si Si3 0.197120 0.361620 0.396446
Si Si4 0.132418 0.026213 0.157816
Si Si5 0.379440 0.766288 0.397682
Si Si6 0.633773 0.648938 0.226906
O O1 0.830638 0.486519 0.592413
O O2 0.800003 0.586259 0.779430
O O3 0.000000 0.536279 0.750000
O O4 0.923457 0.369626 0.933795
O O5 0.903607 0.291838 0.650917
O O6 0.196577 0.305827 0.246651
O O7 0.312738 0.357664 0.523185
O O8 0.156548 0.090680 0.091536
O O9 0.000000 0.013863 0.250000
O O10 0.184500 0.004643 0.402958
O O11 0.500000 0.757455 0.250000
O O12 0.315715 0.705222 0.416893
O O13 0.500000 0.658408 0.250000
#
# Coordination Sequence:
#
# PCOD8146093 Si02
#       6
#     8   4   8   8   8   8
#     4  10  23  40  68 102 138 178 230 285 345 412
#     4  10  22  40  66  94 130 164 222 276 358 402
#     4  11  23  40  66  95 134 175 218 281 345 402
#     4   9  19  40  64  91 127 174 222 275 327 388
#     4   9  20  41  65  95 128 171 218 281 341 407
#     4  10  22  43  65  96 131 177 228 274 332 410
#
# _framework density 27.798238999999999
#
# number of rings (size 3 to 8) (size 9 to 14) (size 15 to 20)
#    0.000    2.182    0.000    2.182    6.364    2.182 
#   18.000    0.000    0.000    0.000    0.000    0.000 
#    0.000    0.000    0.000    0.000    0.000    0.000 
#
# Total GULP energy -272584.781181 kJ/mol
# GULP energy per Si atom -12390.217326 kJ/mol
# Density = 2.773497 g / cm^3
# Si number density = 27.798239 Si / 1000 Ang^3
#
#
#
# Elastic Constant Matrix: (Units=GPa)
#
#
# Indices 1 2 3 4 5 6 
#
# 1 146.1565 24.6852 98.8436 0.0000 12.9400 0.0000
# 2 24.6852 166.6892 36.9679 0.0000 -1.7304 0.0000
# 3 98.8436 36.9679 168.7132 0.0000 -12.9710 0.0000
# 4 0.0000 0.0000 0.0000 -16.6541 0.0000 54.4995
# 5 12.9400 -1.7304 -12.9710 0.0000 66.1688 0.0000
# 6 0.0000 0.0000 0.0000 54.4995 0.0000 2.2973
#
#
#
# Elastic Compliance Matrix: (Units=1/GPa)
#
#
# Indices 1 2 3 4 5 6 
#
# 1 0.012236 -0.000207 -0.007419 0.000000 -0.003853 0.000000
# 2 -0.000207 0.006310 -0.001265 0.000000 -0.000043 0.000000
# 3 -0.007419 -0.001265 0.010823 0.000000 0.003540 0.000000
# 4 0.000000 0.000000 0.000000 -0.000764 0.000000 0.018115
# 5 -0.003853 -0.000043 0.003540 0.000000 0.016559 0.000000
# 6 0.000000 0.000000 0.000000 0.018115 0.000000 0.005536
#
#
# Mechanical properties :
#
#
# Convention : Reuss Voigt Hill
#
# Bulk Modulus (GPa) = 86.30241 89.17248 87.73744
# Shear Modulus (GPa) = 69.11450 31.76657 50.44053
#
# Velocity S-wave (km/s) = 4.99168 3.38413 4.26434
# Velocity P-wave (km/s) = 8.02097 6.88607 7.47509
#
# Compressibility (1/GPa) = 0.01158716
#
# Stress axis : x y z
#
# Youngs Moduli (GPa) = 81.72899 158.48237 92.39357
#
# Poissons Ratio (x) = 0.03273 0.68550
# Poissons Ratio (y) = 0.01688 0.11687
# Poissons Ratio (z) = 0.60638 0.20046
#
# Static dielectric constant tensor:
#      x y z
#    x 5.460330 0.000000 0.097710 
#    y 0.000000 5.799100 0.000000 
#    z 0.097710 0.000000 5.269850 
# 
# 
# High freq. dielectric constant tensor:
#      x y z
#    x 2.194030 0.000000 -0.002510 
#    y 0.000000 2.124210 0.000000 
#    z -0.002510 0.000000 2.132410 
# 
# From -- ./inp_files/7604.got.cif
#   From: 2010.06.25/outbox.cif.g09.slc.cpg/sg15_4_cif.got.tgz:7604.got - 2010.06.28 07:06:18.
