data_PCOD8146803
_publ_section_title
;
Structure prediction by ZEFSAII (Michael W. Deem and Ramdas Pophale) SiO2 
 PCOD8146803
Probable space group: C 2/C
;
_chemical_formula_sum "Si O2"
_cell_formula_units_Z 48
_cell_length_a 25.838696
_cell_length_b 13.984911
_cell_length_c 13.589028
_cell_angle_alpha 90.000000
_cell_angle_beta 153.364983
_cell_angle_gamma 90.000000
_cell_volume 2201.368449
_symmetry_space_group_name_H-M "C 2/C"
_symmetry_group_IT_number 15
_symmetry_cell_setting 'monoclinic'
loop_
_space_group_symop_operation_xyz
x,y,z
-x,y,1/2-z
-x,-y,-z
x,-y,1/2+z
1/2+x,1/2+y,z
1/2-x,1/2+y,1/2-z
1/2-x,1/2-y,-z
1/2+x,1/2-y,1/2+z
loop_
_atom_site_type_symbol
_atom_site_label
_atom_site_fract_x
_atom_site_fract_y
_atom_site_fract_z
Si Si1 0.331027 0.493528 0.197480
Si Si2 0.500000 0.238083 0.250000
Si Si3 0.879732 0.740041 0.678841
Si Si4 0.875731 0.930603 0.566421
Si Si5 0.000000 0.413212 0.250000
Si Si6 0.015561 0.156808 0.977064
Si Si7 0.333556 0.932380 0.436855
O O1 0.372064 0.586956 0.330183
O O2 0.415692 0.404341 0.359124
O O3 0.321450 0.514482 0.066043
O O4 0.204505 0.461342 0.017304
O O5 0.520828 0.307104 0.192519
O O6 0.610144 0.172681 0.464329
O O7 0.750000 0.750000 0.500000
O O8 0.901156 0.821617 0.635737
O O9 0.916727 0.644449 0.683603
O O10 0.962287 0.752101 0.914443
O O11 0.783962 0.934459 0.323897
O O12 0.000000 0.978063 0.750000
O O13 0.078370 0.485172 0.449954
#
# Coordination Sequence:
#
# PCOD8146803 Si02
#       7
#     8   4   8   8   4   8   8
#     4  10  23  41  66  94 128 171 219 276 328 396
#     4  11  26  42  65  96 138 172 211 278 338 399
#     4  11  22  40  66  96 132 178 226 273 332 401
#     4  11  22  41  67  95 127 172 228 280 328 394
#     4  11  24  42  67  98 140 184 219 270 340 399
#     4  10  22  42  64  96 129 168 226 273 329 393
#     4  11  25  43  62  99 137 174 220 270 339 403
#
# _framework density 21.804618999999999
#
# number of rings (size 3 to 8) (size 9 to 14) (size 15 to 20)
#    0.000    1.333    0.833    6.000    3.500    2.000 
#    0.000    4.167    0.000    0.000    0.000    0.000 
#    0.000    0.000    0.000    0.000    0.000    0.000 
#
# Total GULP energy -297458.797014 kJ/mol
# GULP energy per Si atom -12394.116542 kJ/mol
# Density = 2.175499 g / cm^3
# Si number density = 21.804619 Si / 1000 Ang^3
#
#
#
# Elastic Constant Matrix: (Units=GPa)
#
#
# Indices 1 2 3 4 5 6 
#
# 1 101.3209 35.4981 41.0021 0.0000 0.1137 0.0000
# 2 35.4981 83.0935 29.3725 0.0000 -8.0126 0.0000
# 3 41.0021 29.3725 116.8553 0.0000 -10.0249 0.0000
# 4 0.0000 0.0000 0.0000 18.3491 0.0000 2.8915
# 5 0.1137 -8.0126 -10.0249 0.0000 37.6579 0.0000
# 6 0.0000 0.0000 0.0000 2.8915 0.0000 25.5148
#
#
#
# Elastic Compliance Matrix: (Units=1/GPa)
#
#
# Indices 1 2 3 4 5 6 
#
# 1 0.012865 -0.004421 -0.003568 0.000000 -0.001929 0.000000
# 2 -0.004421 0.014872 -0.001959 0.000000 0.002656 0.000000
# 3 -0.003568 -0.001959 0.010507 0.000000 0.002391 0.000000
# 4 0.000000 0.000000 0.000000 0.055490 0.000000 -0.006288
# 5 -0.001929 0.002656 0.002391 0.000000 0.027762 0.000000
# 6 0.000000 0.000000 0.000000 -0.006288 0.000000 0.039906
#
#
# Mechanical properties :
#
#
# Convention : Reuss Voigt Hill
#
# Bulk Modulus (GPa) = 54.50326 57.00168 55.75247
# Shear Modulus (GPa) = 26.67907 29.33083 28.00495
#
# Velocity S-wave (km/s) = 3.50172 3.67163 3.58768
# Velocity P-wave (km/s) = 6.43428 6.64630 6.54114
#
# Compressibility (1/GPa) = 0.01834753
#
# Stress axis : x y z
#
# Youngs Moduli (GPa) = 77.73302 67.24137 95.17273
#
# Poissons Ratio (x) = 0.29724 0.33960
# Poissons Ratio (y) = 0.34362 0.18646
# Poissons Ratio (z) = 0.27737 0.13174
#
# Static dielectric constant tensor:
#      x y z
#    x 3.930360 0.000000 0.100750 
#    y 0.000000 4.033550 0.000000 
#    z 0.100750 0.000000 3.867210 
# 
# 
# High freq. dielectric constant tensor:
#      x y z
#    x 1.859510 0.000000 0.005630 
#    y 0.000000 1.860510 0.000000 
#    z 0.005630 0.000000 1.849710 
# 
# From -- ./inp_files/182567.got.cif
#   From: 2010.06.25/outbox.cif.g09.slc.cpg/sg15_92_cif.got.tgz:182567.got - 2010.06.28 07:06:18.
