data_PCOD8146282
_publ_section_title
;
Structure prediction by ZEFSAII (Michael W. Deem and Ramdas Pophale) SiO2 
 PCOD8146282
Probable space group: C 2/C
;
_chemical_formula_sum "Si O2"
_cell_formula_units_Z 44
_cell_length_a 20.435478
_cell_length_b 13.407261
_cell_length_c 13.585971
_cell_angle_alpha 90.000000
_cell_angle_beta 28.722080
_cell_angle_gamma 90.000000
_cell_volume 1788.811219
_symmetry_space_group_name_H-M "C 2/C"
_symmetry_group_IT_number 15
_symmetry_cell_setting 'monoclinic'
loop_
_space_group_symop_operation_xyz
x,y,z
-x,y,1/2-z
-x,-y,-z
x,-y,1/2+z
1/2+x,1/2+y,z
1/2-x,1/2+y,1/2-z
1/2-x,1/2-y,-z
1/2+x,1/2-y,1/2+z
loop_
_atom_site_type_symbol
_atom_site_label
_atom_site_fract_x
_atom_site_fract_y
_atom_site_fract_z
Si Si1 0.500000 0.939357 0.250000
Si Si2 0.454152 0.778980 0.697362
Si Si3 0.894764 0.935419 0.202187
Si Si4 0.197849 0.606997 0.796546
Si Si5 0.297754 0.041516 0.382559
Si Si6 0.649852 0.247471 0.538217
O O1 0.377045 0.869013 0.453420
O O2 0.441156 0.005771 0.240296
O O3 0.500000 0.773385 0.750000
O O4 0.462372 0.670025 0.639201
O O5 0.547730 0.850748 0.506748
O O6 0.307455 0.836052 0.874212
O O7 0.755330 0.921096 0.326739
O O8 0.839836 0.988364 0.375159
O O9 0.000000 0.000000 0.000000
O O10 0.210813 0.508179 0.712443
O O11 0.285383 0.697524 0.638531
O O12 0.750000 0.250000 0.500000
O O13 0.500000 0.297860 0.750000
#
# Coordination Sequence:
#
# PCOD8146282 Si02
#       6
#     4   8   8   8   8   8
#     4  10  22  40  78 106 162 196 270 338 396 468
#     4  12  28  53  76 112 156 211 263 339 408 488
#     4  12  32  47  78 115 158 207 267 331 411 485
#     4  12  27  46  81 109 157 212 268 325 414 475
#     4  12  25  52  77 115 154 212 271 332 396 495
#     4  10  23  41  70 116 158 202 256 341 389 471
#
# _framework density 24.597342000000001
#
# number of rings (size 3 to 8) (size 9 to 14) (size 15 to 20)
#    0.545    0.000    4.545    1.091   12.727    0.000 
#    0.000    0.000    0.000    0.000    0.000    0.000 
#    0.000    0.000    0.000    0.000    0.000    0.000 
#
# Total GULP energy -272659.455556 kJ/mol
# GULP energy per Si atom -12393.611616 kJ/mol
# Density = 2.454136 g / cm^3
# Si number density = 24.597342 Si / 1000 Ang^3
#
#
#
# Elastic Constant Matrix: (Units=GPa)
#
#
# Indices 1 2 3 4 5 6 
#
# 1 95.4898 39.7583 33.9688 0.0000 6.6412 0.0000
# 2 39.7583 145.7041 36.7619 0.0000 17.5180 0.0000
# 3 33.9688 36.7619 98.2182 0.0000 11.6068 0.0000
# 4 0.0000 0.0000 0.0000 20.0153 0.0000 7.6996
# 5 6.6412 17.5180 11.6068 0.0000 39.8475 0.0000
# 6 0.0000 0.0000 0.0000 7.6996 0.0000 46.3398
#
#
#
# Elastic Compliance Matrix: (Units=1/GPa)
#
#
# Indices 1 2 3 4 5 6 
#
# 1 0.012788 -0.002624 -0.003444 0.000000 0.000025 0.000000
# 2 -0.002624 0.008385 -0.001913 0.000000 -0.002692 0.000000
# 3 -0.003444 -0.001913 0.012346 0.000000 -0.002181 0.000000
# 4 0.000000 0.000000 0.000000 0.053373 0.000000 -0.008868
# 5 0.000025 -0.002692 -0.002181 0.000000 0.026910 0.000000
# 6 0.000000 0.000000 0.000000 -0.008868 0.000000 0.023053
#
#
# Mechanical properties :
#
#
# Convention : Reuss Voigt Hill
#
# Bulk Modulus (GPa) = 56.95133 62.26556 59.60844
# Shear Modulus (GPa) = 31.51189 36.50205 34.00697
#
# Velocity S-wave (km/s) = 3.58314 3.85643 3.72229
# Velocity P-wave (km/s) = 6.34998 6.72297 6.53913
#
# Compressibility (1/GPa) = 0.01755885
#
# Stress axis : x y z
#
# Youngs Moduli (GPa) = 78.19845 119.25392 80.99639
#
# Poissons Ratio (x) = 0.31288 0.27893
# Poissons Ratio (y) = 0.20516 0.15495
# Poissons Ratio (z) = 0.26929 0.22814
#
# Static dielectric constant tensor:
#      x y z
#    x 4.250710 0.000000 -0.051750 
#    y 0.000000 4.916290 0.000000 
#    z -0.051750 0.000000 4.560660 
# 
# 
# High freq. dielectric constant tensor:
#      x y z
#    x 1.967560 0.000000 0.001400 
#    y 0.000000 1.992090 0.000000 
#    z 0.001400 0.000000 1.990020 
# 
# From -- ./inp_files/168417.got.cif
#   From: 2010.06.25/outbox.cif.g09.slc.cpg/sg15_85_cif.got.tgz:168417.got - 2010.06.28 07:06:18.
