data_PCOD8146405
_publ_section_title
;
Structure prediction by ZEFSAII (Michael W. Deem and Ramdas Pophale) SiO2 
 PCOD8146405
Probable space group: C 2/C
;
_chemical_formula_sum "Si O2"
_cell_formula_units_Z 52
_cell_length_a 15.800170
_cell_length_b 14.762180
_cell_length_c 11.557332
_cell_angle_alpha 90.000000
_cell_angle_beta 68.709016
_cell_angle_gamma 90.000000
_cell_volume 2511.704191
_symmetry_space_group_name_H-M "C 2/C"
_symmetry_group_IT_number 15
_symmetry_cell_setting 'monoclinic'
loop_
_space_group_symop_operation_xyz
x,y,z
-x,y,1/2-z
-x,-y,-z
x,-y,1/2+z
1/2+x,1/2+y,z
1/2-x,1/2+y,1/2-z
1/2-x,1/2-y,-z
1/2+x,1/2-y,1/2+z
loop_
_atom_site_type_symbol
_atom_site_label
_atom_site_fract_x
_atom_site_fract_y
_atom_site_fract_z
Si Si1 0.772031 0.549693 0.317372
Si Si2 0.075697 0.370762 0.906769
Si Si3 0.500000 0.411033 0.750000
Si Si4 0.668965 0.678347 0.526363
Si Si5 0.482574 0.319572 0.006297
Si Si6 0.129751 0.062324 0.765085
Si Si7 0.438414 0.996760 0.876334
O O1 0.829293 0.616089 0.206712
O O2 0.692785 0.601807 0.422043
O O3 0.726279 0.466562 0.271206
O O4 0.836303 0.512206 0.384894
O O5 0.079846 0.269303 0.953135
O O6 0.987958 0.398514 0.872381
O O7 0.069891 0.443206 0.009108
O O8 0.511307 0.348464 0.630786
O O9 0.587741 0.474491 0.723114
O O10 0.750000 0.750000 0.500000
O O11 0.576737 0.716349 0.515797
O O12 0.647721 0.640777 0.663984
O O13 0.439516 0.401406 0.102357
O O14 0.500000 0.048511 0.750000
#
# Coordination Sequence:
#
# PCOD8146405 Si02
#       7
#     8   8   4   8   8   8   8
#     4  11  22  40  64  96 127 171 222 267 331 394
#     4  10  22  41  64  97 132 171 216 277 331 398
#     4  12  24  46  68  92 132 184 216 268 334 392
#     4  12  24  40  67  98 129 166 224 278 321 390
#     4  12  25  43  68  97 133 174 225 273 331 391
#     4  12  24  45  69  93 133 181 224 271 331 396
#     4   9  20  40  66  89 133 177 213 265 340 396
#
# _framework density 20.703075999999999
#
# number of rings (size 3 to 8) (size 9 to 14) (size 15 to 20)
#    0.000    0.923    3.077    4.154    1.077    4.923 
#    0.000    1.538    0.000    0.000    0.000    0.000 
#    0.000    0.000    0.000    0.000    0.000    0.000 
#
# Total GULP energy -322326.157743 kJ/mol
# GULP energy per Si atom -12397.159913 kJ/mol
# Density = 2.065595 g / cm^3
# Si number density = 20.703076 Si / 1000 Ang^3
#
#
#
# Elastic Constant Matrix: (Units=GPa)
#
#
# Indices 1 2 3 4 5 6 
#
# 1 109.9696 38.1016 36.0858 0.0000 3.1449 0.0000
# 2 38.1016 75.3469 39.2950 0.0000 8.0044 0.0000
# 3 36.0858 39.2950 135.2846 0.0000 10.8353 0.0000
# 4 0.0000 0.0000 0.0000 30.0115 0.0000 -2.5537
# 5 3.1449 8.0044 10.8353 0.0000 29.3513 0.0000
# 6 0.0000 0.0000 0.0000 -2.5537 0.0000 10.9952
#
#
#
# Elastic Compliance Matrix: (Units=1/GPa)
#
#
# Indices 1 2 3 4 5 6 
#
# 1 0.011326 -0.004950 -0.001643 0.000000 0.000743 0.000000
# 2 -0.004950 0.018010 -0.003668 0.000000 -0.003027 0.000000
# 3 -0.001643 -0.003668 0.009070 0.000000 -0.002172 0.000000
# 4 0.000000 0.000000 0.000000 0.033992 0.000000 0.007895
# 5 0.000743 -0.003027 -0.002172 0.000000 0.035618 0.000000
# 6 0.000000 0.000000 0.000000 0.007895 0.000000 0.092783
#
#
# Mechanical properties :
#
#
# Convention : Reuss Voigt Hill
#
# Bulk Modulus (GPa) = 55.91769 60.84065 58.37917
# Shear Modulus (GPa) = 21.99922 27.87951 24.93937
#
# Velocity S-wave (km/s) = 3.26330 3.67364 3.47453
# Velocity P-wave (km/s) = 6.42393 6.88805 6.66003
#
# Compressibility (1/GPa) = 0.01788343
#
# Stress axis : x y z
#
# Youngs Moduli (GPa) = 88.29089 55.52619 110.25914
#
# Poissons Ratio (x) = 0.27483 0.18116
# Poissons Ratio (y) = 0.43700 0.40448
# Poissons Ratio (z) = 0.14506 0.20369
#
# Static dielectric constant tensor:
#      x y z
#    x 4.210510 0.000000 0.346340 
#    y 0.000000 3.553050 0.000000 
#    z 0.346340 0.000000 4.278260 
# 
# 
# High freq. dielectric constant tensor:
#      x y z
#    x 1.817600 0.000000 0.001730 
#    y 0.000000 1.793950 0.000000 
#    z 0.001730 0.000000 1.832730 
# 
# From -- ./inp_files/96925.got.cif
#   From: 2010.06.25/outbox.cif.g09.slc.cpg/sg15_49_cif.got.tgz:96925.got - 2010.06.28 07:06:18.
