data_PCOD8146522
_publ_section_title
;
Structure prediction by ZEFSAII (Michael W. Deem and Ramdas Pophale) SiO2 
 PCOD8146522
Probable space group: C 2/C
;
_chemical_formula_sum "Si O2"
_cell_formula_units_Z 56
_cell_length_a 14.208815
_cell_length_b 26.614295
_cell_length_c 9.052847
_cell_angle_alpha 90.000000
_cell_angle_beta 124.461766
_cell_angle_gamma 90.000000
_cell_volume 2822.609244
_symmetry_space_group_name_H-M "C 2/C"
_symmetry_group_IT_number 15
_symmetry_cell_setting 'monoclinic'
loop_
_space_group_symop_operation_xyz
x,y,z
-x,y,1/2-z
-x,-y,-z
x,-y,1/2+z
1/2+x,1/2+y,z
1/2-x,1/2+y,1/2-z
1/2-x,1/2-y,-z
1/2+x,1/2-y,1/2+z
loop_
_atom_site_type_symbol
_atom_site_label
_atom_site_fract_x
_atom_site_fract_y
_atom_site_fract_z
Si Si1 0.111073 0.594187 0.754460
Si Si2 0.413685 0.545058 0.411299
Si Si3 0.015682 0.153050 0.587962
Si Si4 0.065488 0.461383 0.956624
Si Si5 0.602810 0.273797 0.741721
Si Si6 0.774375 0.988190 0.518984
Si Si7 0.234654 0.183698 0.618706
O O1 0.073996 0.591610 0.549870
O O2 0.161325 0.647943 0.832086
O O3 0.000000 0.581818 0.750000
O O4 0.206362 0.551765 0.861816
O O5 0.500000 0.500000 0.500000
O O6 0.474477 0.598605 0.493423
O O7 0.323929 0.532722 0.460448
O O8 0.363040 0.543024 0.200122
O O9 0.150330 0.162185 0.670995
O O10 0.000000 0.157417 0.750000
O O11 0.942887 0.196840 0.442758
O O12 0.000000 0.450285 0.750000
O O13 0.191695 0.482162 0.052763
O O14 0.000000 0.500000 0.000000
O O15 0.500000 0.249216 0.750000
O O16 0.700102 0.234650 0.774520
O O17 0.662933 0.312777 0.905065
#
# Coordination Sequence:
#
# PCOD8146522 Si02
#       7
#     8   8   8   8   8   8   8
#     4  12  23  37  62  92 120 161 210 254 308 368
#     4  12  25  39  58  90 125 166 212 251 301 371
#     4  11  24  41  62  92 130 162 201 255 315 374
#     4  12  21  40  57  83 121 167 207 248 304 361
#     4   9  20  44  70  91 119 156 205 257 313 371
#     4  12  22  38  60  81 124 167 205 252 302 357
#     4  10  22  41  67  93 119 157 205 261 309 366
#
# _framework density 19.839797999999998
#
# number of rings (size 3 to 8) (size 9 to 14) (size 15 to 20)
#    0.000    0.857    4.286    3.429    2.000    2.857 
#    0.000    0.714    0.000    0.000    0.000    0.000 
#    0.000    0.000    0.000    0.000    0.000    0.000 
#
# Total GULP energy -347028.084036 kJ/mol
# GULP energy per Si atom -12393.860144 kJ/mol
# Density = 1.979464 g / cm^3
# Si number density = 19.839798 Si / 1000 Ang^3
#
#
#
# Elastic Constant Matrix: (Units=GPa)
#
#
# Indices 1 2 3 4 5 6 
#
# 1 94.6567 45.7883 41.5174 0.0000 4.8884 0.0000
# 2 45.7883 85.4096 36.9530 0.0000 2.2450 0.0000
# 3 41.5174 36.9530 128.0556 0.0000 -1.5403 0.0000
# 4 0.0000 0.0000 0.0000 16.5929 0.0000 -1.4735
# 5 4.8884 2.2450 -1.5403 0.0000 29.0045 0.0000
# 6 0.0000 0.0000 0.0000 -1.4735 0.0000 23.4883
#
#
#
# Elastic Compliance Matrix: (Units=1/GPa)
#
#
# Indices 1 2 3 4 5 6 
#
# 1 0.015313 -0.006847 -0.003016 0.000000 -0.002211 0.000000
# 2 -0.006847 0.016485 -0.002540 0.000000 -0.000257 0.000000
# 3 -0.003016 -0.002540 0.009534 0.000000 0.001211 0.000000
# 4 0.000000 0.000000 0.000000 0.060604 0.000000 0.003802
# 5 -0.002211 -0.000257 0.001211 0.000000 0.034934 0.000000
# 6 0.000000 0.000000 0.000000 0.003802 0.000000 0.042813
#
#
# Mechanical properties :
#
#
# Convention : Reuss Voigt Hill
#
# Bulk Modulus (GPa) = 60.50623 61.84879 61.17751
# Shear Modulus (GPa) = 23.80972 26.07467 24.94219
#
# Velocity S-wave (km/s) = 3.46800 3.62921 3.54952
# Velocity P-wave (km/s) = 6.82639 6.98594 6.90663
#
# Compressibility (1/GPa) = 0.01652722
#
# Stress axis : x y z
#
# Youngs Moduli (GPa) = 65.30272 60.66264 104.88295
#
# Poissons Ratio (x) = 0.41534 0.31629
# Poissons Ratio (y) = 0.44710 0.26643
# Poissons Ratio (z) = 0.19693 0.15410
#
# Static dielectric constant tensor:
#      x y z
#    x 3.954060 0.000000 0.394220 
#    y 0.000000 3.764310 0.000000 
#    z 0.394220 0.000000 3.708870 
# 
# 
# High freq. dielectric constant tensor:
#      x y z
#    x 1.789580 0.000000 0.008990 
#    y 0.000000 1.758190 0.000000 
#    z 0.008990 0.000000 1.783460 
# 
# From -- ./inp_files/42752.got.cif
#   From: 2010.06.25/outbox.cif.g09.slc.cpg/sg15_22_cif.got.tgz:42752.got - 2010.06.28 07:06:18.
