data_PCOD8146103
_publ_section_title
;
Structure prediction by ZEFSAII (Michael W. Deem and Ramdas Pophale) SiO2 
 PCOD8146103
Probable space group: C 2/C
;
_chemical_formula_sum "Si O2"
_cell_formula_units_Z 44
_cell_length_a 14.055889
_cell_length_b 6.601161
_cell_length_c 21.621139
_cell_angle_alpha 90.000000
_cell_angle_beta 109.215985
_cell_angle_gamma 90.000000
_cell_volume 1894.349518
_symmetry_space_group_name_H-M "C 2/C"
_symmetry_group_IT_number 15
_symmetry_cell_setting 'monoclinic'
loop_
_space_group_symop_operation_xyz
x,y,z
-x,y,1/2-z
-x,-y,-z
x,-y,1/2+z
1/2+x,1/2+y,z
1/2-x,1/2+y,1/2-z
1/2-x,1/2-y,-z
1/2+x,1/2-y,1/2+z
loop_
_atom_site_type_symbol
_atom_site_label
_atom_site_fract_x
_atom_site_fract_y
_atom_site_fract_z
Si Si1 0.122814 0.878951 0.205338
Si Si2 0.035821 0.961881 0.417091
Si Si3 0.000000 0.211019 0.250000
Si Si4 0.729738 0.292503 0.424268
Si Si5 0.054364 0.692239 0.537746
Si Si6 0.831257 0.518475 0.194496
O O1 0.237235 0.928389 0.212333
O O2 0.059680 0.075735 0.213520
O O3 0.121193 0.703038 0.255747
O O4 0.055813 0.823920 0.130401
O O5 0.137161 0.951473 0.396143
O O6 0.067068 0.863375 0.488511
O O7 0.004885 0.198590 0.418797
O O8 0.915937 0.351161 0.199781
O O9 0.750000 0.250000 0.500000
O O10 0.833463 0.377464 0.416359
O O11 0.702003 0.089642 0.380672
O O12 0.000000 0.500000 0.500000
#
# Coordination Sequence:
#
# PCOD8146103 Si02
#       6
#     8   8   4   8   8   8
#     4  12  25  45  72 104 140 188 232 292 359 417
#     4  10  22  42  63  93 138 171 224 288 336 409
#     4  12  26  46  74 100 140 186 232 288 358 416
#     4  10  22  43  67  94 135 176 223 283 342 408
#     4  10  22  40  66  96 131 180 226 276 342 412
#     4  12  25  47  72 104 143 185 237 292 353 428
#
# _framework density 23.226973000000001
#
# number of rings (size 3 to 8) (size 9 to 14) (size 15 to 20)
#    0.000    1.091    3.636    2.727    0.000    6.545 
#    3.273    0.000    0.000    0.000    0.000    0.000 
#    0.000    0.000    0.000    0.000    0.000    0.000 
#
# Total GULP energy -272649.791475 kJ/mol
# GULP energy per Si atom -12393.172340 kJ/mol
# Density = 2.317411 g / cm^3
# Si number density = 23.226973 Si / 1000 Ang^3
#
#
#
# Elastic Constant Matrix: (Units=GPa)
#
#
# Indices 1 2 3 4 5 6 
#
# 1 163.9568 53.1672 6.2793 0.0000 36.6814 0.0000
# 2 53.1672 69.9433 -3.0006 0.0000 10.9977 0.0000
# 3 6.2793 -3.0006 63.2245 0.0000 9.4467 0.0000
# 4 0.0000 0.0000 0.0000 31.8550 0.0000 1.5040
# 5 36.6814 10.9977 9.4467 0.0000 43.7268 0.0000
# 6 0.0000 0.0000 0.0000 1.5040 0.0000 52.2684
#
#
#
# Elastic Compliance Matrix: (Units=1/GPa)
#
#
# Indices 1 2 3 4 5 6 
#
# 1 0.009580 -0.006290 -0.000295 0.000000 -0.006391 0.000000
# 2 -0.006290 0.019121 0.001511 0.000000 0.000141 0.000000
# 3 -0.000295 0.001511 0.016469 0.000000 -0.003690 0.000000
# 4 0.000000 0.000000 0.000000 0.031435 0.000000 -0.000905
# 5 -0.006391 0.000141 -0.003690 0.000000 0.028992 0.000000
# 6 0.000000 0.000000 0.000000 -0.000905 0.000000 0.019158
#
#
# Mechanical properties :
#
#
# Convention : Reuss Voigt Hill
#
# Bulk Modulus (GPa) = 28.55312 45.55738 37.05525
# Shear Modulus (GPa) = 34.11169 41.61527 37.86348
#
# Velocity S-wave (km/s) = 3.83642 4.23741 4.04189
# Velocity P-wave (km/s) = 5.65190 6.60284 6.14579
#
# Compressibility (1/GPa) = 0.03502244
#
# Stress axis : x y z
#
# Youngs Moduli (GPa) = 104.38534 52.29777 60.71977
#
# Poissons Ratio (x) = 0.32895 0.01792
# Poissons Ratio (y) = 0.65658 -0.09176
# Poissons Ratio (z) = 0.03081 -0.07903
#
# Static dielectric constant tensor:
#      x y z
#    x 5.180680 0.000000 0.379460 
#    y 0.000000 4.098920 0.000000 
#    z 0.379460 0.000000 4.380420 
# 
# 
# High freq. dielectric constant tensor:
#      x y z
#    x 1.941060 0.000000 0.017250 
#    y 0.000000 1.891350 0.000000 
#    z 0.017250 0.000000 1.928580 
# 
# From -- ./inp_files/294479.got.cif
#   From: 2010.06.25/outbox.cif.g09.slc.cpg/sg15_148_cif.got.tgz:294479.got - 2010.06.28 07:06:18.
