data_PCOD8146128
_publ_section_title
;
Structure prediction by ZEFSAII (Michael W. Deem and Ramdas Pophale) SiO2 
 PCOD8146128
Probable space group: C 2/C
;
_chemical_formula_sum "Si O2"
_cell_formula_units_Z 44
_cell_length_a 12.227808
_cell_length_b 21.708780
_cell_length_c 8.002395
_cell_angle_alpha 90.000000
_cell_angle_beta 72.720886
_cell_angle_gamma 90.000000
_cell_volume 2028.373227
_symmetry_space_group_name_H-M "C 2/C"
_symmetry_group_IT_number 15
_symmetry_cell_setting 'monoclinic'
loop_
_space_group_symop_operation_xyz
x,y,z
-x,y,1/2-z
-x,-y,-z
x,-y,1/2+z
1/2+x,1/2+y,z
1/2-x,1/2+y,1/2-z
1/2-x,1/2-y,-z
1/2+x,1/2-y,1/2+z
loop_
_atom_site_type_symbol
_atom_site_label
_atom_site_fract_x
_atom_site_fract_y
_atom_site_fract_z
Si Si1 0.273140 0.177893 0.488469
Si Si2 0.931048 0.754971 0.943813
Si Si3 0.641877 0.447068 0.537234
Si Si4 0.276956 0.841746 0.367049
Si Si5 0.500000 0.204407 0.250000
Si Si6 0.395250 0.577523 0.062602
O O1 0.250000 0.250000 0.500000
O O2 0.305972 0.159357 0.659620
O O3 0.382554 0.164347 0.316271
O O4 0.161895 0.140732 0.474966
O O5 0.882559 0.687435 0.918947
O O6 0.000000 0.780573 0.750000
O O7 0.835276 0.804442 0.028201
O O8 0.003819 0.746689 0.080541
O O9 0.756459 0.413084 0.421622
O O10 0.658581 0.520322 0.514219
O O11 0.627999 0.430781 0.734189
O O12 0.533235 0.422701 0.475305
#
# Coordination Sequence:
#
# PCOD8146128 Si02
#       6
#     8   8   8   8   4   8
#     4  12  25  40  65  96 134 176 223 279 334 407
#     4  11  24  40  62  96 132 171 220 268 330 401
#     4  10  22  40  67  93 131 175 217 283 327 406
#     4  11  24  39  65  93 130 171 217 275 332 393
#     4  12  24  42  62  92 134 176 218 276 336 400
#     4  10  23  41  64  98 131 171 225 271 342 393
#
# _framework density 21.692260999999998
#
# number of rings (size 3 to 8) (size 9 to 14) (size 15 to 20)
#    0.000    1.091    3.636    2.182    7.636    2.182 
#    0.000    0.000    2.000    3.273    0.000    0.000 
#    0.000    0.000    0.000    0.000    0.000    0.000 
#
# Total GULP energy -272749.547933 kJ/mol
# GULP energy per Si atom -12397.706724 kJ/mol
# Density = 2.164289 g / cm^3
# Si number density = 21.692261 Si / 1000 Ang^3
#
#
#
# Elastic Constant Matrix: (Units=GPa)
#
#
# Indices 1 2 3 4 5 6 
#
# 1 65.6910 33.8114 21.8395 0.0000 3.6362 0.0000
# 2 33.8114 119.6206 18.9554 0.0000 3.4049 0.0000
# 3 21.8395 18.9554 114.8324 0.0000 2.7170 0.0000
# 4 0.0000 0.0000 0.0000 8.6672 0.0000 -7.3104
# 5 3.6362 3.4049 2.7170 0.0000 46.5802 0.0000
# 6 0.0000 0.0000 0.0000 -7.3104 0.0000 36.4205
#
#
#
# Elastic Compliance Matrix: (Units=1/GPa)
#
#
# Indices 1 2 3 4 5 6 
#
# 1 0.018662 -0.004815 -0.002732 0.000000 -0.000945 0.000000
# 2 -0.004815 0.009841 -0.000701 0.000000 -0.000303 0.000000
# 3 -0.002732 -0.000701 0.009350 0.000000 -0.000281 0.000000
# 4 0.000000 0.000000 0.000000 0.138892 0.000000 0.027879
# 5 -0.000945 -0.000303 -0.000281 0.000000 0.021581 0.000000
# 6 0.000000 0.000000 0.000000 0.027879 0.000000 0.033053
#
#
# Mechanical properties :
#
#
# Convention : Reuss Voigt Hill
#
# Bulk Modulus (GPa) = 46.82607 49.92851 48.37729
# Shear Modulus (GPa) = 19.60829 33.36941 26.48885
#
# Velocity S-wave (km/s) = 3.00980 3.92638 3.49824
# Velocity P-wave (km/s) = 5.80620 6.60470 6.21828
#
# Compressibility (1/GPa) = 0.02135563
#
# Stress axis : x y z
#
# Youngs Moduli (GPa) = 53.58571 101.62069 106.94766
#
# Poissons Ratio (x) = 0.48930 0.29218
# Poissons Ratio (y) = 0.25801 0.07502
# Poissons Ratio (z) = 0.14640 0.07128
#
# Static dielectric constant tensor:
#      x y z
#    x 3.743880 0.000000 0.335830 
#    y 0.000000 163.234020 0.000000 
#    z 0.335830 0.000000 3.780480 
# 
# 
# High freq. dielectric constant tensor:
#      x y z
#    x 1.838800 0.000000 0.007490 
#    y 0.000000 1.831690 0.000000 
#    z 0.007490 0.000000 1.872570 
# 
# From -- ./inp_files/30732.got.cif
#   From: 2010.06.25/outbox.cif.g09.slc.cpg/sg15_16_cif.got.tgz:30732.got - 2010.06.28 07:06:18.
