data_PCOD8146065
_publ_section_title
;
Structure prediction by ZEFSAII (Michael W. Deem and Ramdas Pophale) SiO2 
 PCOD8146065
Probable space group: C 2/C
;
_chemical_formula_sum "Si O2"
_cell_formula_units_Z 52
_cell_length_a 6.331255
_cell_length_b 17.998418
_cell_length_c 22.703429
_cell_angle_alpha 90.000000
_cell_angle_beta 96.801649
_cell_angle_gamma 90.000000
_cell_volume 2568.906321
_symmetry_space_group_name_H-M "C 2/C"
_symmetry_group_IT_number 15
_symmetry_cell_setting 'monoclinic'
loop_
_space_group_symop_operation_xyz
x,y,z
-x,y,1/2-z
-x,-y,-z
x,-y,1/2+z
1/2+x,1/2+y,z
1/2-x,1/2+y,1/2-z
1/2-x,1/2-y,-z
1/2+x,1/2-y,1/2+z
loop_
_atom_site_type_symbol
_atom_site_label
_atom_site_fract_x
_atom_site_fract_y
_atom_site_fract_z
Si Si1 0.875413 0.965346 0.405002
Si Si2 0.396696 0.919988 0.999418
Si Si3 0.171766 0.258245 0.145059
Si Si4 0.648569 0.126671 0.806701
Si Si5 0.005812 0.871508 0.931333
Si Si6 0.500000 0.285592 0.250000
Si Si7 0.313429 0.352481 0.047247
O O1 0.772841 0.920612 0.454700
O O2 0.735767 0.945880 0.343255
O O3 0.110959 0.927837 0.415315
O O4 0.871867 0.053097 0.415781
O O5 0.572148 0.859010 0.017757
O O6 0.257297 0.893500 0.938048
O O7 0.500000 0.000000 0.000000
O O8 0.045740 0.183691 0.123782
O O9 0.333138 0.238712 0.204399
O O10 0.315699 0.285914 0.094766
O O11 0.993997 0.318849 0.157487
O O12 0.500000 0.095655 0.750000
O O13 0.859539 0.165800 0.789625
O O14 0.944867 0.834013 0.992120
#
# Coordination Sequence:
#
# PCOD8146065 Si02
#       7
#     8   8   8   8   8   4   8
#     4  11  20  38  61  89 117 158 203 240 291 365
#     4  11  19  36  58  86 125 165 188 232 294 361
#     4  11  23  40  62  90 120 158 201 253 301 361
#     4  10  22  40  66  84 109 160 215 245 294 363
#     4  11  24  35  59  96 128 152 197 246 308 360
#     4  10  22  44  66  78 114 162 206 250 306 348
#     4  11  20  37  62  89 124 165 196 234 299 371
#
# _framework density 20.242077999999999
#
# number of rings (size 3 to 8) (size 9 to 14) (size 15 to 20)
#    0.000    1.231    6.154    1.385    0.000    1.846 
#    1.385    0.000    5.077    0.000    0.000    0.000 
#    0.000    0.000    0.000    0.000    0.000    0.000 
#
# Total GULP energy -322170.772381 kJ/mol
# GULP energy per Si atom -12391.183553 kJ/mol
# Density = 2.019601 g / cm^3
# Si number density = 20.242078 Si / 1000 Ang^3
#
#
#
# Elastic Constant Matrix: (Units=GPa)
#
#
# Indices 1 2 3 4 5 6 
#
# 1 95.2758 21.4133 42.8014 0.0000 23.3106 0.0000
# 2 21.4133 51.1353 47.7583 0.0000 14.1879 0.0000
# 3 42.8014 47.7583 110.7582 0.0000 33.1483 0.0000
# 4 0.0000 0.0000 0.0000 29.9123 0.0000 8.8649
# 5 23.3106 14.1879 33.1483 0.0000 38.5256 0.0000
# 6 0.0000 0.0000 0.0000 8.8649 0.0000 26.0228
#
#
#
# Elastic Compliance Matrix: (Units=1/GPa)
#
#
# Indices 1 2 3 4 5 6 
#
# 1 0.013407 -0.001315 -0.003139 0.000000 -0.004927 0.000000
# 2 -0.001315 0.032871 -0.013846 0.000000 0.000604 0.000000
# 3 -0.003139 -0.013846 0.019014 0.000000 -0.009361 0.000000
# 4 0.000000 0.000000 0.000000 0.037185 0.000000 -0.012668
# 5 -0.004927 0.000604 -0.009361 0.000000 0.036770 0.000000
# 6 0.000000 0.000000 0.000000 -0.012668 0.000000 0.042743
#
#
# Mechanical properties :
#
#
# Convention : Reuss Voigt Hill
#
# Bulk Modulus (GPa) = 34.85517 53.45724 44.15621
# Shear Modulus (GPa) = 21.91481 28.57189 25.24335
#
# Velocity S-wave (km/s) = 3.29391 3.76108 3.53522
# Velocity P-wave (km/s) = 5.63232 6.73255 6.20686
#
# Compressibility (1/GPa) = 0.02869015
#
# Stress axis : x y z
#
# Youngs Moduli (GPa) = 74.58691 30.42190 52.59272
#
# Poissons Ratio (x) = 0.04001 0.16511
# Poissons Ratio (y) = 0.09811 0.72821
# Poissons Ratio (z) = 0.23416 0.42123
#
# Static dielectric constant tensor:
#      x y z
#    x 4.277830 0.000000 0.131320 
#    y 0.000000 3.316440 0.000000 
#    z 0.131320 0.000000 3.955860 
# 
# 
# High freq. dielectric constant tensor:
#      x y z
#    x 1.807150 0.000000 0.019620 
#    y 0.000000 1.756290 0.000000 
#    z 0.019620 0.000000 1.785940 
# 
# From -- ./inp_files/227551.got.cif
#   From: 2010.06.25/outbox.cif.g09.slc.cpg/sg15_114_cif.got.tgz:227551.got - 2010.06.28 07:06:18.
