data_PCOD8146161
_publ_section_title
;
Structure prediction by ZEFSAII (Michael W. Deem and Ramdas Pophale) SiO2 
 PCOD8146161
Probable space group: C 2/C
;
_chemical_formula_sum "Si O2"
_cell_formula_units_Z 52
_cell_length_a 9.156684
_cell_length_b 21.719255
_cell_length_c 16.833096
_cell_angle_alpha 90.000000
_cell_angle_beta 136.796575
_cell_angle_gamma 90.000000
_cell_volume 2291.807488
_symmetry_space_group_name_H-M "C 2/C"
_symmetry_group_IT_number 15
_symmetry_cell_setting 'monoclinic'
loop_
_space_group_symop_operation_xyz
x,y,z
-x,y,1/2-z
-x,-y,-z
x,-y,1/2+z
1/2+x,1/2+y,z
1/2-x,1/2+y,1/2-z
1/2-x,1/2-y,-z
1/2+x,1/2-y,1/2+z
loop_
_atom_site_type_symbol
_atom_site_label
_atom_site_fract_x
_atom_site_fract_y
_atom_site_fract_z
Si Si1 0.521774 0.129049 0.025538
Si Si2 0.783024 0.801467 0.209990
Si Si3 0.500000 0.011541 0.750000
Si Si4 0.243644 0.460463 0.991808
Si Si5 0.899511 0.904458 0.572292
Si Si6 0.835222 0.337998 0.752296
Si Si7 0.159397 0.889922 0.126382
O O1 0.396135 0.064000 0.988708
O O2 0.762207 0.119201 0.091437
O O3 0.532469 0.164171 0.113478
O O4 0.408356 0.170454 0.915582
O O5 0.737444 0.729159 0.198036
O O6 0.788892 0.830253 0.300511
O O7 0.000000 0.816352 0.250000
O O8 0.685301 0.054465 0.786334
O O9 0.586139 0.968626 0.854652
O O10 0.376038 0.521836 0.062072
O O11 0.413216 0.407718 0.038977
O O12 0.806806 0.875371 0.453681
O O13 0.146608 0.888066 0.682321
O O14 0.000000 0.357602 0.750000
#
# Coordination Sequence:
#
# PCOD8146161 Si02
#       7
#     8   8   4   8   8   8   8
#     4  12  26  47  70 109 142 184 238 295 361 417
#     4  11  25  47  72 104 138 192 249 292 348 422
#     4  10  22  40  68 110 140 192 228 288 366 420
#     4  11  24  43  74 102 148 183 236 288 353 436
#     4  11  25  47  69 112 139 190 232 295 364 420
#     4  11  28  47  75 100 142 190 247 295 350 424
#     4  11  23  44  71 101 143 186 239 286 357 425
#
# _framework density 22.689516000000001
#
# number of rings (size 3 to 8) (size 9 to 14) (size 15 to 20)
#    0.000    0.923    1.538    5.538    7.538    1.846 
#    8.308    0.000    0.000    0.000    0.000    0.000 
#    0.000    0.000    0.000    0.000    0.000    0.000 
#
# Total GULP energy -322517.339484 kJ/mol
# GULP energy per Si atom -12404.513057 kJ/mol
# Density = 2.263787 g / cm^3
# Si number density = 22.689516 Si / 1000 Ang^3
#
#
#
# Elastic Constant Matrix: (Units=GPa)
#
#
# Indices 1 2 3 4 5 6 
#
# 1 143.2739 42.9102 38.1482 0.0001 5.6250 0.0001
# 2 42.9102 97.5740 42.8464 0.0006 1.5443 0.0004
# 3 38.1482 42.8464 108.0731 -0.0021 6.2990 -0.0009
# 4 0.0001 0.0006 -0.0021 31.2431 -0.0006 -8.9501
# 5 5.6250 1.5443 6.2990 -0.0006 42.2977 -0.0001
# 6 0.0001 0.0004 -0.0009 -8.9501 -0.0001 15.7389
#
#
#
# Elastic Compliance Matrix: (Units=1/GPa)
#
#
# Indices 1 2 3 4 5 6 
#
# 1 0.008341 -0.002885 -0.001757 0.000000 -0.000742 0.000000
# 2 -0.002885 0.013410 -0.004330 -0.000001 0.000539 -0.000001
# 3 -0.001757 -0.004330 0.011668 0.000001 -0.001346 0.000002
# 4 0.000000 -0.000001 0.000001 0.038236 0.000000 0.021743
# 5 -0.000742 0.000539 -0.001346 0.000000 0.023921 0.000000
# 6 0.000000 -0.000001 0.000002 0.021743 0.000000 0.075901
#
#
# Mechanical properties :
#
#
# Convention : Reuss Voigt Hill
#
# Bulk Modulus (GPa) = 64.61701 66.30342 65.46021
# Shear Modulus (GPa) = 25.69656 32.85703 29.27679
#
# Velocity S-wave (km/s) = 3.36896 3.80954 3.59600
# Velocity P-wave (km/s) = 6.60862 6.97392 6.79373
#
# Compressibility (1/GPa) = 0.01547580
#
# Stress axis : x y z
#
# Youngs Moduli (GPa) = 119.89573 74.57196 85.70278
#
# Poissons Ratio (x) = 0.21511 0.15060
# Poissons Ratio (y) = 0.34585 0.37106
# Poissons Ratio (z) = 0.21069 0.32287
#
# Static dielectric constant tensor:
#      x y z
#    x 4.266870 0.000000 -0.034630 
#    y 0.000000 3.942710 0.000000 
#    z -0.034630 0.000000 4.090950 
# 
# 
# High freq. dielectric constant tensor:
#      x y z
#    x 1.905640 0.000000 0.004420 
#    y 0.000000 1.886290 0.000000 
#    z 0.004420 0.000000 1.903660 
# 
# From -- ./inp_files/192589.got.cif
#   From: 2010.06.25/outbox.cif.g09.slc.cpg/sg15_97_cif.got.tgz:192589.got - 2010.06.28 07:06:18.
