data_PCOD8146084
_publ_section_title
;
Structure prediction by ZEFSAII (Michael W. Deem and Ramdas Pophale) SiO2 
 PCOD8146084
Probable space group: C 2/C
;
_chemical_formula_sum "Si O2"
_cell_formula_units_Z 36
_cell_length_a 27.459405
_cell_length_b 8.261726
_cell_length_c 13.193691
_cell_angle_alpha 90.000000
_cell_angle_beta 152.639282
_cell_angle_gamma 90.000000
_cell_volume 1375.623939
_symmetry_space_group_name_H-M "C 2/C"
_symmetry_group_IT_number 15
_symmetry_cell_setting 'monoclinic'
loop_
_space_group_symop_operation_xyz
x,y,z
-x,y,1/2-z
-x,-y,-z
x,-y,1/2+z
1/2+x,1/2+y,z
1/2-x,1/2+y,1/2-z
1/2-x,1/2-y,-z
1/2+x,1/2-y,1/2+z
loop_
_atom_site_type_symbol
_atom_site_label
_atom_site_fract_x
_atom_site_fract_y
_atom_site_fract_z
Si Si1 0.664043 0.376861 0.298356
Si Si2 0.500000 0.119300 0.250000
Si Si3 0.758656 0.884009 0.410568
Si Si4 0.704861 0.945811 0.617701
Si Si5 0.965059 0.322377 0.465235
O O1 0.750000 0.250000 0.500000
O O2 0.654322 0.528249 0.358734
O O3 0.700481 0.454575 0.260210
O O4 0.546503 0.303400 0.064935
O O5 0.539324 0.219836 0.420936
O O6 0.592787 0.012931 0.372297
O O7 0.801647 0.743924 0.417744
O O8 0.713498 0.028337 0.254654
O O9 0.660253 0.813285 0.299601
O O10 0.000000 0.500000 0.500000
#
# Coordination Sequence:
#
# PCOD8146084 Si02
#       5
#     8   4   8   8   8
#     4  12  22  43  71  98 134 184 233 284 349 420
#     4  10  22  40  66  92 136 176 220 272 352 400
#     4  11  25  43  67 101 140 178 232 291 352 417
#     4  11  24  43  66  98 136 178 231 289 348 419
#     4  11  23  41  71  98 133 182 227 280 349 417
#
# _framework density 26.169943
#
# number of rings (size 3 to 8) (size 9 to 14) (size 15 to 20)
#    0.000    0.889    4.444    2.000    6.222    0.889 
#    4.000    0.000    0.000    0.000    0.000    0.000 
#    0.000    0.000    0.000    0.000    0.000    0.000 
#
# Total GULP energy -223121.682743 kJ/mol
# GULP energy per Si atom -12395.649041 kJ/mol
# Density = 2.611038 g / cm^3
# Si number density = 26.169943 Si / 1000 Ang^3
#
#
#
# Elastic Constant Matrix: (Units=GPa)
#
#
# Indices 1 2 3 4 5 6 
#
# 1 83.3993 24.5820 9.5203 0.0000 17.1255 0.0000
# 2 24.5820 117.1960 23.0938 0.0000 21.2389 0.0000
# 3 9.5203 23.0938 106.6240 0.0000 38.5562 0.0000
# 4 0.0000 0.0000 0.0000 16.6223 0.0000 3.7374
# 5 17.1255 21.2389 38.5562 0.0000 37.4413 0.0000
# 6 0.0000 0.0000 0.0000 3.7374 0.0000 46.6507
#
#
#
# Elastic Compliance Matrix: (Units=1/GPa)
#
#
# Indices 1 2 3 4 5 6 
#
# 1 0.013805 -0.001972 0.001710 0.000000 -0.006957 0.000000
# 2 -0.001972 0.009794 -0.000418 0.000000 -0.004223 0.000000
# 3 0.001710 -0.000418 0.015158 0.000000 -0.016155 0.000000
# 4 0.000000 0.000000 0.000000 0.061264 0.000000 -0.004908
# 5 -0.006957 -0.004223 -0.016155 0.000000 0.048922 0.000000
# 6 0.000000 0.000000 0.000000 -0.004908 0.000000 0.021829
#
#
# Mechanical properties :
#
#
# Convention : Reuss Voigt Hill
#
# Bulk Modulus (GPa) = 26.73947 46.84573 36.79260
# Shear Modulus (GPa) = 27.08592 36.81107 31.94850
#
# Velocity S-wave (km/s) = 3.22063 3.75456 3.49780
# Velocity P-wave (km/s) = 4.90610 6.06094 5.51384
#
# Compressibility (1/GPa) = 0.03739790
#
# Stress axis : x y z
#
# Youngs Moduli (GPa) = 72.43728 102.10263 65.97041
#
# Poissons Ratio (x) = 0.20133 -0.11282
# Poissons Ratio (y) = 0.14284 0.02758
# Poissons Ratio (z) = -0.12388 0.04268
#
# Static dielectric constant tensor:
#      x y z
#    x 4.782140 0.000000 -0.008240 
#    y 0.000000 4.741840 0.000000 
#    z -0.008240 0.000000 4.907300 
# 
# 
# High freq. dielectric constant tensor:
#      x y z
#    x 2.053870 0.000000 -0.003360 
#    y 0.000000 2.050150 0.000000 
#    z -0.003360 0.000000 2.043270 
# 
# From -- ./inp_files/176821.got.cif
#   From: 2010.06.25/outbox.cif.g09.slc.cpg/sg15_89_cif.got.tgz:176821.got - 2010.06.28 07:06:18.
