data_PCOD8146218
_publ_section_title
;
Structure prediction by ZEFSAII (Michael W. Deem and Ramdas Pophale) SiO2 
 PCOD8146218
Probable space group: C 2/C
;
_chemical_formula_sum "Si O2"
_cell_formula_units_Z 52
_cell_length_a 14.601398
_cell_length_b 11.601319
_cell_length_c 13.834000
_cell_angle_alpha 90.000000
_cell_angle_beta 63.589770
_cell_angle_gamma 90.000000
_cell_volume 2098.840107
_symmetry_space_group_name_H-M "C 2/C"
_symmetry_group_IT_number 15
_symmetry_cell_setting 'monoclinic'
loop_
_space_group_symop_operation_xyz
x,y,z
-x,y,1/2-z
-x,-y,-z
x,-y,1/2+z
1/2+x,1/2+y,z
1/2-x,1/2+y,1/2-z
1/2-x,1/2-y,-z
1/2+x,1/2-y,1/2+z
loop_
_atom_site_type_symbol
_atom_site_label
_atom_site_fract_x
_atom_site_fract_y
_atom_site_fract_z
Si Si1 0.598343 0.507746 0.355091
Si Si2 0.880720 0.086185 0.959753
Si Si3 0.686500 0.731636 0.827630
Si Si4 0.000000 0.483552 0.250000
Si Si5 0.258075 0.445547 0.879717
Si Si6 0.469377 0.179777 0.404047
Si Si7 0.374825 0.127494 0.647015
O O1 0.627546 0.605048 0.420383
O O2 0.477967 0.495956 0.396423
O O3 0.648450 0.392915 0.379775
O O4 0.640318 0.542018 0.231988
O O5 0.897366 0.212266 0.903299
O O6 0.781546 0.017070 0.966380
O O7 0.727548 0.809817 0.899322
O O8 0.588110 0.792671 0.824237
O O9 0.779279 0.715166 0.706899
O O10 0.059801 0.565650 0.143995
O O11 0.072923 0.395851 0.273867
O O12 0.163365 0.503188 0.870161
O O13 0.453921 0.168078 0.527118
#
# Coordination Sequence:
#
# PCOD8146218 Si02
#       7
#     8   8   8   4   8   8   8
#     4   9  21  41  60  96 141 176 231 290 351 417
#     4  10  22  40  69  97 134 186 232 290 352 406
#     4  10  23  45  68  98 145 183 236 290 348 418
#     4  12  26  46  74 104 144 188 232 292 360 428
#     4  11  22  39  66 100 135 177 239 294 338 418
#     4  11  25  48  75 101 141 188 235 291 358 422
#     4  11  26  47  69 105 145 184 238 294 355 426
#
# _framework density 24.775590999999999
#
# number of rings (size 3 to 8) (size 9 to 14) (size 15 to 20)
#    0.000    1.538    1.538    1.846    6.462    3.692 
#   11.077    0.000    0.000    0.000    0.000    0.000 
#    0.000    0.000    0.000    0.000    0.000    0.000 
#
# Total GULP energy -322106.758552 kJ/mol
# GULP energy per Si atom -12388.721483 kJ/mol
# Density = 2.471920 g / cm^3
# Si number density = 24.775591 Si / 1000 Ang^3
#
#
#
# Elastic Constant Matrix: (Units=GPa)
#
#
# Indices 1 2 3 4 5 6 
#
# 1 90.0231 24.0374 29.2058 0.0000 5.3301 0.0000
# 2 24.0374 83.5211 2.6998 0.0000 -3.6065 0.0000
# 3 29.2058 2.6998 90.9417 0.0000 -0.8221 0.0000
# 4 0.0000 0.0000 0.0000 32.3143 0.0000 9.3503
# 5 5.3301 -3.6065 -0.8221 0.0000 30.8805 0.0000
# 6 0.0000 0.0000 0.0000 9.3503 0.0000 26.4962
#
#
#
# Elastic Compliance Matrix: (Units=1/GPa)
#
#
# Indices 1 2 3 4 5 6 
#
# 1 0.013737 -0.003941 -0.004321 0.000000 -0.002946 0.000000
# 2 -0.003941 0.013175 0.000895 0.000000 0.002243 0.000000
# 3 -0.004321 0.000895 0.012368 0.000000 0.001180 0.000000
# 4 0.000000 0.000000 0.000000 0.034465 0.000000 -0.012163
# 5 -0.002946 0.002243 0.001180 0.000000 0.033185 0.000000
# 6 0.000000 0.000000 0.000000 -0.012163 0.000000 0.042033
#
#
# Mechanical properties :
#
#
# Convention : Reuss Voigt Hill
#
# Bulk Modulus (GPa) = 40.74135 41.81909 41.28022
# Shear Modulus (GPa) = 29.09005 31.84107 30.46556
#
# Velocity S-wave (km/s) = 3.43029 3.58883 3.51046
# Velocity P-wave (km/s) = 5.67178 5.83855 5.75577
#
# Compressibility (1/GPa) = 0.02454509
#
# Stress axis : x y z
#
# Youngs Moduli (GPa) = 72.79648 75.90030 80.85437
#
# Poissons Ratio (x) = 0.29913 0.34939
# Poissons Ratio (y) = 0.28689 -0.07235
# Poissons Ratio (z) = 0.31457 -0.06792
#
# Static dielectric constant tensor:
#      x y z
#    x 4.247030 0.000000 -0.158530 
#    y 0.000000 4.577810 0.000000 
#    z -0.158530 0.000000 4.297110 
# 
# 
# High freq. dielectric constant tensor:
#      x y z
#    x 1.972000 0.000000 -0.012540 
#    y 0.000000 1.989660 0.000000 
#    z -0.012540 0.000000 1.970480 
# 
# From -- ./inp_files/152555.got.cif
#   From: 2010.06.25/outbox.cif.g09.slc.cpg/sg15_77_cif.got.tgz:152555.got - 2010.06.28 07:06:18.
