data_PCOD8146389
_publ_section_title
;
Structure prediction by ZEFSAII (Michael W. Deem and Ramdas Pophale) SiO2 
 PCOD8146389
Probable space group: C 2/C
;
_chemical_formula_sum "Si O2"
_cell_formula_units_Z 64
_cell_length_a 5.214291
_cell_length_b 17.743421
_cell_length_c 31.727952
_cell_angle_alpha 90.000000
_cell_angle_beta 75.670893
_cell_angle_gamma 90.000000
_cell_volume 2844.128357
_symmetry_space_group_name_H-M "C 2/C"
_symmetry_group_IT_number 15
_symmetry_cell_setting 'monoclinic'
loop_
_space_group_symop_operation_xyz
x,y,z
-x,y,1/2-z
-x,-y,-z
x,-y,1/2+z
1/2+x,1/2+y,z
1/2-x,1/2+y,1/2-z
1/2-x,1/2-y,-z
1/2+x,1/2-y,1/2+z
loop_
_atom_site_type_symbol
_atom_site_label
_atom_site_fract_x
_atom_site_fract_y
_atom_site_fract_z
Si Si1 0.141196 0.960343 0.441258
Si Si2 0.141330 0.190336 0.665278
Si Si3 0.330814 0.830628 0.480465
Si Si4 0.232642 0.540300 0.884327
Si Si5 0.613280 0.270664 0.914578
Si Si6 0.817763 0.384285 0.959757
Si Si7 0.113538 0.241544 0.200810
Si Si8 0.746912 0.873162 0.872744
O O1 0.100346 0.888488 0.474861
O O2 0.418395 0.953111 0.404948
O O3 0.884609 0.955250 0.422711
O O4 0.153717 0.037797 0.467648
O O5 0.172578 0.102968 0.652487
O O6 0.134368 0.244589 0.623671
O O7 0.386935 0.216239 0.683783
O O8 0.857349 0.200706 0.699062
O O9 0.250000 0.750000 0.500000
O O10 0.485268 0.811167 0.430481
O O11 0.497981 0.878547 0.507306
O O12 0.323123 0.460160 0.860977
O O13 0.438890 0.330279 0.896743
O O14 0.643259 0.308788 0.960345
O O15 0.964349 0.376985 0.907752
O O16 0.235966 0.168202 0.172956
O O17 0.000000 0.214704 0.250000
#
# Coordination Sequence:
#
# PCOD8146389 Si02
#       8
#     8   8   8   8   8   8   8   8
#     4  11  25  42  60  91 132 175 220 272 323 370
#     4  11  23  41  71  96 134 165 214 258 320 386
#     4  12  25  38  61  92 130 176 228 277 323 368
#     4  11  23  42  68  94 127 173 217 260 322 385
#     4  11  21  40  60  94 122 175 215 273 308 386
#     4  11  22  41  59  89 130 174 217 272 323 383
#     4  11  24  44  71 103 132 162 204 263 325 389
#     4  10  22  41  64  93 126 168 213 259 321 390
#
# _framework density 22.502500999999999
#
# number of rings (size 3 to 8) (size 9 to 14) (size 15 to 20)
#    0.000    1.000    5.000    1.875    3.500    1.000 
#    0.000    3.750    0.000    0.000    0.000    0.000 
#    0.000    0.000    0.000    0.000    0.000    0.000 
#
# Total GULP energy -396558.326937 kJ/mol
# GULP energy per Si atom -12392.447717 kJ/mol
# Density = 2.245128 g / cm^3
# Si number density = 22.502501 Si / 1000 Ang^3
#
#
#
# Elastic Constant Matrix: (Units=GPa)
#
#
# Indices 1 2 3 4 5 6 
#
# 1 71.6044 21.4654 4.1994 0.0000 -2.8381 0.0000
# 2 21.4654 137.8327 59.5990 0.0000 -1.9821 0.0000
# 3 4.1994 59.5990 60.8650 0.0000 -10.0828 0.0000
# 4 0.0000 0.0000 0.0000 30.7545 0.0000 1.5724
# 5 -2.8381 -1.9821 -10.0828 0.0000 28.8062 0.0000
# 6 0.0000 0.0000 0.0000 1.5724 0.0000 24.8960
#
#
#
# Elastic Compliance Matrix: (Units=1/GPa)
#
#
# Indices 1 2 3 4 5 6 
#
# 1 0.014935 -0.003479 0.002739 0.000000 0.002191 0.000000
# 2 -0.003479 0.013767 -0.013949 0.000000 -0.004278 0.000000
# 3 0.002739 -0.013949 0.031619 0.000000 0.010377 0.000000
# 4 0.000000 0.000000 0.000000 0.032621 0.000000 -0.002060
# 5 0.002191 -0.004278 0.010377 0.000000 0.038269 0.000000
# 6 0.000000 0.000000 0.000000 -0.002060 0.000000 0.040297
#
#
# Mechanical properties :
#
#
# Convention : Reuss Voigt Hill
#
# Bulk Modulus (GPa) = 32.31817 48.98109 40.64963
# Shear Modulus (GPa) = 23.67421 29.22725 26.45073
#
# Velocity S-wave (km/s) = 3.24708 3.60786 3.43221
# Velocity P-wave (km/s) = 5.33397 6.25857 5.81468
#
# Compressibility (1/GPa) = 0.03094234
#
# Stress axis : x y z
#
# Youngs Moduli (GPa) = 66.95850 72.63677 31.62634
#
# Poissons Ratio (x) = 0.25267 -0.08661
# Poissons Ratio (y) = 0.23292 0.44117
# Poissons Ratio (z) = -0.18338 1.01324
#
# Static dielectric constant tensor:
#      x y z
#    x 3.823940 0.000000 0.342780 
#    y 0.000000 2.632970 0.000000 
#    z 0.342780 0.000000 3.044890 
# 
# 
# High freq. dielectric constant tensor:
#      x y z
#    x 1.898310 0.000000 -0.012300 
#    y 0.000000 1.912490 0.000000 
#    z -0.012300 0.000000 1.856760 
# 
# From -- ./inp_files/305806.got.cif
#   From: 2010.06.25/outbox.cif.g09.slc.cpg/sg15_153_cif.got.tgz:305806.got - 2010.06.28 07:06:18.
