data_PCOD8146286
_publ_section_title
;
Structure prediction by ZEFSAII (Michael W. Deem and Ramdas Pophale) SiO2 
 PCOD8146286
Probable space group: C 2/C
;
_chemical_formula_sum "Si O2"
_cell_formula_units_Z 40
_cell_length_a 13.939919
_cell_length_b 23.499006
_cell_length_c 10.791464
_cell_angle_alpha 90.000000
_cell_angle_beta 32.513081
_cell_angle_gamma 90.000000
_cell_volume 1900.037758
_symmetry_space_group_name_H-M "C 2/C"
_symmetry_group_IT_number 15
_symmetry_cell_setting 'monoclinic'
loop_
_space_group_symop_operation_xyz
x,y,z
-x,y,1/2-z
-x,-y,-z
x,-y,1/2+z
1/2+x,1/2+y,z
1/2-x,1/2+y,1/2-z
1/2-x,1/2-y,-z
1/2+x,1/2-y,1/2+z
loop_
_atom_site_type_symbol
_atom_site_label
_atom_site_fract_x
_atom_site_fract_y
_atom_site_fract_z
Si Si1 0.724705 0.398693 0.823250
Si Si2 0.203123 0.315515 0.558210
Si Si3 0.565191 0.912381 0.299145
Si Si4 0.163480 0.898731 0.288995
Si Si5 0.307626 0.509724 0.934603
O O1 0.764569 0.335926 0.835048
O O2 0.885076 0.425673 0.570408
O O3 0.542903 0.398910 0.939895
O O4 0.694186 0.436000 0.976399
O O5 0.250000 0.250000 0.500000
O O6 0.321853 0.348943 0.328356
O O7 0.000000 0.328538 0.750000
O O8 0.500000 0.874306 0.250000
O O9 0.711246 0.884001 0.229585
O O10 0.646336 0.968420 0.144457
O O11 0.213486 0.961975 0.180326
O O12 0.500000 0.479311 0.750000
#
# Coordination Sequence:
#
# PCOD8146286 Si02
#       5
#     8   8   8   8   8
#     4  10  22  41  58  89 126 154 201 262 300 357
#     4  11  20  39  70 100 116 146 194 257 326 355
#     4  12  26  35  58  85 122 177 210 234 303 363
#     4  10  23  42  57  88 130 150 206 268 289 358
#     4   9  22  37  58  86 120 165 208 253 304 346
#
# _framework density 21.052213999999999
#
# number of rings (size 3 to 8) (size 9 to 14) (size 15 to 20)
#    0.000    1.600    2.000    3.600    8.400    1.600 
#    0.000    0.000    0.000    1.200    0.000    0.000 
#    0.000    0.000    0.000    0.000    0.000    0.000 
#
# Total GULP energy -247818.956837 kJ/mol
# GULP energy per Si atom -12390.947842 kJ/mol
# Density = 2.100430 g / cm^3
# Si number density = 21.052214 Si / 1000 Ang^3
#
#
#
# Elastic Constant Matrix: (Units=GPa)
#
#
# Indices 1 2 3 4 5 6 
#
# 1 151.9781 22.1945 57.6945 0.0011 -10.6183 -0.0005
# 2 22.1945 76.9815 34.5908 -0.0005 3.4368 0.0004
# 3 57.6945 34.5908 138.7038 0.0003 -36.4883 -0.0030
# 4 0.0011 -0.0005 0.0003 15.2770 -0.0026 -5.4069
# 5 -10.6183 3.4368 -36.4883 -0.0026 27.9262 0.0014
# 6 -0.0005 0.0004 -0.0030 -5.4069 0.0014 11.7696
#
#
#
# Elastic Compliance Matrix: (Units=1/GPa)
#
#
# Indices 1 2 3 4 5 6 
#
# 1 0.007907 -0.000620 -0.003540 -0.000001 -0.001543 -0.000001
# 2 -0.000620 0.016777 -0.006904 -0.000002 -0.011321 -0.000002
# 3 -0.003540 -0.006904 0.015654 0.000004 0.019957 0.000004
# 4 -0.000001 -0.000002 0.000004 0.078167 0.000011 0.035909
# 5 -0.001543 -0.011321 0.019957 0.000011 0.062691 0.000003
# 6 -0.000001 -0.000002 0.000004 0.035909 0.000003 0.101461
#
#
# Mechanical properties :
#
#
# Convention : Reuss Voigt Hill
#
# Bulk Modulus (GPa) = 54.91905 66.29146 60.60525
# Shear Modulus (GPa) = 16.08471 27.87349 21.97910
#
# Velocity S-wave (km/s) = 2.76712 3.64265 3.23465
# Velocity P-wave (km/s) = 6.02934 7.01779 6.54226
#
# Compressibility (1/GPa) = 0.01820862
#
# Stress axis : x y z
#
# Youngs Moduli (GPa) = 126.47805 59.60656 63.88169
#
# Poissons Ratio (x) = 0.03696 0.22614
# Poissons Ratio (y) = 0.07842 0.44106
# Poissons Ratio (z) = 0.44773 0.41154
#
# Static dielectric constant tensor:
#      x y z
#    x 4.297010 -0.000010 -0.399530 
#    y -0.000010 3.345370 0.000010 
#    z -0.399530 0.000010 4.289490 
# 
# 
# High freq. dielectric constant tensor:
#      x y z
#    x 1.836920 0.000000 -0.020640 
#    y 0.000000 1.769120 0.000000 
#    z -0.020640 0.000000 1.842630 
# 
# From -- ./inp_files/100593.got.cif
#   From: 2010.06.25/outbox.cif.g09.slc.cpg/sg15_51_cif.got.tgz:100593.got - 2010.06.28 07:06:18.
