data_PCOD8146945
_publ_section_title
;
Structure prediction by ZEFSAII (Michael W. Deem and Ramdas Pophale) SiO2 
 PCOD8146945
Probable space group: C 2/C
;
_chemical_formula_sum "Si O2"
_cell_formula_units_Z 44
_cell_length_a 6.742637
_cell_length_b 13.674677
_cell_length_c 22.829742
_cell_angle_alpha 90.000000
_cell_angle_beta 81.507960
_cell_angle_gamma 90.000000
_cell_volume 2081.901271
_symmetry_space_group_name_H-M "C 2/C"
_symmetry_group_IT_number 15
_symmetry_cell_setting 'monoclinic'
loop_
_space_group_symop_operation_xyz
x,y,z
-x,y,1/2-z
-x,-y,-z
x,-y,1/2+z
1/2+x,1/2+y,z
1/2-x,1/2+y,1/2-z
1/2-x,1/2-y,-z
1/2+x,1/2-y,1/2+z
loop_
_atom_site_type_symbol
_atom_site_label
_atom_site_fract_x
_atom_site_fract_y
_atom_site_fract_z
Si Si1 0.129355 0.375000 0.491289
Si Si2 0.500000 0.625000 0.250000
Si Si3 0.800878 0.482789 0.293471
Si Si4 0.486118 0.713659 0.571050
Si Si5 0.692833 0.963658 0.071050
Si Si6 0.344349 0.267211 0.206529
O O1 0.280367 0.310131 0.447023
O O2 0.259609 0.439679 0.532195
O O3 0.958196 0.310322 0.532195
O O4 0.022609 0.439868 0.447023
O O5 0.617715 0.556889 0.290634
O O6 0.658349 0.693111 0.209366
O O7 0.846194 0.487870 0.359953
O O8 0.737291 0.375000 0.275421
O O9 0.000000 0.515466 0.250000
O O10 0.347009 0.625000 0.555986
O O11 0.456148 0.737870 0.640047
O O12 0.500000 0.234535 0.250000
#
# Coordination Sequence:
#
# PCOD8146945 Si02
#       6
#     8   4   8   8   8   8
#     4  10  22  42  67  92 130 175 210 270 326 390
#     4  12  26  44  68  96 136 178 222 276 344 392
#     4  11  25  45  69 101 135 177 224 280 335 397
#     4  10  23  42  64  97 130 168 220 269 325 394
#     4  10  23  42  64  97 130 168 220 269 325 394
#     4  11  25  45  69 101 135 177 224 280 335 397
#
# _framework density 21.134528
#
# number of rings (size 3 to 8) (size 9 to 14) (size 15 to 20)
#    0.000    1.455    1.818    1.636    7.636    0.000 
#   16.364    0.000    0.000    0.000    0.000    0.000 
#    0.000    0.000    0.000    0.000    0.000    0.000 
#
# Total GULP energy -272805.514153 kJ/mol
# GULP energy per Si atom -12400.250643 kJ/mol
# Density = 2.108643 g / cm^3
# Si number density = 21.134528 Si / 1000 Ang^3
#
#
#
# Elastic Constant Matrix: (Units=GPa)
#
#
# Indices 1 2 3 4 5 6 
#
# 1 103.9242 51.5667 74.7908 0.0000 0.6171 0.0000
# 2 51.5667 126.5541 63.3698 0.0000 0.3157 0.0000
# 3 74.7908 63.3698 157.6027 0.0000 0.8180 0.0000
# 4 0.0000 0.0000 0.0000 18.0817 0.0000 -0.4122
# 5 0.6171 0.3157 0.8180 0.0000 26.1234 0.0000
# 6 0.0000 0.0000 0.0000 -0.4122 0.0000 33.4724
#
#
#
# Elastic Compliance Matrix: (Units=1/GPa)
#
#
# Indices 1 2 3 4 5 6 
#
# 1 0.015660 -0.003330 -0.006092 0.000000 -0.000139 0.000000
# 2 -0.003330 0.010602 -0.002683 0.000000 0.000035 0.000000
# 3 -0.006092 -0.002683 0.010315 0.000000 -0.000147 0.000000
# 4 0.000000 0.000000 0.000000 0.055320 0.000000 0.000681
# 5 -0.000139 0.000035 -0.000147 0.000000 0.038287 0.000000
# 6 0.000000 0.000000 0.000000 0.000681 0.000000 0.029884
#
#
# Mechanical properties :
#
#
# Convention : Reuss Voigt Hill
#
# Bulk Modulus (GPa) = 80.85468 85.28173 83.06821
# Shear Modulus (GPa) = 26.53936 28.75906 27.64921
#
# Velocity S-wave (km/s) = 3.54748 3.69285 3.62090
# Velocity P-wave (km/s) = 7.42426 7.65652 7.54129
#
# Compressibility (1/GPa) = 0.01236787
#
# Stress axis : x y z
#
# Youngs Moduli (GPa) = 63.85900 94.32237 96.94369
#
# Poissons Ratio (x) = 0.31411 0.59053
# Poissons Ratio (y) = 0.21266 0.26007
# Poissons Ratio (z) = 0.38900 0.25304
#
# Static dielectric constant tensor:
#      x y z
#    x 3.672450 0.000000 0.000340 
#    y 0.000000 4.194190 0.000000 
#    z 0.000340 0.000000 3.685210 
# 
# 
# High freq. dielectric constant tensor:
#      x y z
#    x 1.822320 0.000000 0.000180 
#    y 0.000000 1.849060 0.000000 
#    z 0.000180 0.000000 1.828950 
# 
# From -- ./inp_files/260335.got.cif
#   From: 2010.06.25/outbox.cif.g09.slc.cpg/sg15_131_cif.got.tgz:260335.got - 2010.06.28 07:06:18.
