data_PCOD8146565
_publ_section_title
;
Structure prediction by ZEFSAII (Michael W. Deem and Ramdas Pophale) SiO2 
 PCOD8146565
Probable space group: C 2/C
;
_chemical_formula_sum "Si O2"
_cell_formula_units_Z 40
_cell_length_a 10.510363
_cell_length_b 8.061969
_cell_length_c 26.482012
_cell_angle_alpha 90.000000
_cell_angle_beta 50.942686
_cell_angle_gamma 90.000000
_cell_volume 1742.449722
_symmetry_space_group_name_H-M "C 2/C"
_symmetry_group_IT_number 15
_symmetry_cell_setting 'monoclinic'
loop_
_space_group_symop_operation_xyz
x,y,z
-x,y,1/2-z
-x,-y,-z
x,-y,1/2+z
1/2+x,1/2+y,z
1/2-x,1/2+y,1/2-z
1/2-x,1/2-y,-z
1/2+x,1/2-y,1/2+z
loop_
_atom_site_type_symbol
_atom_site_label
_atom_site_fract_x
_atom_site_fract_y
_atom_site_fract_z
Si Si1 0.739591 0.422843 0.473523
Si Si2 0.685822 0.456766 0.704951
Si Si3 0.906386 0.037648 0.087952
Si Si4 0.933998 0.573862 0.568074
Si Si5 0.673908 0.071086 0.727941
O O1 0.750000 0.250000 0.500000
O O2 0.692677 0.419739 0.426103
O O3 0.596785 0.524955 0.539538
O O4 0.924459 0.489687 0.428608
O O5 0.500000 0.526975 0.750000
O O6 0.765407 0.494505 0.630380
O O7 0.684924 0.263201 0.714192
O O8 0.798095 0.544015 0.719586
O O9 0.908116 0.228737 0.069204
O O10 0.823748 0.024325 0.163152
O O11 0.000000 0.500000 0.500000
O O12 0.500000 0.001638 0.750000
#
# Coordination Sequence:
#
# PCOD8146565 Si02
#       5
#     8   8   8   8   8
#     4   9  21  39  63  95 135 169 219 273 340 397
#     4  11  27  45  69 101 136 182 229 288 346 412
#     4  10  22  41  68  94 130 182 220 278 343 402
#     4  11  25  41  65 101 140 171 226 281 341 413
#     4  11  25  46  72  96 140 180 234 284 348 410
#
# _framework density 22.956188000000001
#
# number of rings (size 3 to 8) (size 9 to 14) (size 15 to 20)
#    0.000    1.600    0.000    2.400   11.200    8.800 
#    0.000    0.000    0.000    0.000    0.000    0.000 
#    0.000    0.000    0.000    0.000    0.000    0.000 
#
# Total GULP energy -247800.049137 kJ/mol
# GULP energy per Si atom -12390.002457 kJ/mol
# Density = 2.290394 g / cm^3
# Si number density = 22.956188 Si / 1000 Ang^3
#
#
#
# Elastic Constant Matrix: (Units=GPa)
#
#
# Indices 1 2 3 4 5 6 
#
# 1 132.4507 22.8645 42.3246 0.0000 -15.2470 0.0000
# 2 22.8645 72.8429 25.5959 0.0000 2.0570 0.0000
# 3 42.3246 25.5959 163.2264 0.0000 -15.3328 0.0000
# 4 0.0000 0.0000 0.0000 38.4455 0.0000 4.0049
# 5 -15.2470 2.0570 -15.3328 0.0000 43.2699 0.0000
# 6 0.0000 0.0000 0.0000 4.0049 0.0000 29.5617
#
#
#
# Elastic Compliance Matrix: (Units=1/GPa)
#
#
# Indices 1 2 3 4 5 6 
#
# 1 0.008772 -0.002237 -0.001679 0.000000 0.002602 0.000000
# 2 -0.002237 0.015200 -0.002012 0.000000 -0.002224 0.000000
# 3 -0.001679 -0.002012 0.007066 0.000000 0.002008 0.000000
# 4 0.000000 0.000000 0.000000 0.026383 0.000000 -0.003574
# 5 0.002602 -0.002224 0.002008 0.000000 0.024845 0.000000
# 6 0.000000 0.000000 0.000000 -0.003574 0.000000 0.034312
#
#
# Mechanical properties :
#
#
# Convention : Reuss Voigt Hill
#
# Bulk Modulus (GPa) = 52.13459 61.12111 56.62785
# Shear Modulus (GPa) = 37.08375 40.77110 38.92742
#
# Velocity S-wave (km/s) = 4.02358 4.21888 4.12239
# Velocity P-wave (km/s) = 6.65923 7.10034 6.88332
#
# Compressibility (1/GPa) = 0.01918112
#
# Stress axis : x y z
#
# Youngs Moduli (GPa) = 113.99440 65.78840 141.52032
#
# Poissons Ratio (x) = 0.14716 0.23768
# Poissons Ratio (y) = 0.25499 0.28481
# Poissons Ratio (z) = 0.19145 0.13240
#
# Static dielectric constant tensor:
#      x y z
#    x 5.470270 0.000000 -0.563980 
#    y 0.000000 3.879840 0.000000 
#    z -0.563980 0.000000 4.551760 
# 
# 
# High freq. dielectric constant tensor:
#      x y z
#    x 1.913020 0.000000 -0.016850 
#    y 0.000000 1.886220 0.000000 
#    z -0.016850 0.000000 1.924630 
# 
# From -- ./inp_files/291002.got.cif
#   From: 2010.06.25/outbox.cif.g09.slc.cpg/sg15_146_cif.got.tgz:291002.got - 2010.06.28 07:06:18.
