data_PCOD8146182
_publ_section_title
;
Structure prediction by ZEFSAII (Michael W. Deem and Ramdas Pophale) SiO2 
 PCOD8146182
Probable space group: C 2/C
;
_chemical_formula_sum "Si O2"
_cell_formula_units_Z 40
_cell_length_a 9.741151
_cell_length_b 18.492643
_cell_length_c 10.767329
_cell_angle_alpha 90.000000
_cell_angle_beta 104.345485
_cell_angle_gamma 90.000000
_cell_volume 1879.143930
_symmetry_space_group_name_H-M "C 2/C"
_symmetry_group_IT_number 15
_symmetry_cell_setting 'monoclinic'
loop_
_space_group_symop_operation_xyz
x,y,z
-x,y,1/2-z
-x,-y,-z
x,-y,1/2+z
1/2+x,1/2+y,z
1/2-x,1/2+y,1/2-z
1/2-x,1/2-y,-z
1/2+x,1/2-y,1/2+z
loop_
_atom_site_type_symbol
_atom_site_label
_atom_site_fract_x
_atom_site_fract_y
_atom_site_fract_z
Si Si1 0.706783 0.057107 0.835834
Si Si2 0.569589 0.291980 0.640136
Si Si3 0.996869 0.866884 0.389028
Si Si4 0.960476 0.371520 0.408007
Si Si5 0.728549 0.897556 0.922771
O O1 0.871191 0.076271 0.874561
O O2 0.636035 0.071614 0.687582
O O3 0.623561 0.104023 0.923647
O O4 0.695166 0.971496 0.847151
O O5 0.500000 0.324108 0.750000
O O6 0.477341 0.306283 0.493215
O O7 0.581704 0.206265 0.657967
O O8 0.721959 0.332860 0.659790
O O9 0.000000 0.833248 0.250000
O O10 0.145258 0.908625 0.447248
O O11 0.917154 0.373509 0.542579
#
# Coordination Sequence:
#
# PCOD8146182 Si02
#       5
#     8   8   8   8   8
#     4  11  21  39  65  93 129 179 210 274 329 395
#     4  10  22  41  67  99 130 172 218 280 321 393
#     4  10  22  40  68  95 132 169 222 268 331 386
#     4  11  22  42  66  89 142 169 219 270 347 376
#     4  10  23  38  67  93 130 169 226 262 329 393
#
# _framework density 21.286287000000002
#
# number of rings (size 3 to 8) (size 9 to 14) (size 15 to 20)
#    1.200    0.400    4.000    1.800    0.000    3.200 
#    0.000    0.000    8.800    0.000    0.000    0.000 
#    0.000    0.000    0.000    0.000    0.000    0.000 
#
# Total GULP energy -247776.862691 kJ/mol
# GULP energy per Si atom -12388.843135 kJ/mol
# Density = 2.123784 g / cm^3
# Si number density = 21.286287 Si / 1000 Ang^3
#
#
#
# Elastic Constant Matrix: (Units=GPa)
#
#
# Indices 1 2 3 4 5 6 
#
# 1 83.1272 22.8183 17.4217 0.0000 -28.7336 0.0000
# 2 22.8183 124.3370 32.1369 0.0000 -16.5946 0.0000
# 3 17.4217 32.1369 103.5553 0.0000 -29.2282 0.0000
# 4 0.0000 0.0000 0.0000 24.7085 0.0000 -5.3072
# 5 -28.7336 -16.5946 -29.2282 0.0000 41.2057 0.0000
# 6 0.0000 0.0000 0.0000 -5.3072 0.0000 27.9281
#
#
#
# Elastic Compliance Matrix: (Units=1/GPa)
#
#
# Indices 1 2 3 4 5 6 
#
# 1 0.016204 -0.001723 0.001003 0.000000 0.011317 0.000000
# 2 -0.001723 0.009060 -0.002290 0.000000 0.000824 0.000000
# 3 0.001003 -0.002290 0.012673 0.000000 0.008766 0.000000
# 4 0.000000 0.000000 0.000000 0.042194 0.000000 0.008018
# 5 0.011317 0.000824 0.008766 0.000000 0.038710 0.000000
# 6 0.000000 0.000000 0.000000 0.008018 0.000000 0.037330
#
#
# Mechanical properties :
#
#
# Convention : Reuss Voigt Hill
#
# Bulk Modulus (GPa) = 31.32961 50.64148 40.98554
# Shear Modulus (GPa) = 28.93020 34.67798 31.80409
#
# Velocity S-wave (km/s) = 3.69060 4.04062 3.86957
# Velocity P-wave (km/s) = 5.73680 6.75360 6.26586
#
# Compressibility (1/GPa) = 0.03191869
#
# Stress axis : x y z
#
# Youngs Moduli (GPa) = 61.71209 110.36947 78.90955
#
# Poissons Ratio (x) = 0.19011 -0.07912
# Poissons Ratio (y) = 0.10630 0.18066
# Poissons Ratio (z) = -0.06187 0.25269
#
# Static dielectric constant tensor:
#      x y z
#    x 4.006800 0.000000 -0.323640 
#    y 0.000000 3.511550 0.000000 
#    z -0.323640 0.000000 3.675790 
# 
# 
# High freq. dielectric constant tensor:
#      x y z
#    x 1.840430 0.000000 -0.027460 
#    y 0.000000 1.819510 0.000000 
#    z -0.027460 0.000000 1.818590 
# 
# From -- ./inp_files/76930.got.cif
#   From: 2010.06.25/outbox.cif.g09.slc.cpg/sg15_39_cif.got.tgz:76930.got - 2010.06.28 07:06:18.
