data_PCOD8146325
_publ_section_title
;
Structure prediction by ZEFSAII (Michael W. Deem and Ramdas Pophale) SiO2 
 PCOD8146325
Probable space group: C 2/C
;
_chemical_formula_sum "Si O2"
_cell_formula_units_Z 56
_cell_length_a 9.114416
_cell_length_b 15.319110
_cell_length_c 24.500991
_cell_angle_alpha 90.000000
_cell_angle_beta 129.658333
_cell_angle_gamma 90.000000
_cell_volume 2633.661630
_symmetry_space_group_name_H-M "C 2/C"
_symmetry_group_IT_number 15
_symmetry_cell_setting 'monoclinic'
loop_
_space_group_symop_operation_xyz
x,y,z
-x,y,1/2-z
-x,-y,-z
x,-y,1/2+z
1/2+x,1/2+y,z
1/2-x,1/2+y,1/2-z
1/2-x,1/2-y,-z
1/2+x,1/2-y,1/2+z
loop_
_atom_site_type_symbol
_atom_site_label
_atom_site_fract_x
_atom_site_fract_y
_atom_site_fract_z
Si Si1 0.757846 0.326580 0.957868
Si Si2 0.129972 0.664926 0.489507
Si Si3 0.766696 0.487021 0.030313
Si Si4 0.500000 0.471644 0.750000
Si Si5 0.000000 0.744308 0.250000
Si Si6 0.849769 0.125595 0.311404
Si Si7 0.909444 0.114724 0.643764
Si Si8 0.639335 0.471971 0.112134
O O1 0.553969 0.337875 0.880259
O O2 0.750000 0.250000 0.000000
O O3 0.843648 0.413853 0.007073
O O4 0.913451 0.303601 0.948189
O O5 0.250000 0.750000 0.500000
O O6 0.133463 0.583065 0.447936
O O7 0.213017 0.624734 0.565127
O O8 0.784086 0.448790 0.096892
O O9 0.548668 0.494997 0.961999
O O10 0.639479 0.410082 0.748137
O O11 0.387037 0.531824 0.679213
O O12 0.186496 0.696128 0.273909
O O13 0.057019 0.798205 0.315975
O O14 0.771297 0.050578 0.332378
O O15 0.084872 0.104568 0.641996
#
# Coordination Sequence:
#
# PCOD8146325 Si02
#       8
#     8   8   8   4   4   8   8   8
#     4  11  24  40  62  96 133 163 204 269 328 379
#     4  11  24  38  65 100 125 163 212 262 333 384
#     4   9  19  36  61  90 129 160 199 246 324 380
#     4   9  20  44  64  79 124 178 212 253 304 372
#     4  11  22  38  66  89 122 164 216 261 296 378
#     4  10  22  41  62  91 122 165 213 258 312 366
#     4   9  20  39  64  86 122 166 212 255 309 380
#     4   8  17  36  62  85 120 157 199 254 308 370
#
# _framework density 21.263171
#
# number of rings (size 3 to 8) (size 9 to 14) (size 15 to 20)
#    0.000    2.286    0.000    2.143   10.000    1.143 
#    2.571    0.000    0.000    0.000    0.000    0.000 
#    0.000    0.000    0.000    0.000    0.000    0.000 
#
# Total GULP energy -346894.419353 kJ/mol
# GULP energy per Si atom -12389.086405 kJ/mol
# Density = 2.121478 g / cm^3
# Si number density = 21.263171 Si / 1000 Ang^3
#
#
#
# Elastic Constant Matrix: (Units=GPa)
#
#
# Indices 1 2 3 4 5 6 
#
# 1 131.7435 58.1202 47.7296 0.0000 -13.3888 0.0000
# 2 58.1202 111.2296 21.0288 0.0000 -5.9376 0.0000
# 3 47.7296 21.0288 69.1547 0.0000 -15.6230 0.0000
# 4 0.0000 0.0000 0.0000 16.6690 0.0000 -4.9450
# 5 -13.3888 -5.9376 -15.6230 0.0000 32.9647 0.0000
# 6 0.0000 0.0000 0.0000 -4.9450 0.0000 20.1930
#
#
#
# Elastic Compliance Matrix: (Units=1/GPa)
#
#
# Indices 1 2 3 4 5 6 
#
# 1 0.012421 -0.005156 -0.006803 0.000000 0.000892 0.000000
# 2 -0.005156 0.011684 0.000009 0.000000 0.000015 0.000000
# 3 -0.006803 0.000009 0.020751 0.000000 0.007073 0.000000
# 4 0.000000 0.000000 0.000000 0.064691 0.000000 0.015842
# 5 0.000892 0.000015 0.007073 0.000000 0.034052 0.000000
# 6 0.000000 0.000000 0.000000 0.015842 0.000000 0.053402
#
#
# Mechanical properties :
#
#
# Convention : Reuss Voigt Hill
#
# Bulk Modulus (GPa) = 47.72158 62.87608 55.29883
# Shear Modulus (GPa) = 21.94081 26.31528 24.12805
#
# Velocity S-wave (km/s) = 3.21576 3.52177 3.37224
# Velocity P-wave (km/s) = 6.02330 6.79498 6.42074
#
# Compressibility (1/GPa) = 0.02095488
#
# Stress axis : x y z
#
# Youngs Moduli (GPa) = 80.51136 85.58914 48.19080
#
# Poissons Ratio (x) = 0.44132 0.32785
# Poissons Ratio (y) = 0.41514 -0.00045
# Poissons Ratio (z) = 0.54773 -0.00079
#
# Static dielectric constant tensor:
#      x y z
#    x 3.982760 0.000000 -0.483140 
#    y 0.000000 3.948060 0.000000 
#    z -0.483140 0.000000 3.929630 
# 
# 
# High freq. dielectric constant tensor:
#      x y z
#    x 1.828990 0.000000 -0.026940 
#    y 0.000000 1.834160 0.000000 
#    z -0.026940 0.000000 1.821110 
# 
# From -- ./inp_files/264437.got.cif
#   From: 2010.06.25/outbox.cif.g09.slc.cpg/sg15_133_cif.got.tgz:264437.got - 2010.06.28 07:06:18.
