data_PCOD8146383
_publ_section_title
;
Structure prediction by ZEFSAII (Michael W. Deem and Ramdas Pophale) SiO2 
 PCOD8146383
Probable space group: C 2/C
;
_chemical_formula_sum "Si O2"
_cell_formula_units_Z 64
_cell_length_a 8.025819
_cell_length_b 14.847733
_cell_length_c 26.374179
_cell_angle_alpha 90.000000
_cell_angle_beta 109.031965
_cell_angle_gamma 90.000000
_cell_volume 2971.084627
_symmetry_space_group_name_H-M "C 2/C"
_symmetry_group_IT_number 15
_symmetry_cell_setting 'monoclinic'
loop_
_space_group_symop_operation_xyz
x,y,z
-x,y,1/2-z
-x,-y,-z
x,-y,1/2+z
1/2+x,1/2+y,z
1/2-x,1/2+y,1/2-z
1/2-x,1/2-y,-z
1/2+x,1/2-y,1/2+z
loop_
_atom_site_type_symbol
_atom_site_label
_atom_site_fract_x
_atom_site_fract_y
_atom_site_fract_z
Si Si1 0.673042 0.965061 0.043279
Si Si2 0.213311 0.193029 0.606002
Si Si3 0.783111 0.112017 0.133597
Si Si4 0.886230 0.166914 0.502958
Si Si5 0.372804 0.832432 0.372711
Si Si6 0.279595 0.970695 0.176404
Si Si7 0.365898 0.640688 0.384084
Si Si8 0.191054 0.476802 0.208841
O O1 0.810881 0.928927 0.015325
O O2 0.641732 0.878581 0.074662
O O3 0.736834 0.049617 0.081604
O O4 0.500000 0.000000 0.000000
O O5 0.178867 0.293260 0.624300
O O6 0.416834 0.180955 0.611267
O O7 0.077777 0.183569 0.546262
O O8 0.174617 0.115663 0.644016
O O9 0.741304 0.066341 0.183202
O O10 0.987541 0.130410 0.145128
O O11 0.750000 0.250000 0.500000
O O12 0.929261 0.149067 0.448302
O O13 0.272729 0.736397 0.362834
O O14 0.264116 0.888759 0.319923
O O15 0.259414 0.055946 0.136985
O O16 0.486629 0.960370 0.198477
O O17 0.208330 0.982276 0.227152
#
# Coordination Sequence:
#
# PCOD8146383 Si02
#       8
#     8   8   8   8   8   8   8   8
#     4  11  23  37  60  88 123 168 200 252 308 368
#     4  10  23  40  63  90 125 166 206 254 303 378
#     4  10  23  39  62  92 124 161 208 253 310 366
#     4  12  25  39  61  92 131 166 210 257 314 372
#     4   9  21  41  61  89 124 160 207 251 308 371
#     4  10  22  41  64  92 120 163 209 255 316 366
#     4  11  24  39  61  93 125 164 207 256 302 377
#     4   9  21  42  66  88 123 160 204 262 313 371
#
# _framework density 21.540952999999998
#
# number of rings (size 3 to 8) (size 9 to 14) (size 15 to 20)
#    0.000    1.750    1.250    1.500    8.750    3.500 
#    0.000    2.500    0.000    0.000    0.000    0.000 
#    0.000    0.000    0.000    0.000    0.000    0.000 
#
# Total GULP energy -396469.925578 kJ/mol
# GULP energy per Si atom -12389.685174 kJ/mol
# Density = 2.149193 g / cm^3
# Si number density = 21.540953 Si / 1000 Ang^3
#
#
#
# Elastic Constant Matrix: (Units=GPa)
#
#
# Indices 1 2 3 4 5 6 
#
# 1 27.3435 12.3547 12.1290 0.0000 -8.1948 0.0000
# 2 12.3547 180.0349 64.9820 0.0000 -6.2393 0.0000
# 3 12.1290 64.9820 127.5747 0.0000 -17.0964 0.0000
# 4 0.0000 0.0000 0.0000 24.4403 0.0000 -2.2625
# 5 -8.1948 -6.2393 -17.0964 0.0000 30.4026 0.0000
# 6 0.0000 0.0000 0.0000 -2.2625 0.0000 26.1398
#
#
#
# Elastic Compliance Matrix: (Units=1/GPa)
#
#
# Indices 1 2 3 4 5 6 
#
# 1 0.041077 -0.001891 -0.001634 0.000000 0.009765 0.000000
# 2 -0.001891 0.006903 -0.003477 0.000000 -0.001048 0.000000
# 3 -0.001634 -0.003477 0.010393 0.000000 0.004691 0.000000
# 4 0.000000 0.000000 0.000000 0.041246 0.000000 0.003570
# 5 0.009765 -0.001048 0.004691 0.000000 0.037947 0.000000
# 6 0.000000 0.000000 0.000000 0.003570 0.000000 0.038565
#
#
# Mechanical properties :
#
#
# Convention : Reuss Voigt Hill
#
# Bulk Modulus (GPa) = 22.53708 57.09829 39.81768
# Shear Modulus (GPa) = 24.39923 32.56236 28.48079
#
# Velocity S-wave (km/s) = 3.36920 3.89221 3.64011
# Velocity P-wave (km/s) = 5.06167 6.83838 6.01598
#
# Compressibility (1/GPa) = 0.04437131
#
# Stress axis : x y z
#
# Youngs Moduli (GPa) = 24.34428 144.86851 96.21494
#
# Poissons Ratio (x) = 0.27392 0.15718
# Poissons Ratio (y) = 0.04603 0.33451
# Poissons Ratio (z) = 0.03977 0.50367
#
# Static dielectric constant tensor:
#      x y z
#    x 3.393640 0.000000 -0.663220 
#    y 0.000000 4.667960 0.000000 
#    z -0.663220 0.000000 3.231140 
# 
# 
# High freq. dielectric constant tensor:
#      x y z
#    x 1.830900 0.000000 -0.011700 
#    y 0.000000 1.867150 0.000000 
#    z -0.011700 0.000000 1.842820 
# 
# From -- ./inp_files/288819.got.cif
#   From: 2010.06.25/outbox.cif.g09.slc.cpg/sg15_145_cif.got.tgz:288819.got - 2010.06.28 07:06:18.
