data_PCOD8146836
_publ_section_title
;
Structure prediction by ZEFSAII (Michael W. Deem and Ramdas Pophale) SiO2 
 PCOD8146836
Probable space group: C 2/C
;
_chemical_formula_sum "Si O2"
_cell_formula_units_Z 56
_cell_length_a 12.331645
_cell_length_b 12.061349
_cell_length_c 20.782874
_cell_angle_alpha 90.000000
_cell_angle_beta 115.496992
_cell_angle_gamma 90.000000
_cell_volume 2790.111927
_symmetry_space_group_name_H-M "C 2/C"
_symmetry_group_IT_number 15
_symmetry_cell_setting 'monoclinic'
loop_
_space_group_symop_operation_xyz
x,y,z
-x,y,1/2-z
-x,-y,-z
x,-y,1/2+z
1/2+x,1/2+y,z
1/2-x,1/2+y,1/2-z
1/2-x,1/2-y,-z
1/2+x,1/2-y,1/2+z
loop_
_atom_site_type_symbol
_atom_site_label
_atom_site_fract_x
_atom_site_fract_y
_atom_site_fract_z
Si Si1 0.433051 0.184062 0.670256
Si Si2 0.868930 0.551489 0.126210
Si Si3 0.119360 0.750345 0.616482
Si Si4 0.388055 0.496218 0.924510
Si Si5 0.477084 0.121499 0.022934
Si Si6 0.369331 0.761389 0.730965
Si Si7 0.163457 0.768068 0.130950
O O1 0.500000 0.228389 0.750000
O O2 0.498974 0.224652 0.623746
O O3 0.299511 0.230836 0.641536
O O4 0.446676 0.052365 0.667957
O O5 0.738358 0.506585 0.069729
O O6 0.920286 0.617173 0.078930
O O7 0.869123 0.626538 0.189695
O O8 0.115279 0.883625 0.617141
O O9 0.110744 0.694183 0.544228
O O10 0.244792 0.700001 0.677822
O O11 0.390937 0.606719 0.880956
O O12 0.500000 0.500000 0.000000
O O13 0.600370 0.189763 0.062115
O O14 0.500000 0.000000 0.000000
O O15 0.500000 0.701269 0.750000
O O16 0.355244 0.784518 0.803195
#
# Coordination Sequence:
#
# PCOD8146836 Si02
#       7
#     8   8   8   8   8   8   8
#     4  11  22  42  67  97 131 175 218 269 330 386
#     4  10  23  38  69  95 132 177 217 268 327 393
#     4  11  24  42  69  98 135 168 220 273 325 389
#     4  10  22  42  65  93 134 177 213 265 336 384
#     4  12  24  41  67 105 128 168 222 275 327 390
#     4  11  22  42  66  97 128 173 219 268 322 386
#     4  11  24  42  69  95 133 175 222 267 326 395
#
# _framework density 20.070879999999999
#
# number of rings (size 3 to 8) (size 9 to 14) (size 15 to 20)
#    0.000    1.143    5.714    0.429    0.000    5.143 
#    2.571    0.714    0.000    0.000    0.000    0.000 
#    0.000    0.000    0.000    0.000    0.000    0.000 
#
# Total GULP energy -346921.867569 kJ/mol
# GULP energy per Si atom -12390.066699 kJ/mol
# Density = 2.002520 g / cm^3
# Si number density = 20.070880 Si / 1000 Ang^3
#
#
#
# Elastic Constant Matrix: (Units=GPa)
#
#
# Indices 1 2 3 4 5 6 
#
# 1 130.0469 36.4997 55.4052 0.0000 6.2455 0.0000
# 2 36.4997 107.7799 39.4930 0.0000 -2.7642 0.0000
# 3 55.4052 39.4930 113.9027 0.0000 16.0018 0.0000
# 4 0.0000 0.0000 0.0000 27.4630 0.0000 0.1517
# 5 6.2455 -2.7642 16.0018 0.0000 39.2207 0.0000
# 6 0.0000 0.0000 0.0000 0.1517 0.0000 26.6944
#
#
#
# Elastic Compliance Matrix: (Units=1/GPa)
#
#
# Indices 1 2 3 4 5 6 
#
# 1 0.010008 -0.001839 -0.004231 0.000000 0.000003 0.000000
# 2 -0.001839 0.011182 -0.003325 0.000000 0.002437 0.000000
# 3 -0.004231 -0.003325 0.012654 0.000000 -0.004723 0.000000
# 4 0.000000 0.000000 0.000000 0.036414 0.000000 -0.000207
# 5 0.000003 0.002437 -0.004723 0.000000 0.027595 0.000000
# 6 0.000000 0.000000 0.000000 -0.000207 0.000000 0.037462
#
#
# Mechanical properties :
#
#
# Convention : Reuss Voigt Hill
#
# Bulk Modulus (GPa) = 66.42715 68.28058 67.35386
# Shear Modulus (GPa) = 31.42231 33.36439 32.39335
#
# Velocity S-wave (km/s) = 3.96102 4.08159 4.02176
# Velocity P-wave (km/s) = 7.35443 7.50374 7.42946
#
# Compressibility (1/GPa) = 0.01505409
#
# Stress axis : x y z
#
# Youngs Moduli (GPa) = 99.91931 89.43143 79.02680
#
# Poissons Ratio (x) = 0.16445 0.33437
# Poissons Ratio (y) = 0.18373 0.26276
# Poissons Ratio (z) = 0.42276 0.29736
#
# Static dielectric constant tensor:
#      x y z
#    x 4.069500 0.000000 0.379100 
#    y 0.000000 3.784570 0.000000 
#    z 0.379100 0.000000 3.801030 
# 
# 
# High freq. dielectric constant tensor:
#      x y z
#    x 1.795020 0.000000 0.015850 
#    y 0.000000 1.771960 0.000000 
#    z 0.015850 0.000000 1.791880 
# 
# From -- ./inp_files/237613.got.cif
#   From: 2010.06.25/outbox.cif.g09.slc.cpg/sg15_119_cif.got.tgz:237613.got - 2010.06.28 07:06:18.
