data_PCOD8146244
_publ_section_title
;
Structure prediction by ZEFSAII (Michael W. Deem and Ramdas Pophale) SiO2 
 PCOD8146244
Probable space group: C 2/C
;
_chemical_formula_sum "Si O2"
_cell_formula_units_Z 32
_cell_length_a 9.065933
_cell_length_b 10.772066
_cell_length_c 14.165015
_cell_angle_alpha 90.000000
_cell_angle_beta 109.681482
_cell_angle_gamma 90.000000
_cell_volume 1302.523353
_symmetry_space_group_name_H-M "C 2/C"
_symmetry_group_IT_number 15
_symmetry_cell_setting 'monoclinic'
loop_
_space_group_symop_operation_xyz
x,y,z
-x,y,1/2-z
-x,-y,-z
x,-y,1/2+z
1/2+x,1/2+y,z
1/2-x,1/2+y,1/2-z
1/2-x,1/2-y,-z
1/2+x,1/2-y,1/2+z
loop_
_atom_site_type_symbol
_atom_site_label
_atom_site_fract_x
_atom_site_fract_y
_atom_site_fract_z
Si Si1 0.141452 0.225262 0.066814
Si Si2 0.682820 0.647678 0.553598
Si Si3 0.858749 0.703131 0.278085
Si Si4 0.007870 0.452888 0.359618
O O1 0.228737 0.161362 0.173934
O O2 0.074257 0.358135 0.086330
O O3 0.250000 0.250000 0.000000
O O4 0.001202 0.128063 0.009839
O O5 0.750000 0.750000 0.500000
O O6 0.705513 0.694997 0.665371
O O7 0.804530 0.531609 0.572235
O O8 0.922943 0.585268 0.351087
O O9 0.000000 0.765334 0.250000
O O10 0.000000 0.405324 0.250000
#
# Coordination Sequence:
#
# PCOD8146244 Si02
#       4
#     8   8   8   8
#     4  11  22  41  71 100 138 179 227 283 341 409
#     4  10  22  40  70  96 135 175 229 280 341 409
#     4  11  22  42  69 101 139 178 225 292 338 398
#     4  10  22  42  70  95 136 182 223 280 345 400
#
# _framework density 24.567696999999999
#
# number of rings (size 3 to 8) (size 9 to 14) (size 15 to 20)
#    0.000    1.500    5.000    0.000    0.000    4.000 
#    0.000    5.000   49.500    0.000    0.000    0.000 
#    0.000    0.000    0.000    0.000    0.000    0.000 
#
# Total GULP energy -198224.629327 kJ/mol
# GULP energy per Si atom -12389.039333 kJ/mol
# Density = 2.451178 g / cm^3
# Si number density = 24.567697 Si / 1000 Ang^3
#
#
#
# Elastic Constant Matrix: (Units=GPa)
#
#
# Indices 1 2 3 4 5 6 
#
# 1 130.0459 8.1245 43.0038 0.0000 23.5364 0.0000
# 2 8.1245 41.6282 -3.0036 0.0000 2.7547 0.0000
# 3 43.0038 -3.0036 127.9214 0.0000 19.8465 0.0000
# 4 0.0000 0.0000 0.0000 34.4837 0.0000 3.4415
# 5 23.5364 2.7547 19.8465 0.0000 72.5238 0.0000
# 6 0.0000 0.0000 0.0000 3.4415 0.0000 24.8702
#
#
#
# Elastic Compliance Matrix: (Units=1/GPa)
#
#
# Indices 1 2 3 4 5 6 
#
# 1 0.009107 -0.001837 -0.002775 0.000000 -0.002126 0.000000
# 2 -0.001837 0.024520 0.001300 0.000000 -0.000691 0.000000
# 3 -0.002775 0.001300 0.009032 0.000000 -0.001621 0.000000
# 4 0.000000 0.000000 0.000000 0.029405 0.000000 -0.004069
# 5 -0.002126 -0.000691 -0.001621 0.000000 0.014948 0.000000
# 6 0.000000 0.000000 0.000000 -0.004069 0.000000 0.040772
#
#
# Mechanical properties :
#
#
# Convention : Reuss Voigt Hill
#
# Bulk Modulus (GPa) = 27.74933 43.98275 35.86604
# Shear Modulus (GPa) = 34.14862 43.14028 38.64445
#
# Velocity S-wave (km/s) = 3.73229 4.19498 3.97038
# Velocity P-wave (km/s) = 5.46744 6.43470 5.97069
#
# Compressibility (1/GPa) = 0.03603691
#
# Stress axis : x y z
#
# Youngs Moduli (GPa) = 109.80905 40.78264 110.71699
#
# Poissons Ratio (x) = 0.07491 0.30720
# Poissons Ratio (y) = 0.20170 -0.14398
# Poissons Ratio (z) = 0.30468 -0.05304
#
# Static dielectric constant tensor:
#      x y z
#    x 5.060340 0.000000 0.440130 
#    y 0.000000 3.893260 0.000000 
#    z 0.440130 0.000000 4.783450 
# 
# 
# High freq. dielectric constant tensor:
#      x y z
#    x 2.000010 0.000000 0.004340 
#    y 0.000000 1.937780 0.000000 
#    z 0.004340 0.000000 1.999590 
# 
# From -- ./inp_files/131949.got.cif
#   From: 2010.06.25/outbox.cif.g09.slc.cpg/sg15_66_cif.got.tgz:131949.got - 2010.06.28 07:06:18.
