data_PCOD8146054
_publ_section_title
;
Structure prediction by ZEFSAII (Michael W. Deem and Ramdas Pophale) SiO2 
 PCOD8146054
Probable space group: C 2/C
;
_chemical_formula_sum "Si O2"
_cell_formula_units_Z 64
_cell_length_a 8.711670
_cell_length_b 16.161653
_cell_length_c 32.364618
_cell_angle_alpha 90.000000
_cell_angle_beta 138.087315
_cell_angle_gamma 90.000000
_cell_volume 3043.914176
_symmetry_space_group_name_H-M "C 2/C"
_symmetry_group_IT_number 15
_symmetry_cell_setting 'monoclinic'
loop_
_space_group_symop_operation_xyz
x,y,z
-x,y,1/2-z
-x,-y,-z
x,-y,1/2+z
1/2+x,1/2+y,z
1/2-x,1/2+y,1/2-z
1/2-x,1/2-y,-z
1/2+x,1/2-y,1/2+z
loop_
_atom_site_type_symbol
_atom_site_label
_atom_site_fract_x
_atom_site_fract_y
_atom_site_fract_z
Si Si1 0.146278 0.832481 0.875995
Si Si2 0.077781 0.818700 0.387094
Si Si3 0.327846 0.137904 0.248867
Si Si4 0.236394 0.477512 0.446600
Si Si5 0.550534 0.089096 0.993329
Si Si6 0.854757 0.348908 0.140817
Si Si7 0.359036 0.666287 0.760614
Si Si8 0.971921 0.635732 0.367468
O O1 0.106295 0.735335 0.877654
O O2 0.270396 0.837688 0.857129
O O3 0.916391 0.883884 0.820270
O O4 0.264630 0.869056 0.939911
O O5 0.318843 0.857265 0.449162
O O6 0.121934 0.719633 0.391393
O O7 0.870666 0.840282 0.376391
O O8 0.005041 0.861026 0.329560
O O9 0.500000 0.098699 0.250000
O O10 0.354100 0.235496 0.257940
O O11 0.372503 0.101550 0.303786
O O12 0.500000 0.500000 0.500000
O O13 0.184356 0.426474 0.395700
O O14 0.108606 0.565101 0.418927
O O15 0.157672 0.421071 0.469372
O O16 0.500000 0.000000 0.000000
O O17 0.096957 0.366722 0.212792
O O18 0.500000 0.629001 0.750000
#
# Coordination Sequence:
#
# PCOD8146054 Si02
#       8
#     8   8   8   8   8   8   8   8
#     4  10  22  41  69  92 126 171 216 255 315 393
#     4  10  22  41  71  91 125 173 216 257 317 392
#     4   9  19  37  65  96 124 160 214 267 311 370
#     4  12  27  43  61  94 136 164 209 272 319 376
#     4  12  25  44  64  94 129 171 215 261 321 379
#     4  10  22  40  65  98 125 167 214 266 318 372
#     4   9  17  37  64  96 127 160 214 266 313 374
#     4  10  22  43  67  93 127 169 213 258 322 378
#
# _framework density 21.025559999999999
#
# number of rings (size 3 to 8) (size 9 to 14) (size 15 to 20)
#    0.000    1.750    1.250    2.250    3.500    5.500 
#    2.250    0.000    0.000    0.000    0.000    0.000 
#    0.000    0.000    0.000    0.000    0.000    0.000 
#
# Total GULP energy -396647.711206 kJ/mol
# GULP energy per Si atom -12395.240975 kJ/mol
# Density = 2.097771 g / cm^3
# Si number density = 21.025560 Si / 1000 Ang^3
#
#
#
# Elastic Constant Matrix: (Units=GPa)
#
#
# Indices 1 2 3 4 5 6 
#
# 1 100.6925 18.8448 45.3303 0.0000 3.0000 0.0000
# 2 18.8448 67.1411 38.1029 0.0000 2.3964 0.0000
# 3 45.3303 38.1029 150.6529 -0.0002 9.0149 -0.0001
# 4 0.0000 0.0000 -0.0002 26.8526 -0.0001 -6.2276
# 5 3.0000 2.3964 9.0149 -0.0001 41.5646 0.0000
# 6 0.0000 0.0000 -0.0001 -6.2276 0.0000 22.7320
#
#
#
# Elastic Compliance Matrix: (Units=1/GPa)
#
#
# Indices 1 2 3 4 5 6 
#
# 1 0.011614 -0.001490 -0.003113 0.000000 -0.000077 0.000000
# 2 -0.001490 0.017581 -0.003996 0.000000 -0.000039 0.000000
# 3 -0.003113 -0.003996 0.008670 0.000000 -0.001425 0.000000
# 4 0.000000 0.000000 0.000000 0.039767 0.000000 0.010894
# 5 -0.000077 -0.000039 -0.001425 0.000000 0.024376 0.000000
# 6 0.000000 0.000000 0.000000 0.010894 0.000000 0.046975
#
#
# Mechanical properties :
#
#
# Convention : Reuss Voigt Hill
#
# Bulk Modulus (GPa) = 48.38567 58.11582 53.25074
# Shear Modulus (GPa) = 28.88981 32.64374 30.76677
#
# Velocity S-wave (km/s) = 3.71082 3.94455 3.82946
# Velocity P-wave (km/s) = 6.43607 6.96035 6.70334
#
# Compressibility (1/GPa) = 0.02066728
#
# Stress axis : x y z
#
# Youngs Moduli (GPa) = 86.10400 56.87831 115.33530
#
# Poissons Ratio (x) = 0.08477 0.35904
# Poissons Ratio (y) = 0.12832 0.46086
# Poissons Ratio (z) = 0.26804 0.22728
#
# Static dielectric constant tensor:
#      x y z
#    x 3.966060 0.000000 0.000050 
#    y 0.000000 3.472320 0.000000 
#    z 0.000050 0.000000 3.734570 
# 
# 
# High freq. dielectric constant tensor:
#      x y z
#    x 1.831200 0.000000 0.000550 
#    y 0.000000 1.807600 0.000000 
#    z 0.000550 0.000000 1.834970 
# 
# From -- ./inp_files/308811.got.cif
#   From: 2010.06.25/outbox.cif.g09.slc.cpg/sg15_155_cif.got.tgz:308811.got - 2010.06.28 07:06:18.
