data_PCOD8146911
_publ_section_title
;
Structure prediction by ZEFSAII (Michael W. Deem and Ramdas Pophale) SiO2 
 PCOD8146911
Probable space group: C 2/C
;
_chemical_formula_sum "Si O2"
_cell_formula_units_Z 60
_cell_length_a 18.858432
_cell_length_b 21.100271
_cell_length_c 9.131708
_cell_angle_alpha 90.000000
_cell_angle_beta 125.915062
_cell_angle_gamma 90.000000
_cell_volume 2942.864777
_symmetry_space_group_name_H-M "C 2/C"
_symmetry_group_IT_number 15
_symmetry_cell_setting 'monoclinic'
loop_
_space_group_symop_operation_xyz
x,y,z
-x,y,1/2-z
-x,-y,-z
x,-y,1/2+z
1/2+x,1/2+y,z
1/2-x,1/2+y,1/2-z
1/2-x,1/2-y,-z
1/2+x,1/2-y,1/2+z
loop_
_atom_site_type_symbol
_atom_site_label
_atom_site_fract_x
_atom_site_fract_y
_atom_site_fract_z
Si Si1 0.287253 0.491661 0.313663
Si Si2 0.165803 0.493101 0.423549
Si Si3 0.866346 0.360934 0.576402
Si Si4 0.512682 0.313431 0.936790
Si Si5 0.489016 0.174201 0.469083
Si Si6 0.824916 0.139560 0.712146
Si Si7 0.420391 0.402190 0.055478
Si Si8 0.000000 0.411542 0.250000
O O1 0.245702 0.470929 0.416844
O O2 0.323813 0.432651 0.266886
O O3 0.367358 0.539181 0.427676
O O4 0.204069 0.522988 0.129867
O O5 0.144641 0.567355 0.381269
O O6 0.078209 0.454649 0.283927
O O7 0.906656 0.320114 0.758694
O O8 0.773023 0.331831 0.413694
O O9 0.929508 0.358668 0.513170
O O10 0.500000 0.327737 0.750000
O O11 0.482187 0.242854 0.938999
O O12 0.615106 0.320210 0.104234
O O13 0.453894 0.361660 0.958688
O O14 0.462620 0.131350 0.574547
O O15 0.861766 0.141687 0.590893
O O16 0.500000 0.428966 0.250000
#
# Coordination Sequence:
#
# PCOD8146911 Si02
#       8
#     8   8   8   8   8   8   8   4
#     4  11  21  41  63  99 132 155 206 264 316 386
#     4  11  23  38  65  97 133 163 206 259 315 384
#     4  10  22  42  66  96 124 171 210 252 313 388
#     4  11  26  46  63  93 126 165 219 271 313 368
#     4  11  24  42  64  90 133 167 219 260 308 369
#     4  10  23  42  67  97 127 166 214 252 319 383
#     4  10  23  42  68  92 127 168 208 255 323 381
#     4  12  22  38  64  94 130 172 202 262 328 360
#
# _framework density 20.388297000000001
#
# number of rings (size 3 to 8) (size 9 to 14) (size 15 to 20)
#    0.000    1.333    3.333    3.200    7.467    4.800 
#    0.000    0.667    0.000    0.000    0.000    0.000 
#    0.000    0.000    0.000    0.000    0.000    0.000 
#
# Total GULP energy -372041.433935 kJ/mol
# GULP energy per Si atom -12401.381131 kJ/mol
# Density = 2.034189 g / cm^3
# Si number density = 20.388297 Si / 1000 Ang^3
#
#
#
# Elastic Constant Matrix: (Units=GPa)
#
#
# Indices 1 2 3 4 5 6 
#
# 1 110.2124 36.9407 45.3309 0.0000 1.0372 0.0000
# 2 36.9407 61.2210 30.4856 0.0000 -2.1789 0.0000
# 3 45.3309 30.4856 105.7784 0.0000 -1.4769 0.0000
# 4 0.0000 0.0000 0.0000 32.1073 0.0000 -5.2271
# 5 1.0372 -2.1789 -1.4769 0.0000 41.1792 0.0000
# 6 0.0000 0.0000 0.0000 -5.2271 0.0000 13.7224
#
#
#
# Elastic Compliance Matrix: (Units=1/GPa)
#
#
# Indices 1 2 3 4 5 6 
#
# 1 0.012537 -0.005734 -0.003731 0.000000 -0.000753 0.000000
# 2 -0.005734 0.021721 -0.003787 0.000000 0.001158 0.000000
# 3 -0.003731 -0.003787 0.012148 0.000000 0.000329 0.000000
# 4 0.000000 0.000000 0.000000 0.033205 0.000000 0.012648
# 5 -0.000753 0.001158 0.000329 0.000000 0.024376 0.000000
# 6 0.000000 0.000000 0.000000 0.012648 0.000000 0.077691
#
#
# Mechanical properties :
#
#
# Convention : Reuss Voigt Hill
#
# Bulk Modulus (GPa) = 50.24135 55.85845 53.04990
# Shear Modulus (GPa) = 23.27588 28.36543 25.82066
#
# Velocity S-wave (km/s) = 3.38247 3.73401 3.56258
# Velocity P-wave (km/s) = 6.32064 6.78581 6.55735
#
# Compressibility (1/GPa) = 0.01990392
#
# Stress axis : x y z
#
# Youngs Moduli (GPa) = 79.76578 46.03883 82.31563
#
# Poissons Ratio (x) = 0.26398 0.30709
# Poissons Ratio (y) = 0.45736 0.31170
# Poissons Ratio (z) = 0.29757 0.17433
#
# Static dielectric constant tensor:
#      x y z
#    x 3.790870 0.000000 0.077930 
#    y 0.000000 3.417370 0.000000 
#    z 0.077930 0.000000 3.902870 
# 
# 
# High freq. dielectric constant tensor:
#      x y z
#    x 1.805060 0.000000 -0.001240 
#    y 0.000000 1.776360 0.000000 
#    z -0.001240 0.000000 1.810660 
# 
# From -- ./inp_files/50669.got.cif
#   From: 2010.06.25/outbox.cif.g09.slc.cpg/sg15_26_cif.got.tgz:50669.got - 2010.06.28 07:06:18.
