data_PCOD8146642
_publ_section_title
;
Structure prediction by ZEFSAII (Michael W. Deem and Ramdas Pophale) SiO2 
 PCOD8146642
Probable space group: C 2/C
;
_chemical_formula_sum "Si O2"
_cell_formula_units_Z 60
_cell_length_a 26.665972
_cell_length_b 9.775270
_cell_length_c 11.691382
_cell_angle_alpha 90.000000
_cell_angle_beta 66.977988
_cell_angle_gamma 90.000000
_cell_volume 2804.834582
_symmetry_space_group_name_H-M "C 2/C"
_symmetry_group_IT_number 15
_symmetry_cell_setting 'monoclinic'
loop_
_space_group_symop_operation_xyz
x,y,z
-x,y,1/2-z
-x,-y,-z
x,-y,1/2+z
1/2+x,1/2+y,z
1/2-x,1/2+y,1/2-z
1/2-x,1/2-y,-z
1/2+x,1/2-y,1/2+z
loop_
_atom_site_type_symbol
_atom_site_label
_atom_site_fract_x
_atom_site_fract_y
_atom_site_fract_z
Si Si1 0.173298 0.664718 0.633197
Si Si2 0.000000 0.759729 0.750000
Si Si3 0.612131 0.178968 0.925608
Si Si4 0.413287 0.107605 0.973822
Si Si5 0.687598 0.287224 0.043952
Si Si6 0.365965 0.671985 0.673226
Si Si7 0.708181 0.413626 0.461651
Si Si8 0.948089 0.072543 0.101076
O O1 0.137064 0.670352 0.777671
O O2 0.139107 0.599138 0.561255
O O3 0.226520 0.571453 0.607225
O O4 0.192607 0.817112 0.582373
O O5 0.966086 0.658849 0.860230
O O6 0.961209 0.858479 0.711257
O O7 0.572064 0.309597 0.968386
O O8 0.660563 0.190543 0.973587
O O9 0.576933 0.043010 0.983042
O O10 0.404519 0.213413 0.084526
O O11 0.656719 0.264665 0.190286
O O12 0.750000 0.250000 0.000000
O O13 0.680573 0.442588 0.010768
O O14 0.314695 0.642387 0.637331
O O15 0.400368 0.535566 0.665477
O O16 0.000000 0.000000 0.000000
#
# Coordination Sequence:
#
# PCOD8146642 Si02
#       8
#     8   4   8   8   8   8   8   8
#     4  10  22  45  69  99 138 189 234 277 358 423
#     4  12  26  50  74 100 144 180 238 296 368 412
#     4  12  26  45  73 102 143 183 236 291 350 423
#     4  11  26  46  73 100 144 186 225 297 358 423
#     4  12  26  41  68 108 145 182 236 290 344 424
#     4  11  25  46  70 104 141 184 240 290 353 422
#     4  10  22  41  71  98 139 190 230 288 353 413
#     4  12  26  48  75 103 132 188 241 297 351 417
#
# _framework density 21.391635999999998
#
# number of rings (size 3 to 8) (size 9 to 14) (size 15 to 20)
#    0.000    0.800    4.000    2.400    7.467    0.533 
#    2.400    0.000    0.000    0.000    0.000    0.000 
#    0.000    0.000    0.000    0.000    0.000    0.000 
#
# Total GULP energy -372199.489457 kJ/mol
# GULP energy per Si atom -12406.649649 kJ/mol
# Density = 2.134295 g / cm^3
# Si number density = 21.391636 Si / 1000 Ang^3
#
#
#
# Elastic Constant Matrix: (Units=GPa)
#
#
# Indices 1 2 3 4 5 6 
#
# 1 97.1189 41.1142 30.7748 0.0000 -1.0339 0.0000
# 2 41.1142 131.2643 54.3978 0.0000 -6.8522 0.0000
# 3 30.7748 54.3978 123.9610 0.0000 -9.5744 0.0000
# 4 0.0000 0.0000 0.0000 31.2058 0.0000 -2.8827
# 5 -1.0339 -6.8522 -9.5744 0.0000 38.0768 0.0000
# 6 0.0000 0.0000 0.0000 -2.8827 0.0000 40.1153
#
#
#
# Elastic Compliance Matrix: (Units=1/GPa)
#
#
# Indices 1 2 3 4 5 6 
#
# 1 0.012155 -0.003141 -0.001690 0.000000 -0.000660 0.000000
# 2 -0.003141 0.010140 -0.003605 0.000000 0.000833 0.000000
# 3 -0.001690 -0.003605 0.010214 0.000000 0.001873 0.000000
# 4 0.000000 0.000000 0.000000 0.032259 0.000000 0.002318
# 5 -0.000660 0.000833 0.001873 0.000000 0.026866 0.000000
# 6 0.000000 0.000000 0.000000 0.002318 0.000000 0.025095
#
#
# Mechanical properties :
#
#
# Convention : Reuss Voigt Hill
#
# Bulk Modulus (GPa) = 63.96056 67.21310 65.58683
# Shear Modulus (GPa) = 36.01959 36.95007 36.48483
#
# Velocity S-wave (km/s) = 4.10789 4.16061 4.13433
# Velocity P-wave (km/s) = 7.24323 7.38711 7.31552
#
# Compressibility (1/GPa) = 0.01563464
#
# Stress axis : x y z
#
# Youngs Moduli (GPa) = 82.27079 98.62211 97.90924
#
# Poissons Ratio (x) = 0.30979 0.16548
# Poissons Ratio (y) = 0.25843 0.35301
# Poissons Ratio (z) = 0.13905 0.35558
#
# Static dielectric constant tensor:
#      x y z
#    x 3.993100 0.000000 0.081810 
#    y 0.000000 4.066480 0.000000 
#    z 0.081810 0.000000 3.784490 
# 
# 
# High freq. dielectric constant tensor:
#      x y z
#    x 1.847210 0.000000 0.003020 
#    y 0.000000 1.848870 0.000000 
#    z 0.003020 0.000000 1.839920 
# 
# From -- ./inp_files/125867.got.cif
#   From: 2010.06.25/outbox.cif.g09.slc.cpg/sg15_63_cif.got.tgz:125867.got - 2010.06.28 07:06:18.
