data_PCOD8146632
_publ_section_title
;
Structure prediction by ZEFSAII (Michael W. Deem and Ramdas Pophale) SiO2 
 PCOD8146632
Probable space group: C 2/C
;
_chemical_formula_sum "Si O2"
_cell_formula_units_Z 32
_cell_length_a 10.170862
_cell_length_b 10.474156
_cell_length_c 21.115334
_cell_angle_alpha 90.000000
_cell_angle_beta 147.105746
_cell_angle_gamma 90.000000
_cell_volume 1221.649880
_symmetry_space_group_name_H-M "C 2/C"
_symmetry_group_IT_number 15
_symmetry_cell_setting 'monoclinic'
loop_
_space_group_symop_operation_xyz
x,y,z
-x,y,1/2-z
-x,-y,-z
x,-y,1/2+z
1/2+x,1/2+y,z
1/2-x,1/2+y,1/2-z
1/2-x,1/2-y,-z
1/2+x,1/2-y,1/2+z
loop_
_atom_site_type_symbol
_atom_site_label
_atom_site_fract_x
_atom_site_fract_y
_atom_site_fract_z
Si Si1 0.768149 0.633803 0.373647
Si Si2 0.193990 0.942424 0.530001
Si Si3 0.043267 0.386102 0.102939
Si Si4 0.518149 0.723108 0.653108
O O1 0.500000 0.681210 0.250000
O O2 0.793642 0.481390 0.374240
O O3 0.948644 0.700747 0.398742
O O4 0.843728 0.677509 0.475479
O O5 0.317138 0.810941 0.608041
O O6 0.075190 0.914558 0.411563
O O7 0.405753 0.046859 0.605867
O O8 0.000000 0.000000 0.500000
O O9 0.236003 0.284679 0.207557
#
# Coordination Sequence:
#
# PCOD8146632 Si02
#       4
#     8   8   8   8
#     4  10  22  41  70  98 137 193 239 295 370 438
#     4  10  23  45  71 104 147 192 240 305 367 441
#     4  10  22  44  71  97 140 192 240 297 369 444
#     4  10  23  45  68 106 146 184 251 306 363 439
#
# _framework density 26.194082999999999
#
# number of rings (size 3 to 8) (size 9 to 14) (size 15 to 20)
#    0.000    2.000    0.000    1.500    3.500    3.000 
#   13.500    0.000    0.000    0.000    0.000    0.000 
#    0.000    0.000    0.000    0.000    0.000    0.000 
#
# Total GULP energy -198336.376764 kJ/mol
# GULP energy per Si atom -12396.023548 kJ/mol
# Density = 2.613446 g / cm^3
# Si number density = 26.194083 Si / 1000 Ang^3
#
#
#
# Elastic Constant Matrix: (Units=GPa)
#
#
# Indices 1 2 3 4 5 6 
#
# 1 114.7264 37.6444 54.0225 0.0001 11.3579 0.0000
# 2 37.6444 77.8243 58.2373 0.0001 2.1834 0.0001
# 3 54.0225 58.2373 229.8302 0.0002 2.7837 0.0004
# 4 0.0001 0.0001 0.0002 48.1386 0.0002 15.3952
# 5 11.3579 2.1834 2.7837 0.0002 40.4712 0.0002
# 6 0.0000 0.0001 0.0004 15.3952 0.0002 26.7222
#
#
#
# Elastic Compliance Matrix: (Units=1/GPa)
#
#
# Indices 1 2 3 4 5 6 
#
# 1 0.011064 -0.004137 -0.001519 0.000000 -0.002777 0.000000
# 2 -0.004137 0.017417 -0.003446 0.000000 0.000459 0.000000
# 3 -0.001519 -0.003446 0.005579 0.000000 0.000228 0.000000
# 4 0.000000 0.000000 0.000000 0.025465 0.000000 -0.014671
# 5 -0.002777 0.000459 0.000228 0.000000 0.025448 0.000000
# 6 0.000000 0.000000 0.000000 -0.014671 0.000000 0.045874
#
#
# Mechanical properties :
#
#
# Convention : Reuss Voigt Hill
#
# Bulk Modulus (GPa) = 63.07315 80.24327 71.65821
# Shear Modulus (GPa) = 32.39674 41.23152 36.81413
#
# Velocity S-wave (km/s) = 3.52063 3.97177 3.75298
# Velocity P-wave (km/s) = 6.37635 7.19263 6.79675
#
# Compressibility (1/GPa) = 0.01585461
#
# Stress axis : x y z
#
# Youngs Moduli (GPa) = 90.38301 57.41554 179.25959
#
# Poissons Ratio (x) = 0.23755 0.27222
# Poissons Ratio (y) = 0.37396 0.61779
# Poissons Ratio (z) = 0.13726 0.19787
#
# Static dielectric constant tensor:
#      x y z
#    x 4.517310 0.000000 0.113800 
#    y 0.000000 4.683720 0.000000 
#    z 0.113800 0.000000 4.654140 
# 
# 
# High freq. dielectric constant tensor:
#      x y z
#    x 2.043800 0.000000 0.016840 
#    y 0.000000 2.030050 0.000000 
#    z 0.016840 0.000000 2.057970 
# 
# From -- ./inp_files/84116.got.cif
#   From: 2010.06.25/outbox.cif.g09.slc.cpg/sg15_43_cif.got.tgz:84116.got - 2010.06.28 07:06:18.
