data_PCOD8146910
_publ_section_title
;
Structure prediction by ZEFSAII (Michael W. Deem and Ramdas Pophale) SiO2 
 PCOD8146910
Probable space group: C 2/C
;
_chemical_formula_sum "Si O2"
_cell_formula_units_Z 56
_cell_length_a 27.996779
_cell_length_b 8.390107
_cell_length_c 11.390729
_cell_angle_alpha 90.000000
_cell_angle_beta 71.054716
_cell_angle_gamma 90.000000
_cell_volume 2530.694601
_symmetry_space_group_name_H-M "C 2/C"
_symmetry_group_IT_number 15
_symmetry_cell_setting 'monoclinic'
loop_
_space_group_symop_operation_xyz
x,y,z
-x,y,1/2-z
-x,-y,-z
x,-y,1/2+z
1/2+x,1/2+y,z
1/2-x,1/2+y,1/2-z
1/2-x,1/2-y,-z
1/2+x,1/2-y,1/2+z
loop_
_atom_site_type_symbol
_atom_site_label
_atom_site_fract_x
_atom_site_fract_y
_atom_site_fract_z
Si Si1 0.215205 0.827222 0.784392
Si Si2 0.500000 0.948989 0.750000
Si Si3 0.500000 0.459450 0.750000
Si Si4 0.267381 0.034513 0.577347
Si Si5 0.068389 0.202061 0.584293
Si Si6 0.657276 0.172278 0.620863
Si Si7 0.441859 0.193200 0.671007
Si Si8 0.335053 0.503888 0.986837
O O1 0.227242 0.716650 0.886745
O O2 0.192712 0.724046 0.698642
O O3 0.264025 0.918708 0.694261
O O4 0.176922 0.961892 0.865999
O O5 0.549697 0.845744 0.681783
O O6 0.486424 0.062032 0.648845
O O7 0.526157 0.564454 0.627117
O O8 0.457687 0.358571 0.717412
O O9 0.215290 0.024772 0.549068
O O10 0.316142 0.977267 0.464687
O O11 0.073456 0.272013 0.449673
O O12 0.121413 0.128843 0.587311
O O13 0.604577 0.118631 0.718472
O O14 0.647673 0.320355 0.539520
#
# Coordination Sequence:
#
# PCOD8146910 Si02
#       8
#     8   4   4   8   8   8   8   8
#     4  11  22  42  63  89 131 167 215 259 316 373
#     4  10  26  42  66  96 132 164 210 272 320 380
#     4  10  22  42  66  96 120 166 216 272 312 378
#     4  11  24  41  63  96 129 171 211 262 314 380
#     4  11  22  43  68  94 125 167 217 262 321 382
#     4  11  23  40  65  93 131 167 210 261 320 379
#     4  11  22  42  67  93 132 167 208 265 326 378
#     4  11  22  40  65  92 128 166 216 262 311 378
#
# _framework density 22.128312999999999
#
# number of rings (size 3 to 8) (size 9 to 14) (size 15 to 20)
#    0.000    1.143    2.857    4.714    2.000    0.000 
#    0.000    0.000    6.286    0.000    0.000    0.000 
#    0.000    0.000    0.000    0.000    0.000    0.000 
#
# Total GULP energy -347078.250644 kJ/mol
# GULP energy per Si atom -12395.651809 kJ/mol
# Density = 2.207795 g / cm^3
# Si number density = 22.128313 Si / 1000 Ang^3
#
#
#
# Elastic Constant Matrix: (Units=GPa)
#
#
# Indices 1 2 3 4 5 6 
#
# 1 68.5589 36.6263 28.8532 0.0000 -16.9064 0.0000
# 2 36.6263 88.4469 39.2704 0.0000 -5.7184 0.0000
# 3 28.8532 39.2704 118.5948 0.0000 -18.9049 0.0000
# 4 0.0000 0.0000 0.0000 38.0266 0.0000 -1.4134
# 5 -16.9064 -5.7184 -18.9049 0.0000 35.2319 0.0000
# 6 0.0000 0.0000 0.0000 -1.4134 0.0000 30.7196
#
#
#
# Elastic Compliance Matrix: (Units=1/GPa)
#
#
# Indices 1 2 3 4 5 6 
#
# 1 0.021289 -0.007699 -0.001313 0.000000 0.008261 0.000000
# 2 -0.007699 0.016041 -0.003950 0.000000 -0.003210 0.000000
# 3 -0.001313 -0.003950 0.010779 0.000000 0.004513 0.000000
# 4 0.000000 0.000000 0.000000 0.026342 0.000000 0.001212
# 5 0.008261 -0.003210 0.004513 0.000000 0.034248 0.000000
# 6 0.000000 0.000000 0.000000 0.001212 0.000000 0.032608
#
#
# Mechanical properties :
#
#
# Convention : Reuss Voigt Hill
#
# Bulk Modulus (GPa) = 45.07733 53.90008 49.48870
# Shear Modulus (GPa) = 28.63265 32.18566 30.40915
#
# Velocity S-wave (km/s) = 3.60104 3.81793 3.71107
# Velocity P-wave (km/s) = 6.14044 6.62165 6.38558
#
# Compressibility (1/GPa) = 0.02218410
#
# Stress axis : x y z
#
# Youngs Moduli (GPa) = 46.97326 62.34177 92.77334
#
# Poissons Ratio (x) = 0.47994 0.12183
# Poissons Ratio (y) = 0.36163 0.36648
# Poissons Ratio (z) = 0.06169 0.24627
#
# Static dielectric constant tensor:
#      x y z
#    x 3.746230 0.000000 -0.228990 
#    y 0.000000 4.217540 0.000000 
#    z -0.228990 0.000000 4.256680 
# 
# 
# High freq. dielectric constant tensor:
#      x y z
#    x 1.852260 0.000000 -0.014310 
#    y 0.000000 1.880610 0.000000 
#    z -0.014310 0.000000 1.875950 
# 
# From -- ./inp_files/122030.got.cif
#   From: 2010.06.25/outbox.cif.g09.slc.cpg/sg15_62_cif.got.tgz:122030.got - 2010.06.28 07:06:18.
