data_PCOD8146580
_publ_section_title
;
Structure prediction by ZEFSAII (Michael W. Deem and Ramdas Pophale) SiO2 
 PCOD8146580
Probable space group: C 2/C
;
_chemical_formula_sum "Si O2"
_cell_formula_units_Z 56
_cell_length_a 24.537127
_cell_length_b 13.884600
_cell_length_c 8.200364
_cell_angle_alpha 90.000000
_cell_angle_beta 68.949811
_cell_angle_gamma 90.000000
_cell_volume 2607.328360
_symmetry_space_group_name_H-M "C 2/C"
_symmetry_group_IT_number 15
_symmetry_cell_setting 'monoclinic'
loop_
_space_group_symop_operation_xyz
x,y,z
-x,y,1/2-z
-x,-y,-z
x,-y,1/2+z
1/2+x,1/2+y,z
1/2-x,1/2+y,1/2-z
1/2-x,1/2-y,-z
1/2+x,1/2-y,1/2+z
loop_
_atom_site_type_symbol
_atom_site_label
_atom_site_fract_x
_atom_site_fract_y
_atom_site_fract_z
Si Si1 0.500000 0.547432 0.750000
Si Si2 0.760389 0.361758 0.983914
Si Si3 0.767756 0.628020 0.125328
Si Si4 0.299228 0.352354 0.126139
Si Si5 0.000000 0.729970 0.750000
Si Si6 0.447419 0.942946 0.136859
Si Si7 0.565437 0.612733 0.985615
Si Si8 0.364500 0.973725 0.962245
O O1 0.538228 0.613142 0.832123
O O2 0.545688 0.483633 0.599327
O O3 0.733102 0.403029 0.182247
O O4 0.750000 0.250000 0.000000
O O5 0.736896 0.401659 0.832915
O O6 0.829188 0.388831 0.909573
O O7 0.788238 0.738228 0.126612
O O8 0.723731 0.606354 0.022605
O O9 0.825693 0.568352 0.026681
O O10 0.365219 0.381954 0.088113
O O11 0.034204 0.665139 0.842449
O O12 0.045267 0.793397 0.602190
O O13 0.427716 0.002228 0.317117
O O14 0.385441 0.932695 0.112202
O O15 0.500000 0.000000 0.000000
#
# Coordination Sequence:
#
# PCOD8146580 Si02
#       8
#     4   8   8   8   4   8   8   8
#     4   9  22  48  69 100 128 176 221 282 350 403
#     4  10  23  41  60  94 130 170 224 265 333 403
#     4  10  22  42  64  95 136 173 224 268 345 404
#     4  10  22  41  68  98 130 176 220 281 334 411
#     4  11  24  44  65 102 134 180 231 278 352 415
#     4  12  24  40  64  97 132 178 234 273 335 410
#     4  10  22  46  72  95 138 169 225 290 342 411
#     4  12  22  42  65  87 137 178 206 289 333 390
#
# _framework density 21.477924000000002
#
# number of rings (size 3 to 8) (size 9 to 14) (size 15 to 20)
#    0.000    1.429    2.857    1.714    0.000    3.429 
#   15.429    0.000    0.000    0.000    0.000    0.000 
#    0.000    0.000    0.000    0.000    0.000    0.000 
#
# Total GULP energy -346946.157442 kJ/mol
# GULP energy per Si atom -12390.934194 kJ/mol
# Density = 2.142904 g / cm^3
# Si number density = 21.477924 Si / 1000 Ang^3
#
#
#
# Elastic Constant Matrix: (Units=GPa)
#
#
# Indices 1 2 3 4 5 6 
#
# 1 158.9896 32.5950 73.2503 0.0000 19.3675 0.0000
# 2 32.5950 59.1259 34.1465 0.0000 2.9022 0.0000
# 3 73.2503 34.1465 148.8122 0.0000 14.1148 0.0000
# 4 0.0000 0.0000 0.0000 21.7564 0.0000 15.5503
# 5 19.3675 2.9022 14.1148 0.0000 45.8283 0.0000
# 6 0.0000 0.0000 0.0000 15.5503 0.0000 24.6290
#
#
#
# Elastic Compliance Matrix: (Units=1/GPa)
#
#
# Indices 1 2 3 4 5 6 
#
# 1 0.008730 -0.002703 -0.003444 0.000000 -0.002457 0.000000
# 2 -0.002703 0.020335 -0.003422 0.000000 0.000908 0.000000
# 3 -0.003444 -0.003422 0.009314 0.000000 -0.001196 0.000000
# 4 0.000000 0.000000 0.000000 0.083765 0.000000 -0.052887
# 5 -0.002457 0.000908 -0.001196 0.000000 0.023170 0.000000
# 6 0.000000 0.000000 0.000000 -0.052887 0.000000 0.073995
#
#
# Mechanical properties :
#
#
# Convention : Reuss Voigt Hill
#
# Bulk Modulus (GPa) = 51.97188 71.87904 61.92546
# Shear Modulus (GPa) = 20.41996 33.57179 26.99587
#
# Velocity S-wave (km/s) = 3.08676 3.95787 3.54914
# Velocity P-wave (km/s) = 6.07901 7.37736 6.75943
#
# Compressibility (1/GPa) = 0.01924117
#
# Stress axis : x y z
#
# Youngs Moduli (GPa) = 114.54882 49.17699 107.36943
#
# Poissons Ratio (x) = 0.13293 0.36976
# Poissons Ratio (y) = 0.30964 0.36738
# Poissons Ratio (z) = 0.39448 0.16826
#
# Static dielectric constant tensor:
#      x y z
#    x 3.932790 0.000000 0.423890 
#    y 0.000000 3.741830 0.000000 
#    z 0.423890 0.000000 4.565750 
# 
# 
# High freq. dielectric constant tensor:
#      x y z
#    x 1.848660 0.000000 0.017690 
#    y 0.000000 1.837180 0.000000 
#    z 0.017690 0.000000 1.862670 
# 
# From -- ./inp_files/61647.got.cif
#   From: 2010.06.25/outbox.cif.g09.slc.cpg/sg15_31_cif.got.tgz:61647.got - 2010.06.28 07:06:18.
