data_PCOD8146432
_publ_section_title
;
Structure prediction by ZEFSAII (Michael W. Deem and Ramdas Pophale) SiO2 
 PCOD8146432
Probable space group: C 2/C
;
_chemical_formula_sum "Si O2"
_cell_formula_units_Z 44
_cell_length_a 17.176115
_cell_length_b 21.070963
_cell_length_c 11.615711
_cell_angle_alpha 90.000000
_cell_angle_beta 147.213676
_cell_angle_gamma 90.000000
_cell_volume 2276.458017
_symmetry_space_group_name_H-M "C 2/C"
_symmetry_group_IT_number 15
_symmetry_cell_setting 'monoclinic'
loop_
_space_group_symop_operation_xyz
x,y,z
-x,y,1/2-z
-x,-y,-z
x,-y,1/2+z
1/2+x,1/2+y,z
1/2-x,1/2+y,1/2-z
1/2-x,1/2-y,-z
1/2+x,1/2-y,1/2+z
loop_
_atom_site_type_symbol
_atom_site_label
_atom_site_fract_x
_atom_site_fract_y
_atom_site_fract_z
Si Si1 0.891509 0.125508 0.834192
Si Si2 0.355334 0.842509 0.128179
Si Si3 0.000000 0.056337 0.750000
Si Si4 0.874613 0.222842 0.313267
Si Si5 0.143602 0.935446 0.980567
Si Si6 0.838705 0.282771 0.510522
O O1 0.979856 0.100654 0.834923
O O2 0.866300 0.069247 0.893641
O O3 0.734066 0.149385 0.602825
O O4 0.976903 0.183570 0.000531
O O5 0.500000 0.868647 0.250000
O O6 0.397469 0.786497 0.268144
O O7 0.285130 0.901186 0.109159
O O8 0.250247 0.819185 0.897345
O O9 0.860116 0.010502 0.557445
O O10 0.830469 0.238750 0.388212
O O11 0.000000 0.901657 0.750000
O O12 0.750000 0.250000 0.500000
O O13 0.000000 0.295460 0.750000
#
# Coordination Sequence:
#
# PCOD8146432 Si02
#       6
#     8   8   4   8   8   8
#     4  12  21  41  65  91 127 167 214 263 307 385
#     4  11  23  36  63  99 130 161 209 269 325 376
#     4  10  24  42  68  90 118 174 230 256 302 374
#     4  11  22  37  62  93 133 170 202 254 330 382
#     4  10  22  41  65  92 117 166 220 261 308 364
#     4  12  24  37  58  92 136 171 200 249 321 392
#
# _framework density 19.328271999999998
#
# number of rings (size 3 to 8) (size 9 to 14) (size 15 to 20)
#    0.545    0.364    5.455    2.727    2.545    0.000 
#    0.000    0.909    0.000    3.273    0.000    0.000 
#    0.000    0.000    0.000    0.000    0.000    0.000 
#
# Total GULP energy -272798.888347 kJ/mol
# GULP energy per Si atom -12399.949470 kJ/mol
# Density = 1.928428 g / cm^3
# Si number density = 19.328272 Si / 1000 Ang^3
#
#
#
# Elastic Constant Matrix: (Units=GPa)
#
#
# Indices 1 2 3 4 5 6 
#
# 1 115.3686 17.1828 50.8919 0.0000 -3.5311 0.0000
# 2 17.1828 66.0703 39.0880 0.0000 2.9078 0.0000
# 3 50.8919 39.0880 112.3910 0.0000 3.2761 0.0000
# 4 0.0000 0.0000 0.0000 20.7508 0.0000 -3.8511
# 5 -3.5311 2.9078 3.2761 0.0000 41.0603 0.0000
# 6 0.0000 0.0000 0.0000 -3.8511 0.0000 22.9027
#
#
#
# Elastic Compliance Matrix: (Units=1/GPa)
#
#
# Indices 1 2 3 4 5 6 
#
# 1 0.010904 0.000062 -0.004998 0.000000 0.001332 0.000000
# 2 0.000062 0.019084 -0.006642 0.000000 -0.000816 0.000000
# 3 -0.004998 -0.006642 0.013501 0.000000 -0.001037 0.000000
# 4 0.000000 0.000000 0.000000 0.049743 0.000000 0.008364
# 5 0.001332 -0.000816 -0.001037 0.000000 0.024610 0.000000
# 6 0.000000 0.000000 0.000000 0.008364 0.000000 0.045069
#
#
# Mechanical properties :
#
#
# Convention : Reuss Voigt Hill
#
# Bulk Modulus (GPa) = 49.17723 56.46170 52.81946
# Shear Modulus (GPa) = 25.92761 29.38723 27.65742
#
# Velocity S-wave (km/s) = 3.66653 3.90350 3.78687
# Velocity P-wave (km/s) = 6.58961 7.04214 6.81963
#
# Compressibility (1/GPa) = 0.02033461
#
# Stress axis : x y z
#
# Youngs Moduli (GPa) = 91.70869 52.39866 74.06956
#
# Poissons Ratio (x) = -0.00327 0.37020
# Poissons Ratio (y) = -0.00573 0.49196
# Poissons Ratio (z) = 0.45836 0.34802
#
# Static dielectric constant tensor:
#      x y z
#    x 3.527830 0.000000 -0.187740 
#    y 0.000000 3.319100 0.000000 
#    z -0.187740 0.000000 3.623910 
# 
# 
# High freq. dielectric constant tensor:
#      x y z
#    x 1.765180 0.000000 -0.015190 
#    y 0.000000 1.730940 0.000000 
#    z -0.015190 0.000000 1.751700 
# 
# From -- ./inp_files/108015.got.cif
#   From: 2010.06.25/outbox.cif.g09.slc.cpg/sg15_55_cif.got.tgz:108015.got - 2010.06.28 07:06:18.
