data_PCOD8146796
_publ_section_title
;
Structure prediction by ZEFSAII (Michael W. Deem and Ramdas Pophale) SiO2 
 PCOD8146796
Probable space group: C 2/C
;
_chemical_formula_sum "Si O2"
_cell_formula_units_Z 44
_cell_length_a 19.100516
_cell_length_b 21.168653
_cell_length_c 5.454005
_cell_angle_alpha 90.000000
_cell_angle_beta 72.735602
_cell_angle_gamma 90.000000
_cell_volume 2105.874058
_symmetry_space_group_name_H-M "C 2/C"
_symmetry_group_IT_number 15
_symmetry_cell_setting 'monoclinic'
loop_
_space_group_symop_operation_xyz
x,y,z
-x,y,1/2-z
-x,-y,-z
x,-y,1/2+z
1/2+x,1/2+y,z
1/2-x,1/2+y,1/2-z
1/2-x,1/2-y,-z
1/2+x,1/2-y,1/2+z
loop_
_atom_site_type_symbol
_atom_site_label
_atom_site_fract_x
_atom_site_fract_y
_atom_site_fract_z
Si Si1 0.190181 0.265896 0.258197
Si Si2 0.071522 0.739117 0.546106
Si Si3 0.819707 0.171912 0.841218
Si Si4 0.772680 0.036257 0.837890
Si Si5 0.398430 0.037382 0.496434
Si Si6 0.000000 0.355313 0.750000
O O1 0.119351 0.298100 0.203932
O O2 0.161379 0.200869 0.413437
O O3 0.232337 0.312317 0.399173
O O4 0.250000 0.250000 0.000000
O O5 0.122049 0.797196 0.406162
O O6 0.051970 0.688980 0.359334
O O7 0.000000 0.767961 0.750000
O O8 0.825191 0.096845 0.818743
O O9 0.687244 0.054332 0.923381
O O10 0.792077 0.993086 0.052629
O O11 0.445270 0.101563 0.466150
O O12 0.419181 0.997509 0.718279
#
# Coordination Sequence:
#
# PCOD8146796 Si02
#       6
#     8   8   8   8   8   4
#     4   9  21  37  64  93 126 172 213 274 339 390
#     4  11  25  39  60  98 130 175 220 273 335 402
#     4  10  22  42  64  95 132 166 225 281 339 392
#     4  10  24  41  69  99 126 173 227 279 332 395
#     4  10  24  43  62  93 134 183 227 269 319 394
#     4  12  26  38  64  92 136 180 222 262 334 400
#
# _framework density 20.893937000000001
#
# number of rings (size 3 to 8) (size 9 to 14) (size 15 to 20)
#    0.000    1.818    0.000    1.636   17.818    1.455 
#    0.000    0.000    0.000    1.091    0.000    0.000 
#    0.000    0.000    0.000    0.000    0.000    0.000 
#
# Total GULP energy -272597.055905 kJ/mol
# GULP energy per Si atom -12390.775268 kJ/mol
# Density = 2.084638 g / cm^3
# Si number density = 20.893937 Si / 1000 Ang^3
#
#
#
# Elastic Constant Matrix: (Units=GPa)
#
#
# Indices 1 2 3 4 5 6 
#
# 1 110.9595 45.9790 43.8678 0.0000 10.0510 0.0000
# 2 45.9790 114.6480 34.0891 0.0000 2.8304 0.0000
# 3 43.8678 34.0891 108.7518 0.0000 14.4998 0.0000
# 4 0.0000 0.0000 0.0000 16.1122 0.0000 -8.3148
# 5 10.0510 2.8304 14.4998 0.0000 39.4360 0.0000
# 6 0.0000 0.0000 0.0000 -8.3148 0.0000 27.6472
#
#
#
# Elastic Compliance Matrix: (Units=1/GPa)
#
#
# Indices 1 2 3 4 5 6 
#
# 1 0.012095 -0.003775 -0.003492 0.000000 -0.001528 0.000000
# 2 -0.003775 0.010804 -0.001986 0.000000 0.000917 0.000000
# 3 -0.003492 -0.001986 0.011660 0.000000 -0.003255 0.000000
# 4 0.000000 0.000000 0.000000 0.073467 0.000000 0.022095
# 5 -0.001528 0.000917 -0.003255 0.000000 0.026878 0.000000
# 6 0.000000 0.000000 0.000000 0.022095 0.000000 0.042815
#
#
# Mechanical properties :
#
#
# Convention : Reuss Voigt Hill
#
# Bulk Modulus (GPa) = 62.29038 64.69233 63.49136
# Shear Modulus (GPa) = 24.80434 30.66730 27.73582
#
# Velocity S-wave (km/s) = 3.44925 3.83529 3.64738
# Velocity P-wave (km/s) = 6.76317 7.11633 6.94199
#
# Compressibility (1/GPa) = 0.01605384
#
# Stress axis : x y z
#
# Youngs Moduli (GPa) = 82.67556 92.55692 85.76018
#
# Poissons Ratio (x) = 0.34938 0.29948
# Poissons Ratio (y) = 0.31208 0.17034
# Poissons Ratio (z) = 0.28871 0.18384
#
# Static dielectric constant tensor:
#      x y z
#    x 4.591650 0.000000 0.375580 
#    y 0.000000 3.515750 0.000000 
#    z 0.375580 0.000000 4.068250 
# 
# 
# High freq. dielectric constant tensor:
#      x y z
#    x 1.813610 0.000000 0.007940 
#    y 0.000000 1.790500 0.000000 
#    z 0.007940 0.000000 1.836970 
# 
# From -- ./inp_files/10271.got.cif
#   From: 2010.06.25/outbox.cif.g09.slc.cpg/sg15_6_cif.got.tgz:10271.got - 2010.06.28 07:06:18.
