data_PCOD8146810
_publ_section_title
;
Structure prediction by ZEFSAII (Michael W. Deem and Ramdas Pophale) SiO2 
 PCOD8146810
Probable space group: C 2/C
;
_chemical_formula_sum "Si O2"
_cell_formula_units_Z 52
_cell_length_a 24.285358
_cell_length_b 9.378435
_cell_length_c 15.838649
_cell_angle_alpha 90.000000
_cell_angle_beta 137.965910
_cell_angle_gamma 90.000000
_cell_volume 2415.409224
_symmetry_space_group_name_H-M "C 2/C"
_symmetry_group_IT_number 15
_symmetry_cell_setting 'monoclinic'
loop_
_space_group_symop_operation_xyz
x,y,z
-x,y,1/2-z
-x,-y,-z
x,-y,1/2+z
1/2+x,1/2+y,z
1/2-x,1/2+y,1/2-z
1/2-x,1/2-y,-z
1/2+x,1/2-y,1/2+z
loop_
_atom_site_type_symbol
_atom_site_label
_atom_site_fract_x
_atom_site_fract_y
_atom_site_fract_z
Si Si1 0.000000 0.567725 0.750000
Si Si2 0.689537 0.961414 0.718646
Si Si3 0.438587 0.208197 0.516639
Si Si4 0.126471 0.980187 0.122248
Si Si5 0.633594 0.845054 0.934226
Si Si6 0.318041 0.299300 0.169499
Si Si7 0.577357 0.208822 0.554706
O O1 0.990513 0.668913 0.658181
O O2 0.916600 0.474822 0.665367
O O3 0.644889 0.885153 0.587373
O O4 0.687715 0.860746 0.798823
O O5 0.783418 0.985065 0.805953
O O6 0.648100 0.117078 0.682616
O O7 0.417420 0.376478 0.495903
O O8 0.489430 0.159568 0.490576
O O9 0.123807 0.896951 0.207888
O O10 0.079296 0.126170 0.083239
O O11 0.639904 0.714026 0.874644
O O12 0.728799 0.878040 0.065435
O O13 0.582250 0.802287 0.959044
#
# Coordination Sequence:
#
# PCOD8146810 Si02
#       7
#     4   8   8   8   8   8   8
#     4  12  24  44  62 102 132 176 214 272 326 398
#     4  11  20  42  71  92 122 175 225 265 314 391
#     4  11  25  41  66  95 131 169 218 271 329 390
#     4  11  22  42  65  94 131 170 217 271 327 385
#     4  11  23  38  67  94 130 167 224 264 320 388
#     4  10  22  42  64  99 126 172 224 271 313 390
#     4  12  22  41  65 101 126 174 213 269 337 385
#
# _framework density 21.528441999999998
#
# number of rings (size 3 to 8) (size 9 to 14) (size 15 to 20)
#    0.000    0.923    4.615    2.769    4.308    0.000 
#    2.769    0.000    0.000    5.538    0.000    0.000 
#    0.000    0.000    0.000    0.000    0.000    0.000 
#
# Total GULP energy -322301.085975 kJ/mol
# GULP energy per Si atom -12396.195614 kJ/mol
# Density = 2.147944 g / cm^3
# Si number density = 21.528442 Si / 1000 Ang^3
#
#
#
# Elastic Constant Matrix: (Units=GPa)
#
#
# Indices 1 2 3 4 5 6 
#
# 1 97.2325 18.8481 43.5278 0.0000 -2.8498 0.0000
# 2 18.8481 127.8832 52.5109 0.0000 -5.0829 0.0000
# 3 43.5278 52.5109 119.5479 0.0000 -10.9005 0.0000
# 4 0.0000 0.0000 0.0000 48.2179 0.0000 10.2498
# 5 -2.8498 -5.0829 -10.9005 0.0000 23.0073 0.0000
# 6 0.0000 0.0000 0.0000 10.2498 0.0000 17.9890
#
#
#
# Elastic Compliance Matrix: (Units=1/GPa)
#
#
# Indices 1 2 3 4 5 6 
#
# 1 0.012296 0.000030 -0.004547 0.000000 -0.000625 0.000000
# 2 0.000030 0.009541 -0.004190 0.000000 0.000126 0.000000
# 3 -0.004547 -0.004190 0.012255 0.000000 0.004317 0.000000
# 4 0.000000 0.000000 0.000000 0.023597 0.000000 -0.013445
# 5 -0.000625 0.000126 0.004317 0.000000 0.045460 0.000000
# 6 0.000000 0.000000 0.000000 -0.013445 0.000000 0.063250
#
#
# Mechanical properties :
#
#
# Convention : Reuss Voigt Hill
#
# Bulk Modulus (GPa) = 59.96320 63.82635 61.89478
# Shear Modulus (GPa) = 26.40291 33.16130 29.78211
#
# Velocity S-wave (km/s) = 3.50583 3.92899 3.72342
# Velocity P-wave (km/s) = 6.65592 7.09185 6.87734
#
# Compressibility (1/GPa) = 0.01667690
#
# Stress axis : x y z
#
# Youngs Moduli (GPa) = 81.32641 104.81319 81.60158
#
# Poissons Ratio (x) = -0.00315 0.37106
# Poissons Ratio (y) = -0.00245 0.34193
# Poissons Ratio (z) = 0.36981 0.43919
#
# Static dielectric constant tensor:
#      x y z
#    x 3.777620 0.000000 0.025950 
#    y 0.000000 4.205680 0.000000 
#    z 0.025950 0.000000 4.102540 
# 
# 
# High freq. dielectric constant tensor:
#      x y z
#    x 1.838590 0.000000 0.011930 
#    y 0.000000 1.840650 0.000000 
#    z 0.011930 0.000000 1.851150 
# 
# From -- ./inp_files/221923.got.cif
#   From: 2010.06.25/outbox.cif.g09.slc.cpg/sg15_111_cif.got.tgz:221923.got - 2010.06.28 07:06:18.
