data_PCOD8146477
_publ_section_title
;
Structure prediction by ZEFSAII (Michael W. Deem and Ramdas Pophale) SiO2 
 PCOD8146477
Probable space group: C 2/C
;
_chemical_formula_sum "Si O2"
_cell_formula_units_Z 32
_cell_length_a 4.956179
_cell_length_b 13.686760
_cell_length_c 20.496346
_cell_angle_alpha 90.000000
_cell_angle_beta 65.967817
_cell_angle_gamma 90.000000
_cell_volume 1269.829900
_symmetry_space_group_name_H-M "C 2/C"
_symmetry_group_IT_number 15
_symmetry_cell_setting 'monoclinic'
loop_
_space_group_symop_operation_xyz
x,y,z
-x,y,1/2-z
-x,-y,-z
x,-y,1/2+z
1/2+x,1/2+y,z
1/2-x,1/2+y,1/2-z
1/2-x,1/2-y,-z
1/2+x,1/2-y,1/2+z
loop_
_atom_site_type_symbol
_atom_site_label
_atom_site_fract_x
_atom_site_fract_y
_atom_site_fract_z
Si Si1 0.500000 0.380320 0.250000
Si Si2 0.816370 0.040650 0.097281
Si Si3 0.056431 0.828952 0.101646
Si Si4 0.000000 0.513430 0.250000
Si Si5 0.579960 0.858070 0.961102
O O1 0.543679 0.315049 0.181026
O O2 0.788259 0.447469 0.226415
O O3 0.686317 0.078093 0.179852
O O4 0.890912 0.927147 0.096082
O O5 0.580301 0.054072 0.062582
O O6 0.095976 0.106690 0.050211
O O7 0.888796 0.736698 0.087607
O O8 0.396746 0.830693 0.044000
#
# Coordination Sequence:
#
# PCOD8146477 Si02
#       5
#     4   8   8   4   8
#     4  10  22  41  66  89 130 176 206 265 330 377
#     4  11  23  43  66  94 132 171 211 269 324 374
#     4  10  24  44  65  97 133 168 217 266 321 387
#     4  10  22  41  66  95 128 172 220 259 318 391
#     4  11  25  40  69  99 126 170 219 265 321 386
#
# _framework density 25.200226000000001
#
# number of rings (size 3 to 8) (size 9 to 14) (size 15 to 20)
#    0.000    1.500    0.000    4.500    0.000   15.000 
#    0.000    5.000    0.000    0.000    0.000    0.000 
#    0.000    0.000    0.000    0.000    0.000    0.000 
#
# Total GULP energy -198450.219155 kJ/mol
# GULP energy per Si atom -12403.138697 kJ/mol
# Density = 2.514287 g / cm^3
# Si number density = 25.200226 Si / 1000 Ang^3
#
#
#
# Elastic Constant Matrix: (Units=GPa)
#
#
# Indices 1 2 3 4 5 6 
#
# 1 83.1365 9.9833 2.6538 0.0000 -8.8949 0.0000
# 2 9.9833 86.3881 16.6642 0.0000 4.2408 0.0000
# 3 2.6538 16.6642 171.9677 0.0000 4.9594 0.0000
# 4 0.0000 0.0000 0.0000 40.7839 0.0000 9.7208
# 5 -8.8949 4.2408 4.9594 0.0000 34.7416 0.0000
# 6 0.0000 0.0000 0.0000 9.7208 0.0000 1.2586
#
#
#
# Elastic Compliance Matrix: (Units=1/GPa)
#
#
# Indices 1 2 3 4 5 6 
#
# 1 0.012593 -0.001597 -0.000139 0.000000 0.003439 0.000000
# 2 -0.001597 0.012056 -0.001094 0.000000 -0.001724 0.000000
# 3 -0.000139 -0.001094 0.005945 0.000000 -0.000751 0.000000
# 4 0.000000 0.000000 0.000000 -0.029159 0.000000 0.225210
# 5 0.003439 -0.001724 -0.000751 0.000000 0.029982 0.000000
# 6 0.000000 0.000000 0.000000 0.225210 0.000000 -0.944873
#
#
# Mechanical properties :
#
#
# Convention : Reuss Voigt Hill
#
# Bulk Modulus (GPa) = 40.10664 44.45502 42.28083
# Shear Modulus (GPa) = -5.55873 36.16956 15.30541
#
# Velocity S-wave (km/s) = -1.48681 3.79263 2.46713
# Velocity P-wave (km/s) = 3.60586 6.07106 4.99299
#
# Compressibility (1/GPa) = 0.02493353
#
# Stress axis : x y z
#
# Youngs Moduli (GPa) = 79.41185 82.94682 168.21324
#
# Poissons Ratio (x) = 0.13249 0.02333
# Poissons Ratio (y) = 0.12684 0.18400
# Poissons Ratio (z) = 0.01102 0.09073
#
# Static dielectric constant tensor:
#      x y z
#    x 4.350340 0.000000 -0.132230 
#    y 0.000000 4.325420 0.000000 
#    z -0.132230 0.000000 5.099410 
# 
# 
# High freq. dielectric constant tensor:
#      x y z
#    x 2.005470 0.000000 -0.000820 
#    y 0.000000 1.987970 0.000000 
#    z -0.000820 0.000000 2.030750 
# 
# From -- ./inp_files/226354.got.cif
#   From: 2010.06.25/outbox.cif.g09.slc.cpg/sg15_114_cif.got.tgz:226354.got - 2010.06.28 07:06:18.
