data_PCOD8146806
_publ_section_title
;
Structure prediction by ZEFSAII (Michael W. Deem and Ramdas Pophale) SiO2 
 PCOD8146806
Probable space group: C 2/C
;
_chemical_formula_sum "Si O2"
_cell_formula_units_Z 44
_cell_length_a 4.841562
_cell_length_b 19.067229
_cell_length_c 19.445285
_cell_angle_alpha 90.000000
_cell_angle_beta 84.945296
_cell_angle_gamma 90.000000
_cell_volume 1788.113749
_symmetry_space_group_name_H-M "C 2/C"
_symmetry_group_IT_number 15
_symmetry_cell_setting 'monoclinic'
loop_
_space_group_symop_operation_xyz
x,y,z
-x,y,1/2-z
-x,-y,-z
x,-y,1/2+z
1/2+x,1/2+y,z
1/2-x,1/2+y,1/2-z
1/2-x,1/2-y,-z
1/2+x,1/2-y,1/2+z
loop_
_atom_site_type_symbol
_atom_site_label
_atom_site_fract_x
_atom_site_fract_y
_atom_site_fract_z
Si Si1 0.500000 0.968990 0.250000
Si Si2 0.864271 0.234573 0.826222
Si Si3 0.848731 0.643515 0.858058
Si Si4 0.143950 0.432594 0.465192
Si Si5 0.334293 0.883399 0.893924
Si Si6 0.855328 0.968365 0.854322
O O1 0.672900 0.923818 0.191040
O O2 0.257911 0.013943 0.219036
O O3 0.574001 0.196408 0.820698
O O4 0.808609 0.304476 0.869915
O O5 0.000000 0.252648 0.750000
O O6 0.055113 0.182789 0.867234
O O7 0.925417 0.619293 0.933234
O O8 0.287566 0.390598 0.525297
O O9 0.361012 0.461643 0.402953
O O10 0.000000 0.500000 0.500000
O O11 0.653005 0.907887 0.888805
O O12 0.163187 0.935194 0.846398
#
# Coordination Sequence:
#
# PCOD8146806 Si02
#       6
#     4   8   8   8   8   8
#     4  10  22  42  64  98 128 172 236 272 344 398
#     4  12  25  44  65  96 141 184 228 275 325 409
#     4  11  24  43  71  95 134 183 225 280 334 405
#     4   9  22  44  70 100 135 169 225 287 343 398
#     4  11  24  42  65  98 137 175 220 277 342 395
#     4  10  23  40  67  97 130 174 219 288 339 401
#
# _framework density 24.606936000000001
#
# number of rings (size 3 to 8) (size 9 to 14) (size 15 to 20)
#    0.000    1.455    1.818    1.636    1.273   15.273 
#    0.000    0.000    0.000    0.000    0.000    0.000 
#    0.000    0.000    0.000    0.000    0.000    0.000 
#
# Total GULP energy -272895.335574 kJ/mol
# GULP energy per Si atom -12404.333435 kJ/mol
# Density = 2.455093 g / cm^3
# Si number density = 24.606936 Si / 1000 Ang^3
#
#
#
# Elastic Constant Matrix: (Units=GPa)
#
#
# Indices 1 2 3 4 5 6 
#
# 1 54.7160 6.9764 4.4623 0.0000 16.4959 0.0000
# 2 6.9764 109.9289 52.1928 0.0000 18.3283 0.0000
# 3 4.4623 52.1928 147.4334 0.0000 25.2585 0.0000
# 4 0.0000 0.0000 0.0000 31.0583 0.0000 -4.9273
# 5 16.4959 18.3283 25.2585 0.0000 30.2981 0.0000
# 6 0.0000 0.0000 0.0000 -4.9273 0.0000 27.6317
#
#
#
# Elastic Compliance Matrix: (Units=1/GPa)
#
#
# Indices 1 2 3 4 5 6 
#
# 1 0.022197 0.000073 0.001610 0.000000 -0.013472 0.000000
# 2 0.000073 0.011356 -0.003312 0.000000 -0.004149 0.000000
# 3 0.001610 -0.003312 0.008999 0.000000 -0.006375 0.000000
# 4 0.000000 0.000000 0.000000 0.033135 0.000000 0.005909
# 5 -0.013472 -0.004149 -0.006375 0.000000 0.048165 0.000000
# 6 0.000000 0.000000 0.000000 0.005909 0.000000 0.037244
#
#
# Mechanical properties :
#
#
# Convention : Reuss Voigt Hill
#
# Bulk Modulus (GPa) = 25.44852 48.81571 37.13211
# Shear Modulus (GPa) = 28.17687 34.36073 31.26880
#
# Velocity S-wave (km/s) = 3.38757 3.74088 3.56860
# Velocity P-wave (km/s) = 5.06610 6.20807 5.66593
#
# Compressibility (1/GPa) = 0.03929502
#
# Stress axis : x y z
#
# Youngs Moduli (GPa) = 45.05091 88.05779 111.12892
#
# Poissons Ratio (x) = -0.00642 -0.17896
# Poissons Ratio (y) = -0.00328 0.36802
# Poissons Ratio (z) = -0.07255 0.29162
#
# Static dielectric constant tensor:
#      x y z
#    x 4.224380 0.000000 0.009820 
#    y 0.000000 4.374180 0.000000 
#    z 0.009820 0.000000 5.051230 
# 
# 
# High freq. dielectric constant tensor:
#      x y z
#    x 1.972950 0.000000 0.007020 
#    y 0.000000 1.972050 0.000000 
#    z 0.007020 0.000000 1.991950 
# 
# From -- ./inp_files/226999.got.cif
#   From: 2010.06.25/outbox.cif.g09.slc.cpg/sg15_114_cif.got.tgz:226999.got - 2010.06.28 07:06:18.
