data_PCOD8146159
_publ_section_title
;
Structure prediction by ZEFSAII (Michael W. Deem and Ramdas Pophale) SiO2 
 PCOD8146159
Probable space group: C 2/C
;
_chemical_formula_sum "Si O2"
_cell_formula_units_Z 36
_cell_length_a 21.368896
_cell_length_b 7.276795
_cell_length_c 14.818247
_cell_angle_alpha 90.000000
_cell_angle_beta 134.421265
_cell_angle_gamma 90.000000
_cell_volume 1645.685257
_symmetry_space_group_name_H-M "C 2/C"
_symmetry_group_IT_number 15
_symmetry_cell_setting 'monoclinic'
loop_
_space_group_symop_operation_xyz
x,y,z
-x,y,1/2-z
-x,-y,-z
x,-y,1/2+z
1/2+x,1/2+y,z
1/2-x,1/2+y,1/2-z
1/2-x,1/2-y,-z
1/2+x,1/2-y,1/2+z
loop_
_atom_site_type_symbol
_atom_site_label
_atom_site_fract_x
_atom_site_fract_y
_atom_site_fract_z
Si Si1 0.834418 0.364983 0.400820
Si Si2 0.000000 0.817069 0.750000
Si Si3 0.001670 0.170039 0.852271
Si Si4 0.676588 0.098786 0.935906
Si Si5 0.833296 0.636944 0.243740
O O1 0.913893 0.232930 0.507669
O O2 0.815450 0.516480 0.456980
O O3 0.859619 0.467170 0.333960
O O4 0.748390 0.244245 0.296394
O O5 0.917408 0.686801 0.675629
O O6 0.994272 0.948100 0.655275
O O7 0.000000 0.262860 0.750000
O O8 0.915058 0.224868 0.819367
O O9 0.693418 0.936796 0.881585
O O10 0.750000 0.250000 0.000000
#
# Coordination Sequence:
#
# PCOD8146159 Si02
#       5
#     8   4   8   8   8
#     4  12  25  44  67 101 136 179 225 275 337 399
#     4  10  22  40  68 102 122 174 228 256 344 396
#     4  10  22  44  69  96 134 176 219 275 337 388
#     4  12  22  40  66  94 134 176 220 276 328 398
#     4  12  25  44  67 101 136 179 225 275 337 399
#
# _framework density 21.875387
#
# number of rings (size 3 to 8) (size 9 to 14) (size 15 to 20)
#    0.667    0.000    2.222    6.667    0.000    0.000 
#    0.000    3.333    0.000    0.000    0.000    0.000 
#    0.000    0.000    0.000    0.000    0.000    0.000 
#
# Total GULP energy -223304.803409 kJ/mol
# GULP energy per Si atom -12405.822412 kJ/mol
# Density = 2.182560 g / cm^3
# Si number density = 21.875387 Si / 1000 Ang^3
#
#
#
# Elastic Constant Matrix: (Units=GPa)
#
#
# Indices 1 2 3 4 5 6 
#
# 1 66.0612 7.8583 26.2858 0.0000 6.7722 0.0000
# 2 7.8583 69.9551 12.6956 0.0000 2.1757 0.0000
# 3 26.2858 12.6956 85.8127 0.0000 14.4019 0.0000
# 4 0.0000 0.0000 0.0000 29.9960 0.0000 0.4896
# 5 6.7722 2.1757 14.4019 0.0000 37.0575 0.0000
# 6 0.0000 0.0000 0.0000 0.4896 0.0000 40.5583
#
#
#
# Elastic Compliance Matrix: (Units=1/GPa)
#
#
# Indices 1 2 3 4 5 6 
#
# 1 0.017356 -0.001011 -0.004968 0.000000 -0.001181 0.000000
# 2 -0.001011 0.014748 -0.001881 0.000000 0.000050 0.000000
# 3 -0.004968 -0.001881 0.014209 0.000000 -0.004504 0.000000
# 4 0.000000 0.000000 0.000000 0.033344 0.000000 -0.000403
# 5 -0.001181 0.000050 -0.004504 0.000000 0.028948 0.000000
# 6 0.000000 0.000000 0.000000 -0.000403 0.000000 0.024661
#
#
# Mechanical properties :
#
#
# Convention : Reuss Voigt Hill
#
# Bulk Modulus (GPa) = 32.68729 35.05647 33.87188
# Shear Modulus (GPa) = 31.40999 33.18829 32.29914
#
# Velocity S-wave (km/s) = 3.79338 3.89929 3.84670
# Velocity P-wave (km/s) = 5.84477 6.02768 5.93693
#
# Compressibility (1/GPa) = 0.03059293
#
# Stress axis : x y z
#
# Youngs Moduli (GPa) = 57.61751 67.80479 70.37640
#
# Poissons Ratio (x) = 0.06856 0.34966
# Poissons Ratio (y) = 0.05826 0.13235
# Poissons Ratio (z) = 0.28627 0.12751
#
# Static dielectric constant tensor:
#      x y z
#    x 4.010250 0.000000 -0.043380 
#    y 0.000000 3.924140 0.000000 
#    z -0.043380 0.000000 3.965480 
# 
# 
# High freq. dielectric constant tensor:
#      x y z
#    x 1.864230 0.000000 0.010550 
#    y 0.000000 1.867320 0.000000 
#    z 0.010550 0.000000 1.862510 
# 
# From -- ./inp_files/166725.got.cif
#   From: 2010.06.25/outbox.cif.g09.slc.cpg/sg15_84_cif.got.tgz:166725.got - 2010.06.28 07:06:18.
