data_PCOD8146987
_publ_section_title
;
Structure prediction by ZEFSAII (Michael W. Deem and Ramdas Pophale) SiO2 
 PCOD8146987
Probable space group: C 2/C
;
_chemical_formula_sum "Si O2"
_cell_formula_units_Z 52
_cell_length_a 15.271424
_cell_length_b 23.240996
_cell_length_c 7.593225
_cell_angle_alpha 90.000000
_cell_angle_beta 60.459328
_cell_angle_gamma 90.000000
_cell_volume 2344.675526
_symmetry_space_group_name_H-M "C 2/C"
_symmetry_group_IT_number 15
_symmetry_cell_setting 'monoclinic'
loop_
_space_group_symop_operation_xyz
x,y,z
-x,y,1/2-z
-x,-y,-z
x,-y,1/2+z
1/2+x,1/2+y,z
1/2-x,1/2+y,1/2-z
1/2-x,1/2-y,-z
1/2+x,1/2-y,1/2+z
loop_
_atom_site_type_symbol
_atom_site_label
_atom_site_fract_x
_atom_site_fract_y
_atom_site_fract_z
Si Si1 0.925731 0.163629 0.664121
Si Si2 0.000000 0.888170 0.750000
Si Si3 0.719998 0.774707 0.286844
Si Si4 0.788609 0.930216 0.448150
Si Si5 0.612236 0.842460 0.680298
Si Si6 0.303253 0.168343 0.049927
Si Si7 0.690771 0.555469 0.181811
O O1 0.837158 0.209339 0.708500
O O2 0.871868 0.102868 0.753716
O O3 0.000000 0.183977 0.750000
O O4 0.993615 0.154286 0.423925
O O5 0.906516 0.931611 0.837852
O O6 0.652059 0.787240 0.526884
O O7 0.716291 0.707101 0.235286
O O8 0.671044 0.807753 0.168198
O O9 0.684095 0.895758 0.562245
O O10 0.839400 0.937940 0.586301
O O11 0.763982 0.992252 0.391176
O O12 0.500000 0.860372 0.750000
O O13 0.607379 0.829510 0.894924
O O14 0.273091 0.102730 0.047499
#
# Coordination Sequence:
#
# PCOD8146987 Si02
#       7
#     8   4   8   8   8   8   8
#     4  11  22  38  60 100 130 167 208 254 322 401
#     4  12  22  36  62  94 134 162 212 250 316 406
#     4  10  22  42  68  90 135 169 208 268 332 375
#     4  10  23  39  62  90 131 166 211 265 323 380
#     4  10  23  44  66  95 123 167 224 272 320 379
#     4  10  22  43  63  93 126 170 211 266 324 389
#     4  11  22  38  62  90 131 170 212 261 319 390
#
# _framework density 22.177909
#
# number of rings (size 3 to 8) (size 9 to 14) (size 15 to 20)
#    0.000    1.538    3.077    1.385    3.231    2.462 
#    2.769    3.077    0.000    0.000    0.000    0.000 
#    0.000    0.000    0.000    0.000    0.000    0.000 
#
# Total GULP energy -322241.214604 kJ/mol
# GULP energy per Si atom -12393.892869 kJ/mol
# Density = 2.212743 g / cm^3
# Si number density = 22.177909 Si / 1000 Ang^3
#
#
#
# Elastic Constant Matrix: (Units=GPa)
#
#
# Indices 1 2 3 4 5 6 
#
# 1 133.0439 4.0359 47.6189 0.0000 17.0260 0.0000
# 2 4.0359 73.0014 7.2794 0.0000 9.5688 0.0000
# 3 47.6189 7.2794 61.0865 0.0000 10.4374 0.0000
# 4 0.0000 0.0000 0.0000 16.5925 0.0000 10.7957
# 5 17.0260 9.5688 10.4374 0.0000 27.7739 0.0000
# 6 0.0000 0.0000 0.0000 10.7957 0.0000 15.3144
#
#
#
# Elastic Compliance Matrix: (Units=1/GPa)
#
#
# Indices 1 2 3 4 5 6 
#
# 1 0.010800 0.000697 -0.007833 0.000000 -0.003917 0.000000
# 2 0.000697 0.014440 -0.001433 0.000000 -0.004864 0.000000
# 3 -0.007833 -0.001433 0.023234 0.000000 -0.003436 0.000000
# 4 0.000000 0.000000 0.000000 0.111332 0.000000 -0.078482
# 5 -0.003917 -0.004864 -0.003436 0.000000 0.041373 0.000000
# 6 0.000000 0.000000 0.000000 -0.078482 0.000000 0.120623
#
#
# Mechanical properties :
#
#
# Convention : Reuss Voigt Hill
#
# Bulk Modulus (GPa) = 31.91128 42.77780 37.34454
# Shear Modulus (GPa) = 14.31084 25.81599 20.06341
#
# Velocity S-wave (km/s) = 2.54298 3.41551 3.01102
# Velocity P-wave (km/s) = 4.80024 5.90632 5.38177
#
# Compressibility (1/GPa) = 0.03133688
#
# Stress axis : x y z
#
# Youngs Moduli (GPa) = 92.59304 69.25073 43.04051
#
# Poissons Ratio (x) = -0.04830 0.33712
# Poissons Ratio (y) = -0.06458 0.06169
# Poissons Ratio (z) = 0.72525 0.09926
#
# Static dielectric constant tensor:
#      x y z
#    x 4.076950 0.000000 0.494730 
#    y 0.000000 4.125540 0.000000 
#    z 0.494730 0.000000 3.916100 
# 
# 
# High freq. dielectric constant tensor:
#      x y z
#    x 1.868980 0.000000 0.037670 
#    y 0.000000 1.873640 0.000000 
#    z 0.037670 0.000000 1.864350 
# 
# From -- ./inp_files/42076.got.cif
#   From: 2010.06.25/outbox.cif.g09.slc.cpg/sg15_22_cif.got.tgz:42076.got - 2010.06.28 07:06:18.
