data_PCOD8146447
_publ_section_title
;
Structure prediction by ZEFSAII (Michael W. Deem and Ramdas Pophale) SiO2 
 PCOD8146447
Probable space group: C 2/C
;
_chemical_formula_sum "Si O2"
_cell_formula_units_Z 32
_cell_length_a 19.202655
_cell_length_b 4.873302
_cell_length_c 15.663337
_cell_angle_alpha 90.000000
_cell_angle_beta 69.339770
_cell_angle_gamma 90.000000
_cell_volume 1371.514787
_symmetry_space_group_name_H-M "C 2/C"
_symmetry_group_IT_number 15
_symmetry_cell_setting 'monoclinic'
loop_
_space_group_symop_operation_xyz
x,y,z
-x,y,1/2-z
-x,-y,-z
x,-y,1/2+z
1/2+x,1/2+y,z
1/2-x,1/2+y,1/2-z
1/2-x,1/2-y,-z
1/2+x,1/2-y,1/2+z
loop_
_atom_site_type_symbol
_atom_site_label
_atom_site_fract_x
_atom_site_fract_y
_atom_site_fract_z
Si Si1 0.697275 0.722634 0.369151
Si Si2 0.947422 0.310760 0.964287
Si Si3 0.054533 0.813890 0.647076
Si Si4 0.204013 0.784923 0.670105
O O1 0.623017 0.689940 0.455559
O O2 0.763987 0.515716 0.366202
O O3 0.675588 0.690110 0.279584
O O4 0.724999 0.026210 0.376610
O O5 0.930693 0.507535 0.892605
O O6 0.979991 0.028087 0.908192
O O7 0.000000 0.500000 0.000000
O O8 0.137178 0.897733 0.640978
O O9 0.000000 0.796873 0.750000
#
# Coordination Sequence:
#
# PCOD8146447 Si02
#       4
#     8   8   8   8
#     4  10  22  41  66  94 129 171 216 270 329 392
#     4  12  26  43  66  95 131 172 219 271 326 391
#     4  12  26  43  66  95 132 173 218 272 326 390
#     4  10  22  41  65  94 129 170 216 268 330 391
#
# _framework density 23.331868
#
# number of rings (size 3 to 8) (size 9 to 14) (size 15 to 20)
#    0.000    1.000    0.000    6.000    0.000   12.000 
#    0.000    0.000    0.000    0.000    0.000    0.000 
#    0.000    0.000    0.000    0.000    0.000    0.000 
#
# Total GULP energy -198314.911078 kJ/mol
# GULP energy per Si atom -12394.681942 kJ/mol
# Density = 2.327876 g / cm^3
# Si number density = 23.331868 Si / 1000 Ang^3
#
#
#
# Elastic Constant Matrix: (Units=GPa)
#
#
# Indices 1 2 3 4 5 6 
#
# 1 74.6290 3.2455 35.6239 0.0056 -14.2903 0.0089
# 2 3.2455 116.0915 42.6032 0.0208 -13.5177 0.0349
# 3 35.6239 42.6032 133.6605 0.0039 -31.0975 0.0084
# 4 0.0056 0.0208 0.0039 24.1107 0.0010 -0.7985
# 5 -14.2903 -13.5177 -31.0975 0.0010 14.1620 -0.0008
# 6 0.0089 0.0349 0.0084 -0.7985 -0.0008 10.7224
#
#
#
# Elastic Compliance Matrix: (Units=1/GPa)
#
#
# Indices 1 2 3 4 5 6 
#
# 1 0.017042 0.001902 -0.001482 -0.000007 0.015757 -0.000018
# 2 0.001902 0.010149 -0.002129 -0.000010 0.006931 -0.000033
# 3 -0.001482 -0.002129 0.015813 -0.000002 0.031196 -0.000002
# 4 -0.000007 -0.000010 -0.000002 0.041578 -0.000023 0.003096
# 5 0.015757 0.006931 0.031196 -0.000023 0.161628 -0.000049
# 6 -0.000018 -0.000033 -0.000002 0.003096 -0.000049 0.093494
#
#
# Mechanical properties :
#
#
# Convention : Reuss Voigt Hill
#
# Bulk Modulus (GPa) = 25.26180 54.14738 39.70459
# Shear Modulus (GPa) = 14.03242 25.99291 20.01267
#
# Velocity S-wave (km/s) = 2.45506 3.34136 2.93190
# Velocity P-wave (km/s) = 4.34593 6.17609 5.34000
#
# Compressibility (1/GPa) = 0.03958545
#
# Stress axis : x y z
#
# Youngs Moduli (GPa) = 58.67962 98.52956 63.23737
#
# Poissons Ratio (x) = -0.18743 0.09374
# Poissons Ratio (y) = -0.11163 0.13465
# Poissons Ratio (z) = 0.08699 0.20980
#
# Static dielectric constant tensor:
#      x y z
#    x 3.956510 0.000000 0.201520 
#    y 0.000000 4.413630 -0.000030 
#    z 0.201520 -0.000030 4.371650 
# 
# 
# High freq. dielectric constant tensor:
#      x y z
#    x 1.913440 0.000000 0.003420 
#    y 0.000000 1.939810 0.000000 
#    z 0.003420 0.000000 1.934420 
# 
# From -- ./inp_files/158189.got.cif
#   From: 2010.06.25/outbox.cif.g09.slc.cpg/sg15_80_cif.got.tgz:158189.got - 2010.06.28 07:06:18.
