data_PCOD8146279
_publ_section_title
;
Structure prediction by ZEFSAII (Michael W. Deem and Ramdas Pophale) SiO2 
 PCOD8146279
Probable space group: C 2/C
;
_chemical_formula_sum "Si O2"
_cell_formula_units_Z 28
_cell_length_a 22.315236
_cell_length_b 9.304628
_cell_length_c 8.962602
_cell_angle_alpha 90.000000
_cell_angle_beta 38.937682
_cell_angle_gamma 90.000000
_cell_volume 1169.559837
_symmetry_space_group_name_H-M "C 2/C"
_symmetry_group_IT_number 15
_symmetry_cell_setting 'monoclinic'
loop_
_space_group_symop_operation_xyz
x,y,z
-x,y,1/2-z
-x,-y,-z
x,-y,1/2+z
1/2+x,1/2+y,z
1/2-x,1/2+y,1/2-z
1/2-x,1/2-y,-z
1/2+x,1/2-y,1/2+z
loop_
_atom_site_type_symbol
_atom_site_label
_atom_site_fract_x
_atom_site_fract_y
_atom_site_fract_z
Si Si1 0.288767 0.406775 0.392989
Si Si2 0.118839 0.626104 0.757546
Si Si3 0.500000 0.955846 0.750000
Si Si4 0.605363 0.411662 0.612318
O O1 0.250000 0.250000 0.500000
O O2 0.212333 0.528612 0.581216
O O3 0.316868 0.411343 0.167492
O O4 0.381139 0.440649 0.319079
O O5 0.363791 0.713472 0.332844
O O6 0.046139 0.558335 0.782045
O O7 0.076106 0.638988 0.009216
O O8 0.500000 0.398063 0.750000
#
# Coordination Sequence:
#
# PCOD8146279 Si02
#       4
#     8   8   4   8
#     4  12  27  47  72 106 147 188 238 294 363 427
#     4  11  23  46  74 107 141 191 239 295 354 426
#     4  10  22  40  76 110 140 184 242 294 354 420
#     4  12  26  49  70 107 144 188 241 297 357 426
#
# _framework density 23.940631
#
# number of rings (size 3 to 8) (size 9 to 14) (size 15 to 20)
#    0.000    0.571    1.429    6.857    4.000    2.286 
#    5.143    0.000    0.000    0.000    0.000    0.000 
#    0.000    0.000    0.000    0.000    0.000    0.000 
#
# Total GULP energy -173595.416200 kJ/mol
# GULP energy per Si atom -12399.672586 kJ/mol
# Density = 2.388614 g / cm^3
# Si number density = 23.940631 Si / 1000 Ang^3
#
#
#
# Elastic Constant Matrix: (Units=GPa)
#
#
# Indices 1 2 3 4 5 6 
#
# 1 81.8751 65.0393 39.2817 0.0000 9.2239 0.0000
# 2 65.0393 154.3442 62.6655 0.0000 6.0173 0.0000
# 3 39.2817 62.6655 185.1940 0.0000 41.5245 0.0000
# 4 0.0000 0.0000 0.0000 18.0105 0.0000 -3.1584
# 5 9.2239 6.0173 41.5245 0.0000 55.4898 0.0000
# 6 0.0000 0.0000 0.0000 -3.1584 0.0000 38.4072
#
#
#
# Elastic Compliance Matrix: (Units=1/GPa)
#
#
# Indices 1 2 3 4 5 6 
#
# 1 0.018812 -0.007400 -0.001160 0.000000 -0.001457 0.000000
# 2 -0.007400 0.010501 -0.002408 0.000000 0.001894 0.000000
# 3 -0.001160 -0.002408 0.007641 0.000000 -0.005264 0.000000
# 4 0.000000 0.000000 0.000000 0.056336 0.000000 0.004633
# 5 -0.001457 0.001894 -0.005264 0.000000 0.021997 0.000000
# 6 0.000000 0.000000 0.000000 0.004633 0.000000 0.026418
#
#
# Mechanical properties :
#
#
# Convention : Reuss Voigt Hill
#
# Bulk Modulus (GPa) = 66.58295 83.93184 75.25739
# Shear Modulus (GPa) = 29.64766 39.34330 34.49548
#
# Velocity S-wave (km/s) = 3.52288 4.05825 3.80001
# Velocity P-wave (km/s) = 6.66481 7.55603 7.12437
#
# Compressibility (1/GPa) = 0.01501886
#
# Stress axis : x y z
#
# Youngs Moduli (GPa) = 53.15648 95.22719 130.87298
#
# Poissons Ratio (x) = 0.70465 0.15178
# Poissons Ratio (y) = 0.39334 0.31519
# Poissons Ratio (z) = 0.06165 0.22934
#
# Static dielectric constant tensor:
#      x y z
#    x 4.928330 0.000000 0.275270 
#    y 0.000000 4.387500 0.000000 
#    z 0.275270 0.000000 4.719110 
# 
# 
# High freq. dielectric constant tensor:
#      x y z
#    x 1.970820 0.000000 0.007630 
#    y 0.000000 1.945020 0.000000 
#    z 0.007630 0.000000 1.964360 
# 
# From -- ./inp_files/27341.got.cif
#   From: 2010.06.25/outbox.cif.g09.slc.cpg/sg15_14_cif.got.tgz:27341.got - 2010.06.28 07:06:18.
