data_PCOD8146759
_publ_section_title
;
Structure prediction by ZEFSAII (Michael W. Deem and Ramdas Pophale) SiO2 
 PCOD8146759
Probable space group: C 2/C
;
_chemical_formula_sum "Si O2"
_cell_formula_units_Z 60
_cell_length_a 17.047708
_cell_length_b 5.239896
_cell_length_c 32.580264
_cell_angle_alpha 90.000000
_cell_angle_beta 87.033788
_cell_angle_gamma 90.000000
_cell_volume 2906.437692
_symmetry_space_group_name_H-M "C 2/C"
_symmetry_group_IT_number 15
_symmetry_cell_setting 'monoclinic'
loop_
_space_group_symop_operation_xyz
x,y,z
-x,y,1/2-z
-x,-y,-z
x,-y,1/2+z
1/2+x,1/2+y,z
1/2-x,1/2+y,1/2-z
1/2-x,1/2-y,-z
1/2+x,1/2-y,1/2+z
loop_
_atom_site_type_symbol
_atom_site_label
_atom_site_fract_x
_atom_site_fract_y
_atom_site_fract_z
Si Si1 0.832008 0.995914 0.530834
Si Si2 0.078814 0.394047 0.184413
Si Si3 0.077168 0.108985 0.304916
Si Si4 0.566634 0.520400 0.893745
Si Si5 0.151590 0.493668 0.019525
Si Si6 0.536938 0.979044 0.098041
Si Si7 0.000000 0.241431 0.750000
Si Si8 0.198813 0.334981 0.247289
O O1 0.862672 0.013378 0.576070
O O2 0.866201 0.231494 0.503747
O O3 0.861001 0.731631 0.510345
O O4 0.738352 0.008637 0.535947
O O5 0.092178 0.484840 0.137225
O O6 0.041082 0.612232 0.212529
O O7 0.159713 0.303510 0.203159
O O8 0.014084 0.173054 0.185194
O O9 0.133166 0.333303 0.285694
O O10 0.108039 0.007272 0.347847
O O11 0.073866 0.908030 0.267860
O O12 0.506787 0.291067 0.904927
O O13 0.525268 0.793664 0.897243
O O14 0.090721 0.524657 0.057633
O O15 0.241607 0.604237 0.248099
#
# Coordination Sequence:
#
# PCOD8146759 Si02
#       8
#     8   8   8   8   8   8   4   8
#     4  10  22  42  64  87 123 168 200 239 313 383
#     4  11  23  40  64  89 122 172 211 251 316 378
#     4  11  23  40  64  89 122 172 211 251 316 378
#     4  11  24  39  63  97 122 153 209 264 305 355
#     4  10  22  42  64  87 123 168 200 239 313 383
#     4  11  24  39  63  97 122 153 209 264 305 355
#     4  12  16  40  72  80 120 174 214 250 290 398
#     4  12  26  40  61  93 128 162 212 266 314 366
#
# _framework density 20.643827999999999
#
# number of rings (size 3 to 8) (size 9 to 14) (size 15 to 20)
#    0.000    1.067    4.000    2.400    0.000    4.267 
#    0.000    4.000    0.000    0.000    0.000    0.000 
#    0.000    0.000    0.000    0.000    0.000    0.000 
#
# Total GULP energy -371953.753315 kJ/mol
# GULP energy per Si atom -12398.458444 kJ/mol
# Density = 2.059684 g / cm^3
# Si number density = 20.643828 Si / 1000 Ang^3
#
#
#
# Elastic Constant Matrix: (Units=GPa)
#
#
# Indices 1 2 3 4 5 6 
#
# 1 59.1673 10.2876 38.5605 0.0000 20.2742 0.0000
# 2 10.2876 81.9393 11.9849 0.0000 11.7272 0.0000
# 3 38.5605 11.9849 128.0405 0.0000 35.7917 0.0000
# 4 0.0000 0.0000 0.0000 41.0368 0.0000 4.7064
# 5 20.2742 11.7272 35.7917 0.0000 35.0241 0.0000
# 6 0.0000 0.0000 0.0000 4.7064 0.0000 28.7955
#
#
#
# Elastic Compliance Matrix: (Units=1/GPa)
#
#
# Indices 1 2 3 4 5 6 
#
# 1 0.022834 -0.001024 -0.004454 0.000000 -0.008323 0.000000
# 2 -0.001024 0.012864 0.000200 0.000000 -0.003919 0.000000
# 3 -0.004454 0.000200 0.011802 0.000000 -0.009549 0.000000
# 4 0.000000 0.000000 0.000000 0.024834 0.000000 -0.004059
# 5 -0.008323 -0.003919 -0.009549 0.000000 0.044440 0.000000
# 6 0.000000 0.000000 0.000000 -0.004059 0.000000 0.035391
#
#
# Mechanical properties :
#
#
# Convention : Reuss Voigt Hill
#
# Bulk Modulus (GPa) = 27.06856 43.42369 35.24612
# Shear Modulus (GPa) = 28.56525 34.85889 31.71207
#
# Velocity S-wave (km/s) = 3.72387 4.11370 3.92363
# Velocity P-wave (km/s) = 5.62408 6.60634 6.13490
#
# Compressibility (1/GPa) = 0.03694323
#
# Stress axis : x y z
#
# Youngs Moduli (GPa) = 43.79392 77.73410 84.73060
#
# Poissons Ratio (x) = 0.07961 0.37741
# Poissons Ratio (y) = 0.04485 -0.01692
# Poissons Ratio (z) = 0.19507 -0.01552
#
# Static dielectric constant tensor:
#      x y z
#    x 3.815200 0.000000 0.295470 
#    y 0.000000 3.936100 0.000000 
#    z 0.295470 0.000000 4.037480 
# 
# 
# High freq. dielectric constant tensor:
#      x y z
#    x 1.794110 0.000000 0.012560 
#    y 0.000000 1.821800 0.000000 
#    z 0.012560 0.000000 1.818610 
# 
# From -- ./inp_files/297769.got.cif
#   From: 2010.06.25/outbox.cif.g09.slc.cpg/sg15_149_cif.got.tgz:297769.got - 2010.06.28 07:06:18.
