data_PCOD8146965
_publ_section_title
;
Structure prediction by ZEFSAII (Michael W. Deem and Ramdas Pophale) SiO2 
 PCOD8146965
Probable space group: C 2/C
;
_chemical_formula_sum "Si O2"
_cell_formula_units_Z 52
_cell_length_a 8.309592
_cell_length_b 27.930797
_cell_length_c 10.758713
_cell_angle_alpha 90.000000
_cell_angle_beta 110.689778
_cell_angle_gamma 90.000000
_cell_volume 2335.987041
_symmetry_space_group_name_H-M "C 2/C"
_symmetry_group_IT_number 15
_symmetry_cell_setting 'monoclinic'
loop_
_space_group_symop_operation_xyz
x,y,z
-x,y,1/2-z
-x,-y,-z
x,-y,1/2+z
1/2+x,1/2+y,z
1/2-x,1/2+y,1/2-z
1/2-x,1/2-y,-z
1/2+x,1/2-y,1/2+z
loop_
_atom_site_type_symbol
_atom_site_label
_atom_site_fract_x
_atom_site_fract_y
_atom_site_fract_z
Si Si1 0.577867 0.083536 0.904877
Si Si2 0.000000 0.054675 0.750000
Si Si3 0.506238 0.251259 0.606647
Si Si4 0.305822 0.815899 0.678694
Si Si5 0.266811 0.908559 0.507400
Si Si6 0.277412 0.174275 0.447427
Si Si7 0.687093 0.499304 0.108709
O O1 0.500000 0.095657 0.750000
O O2 0.681608 0.034016 0.931312
O O3 0.431696 0.080703 0.968649
O O4 0.713819 0.125014 0.975122
O O5 0.909788 0.087658 0.620975
O O6 0.843921 0.021206 0.760764
O O7 0.500000 0.237554 0.750000
O O8 0.695187 0.268600 0.616019
O O9 0.456180 0.204296 0.513600
O O10 0.376802 0.294573 0.537707
O O11 0.500000 0.798951 0.750000
O O12 0.283134 0.855960 0.567790
O O13 0.240482 0.836925 0.792950
O O14 0.263665 0.947018 0.620428
O O15 0.500000 0.500000 0.000000
#
# Coordination Sequence:
#
# PCOD8146965 Si02
#       7
#     8   4   8   8   8   8   8
#     4  12  23  41  69  96 132 178 231 274 333 405
#     4  10  22  46  62  98 130 174 232 272 336 402
#     4   9  21  42  68  94 134 176 225 277 334 404
#     4  11  23  41  64 102 136 174 219 274 341 409
#     4  11  24  43  65  98 140 176 227 277 337 402
#     4  10  22  42  67  98 130 176 227 275 338 401
#     4  10  24  41  65  93 132 177 221 273 332 392
#
# _framework density 22.260397000000001
#
# number of rings (size 3 to 8) (size 9 to 14) (size 15 to 20)
#    0.000    1.538    3.077    0.923    4.308    3.692 
#    1.385    0.000    0.000    0.000    0.000    0.000 
#    0.000    0.000    0.000    0.000    0.000    0.000 
#
# Total GULP energy -322369.948468 kJ/mol
# GULP energy per Si atom -12398.844172 kJ/mol
# Density = 2.220973 g / cm^3
# Si number density = 22.260397 Si / 1000 Ang^3
#
#
#
# Elastic Constant Matrix: (Units=GPa)
#
#
# Indices 1 2 3 4 5 6 
#
# 1 98.3901 26.5823 19.9985 0.0000 -6.6086 0.0000
# 2 26.5823 63.9342 21.6870 0.0000 0.7613 0.0000
# 3 19.9985 21.6870 81.7636 0.0000 3.9508 0.0000
# 4 0.0000 0.0000 0.0000 32.0762 0.0000 4.5889
# 5 -6.6086 0.7613 3.9508 0.0000 31.3022 0.0000
# 6 0.0000 0.0000 0.0000 4.5889 0.0000 32.2907
#
#
#
# Elastic Compliance Matrix: (Units=1/GPa)
#
#
# Indices 1 2 3 4 5 6 
#
# 1 0.011916 -0.004344 -0.001901 0.000000 0.002861 0.000000
# 2 -0.004344 0.018772 -0.003874 0.000000 -0.000885 0.000000
# 3 -0.001901 -0.003874 0.013822 0.000000 -0.002052 0.000000
# 4 0.000000 0.000000 0.000000 0.031823 0.000000 -0.004522
# 5 0.002861 -0.000885 -0.002052 0.000000 0.032831 0.000000
# 6 0.000000 0.000000 0.000000 -0.004522 0.000000 0.031611
#
#
# Mechanical properties :
#
#
# Convention : Reuss Voigt Hill
#
# Bulk Modulus (GPa) = 41.19797 42.29152 41.74474
# Shear Modulus (GPa) = 29.56805 30.85516 30.21160
#
# Velocity S-wave (km/s) = 3.64851 3.72708 3.68800
# Velocity P-wave (km/s) = 6.02464 6.12872 6.07691
#
# Compressibility (1/GPa) = 0.02427304
#
# Stress axis : x y z
#
# Youngs Moduli (GPa) = 83.92329 53.27190 72.34910
#
# Poissons Ratio (x) = 0.23139 0.13751
# Poissons Ratio (y) = 0.36453 0.28027
# Poissons Ratio (z) = 0.15950 0.20637
#
# Static dielectric constant tensor:
#      x y z
#    x 4.550210 0.000000 -0.264150 
#    y 0.000000 3.987080 0.000000 
#    z -0.264150 0.000000 4.355310 
# 
# 
# High freq. dielectric constant tensor:
#      x y z
#    x 1.884080 0.000000 0.004440 
#    y 0.000000 1.864880 0.000000 
#    z 0.004440 0.000000 1.876750 
# 
# From -- ./inp_files/81489.got.cif
#   From: 2010.06.25/outbox.cif.g09.slc.cpg/sg15_41_cif.got.tgz:81489.got - 2010.06.28 07:06:18.
