data_PCOD8146419
_publ_section_title
;
Structure prediction by ZEFSAII (Michael W. Deem and Ramdas Pophale) SiO2 
 PCOD8146419
Probable space group: C 2/C
;
_chemical_formula_sum "Si O2"
_cell_formula_units_Z 60
_cell_length_a 14.033825
_cell_length_b 13.076807
_cell_length_c 16.651244
_cell_angle_alpha 90.000000
_cell_angle_beta 72.703398
_cell_angle_gamma 90.000000
_cell_volume 2917.608774
_symmetry_space_group_name_H-M "C 2/C"
_symmetry_group_IT_number 15
_symmetry_cell_setting 'monoclinic'
loop_
_space_group_symop_operation_xyz
x,y,z
-x,y,1/2-z
-x,-y,-z
x,-y,1/2+z
1/2+x,1/2+y,z
1/2-x,1/2+y,1/2-z
1/2-x,1/2-y,-z
1/2+x,1/2-y,1/2+z
loop_
_atom_site_type_symbol
_atom_site_label
_atom_site_fract_x
_atom_site_fract_y
_atom_site_fract_z
Si Si1 0.354627 0.477428 0.511414
Si Si2 0.749139 0.145245 0.163155
Si Si3 0.966241 0.830139 0.032729
Si Si4 0.840672 0.505433 0.541291
Si Si5 0.000000 0.626749 0.750000
Si Si6 0.090111 0.693747 0.885749
Si Si7 0.369920 0.160529 0.153656
Si Si8 0.065446 0.552664 0.140541
O O1 0.317351 0.448765 0.611942
O O2 0.441988 0.400714 0.459644
O O3 0.390804 0.594849 0.504394
O O4 0.266731 0.466085 0.468694
O O5 0.807310 0.246891 0.126232
O O6 0.726695 0.151976 0.264112
O O7 0.645571 0.140621 0.140375
O O8 0.004807 0.740131 0.964579
O O9 0.908402 0.775136 0.121628
O O10 0.878133 0.578603 0.603191
O O11 0.837800 0.391992 0.578251
O O12 0.925512 0.514982 0.452843
O O13 0.052055 0.698636 0.803256
O O14 0.081132 0.550309 0.689098
O O15 0.456750 0.101254 0.180362
#
# Coordination Sequence:
#
# PCOD8146419 Si02
#       8
#     8   8   8   8   4   8   8   8
#     4   9  23  43  61  86 125 165 193 255 296 354
#     4  10  23  37  60  87 125 153 203 245 305 344
#     4  10  22  41  65  87 121 163 209 233 302 364
#     4  11  22  37  63  88 120 153 208 249 298 351
#     4  12  22  38  60  86 126 152 188 254 322 336
#     4  11  23  39  61  90 117 161 198 249 299 367
#     4  12  21  36  62  91 120 155 205 249 293 365
#     4  11  20  37  59  87 119 157 191 251 295 357
#
# _framework density 20.564786999999999
#
# number of rings (size 3 to 8) (size 9 to 14) (size 15 to 20)
#    0.000    1.333    4.000    1.200    1.867    6.400 
#    0.000    0.000    0.000    0.000    0.000    0.000 
#    0.000    0.000    0.000    0.000    0.000    0.000 
#
# Total GULP energy -371830.428621 kJ/mol
# GULP energy per Si atom -12394.347621 kJ/mol
# Density = 2.051798 g / cm^3
# Si number density = 20.564787 Si / 1000 Ang^3
#
#
#
# Elastic Constant Matrix: (Units=GPa)
#
#
# Indices 1 2 3 4 5 6 
#
# 1 73.8004 28.5202 25.9018 0.0000 -2.8343 0.0000
# 2 28.5202 91.3432 30.3272 0.0000 -2.9326 0.0000
# 3 25.9018 30.3272 96.6989 0.0000 -8.2725 0.0000
# 4 0.0000 0.0000 0.0000 23.8987 0.0000 2.1942
# 5 -2.8343 -2.9326 -8.2725 0.0000 28.8929 0.0000
# 6 0.0000 0.0000 0.0000 2.1942 0.0000 30.2177
#
#
#
# Elastic Compliance Matrix: (Units=1/GPa)
#
#
# Indices 1 2 3 4 5 6 
#
# 1 0.016190 -0.004034 -0.003045 0.000000 0.000307 0.000000
# 2 -0.004034 0.013226 -0.003061 0.000000 0.000070 0.000000
# 3 -0.003045 -0.003061 0.012368 0.000000 0.002932 0.000000
# 4 0.000000 0.000000 0.000000 0.042124 0.000000 -0.003059
# 5 0.000307 0.000070 0.002932 0.000000 0.035487 0.000000
# 6 0.000000 0.000000 0.000000 -0.003059 0.000000 0.033315
#
#
# Mechanical properties :
#
#
# Convention : Reuss Voigt Hill
#
# Bulk Modulus (GPa) = 46.50653 47.92675 47.21664
# Shear Modulus (GPa) = 27.75332 28.40808 28.08070
#
# Velocity S-wave (km/s) = 3.67762 3.72074 3.69924
# Velocity P-wave (km/s) = 6.37941 6.46641 6.42306
#
# Compressibility (1/GPa) = 0.02150236
#
# Stress axis : x y z
#
# Youngs Moduli (GPa) = 61.76835 75.60889 80.85391
#
# Poissons Ratio (x) = 0.30501 0.24621
# Poissons Ratio (y) = 0.24917 0.24753
# Poissons Ratio (z) = 0.18809 0.23147
#
# Static dielectric constant tensor:
#      x y z
#    x 3.650800 0.000000 -0.186270 
#    y 0.000000 3.624450 0.000000 
#    z -0.186270 0.000000 3.773440 
# 
# 
# High freq. dielectric constant tensor:
#      x y z
#    x 1.800610 0.000000 -0.009250 
#    y 0.000000 1.796730 0.000000 
#    z -0.009250 0.000000 1.804400 
# 
# From -- ./inp_files/153927.got.cif
#   From: 2010.06.25/outbox.cif.g09.slc.cpg/sg15_77_cif.got.tgz:153927.got - 2010.06.28 07:06:18.
