data_PCOD8146414
_publ_section_title
;
Structure prediction by ZEFSAII (Michael W. Deem and Ramdas Pophale) SiO2 
 PCOD8146414
Probable space group: C 2/C
;
_chemical_formula_sum "Si O2"
_cell_formula_units_Z 60
_cell_length_a 20.360872
_cell_length_b 11.502792
_cell_length_c 17.719918
_cell_angle_alpha 90.000000
_cell_angle_beta 39.354478
_cell_angle_gamma 90.000000
_cell_volume 2631.663231
_symmetry_space_group_name_H-M "C 2/C"
_symmetry_group_IT_number 15
_symmetry_cell_setting 'monoclinic'
loop_
_space_group_symop_operation_xyz
x,y,z
-x,y,1/2-z
-x,-y,-z
x,-y,1/2+z
1/2+x,1/2+y,z
1/2-x,1/2+y,1/2-z
1/2-x,1/2-y,-z
1/2+x,1/2-y,1/2+z
loop_
_atom_site_type_symbol
_atom_site_label
_atom_site_fract_x
_atom_site_fract_y
_atom_site_fract_z
Si Si1 0.786366 0.534773 0.844717
Si Si2 0.710476 0.877958 0.523293
Si Si3 0.623280 0.719566 0.985154
Si Si4 0.798659 0.656652 0.217920
Si Si5 0.000000 0.289947 0.750000
Si Si6 0.361294 0.363285 0.265476
Si Si7 0.601460 0.387750 0.807559
Si Si8 0.381303 0.759487 0.342023
O O1 0.743189 0.451047 0.948453
O O2 0.693792 0.612646 0.893138
O O3 0.836284 0.455018 0.733685
O O4 0.871639 0.615817 0.809553
O O5 0.750000 0.750000 0.500000
O O6 0.584559 0.874790 0.634711
O O7 0.764154 0.918966 0.398150
O O8 0.637422 0.831276 0.917501
O O9 0.504721 0.681960 0.086917
O O10 0.669533 0.749864 0.028524
O O11 0.813433 0.777890 0.246954
O O12 0.676376 0.641345 0.310943
O O13 0.054034 0.206902 0.762407
O O14 0.418817 0.473815 0.177315
O O15 0.657125 0.341233 0.681239
O O16 0.500000 0.734432 0.250000
#
# Coordination Sequence:
#
# PCOD8146414 Si02
#       8
#     8   8   8   8   4   8   8   8
#     4  12  23  43  71  98 147 184 231 299 360 422
#     4  10  22  41  65 104 136 185 229 301 349 416
#     4  11  26  47  74 104 139 196 242 299 351 424
#     4  12  26  45  64 106 148 181 229 297 372 425
#     4  10  22  42  68 106 140 180 240 294 366 424
#     4  11  25  43  72 101 142 185 245 302 350 425
#     4  11  26  46  73 105 134 192 244 293 353 428
#     4  10  24  46  73 103 134 184 250 287 345 426
#
# _framework density 22.79927
#
# number of rings (size 3 to 8) (size 9 to 14) (size 15 to 20)
#    0.000    1.067    4.000    2.000    9.333    3.200 
#    0.000    2.667    0.000    0.000    0.000    0.000 
#    0.000    0.000    0.000    0.000    0.000    0.000 
#
# Total GULP energy -371847.140633 kJ/mol
# GULP energy per Si atom -12394.904688 kJ/mol
# Density = 2.274738 g / cm^3
# Si number density = 22.799270 Si / 1000 Ang^3
#
#
#
# Elastic Constant Matrix: (Units=GPa)
#
#
# Indices 1 2 3 4 5 6 
#
# 1 113.5728 43.8354 25.0549 0.0000 13.1994 0.0000
# 2 43.8354 118.5106 22.7455 0.0000 18.8329 0.0000
# 3 25.0549 22.7455 82.5828 0.0000 7.0608 0.0000
# 4 0.0000 0.0000 0.0000 33.9985 0.0000 4.9688
# 5 13.1994 18.8329 7.0608 0.0000 34.1602 0.0000
# 6 0.0000 0.0000 0.0000 4.9688 0.0000 41.3145
#
#
#
# Elastic Compliance Matrix: (Units=1/GPa)
#
#
# Indices 1 2 3 4 5 6 
#
# 1 0.010771 -0.003257 -0.002207 0.000000 -0.001910 0.000000
# 2 -0.003257 0.010624 -0.001573 0.000000 -0.004273 0.000000
# 3 -0.002207 -0.001573 0.013300 0.000000 -0.001029 0.000000
# 4 0.000000 0.000000 0.000000 0.029939 0.000000 -0.003601
# 5 -0.001910 -0.004273 -0.001029 0.000000 0.032581 0.000000
# 6 0.000000 0.000000 0.000000 -0.003601 0.000000 0.024638
#
#
# Mechanical properties :
#
#
# Convention : Reuss Voigt Hill
#
# Bulk Modulus (GPa) = 48.49485 55.32642 51.91064
# Shear Modulus (GPa) = 35.01422 36.76336 35.88879
#
# Velocity S-wave (km/s) = 3.92313 4.01993 3.97182
# Velocity P-wave (km/s) = 6.46821 6.77243 6.62207
#
# Compressibility (1/GPa) = 0.02062075
#
# Stress axis : x y z
#
# Youngs Moduli (GPa) = 92.84266 94.12976 75.18854
#
# Poissons Ratio (x) = 0.30656 0.16598
# Poissons Ratio (y) = 0.30237 0.11824
# Poissons Ratio (z) = 0.20495 0.14803
#
# Static dielectric constant tensor:
#      x y z
#    x 4.075320 0.000000 1.296060 
#    y 0.000000 3.934760 0.000000 
#    z 1.296060 0.000000 -0.962790 
# 
# 
# High freq. dielectric constant tensor:
#      x y z
#    x 1.909210 0.000000 0.004890 
#    y 0.000000 1.903540 0.000000 
#    z 0.004890 0.000000 1.889520 
# 
# From -- ./inp_files/215184.got.cif
#   From: 2010.06.25/outbox.cif.g09.slc.cpg/sg15_108_cif.got.tgz:215184.got - 2010.06.28 07:06:18.
