data_PCOD8146379
_publ_section_title
;
Structure prediction by ZEFSAII (Michael W. Deem and Ramdas Pophale) SiO2 
 PCOD8146379
Probable space group: C 2/C
;
_chemical_formula_sum "Si O2"
_cell_formula_units_Z 48
_cell_length_a 16.876834
_cell_length_b 8.749674
_cell_length_c 28.461102
_cell_angle_alpha 90.000000
_cell_angle_beta 148.694038
_cell_angle_gamma 90.000000
_cell_volume 2183.787668
_symmetry_space_group_name_H-M "C 2/C"
_symmetry_group_IT_number 15
_symmetry_cell_setting 'monoclinic'
loop_
_space_group_symop_operation_xyz
x,y,z
-x,y,1/2-z
-x,-y,-z
x,-y,1/2+z
1/2+x,1/2+y,z
1/2-x,1/2+y,1/2-z
1/2-x,1/2-y,-z
1/2+x,1/2-y,1/2+z
loop_
_atom_site_type_symbol
_atom_site_label
_atom_site_fract_x
_atom_site_fract_y
_atom_site_fract_z
Si Si1 0.103762 0.297549 0.014815
Si Si2 0.057388 0.214980 0.660490
Si Si3 0.138264 0.703541 0.902006
Si Si4 0.892030 0.615855 0.153935
Si Si5 0.838727 0.115068 0.265128
Si Si6 0.196315 0.621804 0.092730
O O1 0.060844 0.254151 0.940277
O O2 0.959297 0.282627 0.976586
O O3 0.236618 0.181683 0.098110
O O4 0.161969 0.471750 0.044926
O O5 0.208575 0.317113 0.732652
O O6 0.975652 0.247609 0.668506
O O7 0.097865 0.036760 0.678477
O O8 0.139539 0.521033 0.898227
O O9 0.190167 0.772384 0.878653
O O10 0.969055 0.757880 0.828129
O O11 0.250000 0.750000 0.000000
O O12 0.000000 0.554851 0.250000
O O13 0.772734 0.074195 0.180515
#
# Coordination Sequence:
#
# PCOD8146379 Si02
#       6
#     8   8   8   8   8   8
#     4  10  22  41  64  91 122 164 207 250 304 365
#     4  11  23  41  65  92 125 162 206 253 305 364
#     4  12  25  41  63  91 125 162 205 255 307 365
#     4  12  24  38  61  93 126 159 203 257 306 360
#     4  11  23  41  65  91 123 165 206 252 306 366
#     4  10  22  42  65  89 124 167 207 247 305 372
#
# _framework density 21.980159
#
# number of rings (size 3 to 8) (size 9 to 14) (size 15 to 20)
#    0.000    1.000    0.000    7.000    0.000    6.000 
#    0.000    0.000    0.000    0.000    0.000    0.000 
#    0.000    0.000    0.000    0.000    0.000    0.000 
#
# Total GULP energy -297798.266919 kJ/mol
# GULP energy per Si atom -12408.261122 kJ/mol
# Density = 2.193013 g / cm^3
# Si number density = 21.980159 Si / 1000 Ang^3
#
#
#
# Elastic Constant Matrix: (Units=GPa)
#
#
# Indices 1 2 3 4 5 6 
#
# 1 68.7176 20.9783 36.8768 0.0000 2.1154 0.0000
# 2 20.9783 105.8344 37.3229 0.0000 6.1435 0.0000
# 3 36.8768 37.3229 128.1115 0.0000 10.1029 0.0000
# 4 0.0000 0.0000 0.0000 34.3259 0.0000 4.4756
# 5 2.1154 6.1435 10.1029 0.0000 28.9967 0.0000
# 6 0.0000 0.0000 0.0000 4.4756 0.0000 36.2491
#
#
#
# Elastic Compliance Matrix: (Units=1/GPa)
#
#
# Indices 1 2 3 4 5 6 
#
# 1 0.017558 -0.001916 -0.004552 0.000000 0.000711 0.000000
# 2 -0.001916 0.010780 -0.002488 0.000000 -0.001277 0.000000
# 3 -0.004552 -0.002488 0.010049 0.000000 -0.002642 0.000000
# 4 0.000000 0.000000 0.000000 0.029609 0.000000 -0.003656
# 5 0.000711 -0.001277 -0.002642 0.000000 0.035626 0.000000
# 6 0.000000 0.000000 0.000000 -0.003656 0.000000 0.028038
#
#
# Mechanical properties :
#
#
# Convention : Reuss Voigt Hill
#
# Bulk Modulus (GPa) = 48.84105 54.77994 51.81050
# Shear Modulus (GPa) = 31.96953 33.74671 32.85812
#
# Velocity S-wave (km/s) = 3.81789 3.92257 3.87059
# Velocity P-wave (km/s) = 6.45785 6.74478 6.60287
#
# Compressibility (1/GPa) = 0.02047458
#
# Stress axis : x y z
#
# Youngs Moduli (GPa) = 56.95344 92.76248 99.51029
#
# Poissons Ratio (x) = 0.17777 0.45296
# Poissons Ratio (y) = 0.10914 0.24761
# Poissons Ratio (z) = 0.25925 0.23082
#
# Static dielectric constant tensor:
#      x y z
#    x 3.966570 0.000000 0.196540 
#    y 0.000000 3.819850 0.000000 
#    z 0.196540 0.000000 4.161180 
# 
# 
# High freq. dielectric constant tensor:
#      x y z
#    x 1.868060 0.000000 0.010890 
#    y 0.000000 1.864460 0.000000 
#    z 0.010890 0.000000 1.879070 
# 
# From -- ./inp_files/209302.got.cif
#   From: 2010.06.25/outbox.cif.g09.slc.cpg/sg15_105_cif.got.tgz:209302.got - 2010.06.28 07:06:18.
