data_PCOD8146196
_publ_section_title
;
Structure prediction by ZEFSAII (Michael W. Deem and Ramdas Pophale) SiO2 
 PCOD8146196
Probable space group: C 2/C
;
_chemical_formula_sum "Si O2"
_cell_formula_units_Z 60
_cell_length_a 14.284974
_cell_length_b 14.724165
_cell_length_c 28.066763
_cell_angle_alpha 90.000000
_cell_angle_beta 29.087161
_cell_angle_gamma 90.000000
_cell_volume 2869.877970
_symmetry_space_group_name_H-M "C 2/C"
_symmetry_group_IT_number 15
_symmetry_cell_setting 'monoclinic'
loop_
_space_group_symop_operation_xyz
x,y,z
-x,y,1/2-z
-x,-y,-z
x,-y,1/2+z
1/2+x,1/2+y,z
1/2-x,1/2+y,1/2-z
1/2-x,1/2-y,-z
1/2+x,1/2-y,1/2+z
loop_
_atom_site_type_symbol
_atom_site_label
_atom_site_fract_x
_atom_site_fract_y
_atom_site_fract_z
Si Si1 0.577613 0.535629 0.336447
Si Si2 0.276085 0.386079 0.474133
Si Si3 0.877238 0.188994 0.259312
Si Si4 0.457882 0.258138 0.469291
Si Si5 0.375343 0.323882 0.609180
Si Si6 0.053113 0.701705 0.601659
Si Si7 0.000000 0.422710 0.750000
Si Si8 0.993655 0.505406 0.848852
O O1 0.406463 0.468504 0.396960
O O2 0.625303 0.601133 0.272077
O O3 0.515286 0.593682 0.411366
O O4 0.776402 0.482632 0.257148
O O5 0.412795 0.333511 0.450098
O O6 0.205960 0.320878 0.462159
O O7 0.081807 0.421103 0.586194
O O8 0.664444 0.215832 0.368931
O O9 0.000000 0.162274 0.250000
O O10 0.981397 0.271454 0.185961
O O11 0.462255 0.305751 0.518728
O O12 0.394607 0.231946 0.632418
O O13 0.154603 0.354067 0.703890
O O14 0.250000 0.750000 0.500000
O O15 0.089370 0.594500 0.588242
O O16 0.083610 0.487311 0.670794
#
# Coordination Sequence:
#
# PCOD8146196 Si02
#       8
#     8   8   8   8   8   8   4   8
#     4  10  23  43  63  97 133 176 214 280 329 390
#     4  11  23  41  69  95 135 169 228 273 336 391
#     4  11  23  42  65  92 135 171 224 268 332 404
#     4  11  23  42  69 101 127 179 219 279 333 399
#     4  10  22  42  66  95 134 171 219 267 333 392
#     4  11  24  42  64  92 132 175 214 269 337 395
#     4  10  22  40  68  98 130 166 222 276 322 396
#     4  11  21  42  64  97 130 170 218 277 332 389
#
# _framework density 20.906811999999999
#
# number of rings (size 3 to 8) (size 9 to 14) (size 15 to 20)
#    0.000    1.333    2.667    3.200    0.933    1.600 
#    7.200    1.333    0.000    0.000    0.000    0.000 
#    0.000    0.000    0.000    0.000    0.000    0.000 
#
# Total GULP energy -371935.882171 kJ/mol
# GULP energy per Si atom -12397.862739 kJ/mol
# Density = 2.085923 g / cm^3
# Si number density = 20.906812 Si / 1000 Ang^3
#
#
#
# Elastic Constant Matrix: (Units=GPa)
#
#
# Indices 1 2 3 4 5 6 
#
# 1 107.4386 45.1462 43.9192 0.0023 1.1407 -0.0014
# 2 45.1462 108.9542 40.9641 -0.0034 -5.2620 0.0014
# 3 43.9192 40.9641 100.7194 -0.0095 -5.2816 -0.0052
# 4 0.0023 -0.0034 -0.0095 31.9053 -0.0048 1.6486
# 5 1.1407 -5.2620 -5.2816 -0.0048 27.7383 0.0023
# 6 -0.0014 0.0014 -0.0052 1.6486 0.0023 14.2876
#
#
#
# Elastic Compliance Matrix: (Units=1/GPa)
#
#
# Indices 1 2 3 4 5 6 
#
# 1 0.012575 -0.003785 -0.004049 -0.000003 -0.002006 0.000001
# 2 -0.003785 0.012016 -0.003140 0.000001 0.001837 -0.000003
# 3 -0.004049 -0.003140 0.013079 0.000004 0.002061 0.000004
# 4 -0.000003 0.000001 0.000004 0.031531 0.000007 -0.003638
# 5 -0.002006 0.001837 0.002061 0.000007 0.036875 -0.000006
# 6 0.000001 -0.000003 0.000004 -0.003638 -0.000006 0.070410
#
#
# Mechanical properties :
#
#
# Convention : Reuss Voigt Hill
#
# Bulk Modulus (GPa) = 63.60728 64.13012 63.86870
# Shear Modulus (GPa) = 24.54894 27.25841 25.90367
#
# Velocity S-wave (km/s) = 3.43039 3.61474 3.52377
# Velocity P-wave (km/s) = 6.79561 6.93993 6.86815
#
# Compressibility (1/GPa) = 0.01572147
#
# Stress axis : x y z
#
# Youngs Moduli (GPa) = 79.52562 83.22315 76.45586
#
# Poissons Ratio (x) = 0.31500 0.30957
# Poissons Ratio (y) = 0.30100 0.24009
# Poissons Ratio (z) = 0.32200 0.26134
#
# Static dielectric constant tensor:
#      x y z
#    x 3.960420 0.000010 -0.018660 
#    y 0.000010 3.858510 -0.000010 
#    z -0.018660 -0.000010 3.594670 
# 
# 
# High freq. dielectric constant tensor:
#      x y z
#    x 1.819110 0.000000 -0.008410 
#    y 0.000000 1.819260 0.000000 
#    z -0.008410 0.000000 1.819220 
# 
# From -- ./inp_files/154288.got.cif
#   From: 2010.06.25/outbox.cif.g09.slc.cpg/sg15_78_cif.got.tgz:154288.got - 2010.06.28 07:06:18.
