data_PCOD8146363
_publ_section_title
;
Structure prediction by ZEFSAII (Michael W. Deem and Ramdas Pophale) SiO2 
 PCOD8146363
Probable space group: C 2/C
;
_chemical_formula_sum "Si O2"
_cell_formula_units_Z 32
_cell_length_a 27.769055
_cell_length_b 4.773751
_cell_length_c 7.895080
_cell_angle_alpha 90.000000
_cell_angle_beta 100.674874
_cell_angle_gamma 90.000000
_cell_volume 1028.479777
_symmetry_space_group_name_H-M "C 2/C"
_symmetry_group_IT_number 15
_symmetry_cell_setting 'monoclinic'
loop_
_space_group_symop_operation_xyz
x,y,z
-x,y,1/2-z
-x,-y,-z
x,-y,1/2+z
1/2+x,1/2+y,z
1/2-x,1/2+y,1/2-z
1/2-x,1/2-y,-z
1/2+x,1/2-y,1/2+z
loop_
_atom_site_type_symbol
_atom_site_label
_atom_site_fract_x
_atom_site_fract_y
_atom_site_fract_z
Si Si1 0.465377 0.310836 0.088172
Si Si2 0.216641 0.187376 0.736827
Si Si3 0.095550 0.255284 0.247503
Si Si4 0.658089 0.125995 0.501936
O O1 0.500000 0.150162 0.250000
O O2 0.423040 0.492526 0.157165
O O3 0.500000 0.500000 0.000000
O O4 0.441715 0.125104 0.921907
O O5 0.266278 0.374605 0.806372
O O6 0.188532 0.344819 0.565984
O O7 0.185455 0.173671 0.888685
O O8 0.107324 0.515243 0.378136
O O9 0.144572 0.190044 0.162377
#
# Coordination Sequence:
#
# PCOD8146363 Si02
#       4
#     8   8   8   8
#     4   9  20  41  67  95 130 183 235 290 359 437
#     4  11  24  44  69 104 146 196 249 305 371 444
#     4  10  22  41  63  97 135 172 235 295 361 435
#     4  10  24  40  64 102 140 187 241 308 371 434
#
# _framework density 31.113886000000001
#
# number of rings (size 3 to 8) (size 9 to 14) (size 15 to 20)
#    0.000    2.000    0.000    1.500    0.000   16.000 
#    0.000   16.250    0.000    0.000    0.000    0.000 
#    0.000    0.000    0.000    0.000    0.000    0.000 
#
# Total GULP energy -198214.140189 kJ/mol
# GULP energy per Si atom -12388.383762 kJ/mol
# Density = 3.104307 g / cm^3
# Si number density = 31.113886 Si / 1000 Ang^3
#
#
#
# Elastic Constant Matrix: (Units=GPa)
#
#
# Indices 1 2 3 4 5 6 
#
# 1 118.9996 19.0607 51.3575 0.0000 -21.8657 0.0000
# 2 19.0607 102.3440 49.1010 0.0000 -34.2695 0.0000
# 3 51.3575 49.1010 168.3264 0.0000 -0.7392 0.0000
# 4 0.0000 0.0000 0.0000 78.6636 0.0000 -7.2752
# 5 -21.8657 -34.2695 -0.7392 0.0000 87.2895 0.0000
# 6 0.0000 0.0000 0.0000 -7.2752 0.0000 26.2354
#
#
#
# Elastic Compliance Matrix: (Units=1/GPa)
#
#
# Indices 1 2 3 4 5 6 
#
# 1 0.010234 0.000597 -0.003285 0.000000 0.002770 0.000000
# 2 0.000597 0.013415 -0.004072 0.000000 0.005382 0.000000
# 3 -0.003285 -0.004072 0.008120 0.000000 -0.002353 0.000000
# 4 0.000000 0.000000 0.000000 0.013047 0.000000 0.003618
# 5 0.002770 0.005382 -0.002353 0.000000 0.014243 0.000000
# 6 0.000000 0.000000 0.000000 0.003618 0.000000 0.039120
#
#
# Mechanical properties :
#
#
# Convention : Reuss Voigt Hill
#
# Bulk Modulus (GPa) = 54.78871 69.85646 62.32259
# Shear Modulus (GPa) = 42.45119 56.44777 49.44948
#
# Velocity S-wave (km/s) = 3.69776 4.26400 3.99093
# Velocity P-wave (km/s) = 5.98987 6.83688 6.42734
#
# Compressibility (1/GPa) = 0.01825193
#
# Stress axis : x y z
#
# Youngs Moduli (GPa) = 97.71028 74.54105 123.14548
#
# Poissons Ratio (x) = -0.04454 0.40449
# Poissons Ratio (y) = -0.05838 0.50144
# Poissons Ratio (z) = 0.32095 0.30353
#
# Static dielectric constant tensor:
#      x y z
#    x 7.987790 0.000000 0.869760 
#    y 0.000000 4.917320 0.000000 
#    z 0.869760 0.000000 6.814690 
# 
# 
# High freq. dielectric constant tensor:
#      x y z
#    x 2.328420 0.000000 0.001310 
#    y 0.000000 2.236990 0.000000 
#    z 0.001310 0.000000 2.316550 
# 
# From -- ./inp_files/67877.got.cif
#   From: 2010.06.25/outbox.cif.g09.slc.cpg/sg15_34_cif.got.tgz:67877.got - 2010.06.28 07:06:18.
