data_PCOD8146003
_publ_section_title
;
Structure prediction by ZEFSAII (Michael W. Deem and Ramdas Pophale) SiO2 
 PCOD8146003
Probable space group: C 2/C
;
_chemical_formula_sum "Si O2"
_cell_formula_units_Z 52
_cell_length_a 19.951086
_cell_length_b 7.506217
_cell_length_c 29.460376
_cell_angle_alpha 90.000000
_cell_angle_beta 146.205725
_cell_angle_gamma 90.000000
_cell_volume 2453.955874
_symmetry_space_group_name_H-M "C 2/C"
_symmetry_group_IT_number 15
_symmetry_cell_setting 'monoclinic'
loop_
_space_group_symop_operation_xyz
x,y,z
-x,y,1/2-z
-x,-y,-z
x,-y,1/2+z
1/2+x,1/2+y,z
1/2-x,1/2+y,1/2-z
1/2-x,1/2-y,-z
1/2+x,1/2-y,1/2+z
loop_
_atom_site_type_symbol
_atom_site_label
_atom_site_fract_x
_atom_site_fract_y
_atom_site_fract_z
Si Si1 0.186972 0.377845 0.173712
Si Si2 0.261875 0.060314 0.892646
Si Si3 0.680835 0.033109 0.264912
Si Si4 0.000000 0.082928 0.250000
Si Si5 0.937436 0.367539 0.144181
Si Si6 0.913151 0.275531 0.032300
Si Si7 0.769054 0.975970 0.910174
O O1 0.191118 0.501546 0.131138
O O2 0.290587 0.239965 0.218243
O O3 0.233099 0.462166 0.246547
O O4 0.054664 0.297008 0.104069
O O5 0.295613 0.264732 0.924600
O O6 0.118216 0.039929 0.816245
O O7 0.331523 0.930996 0.965613
O O8 0.742378 0.947896 0.344430
O O9 0.537644 0.010618 0.185696
O O10 0.000712 0.206745 0.206174
O O11 0.879914 0.281019 0.066804
O O12 0.843285 0.475619 0.121224
O O13 0.883235 0.082669 0.994111
#
# Coordination Sequence:
#
# PCOD8146003 Si02
#       7
#     8   8   8   4   8   8   8
#     4  10  25  42  66  98 133 175 228 266 333 394
#     4  11  26  42  67 102 129 176 223 276 324 401
#     4  10  22  40  64  97 126 177 220 274 320 389
#     4  12  24  42  74  92 138 172 222 288 322 388
#     4  11  22  43  68  97 131 176 218 274 336 388
#     4  11  24  46  66  96 138 178 212 273 341 389
#     4  11  23  43  68  95 136 169 224 271 333 391
#
# _framework density 21.190275
#
# number of rings (size 3 to 8) (size 9 to 14) (size 15 to 20)
#    0.000    1.231    3.077    0.923   10.769    3.077 
#    5.538    0.000    0.000    0.000    0.000    0.000 
#    0.000    0.000    0.000    0.000    0.000    0.000 
#
# Total GULP energy -322297.330028 kJ/mol
# GULP energy per Si atom -12396.051155 kJ/mol
# Density = 2.114205 g / cm^3
# Si number density = 21.190275 Si / 1000 Ang^3
#
#
#
# Elastic Constant Matrix: (Units=GPa)
#
#
# Indices 1 2 3 4 5 6 
#
# 1 95.7778 31.2044 37.9781 0.0010 -40.5736 -0.0008
# 2 31.2044 89.5893 41.5566 0.0026 -9.4004 -0.0031
# 3 37.9781 41.5566 92.9107 0.0001 -26.3325 0.0001
# 4 0.0010 0.0026 0.0001 16.7778 -0.0001 9.0009
# 5 -40.5736 -9.4004 -26.3325 -0.0001 48.4044 0.0001
# 6 -0.0008 -0.0031 0.0001 9.0009 0.0001 26.3728
#
#
#
# Elastic Compliance Matrix: (Units=1/GPa)
#
#
# Indices 1 2 3 4 5 6 
#
# 1 0.018195 -0.004095 -0.001784 0.000000 0.013486 0.000000
# 2 -0.004095 0.015033 -0.006143 -0.000004 -0.003855 0.000003
# 3 -0.001784 -0.006143 0.015934 0.000002 0.005980 -0.000001
# 4 0.000000 -0.000004 0.000002 0.072962 0.000000 -0.024901
# 5 0.013486 -0.003855 0.005980 0.000000 0.034468 0.000000
# 6 0.000000 0.000003 -0.000001 -0.024901 0.000000 0.046417
#
#
# Mechanical properties :
#
#
# Convention : Reuss Voigt Hill
#
# Bulk Modulus (GPa) = 39.80839 55.52844 47.66841
# Shear Modulus (GPa) = 21.23813 29.48024 25.35919
#
# Velocity S-wave (km/s) = 3.16928 3.73395 3.46314
# Velocity P-wave (km/s) = 5.67621 6.69712 6.20769
#
# Compressibility (1/GPa) = 0.02512033
#
# Stress axis : x y z
#
# Youngs Moduli (GPa) = 54.95943 66.51959 62.75696
#
# Poissons Ratio (x) = 0.27240 0.11194
# Poissons Ratio (y) = 0.22506 0.38549
# Poissons Ratio (z) = 0.09803 0.40860
#
# Static dielectric constant tensor:
#      x y z
#    x 4.237800 0.000000 -0.395270 
#    y 0.000000 3.668190 0.000000 
#    z -0.395270 0.000000 4.032430 
# 
# 
# High freq. dielectric constant tensor:
#      x y z
#    x 1.852400 0.000000 -0.013150 
#    y 0.000000 1.815390 0.000000 
#    z -0.013150 0.000000 1.837820 
# 
# From -- ./inp_files/317393.got.cif
#   From: 2010.06.25/outbox.cif.g09.slc.cpg/sg15_159_cif.got.tgz:317393.got - 2010.06.28 07:06:18.
