data_PCOD8146380
_publ_section_title
;
Structure prediction by ZEFSAII (Michael W. Deem and Ramdas Pophale) SiO2 
 PCOD8146380
Probable space group: C 2/C
;
_chemical_formula_sum "Si O2"
_cell_formula_units_Z 48
_cell_length_a 12.411447
_cell_length_b 12.550412
_cell_length_c 19.791711
_cell_angle_alpha 90.000000
_cell_angle_beta 50.926669
_cell_angle_gamma 90.000000
_cell_volume 2393.401925
_symmetry_space_group_name_H-M "C 2/C"
_symmetry_group_IT_number 15
_symmetry_cell_setting 'monoclinic'
loop_
_space_group_symop_operation_xyz
x,y,z
-x,y,1/2-z
-x,-y,-z
x,-y,1/2+z
1/2+x,1/2+y,z
1/2-x,1/2+y,1/2-z
1/2-x,1/2-y,-z
1/2+x,1/2-y,1/2+z
loop_
_atom_site_type_symbol
_atom_site_label
_atom_site_fract_x
_atom_site_fract_y
_atom_site_fract_z
Si Si1 0.502803 0.505990 0.419165
Si Si2 0.000000 0.328715 0.250000
Si Si3 0.088287 0.579853 0.920402
Si Si4 0.500000 0.180641 0.250000
Si Si5 0.318209 0.999418 0.758284
Si Si6 0.327804 0.324475 0.416676
Si Si7 0.410374 0.738621 0.423185
O O1 0.500000 0.500000 0.500000
O O2 0.654143 0.498771 0.327495
O O3 0.407817 0.414096 0.426373
O O4 0.442110 0.618316 0.424953
O O5 0.129802 0.401456 0.218572
O O6 0.052326 0.255156 0.169379
O O7 0.135453 0.512031 0.837169
O O8 0.221834 0.620350 0.907429
O O9 0.995763 0.681245 0.936914
O O10 0.000000 0.500000 0.000000
O O11 0.621030 0.109923 0.235574
O O12 0.437141 0.253864 0.332892
O O13 0.250000 0.250000 0.500000
O O14 0.250000 0.750000 0.500000
#
# Coordination Sequence:
#
# PCOD8146380 Si02
#       7
#     8   4   8   4   8   8   8
#     4  12  25  41  63  90 123 162 208 259 312 375
#     4   9  22  41  62  88 122 159 200 247 304 366
#     4  11  23  41  64  93 127 166 210 260 316 377
#     4  11  22  41  66  94 126 163 206 259 316 380
#     4  10  22  41  64  91 124 161 203 253 310 373
#     4  12  25  42  63  92 126 166 212 262 318 380
#     4  11  23  40  64  92 124 163 206 256 310 370
#
# _framework density 20.055136000000001
#
# number of rings (size 3 to 8) (size 9 to 14) (size 15 to 20)
#    0.000    1.000    0.000    7.000    0.000    7.333 
#    0.000    0.000    0.000    0.000    0.000    0.000 
#    0.000    0.000    0.000    0.000    0.000    0.000 
#
# Total GULP energy -297720.153029 kJ/mol
# GULP energy per Si atom -12405.006376 kJ/mol
# Density = 2.000949 g / cm^3
# Si number density = 20.055136 Si / 1000 Ang^3
#
#
#
# Elastic Constant Matrix: (Units=GPa)
#
#
# Indices 1 2 3 4 5 6 
#
# 1 148.6386 81.8535 66.7743 0.0000 -1.2877 0.0000
# 2 81.8535 172.3350 97.1988 0.0000 7.7765 0.0000
# 3 66.7743 97.1988 134.4495 0.0000 -0.6638 0.0000
# 4 0.0000 0.0000 0.0000 11.1124 0.0000 4.0585
# 5 -1.2877 7.7765 -0.6638 0.0000 44.6755 0.0000
# 6 0.0000 0.0000 0.0000 4.0585 0.0000 39.4785
#
#
#
# Elastic Compliance Matrix: (Units=1/GPa)
#
#
# Indices 1 2 3 4 5 6 
#
# 1 0.009604 -0.003225 -0.002435 0.000000 0.000802 0.000000
# 2 -0.003225 0.011029 -0.006382 0.000000 -0.002108 0.000000
# 3 -0.002435 -0.006382 0.013267 0.000000 0.001238 0.000000
# 4 0.000000 0.000000 0.000000 0.093500 0.000000 -0.009612
# 5 0.000802 -0.002108 0.001238 0.000000 0.022792 0.000000
# 6 0.000000 0.000000 0.000000 -0.009612 0.000000 0.026318
#
#
# Mechanical properties :
#
#
# Convention : Reuss Voigt Hill
#
# Bulk Modulus (GPa) = 101.86352 105.23070 103.54711
# Shear Modulus (GPa) = 24.52588 33.02637 28.77613
#
# Velocity S-wave (km/s) = 3.50083 4.06245 3.79205
# Velocity P-wave (km/s) = 8.20019 8.63651 8.42117
#
# Compressibility (1/GPa) = 0.00981706
#
# Stress axis : x y z
#
# Youngs Moduli (GPa) = 104.12062 90.67037 75.37515
#
# Poissons Ratio (x) = 0.29238 0.18352
# Poissons Ratio (y) = 0.33575 0.48106
# Poissons Ratio (z) = 0.25351 0.57867
#
# Static dielectric constant tensor:
#      x y z
#    x 3.947750 0.000000 0.141360 
#    y 0.000000 3.667200 0.000000 
#    z 0.141360 0.000000 3.896280 
# 
# 
# High freq. dielectric constant tensor:
#      x y z
#    x 1.799200 0.000000 0.001450 
#    y 0.000000 1.801630 0.000000 
#    z 0.001450 0.000000 1.803860 
# 
# From -- ./inp_files/237454.got.cif
#   From: 2010.06.25/outbox.cif.g09.slc.cpg/sg15_119_cif.got.tgz:237454.got - 2010.06.28 07:06:18.
