data_PCOD8146756
_publ_section_title
;
Structure prediction by ZEFSAII (Michael W. Deem and Ramdas Pophale) SiO2 
 PCOD8146756
Probable space group: C 2/C
;
_chemical_formula_sum "Si O2"
_cell_formula_units_Z 44
_cell_length_a 13.639324
_cell_length_b 4.668520
_cell_length_c 27.127177
_cell_angle_alpha 90.000000
_cell_angle_beta 78.819929
_cell_angle_gamma 90.000000
_cell_volume 1694.555151
_symmetry_space_group_name_H-M "C 2/C"
_symmetry_group_IT_number 15
_symmetry_cell_setting 'monoclinic'
loop_
_space_group_symop_operation_xyz
x,y,z
-x,y,1/2-z
-x,-y,-z
x,-y,1/2+z
1/2+x,1/2+y,z
1/2-x,1/2+y,1/2-z
1/2-x,1/2-y,-z
1/2+x,1/2-y,1/2+z
loop_
_atom_site_type_symbol
_atom_site_label
_atom_site_fract_x
_atom_site_fract_y
_atom_site_fract_z
Si Si1 0.078448 0.986316 0.559179
Si Si2 0.759073 0.789004 0.574458
Si Si3 0.641426 0.551679 0.155997
Si Si4 0.000000 0.132204 0.250000
Si Si5 0.304482 0.914271 0.264812
Si Si6 0.891357 0.290779 0.543771
O O1 0.176151 0.193384 0.541684
O O2 0.980124 0.185536 0.570365
O O3 0.089529 0.823784 0.610910
O O4 0.074219 0.752058 0.516194
O O5 0.714077 0.711592 0.633289
O O6 0.786992 0.122887 0.566608
O O7 0.865129 0.621949 0.555838
O O8 0.552811 0.440723 0.201881
O O9 0.703413 0.805133 0.177414
O O10 0.084530 0.340702 0.266090
O O11 0.220631 0.750092 0.238892
#
# Coordination Sequence:
#
# PCOD8146756 Si02
#       6
#     8   8   8   4   8   8
#     4   9  22  40  61  99 122 169 207 248 314 370
#     4  10  23  40  61  96 123 167 207 254 304 370
#     4   8  21  42  60  96 122 166 205 260 307 367
#     4   8  20  44  58  96 120 162 202 276 280 380
#     4  10  22  42  64  86 120 162 203 254 314 356
#     4  11  22  41  67  88 134 164 201 258 307 368
#
# _framework density 25.965517999999999
#
# number of rings (size 3 to 8) (size 9 to 14) (size 15 to 20)
#    2.182    0.364    0.000    1.091    0.000    9.455 
#    0.000    0.000    0.000    0.000    0.000    0.000 
#    0.000    0.000    0.000    0.000    0.000    0.000 
#
# Total GULP energy -272596.003643 kJ/mol
# GULP energy per Si atom -12390.727438 kJ/mol
# Density = 2.590642 g / cm^3
# Si number density = 25.965518 Si / 1000 Ang^3
#
#
#
# Elastic Constant Matrix: (Units=GPa)
#
#
# Indices 1 2 3 4 5 6 
#
# 1 109.9333 -2.5017 22.6858 0.0009 -2.7105 0.0008
# 2 -2.5017 56.4452 1.3249 0.0033 -2.5400 0.0023
# 3 22.6858 1.3249 109.6561 0.0011 -6.2029 0.0012
# 4 0.0009 0.0033 0.0011 9.4204 0.0005 2.1673
# 5 -2.7105 -2.5400 -6.2029 0.0005 50.2261 0.0006
# 6 0.0008 0.0023 0.0012 2.1673 0.0006 11.9683
#
#
#
# Elastic Compliance Matrix: (Units=1/GPa)
#
#
# Indices 1 2 3 4 5 6 
#
# 1 0.009519 0.000481 -0.001958 -0.000001 0.000296 0.000000
# 2 0.000481 0.017784 -0.000264 -0.000006 0.000893 -0.000002
# 3 -0.001958 -0.000264 0.009588 -0.000001 0.001065 -0.000001
# 4 -0.000001 -0.000006 -0.000001 0.110767 -0.000001 -0.020058
# 5 0.000296 0.000893 0.001065 -0.000001 0.020103 -0.000001
# 6 0.000000 -0.000002 -0.000001 -0.020058 -0.000001 0.087186
#
#
# Mechanical properties :
#
#
# Convention : Reuss Voigt Hill
#
# Bulk Modulus (GPa) = 29.93238 35.45029 32.69133
# Shear Modulus (GPa) = 18.54842 31.29134 24.91988
#
# Velocity S-wave (km/s) = 2.67563 3.47524 3.10131
# Velocity P-wave (km/s) = 4.59327 5.45761 5.04399
#
# Compressibility (1/GPa) = 0.03340864
#
# Stress axis : x y z
#
# Youngs Moduli (GPa) = 105.05528 56.23039 104.29713
#
# Poissons Ratio (x) = -0.02706 0.20425
# Poissons Ratio (y) = -0.05055 0.02753
# Poissons Ratio (z) = 0.20573 0.01484
#
# Static dielectric constant tensor:
#      x y z
#    x 4.636080 0.000000 0.026670 
#    y 0.000000 3.965220 0.000000 
#    z 0.026670 0.000000 4.352440 
# 
# 
# High freq. dielectric constant tensor:
#      x y z
#    x 2.046770 0.000000 -0.000190 
#    y 0.000000 2.012780 0.000000 
#    z -0.000190 0.000000 2.026050 
# 
# From -- ./inp_files/294233.got.cif
#   From: 2010.06.25/outbox.cif.g09.slc.cpg/sg15_148_cif.got.tgz:294233.got - 2010.06.28 07:06:18.
