data_PCOD8146215
_publ_section_title
;
Structure prediction by ZEFSAII (Michael W. Deem and Ramdas Pophale) SiO2 
 PCOD8146215
Probable space group: C 2/C
;
_chemical_formula_sum "Si O2"
_cell_formula_units_Z 44
_cell_length_a 8.387405
_cell_length_b 17.352449
_cell_length_c 15.019830
_cell_angle_alpha 90.000000
_cell_angle_beta 120.708286
_cell_angle_gamma 90.000000
_cell_volume 1879.489712
_symmetry_space_group_name_H-M "C 2/C"
_symmetry_group_IT_number 15
_symmetry_cell_setting 'monoclinic'
loop_
_space_group_symop_operation_xyz
x,y,z
-x,y,1/2-z
-x,-y,-z
x,-y,1/2+z
1/2+x,1/2+y,z
1/2-x,1/2+y,1/2-z
1/2-x,1/2-y,-z
1/2+x,1/2-y,1/2+z
loop_
_atom_site_type_symbol
_atom_site_label
_atom_site_fract_x
_atom_site_fract_y
_atom_site_fract_z
Si Si1 0.037790 0.564572 0.856530
Si Si2 0.183659 0.405829 0.927912
Si Si3 0.141713 0.240950 0.109992
Si Si4 0.681305 0.400674 0.354166
Si Si5 0.000000 0.794026 0.750000
Si Si6 0.645149 0.840488 0.548716
O O1 0.137101 0.483420 0.861102
O O2 0.000000 0.605660 0.750000
O O3 0.843879 0.552681 0.851969
O O4 0.163724 0.615266 0.959136
O O5 0.267290 0.341381 0.885784
O O6 0.994729 0.379280 0.921720
O O7 0.333048 0.427934 0.047302
O O8 0.285129 0.308637 0.127641
O O9 0.111908 0.253181 0.207524
O O10 0.945773 0.256116 0.001709
O O11 0.500000 0.422339 0.250000
O O12 0.848598 0.842136 0.649962
#
# Coordination Sequence:
#
# PCOD8146215 Si02
#       6
#     8   8   8   8   4   8
#     4  10  23  44  68  92 139 183 222 280 339 410
#     4  10  22  45  64  98 132 179 232 279 342 406
#     4  10  24  40  69  97 134 178 226 291 330 415
#     4  10  22  40  69  96 132 174 231 278 342 407
#     4  12  26  38  68 100 142 168 228 288 338 400
#     4  10  23  44  65  99 138 176 228 276 352 394
#
# _framework density 23.410610999999999
#
# number of rings (size 3 to 8) (size 9 to 14) (size 15 to 20)
#    0.000    2.182    0.000    4.909   12.727    1.455 
#    6.545    1.818    0.000    0.000    0.000    0.000 
#    0.000    0.000    0.000    0.000    0.000    0.000 
#
# Total GULP energy -272557.817364 kJ/mol
# GULP energy per Si atom -12388.991698 kJ/mol
# Density = 2.335733 g / cm^3
# Si number density = 23.410611 Si / 1000 Ang^3
#
#
#
# Elastic Constant Matrix: (Units=GPa)
#
#
# Indices 1 2 3 4 5 6 
#
# 1 51.9786 27.3997 42.3893 0.0000 0.3274 0.0000
# 2 27.3997 82.0281 15.7975 0.0000 15.5600 0.0000
# 3 42.3893 15.7975 164.1495 0.0000 17.7400 0.0000
# 4 0.0000 0.0000 0.0000 24.9871 0.0000 -1.4900
# 5 0.3274 15.5600 17.7400 0.0000 49.9487 0.0000
# 6 0.0000 0.0000 0.0000 -1.4900 0.0000 27.0241
#
#
#
# Elastic Compliance Matrix: (Units=1/GPa)
#
#
# Indices 1 2 3 4 5 6 
#
# 1 0.030506 -0.009787 -0.007533 0.000000 0.005524 0.000000
# 2 -0.009787 0.016210 0.001566 0.000000 -0.005542 0.000000
# 3 -0.007533 0.001566 0.008251 0.000000 -0.003369 0.000000
# 4 0.000000 0.000000 0.000000 0.040153 0.000000 0.002214
# 5 0.005524 -0.005542 -0.003369 0.000000 0.022907 0.000000
# 6 0.000000 0.000000 0.000000 0.002214 0.000000 0.037126
#
#
# Mechanical properties :
#
#
# Convention : Reuss Voigt Hill
#
# Bulk Modulus (GPa) = 42.62750 52.14769 47.38760
# Shear Modulus (GPa) = 25.70964 34.56329 30.13646
#
# Velocity S-wave (km/s) = 3.31751 3.84656 3.59179
# Velocity P-wave (km/s) = 5.73783 6.48472 6.12267
#
# Compressibility (1/GPa) = 0.02345904
#
# Stress axis : x y z
#
# Youngs Moduli (GPa) = 32.78024 61.69150 121.20304
#
# Poissons Ratio (x) = 0.60378 0.91301
# Poissons Ratio (y) = 0.32082 -0.18984
# Poissons Ratio (z) = 0.24693 -0.09663
#
# Static dielectric constant tensor:
#      x y z
#    x 3.993320 0.000000 -0.034660 
#    y 0.000000 3.936170 0.000000 
#    z -0.034660 0.000000 4.540320 
# 
# 
# High freq. dielectric constant tensor:
#      x y z
#    x 1.907580 0.000000 -0.009450 
#    y 0.000000 1.904210 0.000000 
#    z -0.009450 0.000000 1.944390 
# 
# From -- ./inp_files/134941.got.cif
#   From: 2010.06.25/outbox.cif.g09.slc.cpg/sg15_68_cif.got.tgz:134941.got - 2010.06.28 07:06:18.
