data_PCOD8146382
_publ_section_title
;
Structure prediction by ZEFSAII (Michael W. Deem and Ramdas Pophale) SiO2 
 PCOD8146382
Probable space group: C 2/C
;
_chemical_formula_sum "Si O2"
_cell_formula_units_Z 48
_cell_length_a 7.521022
_cell_length_b 26.816643
_cell_length_c 13.367865
_cell_angle_alpha 90.000000
_cell_angle_beta 47.481083
_cell_angle_gamma 90.000000
_cell_volume 1987.205452
_symmetry_space_group_name_H-M "C 2/C"
_symmetry_group_IT_number 15
_symmetry_cell_setting 'monoclinic'
loop_
_space_group_symop_operation_xyz
x,y,z
-x,y,1/2-z
-x,-y,-z
x,-y,1/2+z
1/2+x,1/2+y,z
1/2-x,1/2+y,1/2-z
1/2-x,1/2-y,-z
1/2+x,1/2-y,1/2+z
loop_
_atom_site_type_symbol
_atom_site_label
_atom_site_fract_x
_atom_site_fract_y
_atom_site_fract_z
Si Si1 0.769880 0.282466 0.691968
Si Si2 0.950421 0.618936 0.453806
Si Si3 0.747145 0.063713 0.790255
Si Si4 0.966942 0.106906 0.524708
Si Si5 0.816709 0.048037 0.230551
Si Si6 0.059285 0.213453 0.018349
O O1 0.500000 0.286942 0.750000
O O2 0.917972 0.232321 0.605259
O O3 0.923643 0.327715 0.588604
O O4 0.715071 0.281126 0.832534
O O5 0.948716 0.590741 0.563360
O O6 0.685806 0.626174 0.510208
O O7 0.096685 0.586043 0.319402
O O8 0.000000 0.066004 0.750000
O O9 0.753551 0.090084 0.679794
O O10 0.692712 0.006068 0.785978
O O11 0.040690 0.060021 0.426718
O O12 0.871606 0.154909 0.499070
O O13 0.000000 0.058075 0.250000
O O14 0.250000 0.250000 0.000000
#
# Coordination Sequence:
#
# PCOD8146382 Si02
#       6
#     8   8   8   8   8   8
#     4  10  22  41  64  91 129 169 213 268 330 392
#     4  11  22  40  68  93 133 169 218 269 334 384
#     4   9  22  41  63  98 134 171 218 274 324 390
#     4  11  23  42  66  94 130 174 217 275 326 389
#     4  11  22  40  67  94 132 176 220 265 331 392
#     4  10  23  40  63  91 127 166 216 269 325 392
#
# _framework density 24.154522
#
# number of rings (size 3 to 8) (size 9 to 14) (size 15 to 20)
#    0.000    1.667    1.667    2.000    4.667    0.667 
#    0.000    2.500    0.000    0.000    0.000    0.000 
#    0.000    0.000    0.000    0.000    0.000    0.000 
#
# Total GULP energy -297412.213843 kJ/mol
# GULP energy per Si atom -12392.175577 kJ/mol
# Density = 2.409954 g / cm^3
# Si number density = 24.154522 Si / 1000 Ang^3
#
#
#
# Elastic Constant Matrix: (Units=GPa)
#
#
# Indices 1 2 3 4 5 6 
#
# 1 22.6069 12.5674 15.3199 0.0000 1.0266 0.0000
# 2 12.5674 133.7002 47.5233 0.0000 1.1508 0.0000
# 3 15.3199 47.5233 135.8563 0.0000 23.9651 0.0000
# 4 0.0000 0.0000 0.0000 55.6805 0.0000 0.9699
# 5 1.0266 1.1508 23.9651 0.0000 35.0003 0.0000
# 6 0.0000 0.0000 0.0000 0.9699 0.0000 29.1020
#
#
#
# Elastic Compliance Matrix: (Units=1/GPa)
#
#
# Indices 1 2 3 4 5 6 
#
# 1 0.049054 -0.002897 -0.004869 0.000000 0.001990 0.000000
# 2 -0.002897 0.008838 -0.003104 0.000000 0.001919 0.000000
# 3 -0.004869 -0.003104 0.010182 0.000000 -0.006727 0.000000
# 4 0.000000 0.000000 0.000000 0.017970 0.000000 -0.000599
# 5 0.001990 0.001919 -0.006727 0.000000 0.033056 0.000000
# 6 0.000000 0.000000 0.000000 -0.000599 0.000000 0.034382
#
#
# Mechanical properties :
#
#
# Convention : Reuss Voigt Hill
#
# Bulk Modulus (GPa) = 21.58224 49.22051 35.40137
# Shear Modulus (GPa) = 26.22368 38.40675 32.31521
#
# Velocity S-wave (km/s) = 3.29852 3.99186 3.66164
# Velocity P-wave (km/s) = 4.84370 6.45509 5.70656
#
# Compressibility (1/GPa) = 0.04633440
#
# Stress axis : x y z
#
# Youngs Moduli (GPa) = 20.38561 113.14266 98.21173
#
# Poissons Ratio (x) = 0.32781 0.47822
# Poissons Ratio (y) = 0.05906 0.30481
# Poissons Ratio (z) = 0.09926 0.35115
#
# Static dielectric constant tensor:
#      x y z
#    x 4.276890 0.000000 1.111910 
#    y 0.000000 4.526190 0.000000 
#    z 1.111910 0.000000 7.177540 
# 
# 
# High freq. dielectric constant tensor:
#      x y z
#    x 1.931010 0.000000 0.011360 
#    y 0.000000 1.961060 0.000000 
#    z 0.011360 0.000000 1.980770 
# 
# From -- ./inp_files/138911.got.cif
#   From: 2010.06.25/outbox.cif.g09.slc.cpg/sg15_70_cif.got.tgz:138911.got - 2010.06.28 07:06:18.
