data_PCOD8146222
_publ_section_title
;
Structure prediction by ZEFSAII (Michael W. Deem and Ramdas Pophale) SiO2 
 PCOD8146222
Probable space group: C 2/C
;
_chemical_formula_sum "Si O2"
_cell_formula_units_Z 60
_cell_length_a 25.133337
_cell_length_b 8.496482
_cell_length_c 14.424081
_cell_angle_alpha 90.000000
_cell_angle_beta 66.419311
_cell_angle_gamma 90.000000
_cell_volume 2822.986402
_symmetry_space_group_name_H-M "C 2/C"
_symmetry_group_IT_number 15
_symmetry_cell_setting 'monoclinic'
loop_
_space_group_symop_operation_xyz
x,y,z
-x,y,1/2-z
-x,-y,-z
x,-y,1/2+z
1/2+x,1/2+y,z
1/2-x,1/2+y,1/2-z
1/2-x,1/2-y,-z
1/2+x,1/2-y,1/2+z
loop_
_atom_site_type_symbol
_atom_site_label
_atom_site_fract_x
_atom_site_fract_y
_atom_site_fract_z
Si Si1 0.610001 0.433800 0.631418
Si Si2 0.090261 0.128844 0.460063
Si Si3 0.185045 0.643822 0.957392
Si Si4 0.372390 0.318324 0.127468
Si Si5 0.191397 0.284561 0.986730
Si Si6 0.000000 0.228002 0.250000
Si Si7 0.014129 0.331348 0.033455
Si Si8 0.316063 0.295265 0.350013
O O1 0.587607 0.532836 0.558250
O O2 0.638098 0.264119 0.589550
O O3 0.554207 0.388941 0.731318
O O4 0.660530 0.529686 0.647163
O O5 0.136838 0.271437 0.427975
O O6 0.027867 0.200052 0.480840
O O7 0.107568 0.999369 0.369911
O O8 0.183111 0.457818 0.952111
O O9 0.247429 0.704029 0.879141
O O10 0.171459 0.680428 0.073930
O O11 0.315464 0.326137 0.099671
O O12 0.352348 0.234304 0.236345
O O13 0.421334 0.213278 0.043542
O O14 0.250000 0.250000 0.000000
O O15 0.990743 0.332628 0.350144
O O16 0.000000 0.500000 0.000000
#
# Coordination Sequence:
#
# PCOD8146222 Si02
#       8
#     8   8   8   8   8   4   8   8
#     4  10  22  40  69  99 127 178 220 269 335 399
#     4  10  22  42  69  95 133 172 217 278 324 399
#     4  10  22  41  65  96 134 172 219 269 328 393
#     4  11  24  43  64  97 131 170 225 270 331 398
#     4  11  21  42  65  90 134 173 217 272 326 392
#     4  12  24  44  72  94 136 174 226 272 338 404
#     4  12  26  46  68  97 136 172 225 280 334 404
#     4  10  22  41  65  98 131 169 219 272 329 391
#
# _framework density 21.254087999999999
#
# number of rings (size 3 to 8) (size 9 to 14) (size 15 to 20)
#    0.000    1.333    4.000    2.000    3.733    2.133 
#    4.800    0.000    0.000    0.000    0.000    0.000 
#    0.000    0.000    0.000    0.000    0.000    0.000 
#
# Total GULP energy -371769.981456 kJ/mol
# GULP energy per Si atom -12392.332715 kJ/mol
# Density = 2.120571 g / cm^3
# Si number density = 21.254088 Si / 1000 Ang^3
#
#
#
# Elastic Constant Matrix: (Units=GPa)
#
#
# Indices 1 2 3 4 5 6 
#
# 1 100.6761 22.3801 39.5882 0.0000 -2.0898 0.0000
# 2 22.3801 92.0859 19.4464 0.0000 -1.6038 0.0000
# 3 39.5882 19.4464 135.1160 0.0000 -11.0179 0.0000
# 4 0.0000 0.0000 0.0000 22.4449 0.0000 1.4400
# 5 -2.0898 -1.6038 -11.0179 0.0000 22.1484 0.0000
# 6 0.0000 0.0000 0.0000 1.4400 0.0000 35.8982
#
#
#
# Elastic Compliance Matrix: (Units=1/GPa)
#
#
# Indices 1 2 3 4 5 6 
#
# 1 0.011642 -0.002175 -0.003149 0.000000 -0.000626 0.000000
# 2 -0.002175 0.011606 -0.001023 0.000000 0.000126 0.000000
# 3 -0.003149 -0.001023 0.008797 0.000000 0.004005 0.000000
# 4 0.000000 0.000000 0.000000 0.044668 0.000000 -0.001792
# 5 -0.000626 0.000126 0.004005 0.000000 0.047093 0.000000
# 6 0.000000 0.000000 0.000000 -0.001792 0.000000 0.027928
#
#
# Mechanical properties :
#
#
# Convention : Reuss Voigt Hill
#
# Bulk Modulus (GPa) = 51.67542 54.52306 53.09924
# Shear Modulus (GPa) = 29.26045 32.52918 30.89482
#
# Velocity S-wave (km/s) = 3.71441 3.91639 3.81674
# Velocity P-wave (km/s) = 6.53925 6.79408 6.66788
#
# Compressibility (1/GPa) = 0.01935156
#
# Stress axis : x y z
#
# Youngs Moduli (GPa) = 85.89867 86.16029 113.66934
#
# Poissons Ratio (x) = 0.18742 0.35793
# Poissons Ratio (y) = 0.18685 0.11626
# Poissons Ratio (z) = 0.27048 0.08812
#
# Static dielectric constant tensor:
#      x y z
#    x 4.067840 0.000000 -0.001890 
#    y 0.000000 3.801210 0.000000 
#    z -0.001890 0.000000 3.817110 
# 
# 
# High freq. dielectric constant tensor:
#      x y z
#    x 1.849980 0.000000 -0.001110 
#    y 0.000000 1.826600 0.000000 
#    z -0.001110 0.000000 1.822450 
# 
# From -- ./inp_files/172350.got.cif
#   From: 2010.06.25/outbox.cif.g09.slc.cpg/sg15_87_cif.got.tgz:172350.got - 2010.06.28 07:06:18.
