data_PCOD8146312
_publ_section_title
;
Structure prediction by ZEFSAII (Michael W. Deem and Ramdas Pophale) SiO2 
 PCOD8146312
Probable space group: C 2/C
;
_chemical_formula_sum "Si O2"
_cell_formula_units_Z 32
_cell_length_a 10.445083
_cell_length_b 26.093430
_cell_length_c 5.438705
_cell_angle_alpha 90.000000
_cell_angle_beta 112.468808
_cell_angle_gamma 90.000000
_cell_volume 1369.783003
_symmetry_space_group_name_H-M "C 2/C"
_symmetry_group_IT_number 15
_symmetry_cell_setting 'monoclinic'
loop_
_space_group_symop_operation_xyz
x,y,z
-x,y,1/2-z
-x,-y,-z
x,-y,1/2+z
1/2+x,1/2+y,z
1/2-x,1/2+y,1/2-z
1/2-x,1/2-y,-z
1/2+x,1/2-y,1/2+z
loop_
_atom_site_type_symbol
_atom_site_label
_atom_site_fract_x
_atom_site_fract_y
_atom_site_fract_z
Si Si1 0.844003 0.479194 0.380785
Si Si2 0.137727 0.730851 0.728465
Si Si3 0.345348 0.867460 0.544161
Si Si4 0.421565 0.340665 0.947539
O O1 0.770147 0.499865 0.577769
O O2 0.841324 0.417778 0.372309
O O3 0.000000 0.500000 0.500000
O O4 0.204741 0.683304 0.635629
O O5 0.095565 0.779311 0.531265
O O6 0.000000 0.707961 0.750000
O O7 0.250000 0.750000 0.000000
O O8 0.500000 0.858879 0.750000
O O9 0.228891 0.869636 0.674506
O O10 0.500000 0.353982 0.750000
O O11 0.500000 0.361282 0.250000
#
# Coordination Sequence:
#
# PCOD8146312 Si02
#       4
#     8   8   8   8
#     4  10  22  41  62 102 140 163 218 305 354 386
#     4  11  23  39  64 102 142 180 232 282 337 422
#     4  12  23  39  74 102 131 188 240 287 351 406
#     4  11  25  46  62  94 144 184 220 278 341 423
#
# _framework density 23.361363999999998
#
# number of rings (size 3 to 8) (size 9 to 14) (size 15 to 20)
#    0.000    1.000    2.500    6.000    3.500    4.000 
#    0.000    0.000    0.000    4.500    0.000    0.000 
#    0.000    0.000    0.000    0.000    0.000    0.000 
#
# Total GULP energy -198304.173066 kJ/mol
# GULP energy per Si atom -12394.010817 kJ/mol
# Density = 2.330819 g / cm^3
# Si number density = 23.361364 Si / 1000 Ang^3
#
#
#
# Elastic Constant Matrix: (Units=GPa)
#
#
# Indices 1 2 3 4 5 6 
#
# 1 154.2706 57.2643 62.7844 0.0000 -6.0991 0.0000
# 2 57.2643 69.6388 28.6378 0.0000 -12.3753 0.0000
# 3 62.7844 28.6378 151.7988 0.0000 -21.4745 0.0000
# 4 0.0000 0.0000 0.0000 22.5225 0.0000 -7.7089
# 5 -6.0991 -12.3753 -21.4745 0.0000 37.1470 0.0000
# 6 0.0000 0.0000 0.0000 -7.7089 0.0000 20.7420
#
#
#
# Elastic Compliance Matrix: (Units=1/GPa)
#
#
# Indices 1 2 3 4 5 6 
#
# 1 0.010648 -0.007891 -0.003311 0.000000 -0.002795 0.000000
# 2 -0.007891 0.021924 -0.000024 0.000000 0.005994 0.000000
# 3 -0.003311 -0.000024 0.008586 0.000000 0.004412 0.000000
# 4 0.000000 0.000000 0.000000 0.050872 0.000000 0.018907
# 5 -0.002795 0.005994 0.004412 0.000000 0.031009 0.000000
# 6 0.000000 0.000000 0.000000 0.018907 0.000000 0.055238
#
#
# Mechanical properties :
#
#
# Convention : Reuss Voigt Hill
#
# Bulk Modulus (GPa) = 53.46043 74.78678 64.12361
# Shear Modulus (GPa) = 24.15881 31.21707 27.68794
#
# Velocity S-wave (km/s) = 3.21929 3.65947 3.44641
# Velocity P-wave (km/s) = 6.06236 7.06669 6.58370
#
# Compressibility (1/GPa) = 0.01870542
#
# Stress axis : x y z
#
# Youngs Moduli (GPa) = 93.91281 45.61215 116.47294
#
# Poissons Ratio (x) = 0.35993 0.38561
# Poissons Ratio (y) = 0.74108 0.00283
# Poissons Ratio (z) = 0.31092 0.00111
#
# Static dielectric constant tensor:
#      x y z
#    x 5.092210 0.000000 -0.408990 
#    y 0.000000 4.210180 0.000000 
#    z -0.408990 0.000000 4.631130 
# 
# 
# High freq. dielectric constant tensor:
#      x y z
#    x 1.925890 0.000000 -0.016470 
#    y 0.000000 1.910910 0.000000 
#    z -0.016470 0.000000 1.911650 
# 
# From -- ./inp_files/4769.got.cif
#   From: 2010.06.25/outbox.cif.g09.slc.cpg/sg15_3_cif.got.tgz:4769.got - 2010.06.28 07:06:18.
