data_PCOD8146007
_publ_section_title
;
Structure prediction by ZEFSAII (Michael W. Deem and Ramdas Pophale) SiO2 
 PCOD8146007
Probable space group: C 2/C
;
_chemical_formula_sum "Si O2"
_cell_formula_units_Z 52
_cell_length_a 5.070310
_cell_length_b 24.898690
_cell_length_c 18.914069
_cell_angle_alpha 90.000000
_cell_angle_beta 70.348771
_cell_angle_gamma 90.000000
_cell_volume 2248.717520
_symmetry_space_group_name_H-M "C 2/C"
_symmetry_group_IT_number 15
_symmetry_cell_setting 'monoclinic'
loop_
_space_group_symop_operation_xyz
x,y,z
-x,y,1/2-z
-x,-y,-z
x,-y,1/2+z
1/2+x,1/2+y,z
1/2-x,1/2+y,1/2-z
1/2-x,1/2-y,-z
1/2+x,1/2-y,1/2+z
loop_
_atom_site_type_symbol
_atom_site_label
_atom_site_fract_x
_atom_site_fract_y
_atom_site_fract_z
Si Si1 0.407498 0.230367 0.336599
Si Si2 0.000000 0.881232 0.750000
Si Si3 0.684096 0.604181 0.942598
Si Si4 0.128713 0.127757 0.390013
Si Si5 0.682842 0.966380 0.428879
Si Si6 0.900525 0.701029 0.836072
Si Si7 0.458052 0.961791 0.681331
O O1 0.500000 0.211690 0.250000
O O2 0.331305 0.177562 0.389612
O O3 0.682026 0.250945 0.350549
O O4 0.165726 0.276464 0.356530
O O5 0.990737 0.851747 0.827377
O O6 0.281169 0.914112 0.730406
O O7 0.475621 0.557385 0.931561
O O8 0.718954 0.653917 0.887666
O O9 0.997214 0.582312 0.918495
O O10 0.600328 0.623756 0.027970
O O11 0.269522 0.067846 0.377174
O O12 0.500000 0.000000 0.500000
O O13 0.729963 0.006023 0.358175
O O14 0.000000 0.680899 0.750000
O O15 0.500000 0.997565 0.750000
#
# Coordination Sequence:
#
# PCOD8146007 Si02
#       7
#     8   4   8   8   8   8   8
#     4  10  22  41  71  97 133 177 220 276 345 399
#     4  10  22  40  64  98 140 166 226 286 342 400
#     4  12  27  44  71  97 140 181 230 280 344 404
#     4  11  24  39  68 103 135 177 222 284 351 408
#     4  12  25  45  69  96 136 186 222 279 351 404
#     4  10  24  46  66  98 135 178 230 279 326 405
#     4  10  23  40  63  99 135 173 232 287 336 411
#
# _framework density 23.124293999999999
#
# number of rings (size 3 to 8) (size 9 to 14) (size 15 to 20)
#    0.000    1.231    1.538    3.692    9.692    1.846 
#    0.000    0.000    0.000    0.000    0.000    0.000 
#    0.000    0.000    0.000    0.000    0.000    0.000 
#
# Total GULP energy -322118.697935 kJ/mol
# GULP energy per Si atom -12389.180690 kJ/mol
# Density = 2.307166 g / cm^3
# Si number density = 23.124294 Si / 1000 Ang^3
#
#
#
# Elastic Constant Matrix: (Units=GPa)
#
#
# Indices 1 2 3 4 5 6 
#
# 1 74.7165 4.8667 24.4557 0.0000 -0.3465 0.0000
# 2 4.8667 76.6784 41.9651 0.0000 4.3987 0.0000
# 3 24.4557 41.9651 115.4970 0.0000 11.0014 0.0000
# 4 0.0000 0.0000 0.0000 -30.4474 0.0000 -30.1949
# 5 -0.3465 4.3987 11.0014 0.0000 30.7763 0.0000
# 6 0.0000 0.0000 0.0000 -30.1949 0.0000 5.2017
#
#
#
# Elastic Compliance Matrix: (Units=1/GPa)
#
#
# Indices 1 2 3 4 5 6 
#
# 1 0.014485 0.000939 -0.003531 0.000000 0.001291 0.000000
# 2 0.000939 0.016341 -0.006123 0.000000 -0.000136 0.000000
# 3 -0.003531 -0.006123 0.011958 0.000000 -0.003439 0.000000
# 4 0.000000 0.000000 0.000000 -0.004861 0.000000 -0.028217
# 5 0.001291 -0.000136 -0.003439 0.000000 0.033756 0.000000
# 6 0.000000 0.000000 0.000000 -0.028217 0.000000 0.028453
#
#
# Mechanical properties :
#
#
# Convention : Reuss Voigt Hill
#
# Bulk Modulus (GPa) = 39.44264 45.49629 42.46947
# Shear Modulus (GPa) = 39.67839 14.14640 26.91240
#
# Velocity S-wave (km/s) = 4.14681 2.47605 3.41517
# Velocity P-wave (km/s) = 6.32628 5.28127 5.82725
#
# Compressibility (1/GPa) = 0.02535327
#
# Stress axis : x y z
#
# Youngs Moduli (GPa) = 69.03900 61.19626 83.62325
#
# Poissons Ratio (x) = -0.05748 0.29529
# Poissons Ratio (y) = -0.06484 0.51205
# Poissons Ratio (z) = 0.24379 0.37472
#
# Static dielectric constant tensor:
#      x y z
#    x 4.094590 0.000000 0.013570 
#    y 0.000000 4.417470 0.000000 
#    z 0.013570 0.000000 4.699890 
# 
# 
# High freq. dielectric constant tensor:
#      x y z
#    x 1.925510 0.000000 -0.001940 
#    y 0.000000 1.901540 0.000000 
#    z -0.001940 0.000000 1.912370 
# 
# From -- ./inp_files/228067.got.cif
#   From: 2010.06.25/outbox.cif.g09.slc.cpg/sg15_115_cif.got.tgz:228067.got - 2010.06.28 07:06:18.
