data_PCOD8146549
_publ_section_title
;
Structure prediction by ZEFSAII (Michael W. Deem and Ramdas Pophale) SiO2 
 PCOD8146549
Probable space group: C 2/C
;
_chemical_formula_sum "Si O2"
_cell_formula_units_Z 52
_cell_length_a 25.439413
_cell_length_b 18.475554
_cell_length_c 5.417187
_cell_angle_alpha 90.000000
_cell_angle_beta 107.502832
_cell_angle_gamma 90.000000
_cell_volume 2428.237245
_symmetry_space_group_name_H-M "C 2/C"
_symmetry_group_IT_number 15
_symmetry_cell_setting 'monoclinic'
loop_
_space_group_symop_operation_xyz
x,y,z
-x,y,1/2-z
-x,-y,-z
x,-y,1/2+z
1/2+x,1/2+y,z
1/2-x,1/2+y,1/2-z
1/2-x,1/2-y,-z
1/2+x,1/2-y,1/2+z
loop_
_atom_site_type_symbol
_atom_site_label
_atom_site_fract_x
_atom_site_fract_y
_atom_site_fract_z
Si Si1 0.948076 0.800319 0.821630
Si Si2 0.614117 0.535052 0.855424
Si Si3 0.064750 0.541715 0.334139
Si Si4 0.757236 0.706203 0.757280
Si Si5 0.122686 0.308646 0.961851
Si Si6 0.642551 0.673480 0.679034
Si Si7 0.000000 0.082660 0.750000
O O1 0.902581 0.841821 0.593595
O O2 0.000000 0.764812 0.750000
O O3 0.919375 0.733843 0.921029
O O4 0.973693 0.864936 0.011741
O O5 0.638930 0.500993 0.637402
O O6 0.630036 0.620325 0.891076
O O7 0.548037 0.529194 0.723970
O O8 0.082278 0.506361 0.621147
O O9 0.095078 0.617621 0.336148
O O10 0.000000 0.556181 0.250000
O O11 0.750000 0.750000 0.500000
O O12 0.704505 0.652614 0.677289
O O13 0.750000 0.750000 0.000000
O O14 0.818201 0.670977 0.830128
O O15 0.135560 0.257338 0.746479
#
# Coordination Sequence:
#
# PCOD8146549 Si02
#       7
#     8   8   8   8   8   8   4
#     4  12  22  36  65  99 133 166 219 281 332 383
#     4  12  26  41  61  88 134 182 220 268 327 383
#     4  10  25  44  64  98 137 171 211 267 344 419
#     4  10  22  41  67  99 128 168 219 281 332 384
#     4  11  24  42  71  96 130 176 222 277 339 404
#     4  11  24  42  65  96 133 169 232 276 327 395
#     4  12  24  40  56  96 130 184 216 278 320 404
#
# _framework density 21.414711
#
# number of rings (size 3 to 8) (size 9 to 14) (size 15 to 20)
#    0.000    0.923    4.615    1.385    5.385    0.615 
#    0.000    1.538    0.000    0.000    0.000    0.000 
#    0.000    0.000    0.000    0.000    0.000    0.000 
#
# Total GULP energy -322180.991300 kJ/mol
# GULP energy per Si atom -12391.576588 kJ/mol
# Density = 2.136597 g / cm^3
# Si number density = 21.414711 Si / 1000 Ang^3
#
#
#
# Elastic Constant Matrix: (Units=GPa)
#
#
# Indices 1 2 3 4 5 6 
#
# 1 83.0870 13.3459 34.0256 0.0000 5.8216 0.0000
# 2 13.3459 94.8026 32.5946 0.0000 -4.4688 0.0000
# 3 34.0256 32.5946 121.0662 0.0000 -9.7933 0.0000
# 4 0.0000 0.0000 0.0000 29.4386 0.0000 -4.7841
# 5 5.8216 -4.4688 -9.7933 0.0000 33.8619 0.0000
# 6 0.0000 0.0000 0.0000 -4.7841 0.0000 20.5956
#
#
#
# Elastic Compliance Matrix: (Units=1/GPa)
#
#
# Indices 1 2 3 4 5 6 
#
# 1 0.014075 -0.000763 -0.004049 0.000000 -0.003691 0.000000
# 2 -0.000763 0.011679 -0.002862 0.000000 0.000845 0.000000
# 3 -0.004049 -0.002862 0.010438 0.000000 0.003337 0.000000
# 4 0.000000 0.000000 0.000000 0.035302 0.000000 0.008200
# 5 -0.003691 0.000845 0.003337 0.000000 0.031243 0.000000
# 6 0.000000 0.000000 0.000000 0.008200 0.000000 0.050459
#
#
# Mechanical properties :
#
#
# Convention : Reuss Voigt Hill
#
# Bulk Modulus (GPa) = 47.97303 50.98756 49.48029
# Shear Modulus (GPa) = 28.49135 31.37852 29.93493
#
# Velocity S-wave (km/s) = 3.65150 3.83205 3.74286
# Velocity P-wave (km/s) = 6.34259 6.59096 6.46797
#
# Compressibility (1/GPa) = 0.02084505
#
# Stress axis : x y z
#
# Youngs Moduli (GPa) = 71.04836 85.62103 95.80149
#
# Poissons Ratio (x) = 0.06536 0.38789
# Poissons Ratio (y) = 0.05424 0.27414
# Poissons Ratio (z) = 0.28766 0.24501
#
# Static dielectric constant tensor:
#      x y z
#    x 0.324890 0.000000 0.229350 
#    y 0.000000 3.621040 0.000000 
#    z 0.229350 0.000000 4.016980 
# 
# 
# High freq. dielectric constant tensor:
#      x y z
#    x 1.850440 0.000000 -0.004360 
#    y 0.000000 1.814520 0.000000 
#    z -0.004360 0.000000 1.849960 
# 
# From -- ./inp_files/17103.got.cif
#   From: 2010.06.25/outbox.cif.g09.slc.cpg/sg15_9_cif.got.tgz:17103.got - 2010.06.28 07:06:18.
