data_PCOD8146183
_publ_section_title
;
Structure prediction by ZEFSAII (Michael W. Deem and Ramdas Pophale) SiO2 
 PCOD8146183
Probable space group: C 2/C
;
_chemical_formula_sum "Si O2"
_cell_formula_units_Z 44
_cell_length_a 10.298904
_cell_length_b 18.071034
_cell_length_c 14.104419
_cell_angle_alpha 90.000000
_cell_angle_beta 122.724059
_cell_angle_gamma 90.000000
_cell_volume 2208.369646
_symmetry_space_group_name_H-M "C 2/C"
_symmetry_group_IT_number 15
_symmetry_cell_setting 'monoclinic'
loop_
_space_group_symop_operation_xyz
x,y,z
-x,y,1/2-z
-x,-y,-z
x,-y,1/2+z
1/2+x,1/2+y,z
1/2-x,1/2+y,1/2-z
1/2-x,1/2-y,-z
1/2+x,1/2-y,1/2+z
loop_
_atom_site_type_symbol
_atom_site_label
_atom_site_fract_x
_atom_site_fract_y
_atom_site_fract_z
Si Si1 0.411542 0.163966 0.982030
Si Si2 0.500000 0.528545 0.250000
Si Si3 0.310258 0.671214 0.430791
Si Si4 0.538858 0.439306 0.089843
Si Si5 0.617383 0.060898 0.713337
Si Si6 0.309440 0.099903 0.306543
O O1 0.357029 0.244842 0.927946
O O2 0.392434 0.110293 0.884860
O O3 0.304377 0.148536 0.029989
O O4 0.589005 0.154766 0.087578
O O5 0.457866 0.471074 0.151130
O O6 0.647236 0.580881 0.292235
O O7 0.472838 0.636995 0.525152
O O8 0.228541 0.639907 0.306142
O O9 0.718395 0.427267 0.174395
O O10 0.500000 0.500000 0.000000
O O11 0.500000 0.084646 0.750000
O O12 0.593747 0.975329 0.673961
#
# Coordination Sequence:
#
# PCOD8146183 Si02
#       6
#     8   4   8   8   8   8
#     4  11  26  40  67  93 130 166 208 264 312 380
#     4  10  22  40  68  96 120 166 220 256 318 366
#     4  11  23  44  63  94 128 167 210 257 321 375
#     4  11  22  41  66  92 125 167 208 259 311 377
#     4  11  24  42  67  96 125 165 216 262 311 367
#     4  11  23  42  67  95 125 166 211 265 312 371
#
# _framework density 19.924199999999999
#
# number of rings (size 3 to 8) (size 9 to 14) (size 15 to 20)
#    0.000    1.091    3.636    4.364    5.091    0.000 
#    1.636    1.818    0.000    0.000    0.000    0.000 
#    0.000    0.000    0.000    0.000    0.000    0.000 
#
# Total GULP energy -272627.953950 kJ/mol
# GULP energy per Si atom -12392.179725 kJ/mol
# Density = 1.987885 g / cm^3
# Si number density = 19.924200 Si / 1000 Ang^3
#
#
#
# Elastic Constant Matrix: (Units=GPa)
#
#
# Indices 1 2 3 4 5 6 
#
# 1 109.1897 63.4677 67.5701 0.0000 -6.2538 0.0000
# 2 63.4677 102.6428 78.5310 0.0000 -7.0252 0.0000
# 3 67.5701 78.5310 171.7859 0.0000 -5.6481 0.0000
# 4 0.0000 0.0000 0.0000 19.4737 0.0000 8.2478
# 5 -6.2538 -7.0252 -5.6481 0.0000 34.9632 0.0000
# 6 0.0000 0.0000 0.0000 8.2478 0.0000 25.3626
#
#
#
# Elastic Compliance Matrix: (Units=1/GPa)
#
#
# Indices 1 2 3 4 5 6 
#
# 1 0.015013 -0.007274 -0.002553 0.000000 0.000811 0.000000
# 2 -0.007274 0.018636 -0.005608 0.000000 0.001538 0.000000
# 3 -0.002553 -0.005608 0.009387 0.000000 -0.000067 0.000000
# 4 0.000000 0.000000 0.000000 0.059554 0.000000 -0.019367
# 5 0.000811 0.001538 -0.000067 0.000000 0.029045 0.000000
# 6 0.000000 0.000000 0.000000 -0.019367 0.000000 0.045726
#
#
# Mechanical properties :
#
#
# Convention : Reuss Voigt Hill
#
# Bulk Modulus (GPa) = 82.19707 89.19513 85.69610
# Shear Modulus (GPa) = 23.55321 27.56321 25.55821
#
# Velocity S-wave (km/s) = 3.44196 3.72345 3.58547
# Velocity P-wave (km/s) = 7.55914 7.95926 7.76178
#
# Compressibility (1/GPa) = 0.01216588
#
# Stress axis : x y z
#
# Youngs Moduli (GPa) = 66.60898 53.65991 106.53337
#
# Poissons Ratio (x) = 0.39033 0.27200
# Poissons Ratio (y) = 0.48452 0.59739
# Poissons Ratio (z) = 0.17007 0.30090
#
# Static dielectric constant tensor:
#      x y z
#    x 3.694240 0.000000 -0.053330 
#    y 0.000000 3.667740 0.000000 
#    z -0.053330 0.000000 3.751650 
# 
# 
# High freq. dielectric constant tensor:
#      x y z
#    x 1.780830 0.000000 -0.001840 
#    y 0.000000 1.773100 0.000000 
#    z -0.001840 0.000000 1.800420 
# 
# From -- ./inp_files/145442.got.cif
#   From: 2010.06.25/outbox.cif.g09.slc.cpg/sg15_73_cif.got.tgz:145442.got - 2010.06.28 07:06:18.
