data_PCOD8146290
_publ_section_title
;
Structure prediction by ZEFSAII (Michael W. Deem and Ramdas Pophale) SiO2 
 PCOD8146290
Probable space group: C 2/C
;
_chemical_formula_sum "Si O2"
_cell_formula_units_Z 40
_cell_length_a 8.369995
_cell_length_b 10.870587
_cell_length_c 18.060998
_cell_angle_alpha 90.000000
_cell_angle_beta 81.669586
_cell_angle_gamma 90.000000
_cell_volume 1625.973124
_symmetry_space_group_name_H-M "C 2/C"
_symmetry_group_IT_number 15
_symmetry_cell_setting 'monoclinic'
loop_
_space_group_symop_operation_xyz
x,y,z
-x,y,1/2-z
-x,-y,-z
x,-y,1/2+z
1/2+x,1/2+y,z
1/2-x,1/2+y,1/2-z
1/2-x,1/2-y,-z
1/2+x,1/2-y,1/2+z
loop_
_atom_site_type_symbol
_atom_site_label
_atom_site_fract_x
_atom_site_fract_y
_atom_site_fract_z
Si Si1 0.608864 0.267410 0.418333
Si Si2 0.573407 0.853739 0.166069
Si Si3 0.544550 0.405364 0.832503
Si Si4 0.349060 0.089792 0.403147
Si Si5 0.685814 0.450001 0.532420
O O1 0.733475 0.319079 0.347568
O O2 0.442277 0.219638 0.392345
O O3 0.574646 0.376721 0.479424
O O4 0.673672 0.144688 0.454638
O O5 0.500000 0.885270 0.250000
O O6 0.485346 0.734572 0.139239
O O7 0.534984 0.969846 0.115549
O O8 0.500000 0.427764 0.750000
O O9 0.731397 0.426054 0.839243
O O10 0.425832 0.490744 0.890380
O O11 0.258890 0.071992 0.488198
#
# Coordination Sequence:
#
# PCOD8146290 Si02
#       5
#     8   8   8   8   8
#     4   9  19  37  63  90 119 157 205 254 299 361
#     4   9  21  40  56  84 125 156 195 253 304 355
#     4  10  22  41  59  87 131 162 195 256 310 358
#     4  11  21  38  67  91 114 165 214 244 302 369
#     4   9  19  38  60  90 126 156 202 258 301 355
#
# _framework density 24.600655
#
# number of rings (size 3 to 8) (size 9 to 14) (size 15 to 20)
#    0.000    2.400    0.000    2.400    0.000    5.600 
#    0.000   18.000    0.000    0.000    0.000    0.000 
#    0.000    0.000    0.000    0.000    0.000    0.000 
#
# Total GULP energy -247835.549336 kJ/mol
# GULP energy per Si atom -12391.777467 kJ/mol
# Density = 2.454466 g / cm^3
# Si number density = 24.600655 Si / 1000 Ang^3
#
#
#
# Elastic Constant Matrix: (Units=GPa)
#
#
# Indices 1 2 3 4 5 6 
#
# 1 71.8593 26.9091 53.7049 0.0000 -6.7158 0.0000
# 2 26.9091 68.6956 35.7127 0.0000 -11.6325 0.0000
# 3 53.7049 35.7127 154.5506 0.0000 -23.3813 0.0000
# 4 0.0000 0.0000 0.0000 24.9728 0.0000 0.8430
# 5 -6.7158 -11.6325 -23.3813 0.0000 39.3977 0.0000
# 6 0.0000 0.0000 0.0000 0.8430 0.0000 24.5294
#
#
#
# Elastic Compliance Matrix: (Units=1/GPa)
#
#
# Indices 1 2 3 4 5 6 
#
# 1 0.020210 -0.005020 -0.006115 0.000000 -0.001666 0.000000
# 2 -0.005020 0.018093 -0.001931 0.000000 0.003340 0.000000
# 3 -0.006115 -0.001931 0.009665 0.000000 0.004124 0.000000
# 4 0.000000 0.000000 0.000000 0.040090 0.000000 -0.001378
# 5 -0.001666 0.003340 0.004124 0.000000 0.028532 0.000000
# 6 0.000000 0.000000 0.000000 -0.001378 0.000000 0.040815
#
#
# Mechanical properties :
#
#
# Convention : Reuss Voigt Hill
#
# Bulk Modulus (GPa) = 45.79458 58.63987 52.21722
# Shear Modulus (GPa) = 26.20332 29.69857 27.95095
#
# Velocity S-wave (km/s) = 3.26720 3.47829 3.37439
# Velocity P-wave (km/s) = 5.73484 6.32612 6.03772
#
# Compressibility (1/GPa) = 0.02183665
#
# Stress axis : x y z
#
# Youngs Moduli (GPa) = 49.47989 55.27040 103.46259
#
# Poissons Ratio (x) = 0.27745 0.63267
# Poissons Ratio (y) = 0.24838 0.19980
# Poissons Ratio (z) = 0.30257 0.10673
#
# Static dielectric constant tensor:
#      x y z
#    x 4.291840 0.000000 -0.245930 
#    y 0.000000 4.446820 0.000000 
#    z -0.245930 0.000000 4.317240 
# 
# 
# High freq. dielectric constant tensor:
#      x y z
#    x 1.961410 0.000000 -0.019600 
#    y 0.000000 1.982930 0.000000 
#    z -0.019600 0.000000 1.961770 
# 
# From -- ./inp_files/187807.got.cif
#   From: 2010.06.25/outbox.cif.g09.slc.cpg/sg15_94_cif.got.tgz:187807.got - 2010.06.28 07:06:18.
