data_PCOD8146875
_publ_section_title
;
Structure prediction by ZEFSAII (Michael W. Deem and Ramdas Pophale) SiO2 
 PCOD8146875
Probable space group: C 2/C
;
_chemical_formula_sum "Si O2"
_cell_formula_units_Z 52
_cell_length_a 9.921837
_cell_length_b 28.915729
_cell_length_c 9.047270
_cell_angle_alpha 90.000000
_cell_angle_beta 105.976027
_cell_angle_gamma 90.000000
_cell_volume 2495.384575
_symmetry_space_group_name_H-M "C 2/C"
_symmetry_group_IT_number 15
_symmetry_cell_setting 'monoclinic'
loop_
_space_group_symop_operation_xyz
x,y,z
-x,y,1/2-z
-x,-y,-z
x,-y,1/2+z
1/2+x,1/2+y,z
1/2-x,1/2+y,1/2-z
1/2-x,1/2-y,-z
1/2+x,1/2-y,1/2+z
loop_
_atom_site_type_symbol
_atom_site_label
_atom_site_fract_x
_atom_site_fract_y
_atom_site_fract_z
Si Si1 0.865146 0.613611 0.139425
Si Si2 0.414322 0.561296 0.441822
Si Si3 0.851139 0.311189 0.868374
Si Si4 0.589222 0.159631 0.632290
Si Si5 0.630811 0.289517 0.187401
Si Si6 0.912283 0.146931 0.082923
Si Si7 0.000000 0.014495 0.750000
O O1 0.722950 0.589206 0.142772
O O2 0.865571 0.665280 0.211803
O O3 0.000000 0.586799 0.250000
O O4 0.881616 0.615612 0.966390
O O5 0.550213 0.593634 0.448709
O O6 0.408637 0.546863 0.613011
O O7 0.408410 0.516865 0.333011
O O8 0.796279 0.258635 0.840101
O O9 0.751595 0.345379 0.933761
O O10 0.994945 0.306167 0.004662
O O11 0.500000 0.144855 0.750000
O O12 0.741683 0.180920 0.708437
O O13 0.500000 0.276570 0.250000
O O14 0.550502 0.318883 0.038619
O O15 0.000000 0.163667 0.250000
#
# Coordination Sequence:
#
# PCOD8146875 Si02
#       7
#     8   8   8   8   8   8   4
#     4  10  22  42  66  89 130 180 214 264 335 399
#     4  11  22  44  68 102 130 167 215 274 341 405
#     4  11  24  42  59  91 133 178 224 276 330 373
#     4  11  24  40  59  90 129 168 230 276 320 379
#     4  12  27  40  62  94 129 181 236 281 319 381
#     4  12  24  40  67  93 130 174 220 264 338 398
#     4  10  24  40  72 102 132 156 208 290 338 402
#
# _framework density 20.838470000000001
#
# number of rings (size 3 to 8) (size 9 to 14) (size 15 to 20)
#    0.000    0.923    3.846    2.769    5.385    1.231 
#    0.000    0.769    0.000    0.000    0.000    0.000 
#    0.000    0.000    0.000    0.000    0.000    0.000 
#
# Total GULP energy -322150.107815 kJ/mol
# GULP energy per Si atom -12390.388762 kJ/mol
# Density = 2.079104 g / cm^3
# Si number density = 20.838470 Si / 1000 Ang^3
#
#
#
# Elastic Constant Matrix: (Units=GPa)
#
#
# Indices 1 2 3 4 5 6 
#
# 1 108.0573 34.7231 35.2095 0.0000 5.9904 0.0000
# 2 34.7231 85.4037 46.9786 0.0000 8.3766 0.0000
# 3 35.2095 46.9786 140.3242 0.0000 6.0287 0.0000
# 4 0.0000 0.0000 0.0000 25.7579 0.0000 -0.9854
# 5 5.9904 8.3766 6.0287 0.0000 37.8268 0.0000
# 6 0.0000 0.0000 0.0000 -0.9854 0.0000 13.8109
#
#
#
# Elastic Compliance Matrix: (Units=1/GPa)
#
#
# Indices 1 2 3 4 5 6 
#
# 1 0.010927 -0.003532 -0.001529 0.000000 -0.000704 0.000000
# 2 -0.003532 0.015719 -0.004280 0.000000 -0.002239 0.000000
# 3 -0.001529 -0.004280 0.008953 0.000000 -0.000237 0.000000
# 4 0.000000 0.000000 0.000000 0.038929 0.000000 0.002778
# 5 -0.000704 -0.002239 -0.000237 0.000000 0.027082 0.000000
# 6 0.000000 0.000000 0.000000 0.002778 0.000000 0.072605
#
#
# Mechanical properties :
#
#
# Convention : Reuss Voigt Hill
#
# Bulk Modulus (GPa) = 59.11421 63.06752 61.09087
# Shear Modulus (GPa) = 25.18437 29.93739 27.56088
#
# Velocity S-wave (km/s) = 3.48019 3.79442 3.64070
# Velocity P-wave (km/s) = 6.67671 7.03757 6.85951
#
# Compressibility (1/GPa) = 0.01691641
#
# Stress axis : x y z
#
# Youngs Moduli (GPa) = 91.51923 63.61608 111.69407
#
# Poissons Ratio (x) = 0.22472 0.17076
# Poissons Ratio (y) = 0.32329 0.47805
# Poissons Ratio (z) = 0.13991 0.27228
#
# Static dielectric constant tensor:
#      x y z
#    x 3.855790 0.000000 -0.092030 
#    y 0.000000 3.533910 0.000000 
#    z -0.092030 0.000000 4.149990 
# 
# 
# High freq. dielectric constant tensor:
#      x y z
#    x 1.821340 0.000000 -0.007490 
#    y 0.000000 1.781470 0.000000 
#    z -0.007490 0.000000 1.838370 
# 
# From -- ./inp_files/33742.got.cif
#   From: 2010.06.25/outbox.cif.g09.slc.cpg/sg15_17_cif.got.tgz:33742.got - 2010.06.28 07:06:18.
