data_PCOD8146266
_publ_section_title
;
Structure prediction by ZEFSAII (Michael W. Deem and Ramdas Pophale) SiO2 
 PCOD8146266
Probable space group: C 2/C
;
_chemical_formula_sum "Si O2"
_cell_formula_units_Z 60
_cell_length_a 18.215045
_cell_length_b 5.196375
_cell_length_c 31.043769
_cell_angle_alpha 90.000000
_cell_angle_beta 111.916733
_cell_angle_gamma 90.000000
_cell_volume 2725.997831
_symmetry_space_group_name_H-M "C 2/C"
_symmetry_group_IT_number 15
_symmetry_cell_setting 'monoclinic'
loop_
_space_group_symop_operation_xyz
x,y,z
-x,y,1/2-z
-x,-y,-z
x,-y,1/2+z
1/2+x,1/2+y,z
1/2-x,1/2+y,1/2-z
1/2-x,1/2-y,-z
1/2+x,1/2-y,1/2+z
loop_
_atom_site_type_symbol
_atom_site_label
_atom_site_fract_x
_atom_site_fract_y
_atom_site_fract_z
Si Si1 0.052058 0.130171 0.187056
Si Si2 0.542527 0.247810 0.992095
Si Si3 0.759591 0.828979 0.866200
Si Si4 0.510486 0.035458 0.604197
Si Si5 0.220099 0.003639 0.223497
Si Si6 0.849053 0.328798 0.913689
Si Si7 0.500000 0.952636 0.250000
Si Si8 0.081200 0.740441 0.343478
O O1 0.067302 0.299807 0.147863
O O2 0.058181 0.289081 0.232567
O O3 0.126000 0.933494 0.204026
O O4 0.964104 0.012167 0.165001
O O5 0.631530 0.229668 0.031491
O O6 0.500000 0.500000 0.000000
O O7 0.536975 0.224528 0.939124
O O8 0.500000 0.000000 0.000000
O O9 0.754207 0.843025 0.813683
O O10 0.786551 0.114895 0.885858
O O11 0.818614 0.617616 0.898756
O O12 0.675176 0.740710 0.866334
O O13 0.566632 0.819195 0.593890
O O14 0.443778 0.911108 0.619385
O O15 0.262156 0.726323 0.236923
O O16 0.557006 0.117158 0.292789
#
# Coordination Sequence:
#
# PCOD8146266 Si02
#       8
#     8   8   8   8   8   8   4   8
#     4  11  24  42  69  95 136 180 231 281 338 407
#     4  10  22  40  73 104 132 171 230 281 338 406
#     4  12  26  44  67  99 139 178 222 279 353 395
#     4  10  23  43  69 101 128 180 228 279 337 416
#     4  12  27  42  67  97 132 174 229 285 338 396
#     4  11  23  45  70 100 135 174 223 287 337 401
#     4  10  24  42  64  92 128 178 240 268 334 388
#     4  11  26  42  68  94 138 183 228 279 340 417
#
# _framework density 22.010287999999999
#
# number of rings (size 3 to 8) (size 9 to 14) (size 15 to 20)
#    0.000    1.067    1.333    4.400   14.933    0.000 
#    0.000    1.333    0.000    0.000    0.000    0.000 
#    0.000    0.000    0.000    0.000    0.000    0.000 
#
# Total GULP energy -371781.665316 kJ/mol
# GULP energy per Si atom -12392.722177 kJ/mol
# Density = 2.196019 g / cm^3
# Si number density = 22.010288 Si / 1000 Ang^3
#
#
#
# Elastic Constant Matrix: (Units=GPa)
#
#
# Indices 1 2 3 4 5 6 
#
# 1 98.6572 15.0146 35.9404 0.0000 11.4519 -0.0002
# 2 15.0146 97.7924 15.7715 0.0016 1.4211 -0.0011
# 3 35.9404 15.7715 102.7417 -0.0009 -8.1664 0.0006
# 4 0.0000 0.0016 -0.0009 9.1933 0.0003 22.1342
# 5 11.4519 1.4211 -8.1664 0.0003 24.8884 -0.0001
# 6 -0.0002 -0.0011 0.0006 22.1342 -0.0001 27.4955
#
#
#
# Elastic Compliance Matrix: (Units=1/GPa)
#
#
# Indices 1 2 3 4 5 6 
#
# 1 0.012991 -0.001082 -0.004978 0.000000 -0.007549 0.000000
# 2 -0.001082 0.010608 -0.001292 0.000003 -0.000532 -0.000002
# 3 -0.004978 -0.001292 0.012179 -0.000002 0.006360 0.000001
# 4 0.000000 0.000003 -0.000002 -0.115943 0.000001 0.093335
# 5 -0.007549 -0.000532 0.006360 0.000001 0.045770 0.000000
# 6 0.000000 -0.000002 0.000001 0.093335 0.000000 -0.038766
#
#
# Mechanical properties :
#
#
# Convention : Reuss Voigt Hill
#
# Bulk Modulus (GPa) = 47.45553 48.07159 47.76356
# Shear Modulus (GPa) = -97.21399 27.81310 -34.70045
#
# Velocity S-wave (km/s) = -6.65308 3.55863 -3.97489
# Velocity P-wave (km/s) = 6.11641 6.22680 0.82541
#
# Compressibility (1/GPa) = 0.02107236
#
# Stress axis : x y z
#
# Youngs Moduli (GPa) = 76.97869 94.26863 82.11171
#
# Poissons Ratio (x) = 0.10199 0.40877
# Poissons Ratio (y) = 0.08329 0.10610
# Poissons Ratio (z) = 0.38322 0.12181
#
# Static dielectric constant tensor:
#      x y z
#    x 3.864690 0.000000 0.069370 
#    y 0.000000 3.930560 0.000000 
#    z 0.069370 0.000000 5.018200 
# 
# 
# High freq. dielectric constant tensor:
#      x y z
#    x 1.844750 0.000000 0.005270 
#    y 0.000000 1.869250 0.000000 
#    z 0.005270 0.000000 1.879240 
# 
# From -- ./inp_files/315115.got.cif
#   From: 2010.06.25/outbox.cif.g09.slc.cpg/sg15_158_cif.got.tgz:315115.got - 2010.06.28 07:06:18.
