data_PCOD8146720
_publ_section_title
;
Structure prediction by ZEFSAII (Michael W. Deem and Ramdas Pophale) SiO2 
 PCOD8146720
Probable space group: C 2/C
;
_chemical_formula_sum "Si O2"
_cell_formula_units_Z 64
_cell_length_a 11.257827
_cell_length_b 22.646740
_cell_length_c 12.754543
_cell_angle_alpha 90.000000
_cell_angle_beta 73.986193
_cell_angle_gamma 90.000000
_cell_volume 3125.624345
_symmetry_space_group_name_H-M "C 2/C"
_symmetry_group_IT_number 15
_symmetry_cell_setting 'monoclinic'
loop_
_space_group_symop_operation_xyz
x,y,z
-x,y,1/2-z
-x,-y,-z
x,-y,1/2+z
1/2+x,1/2+y,z
1/2-x,1/2+y,1/2-z
1/2-x,1/2-y,-z
1/2+x,1/2-y,1/2+z
loop_
_atom_site_type_symbol
_atom_site_label
_atom_site_fract_x
_atom_site_fract_y
_atom_site_fract_z
Si Si1 0.138324 0.824076 0.679008
Si Si2 0.732887 0.188950 0.944581
Si Si3 0.681887 0.083391 0.285094
Si Si4 0.588928 0.087673 0.080032
Si Si5 0.316223 0.614812 0.548241
Si Si6 0.945251 0.097740 0.877161
Si Si7 0.750387 0.998174 0.941439
Si Si8 0.141225 0.691646 0.732222
O O1 0.232018 0.858746 0.732816
O O2 0.162277 0.842102 0.554153
O O3 0.166350 0.755001 0.675226
O O4 0.000000 0.839070 0.750000
O O5 0.864561 0.157219 0.900129
O O6 0.670403 0.197386 0.847387
O O7 0.750000 0.250000 0.000000
O O8 0.640023 0.151345 0.037675
O O9 0.649628 0.067138 0.174704
O O10 0.557544 0.095158 0.381400
O O11 0.750466 0.028106 0.323413
O O12 0.626614 0.037282 0.987500
O O13 0.448978 0.602298 0.563420
O O14 0.254803 0.553994 0.525291
O O15 0.227805 0.643436 0.656611
O O16 0.000000 0.088946 0.750000
O O17 0.867421 0.040275 0.926811
O O18 0.000000 0.671613 0.750000
#
# Coordination Sequence:
#
# PCOD8146720 Si02
#       8
#     8   8   8   8   8   8   8   8
#     4  10  24  41  68  94 131 170 215 268 329 394
#     4  11  25  43  68  95 133 174 214 273 331 391
#     4  10  22  42  62  95 124 172 217 267 325 390
#     4  10  23  41  65  92 129 167 219 268 322 393
#     4  11  24  44  66  98 128 176 217 274 328 396
#     4  11  24  44  65  98 130 169 223 267 332 396
#     4  10  24  39  67  92 132 167 216 273 330 386
#     4  11  25  43  67  99 132 172 218 277 329 395
#
# _framework density 20.475909000000001
#
# number of rings (size 3 to 8) (size 9 to 14) (size 15 to 20)
#    0.000    1.500    1.250    1.875   12.250    3.000 
#    4.500    0.000    0.000    0.000    0.000    0.000 
#    0.000    0.000    0.000    0.000    0.000    0.000 
#
# Total GULP energy -396939.493557 kJ/mol
# GULP energy per Si atom -12404.359174 kJ/mol
# Density = 2.042930 g / cm^3
# Si number density = 20.475909 Si / 1000 Ang^3
#
#
#
# Elastic Constant Matrix: (Units=GPa)
#
#
# Indices 1 2 3 4 5 6 
#
# 1 115.0076 51.5195 28.6595 0.0000 -0.0901 0.0000
# 2 51.5195 134.2132 40.6146 0.0000 -8.2566 0.0000
# 3 28.6595 40.6146 86.9421 0.0000 2.1615 0.0000
# 4 0.0000 0.0000 0.0000 20.1780 0.0000 -3.4825
# 5 -0.0901 -8.2566 2.1615 0.0000 40.6655 0.0000
# 6 0.0000 0.0000 0.0000 -3.4825 0.0000 27.5716
#
#
#
# Elastic Compliance Matrix: (Units=1/GPa)
#
#
# Indices 1 2 3 4 5 6 
#
# 1 0.010774 -0.003614 -0.001848 0.000000 -0.000612 0.000000
# 2 -0.003614 0.010052 -0.003560 0.000000 0.002222 0.000000
# 3 -0.001848 -0.003560 0.013810 0.000000 -0.001461 0.000000
# 4 0.000000 0.000000 0.000000 0.050663 0.000000 0.006399
# 5 -0.000612 0.002222 -0.001461 0.000000 0.025118 0.000000
# 6 0.000000 0.000000 0.000000 0.006399 0.000000 0.037078
#
#
# Mechanical properties :
#
#
# Convention : Reuss Voigt Hill
#
# Bulk Modulus (GPa) = 60.26715 64.19447 62.23081
# Shear Modulus (GPa) = 29.22773 32.04097 30.63435
#
# Velocity S-wave (km/s) = 3.78222 3.96006 3.87216
# Velocity P-wave (km/s) = 6.96927 7.23386 7.10280
#
# Compressibility (1/GPa) = 0.01659279
#
# Stress axis : x y z
#
# Youngs Moduli (GPa) = 92.81469 99.48179 72.40983
#
# Poissons Ratio (x) = 0.35955 0.13381
# Poissons Ratio (y) = 0.33545 0.25775
# Poissons Ratio (z) = 0.17152 0.35412
#
# Static dielectric constant tensor:
#      x y z
#    x 3.834820 0.000000 -0.006340 
#    y 0.000000 3.758100 0.000000 
#    z -0.006340 0.000000 3.801120 
# 
# 
# High freq. dielectric constant tensor:
#      x y z
#    x 1.812680 0.000000 0.001870 
#    y 0.000000 1.807710 0.000000 
#    z 0.001870 0.000000 1.809240 
# 
# From -- ./inp_files/91253.got.cif
#   From: 2010.06.25/outbox.cif.g09.slc.cpg/sg15_46_cif.got.tgz:91253.got - 2010.06.28 07:06:18.
