data_PCOD8146699
_publ_section_title
;
Structure prediction by ZEFSAII (Michael W. Deem and Ramdas Pophale) SiO2 
 PCOD8146699
Probable space group: C 2/C
;
_chemical_formula_sum "Si O2"
_cell_formula_units_Z 52
_cell_length_a 17.326875
_cell_length_b 13.474558
_cell_length_c 11.299172
_cell_angle_alpha 90.000000
_cell_angle_beta 58.753687
_cell_angle_gamma 90.000000
_cell_volume 2255.379844
_symmetry_space_group_name_H-M "C 2/C"
_symmetry_group_IT_number 15
_symmetry_cell_setting 'monoclinic'
loop_
_space_group_symop_operation_xyz
x,y,z
-x,y,1/2-z
-x,-y,-z
x,-y,1/2+z
1/2+x,1/2+y,z
1/2-x,1/2+y,1/2-z
1/2-x,1/2-y,-z
1/2+x,1/2-y,1/2+z
loop_
_atom_site_type_symbol
_atom_site_label
_atom_site_fract_x
_atom_site_fract_y
_atom_site_fract_z
Si Si1 0.601502 0.748339 0.913420
Si Si2 0.797550 0.807133 0.807188
Si Si3 0.636233 0.190570 0.120678
Si Si4 0.589213 0.581849 0.099202
Si Si5 0.328062 0.625253 0.033760
Si Si6 0.000000 0.528731 0.250000
Si Si7 0.546999 0.840300 0.328873
O O1 0.692857 0.781540 0.908200
O O2 0.616668 0.755110 0.761435
O O3 0.574055 0.638632 0.985215
O O4 0.519321 0.821932 0.008350
O O5 0.829408 0.863595 0.898351
O O6 0.810296 0.882697 0.687471
O O7 0.853638 0.705845 0.735889
O O8 0.735581 0.142861 0.034778
O O9 0.573661 0.099490 0.132602
O O10 0.615378 0.274658 0.039354
O O11 0.500000 0.582262 0.250000
O O12 0.617698 0.469741 0.051949
O O13 0.948742 0.459600 0.193805
O O14 0.500000 0.788935 0.250000
#
# Coordination Sequence:
#
# PCOD8146699 Si02
#       7
#     8   8   8   8   8   4   8
#     4  11  23  42  69  97 134 175 218 282 325 393
#     4  11  23  44  67  95 136 176 214 283 329 385
#     4  10  25  48  60  96 134 175 220 269 336 387
#     4  12  24  40  70 102 127 174 226 270 335 399
#     4  10  27  44  64  94 136 176 217 269 332 406
#     4  10  24  40  68  92 126 176 212 270 326 382
#     4  10  22  42  62 104 127 163 231 270 326 392
#
# _framework density 23.055983000000001
#
# number of rings (size 3 to 8) (size 9 to 14) (size 15 to 20)
#    0.462    0.923    3.077    0.462    9.692    1.231 
#    0.000    0.000    0.000    0.000    0.000    0.000 
#    0.000    0.000    0.000    0.000    0.000    0.000 
#
# Total GULP energy -322319.545287 kJ/mol
# GULP energy per Si atom -12396.905588 kJ/mol
# Density = 2.300351 g / cm^3
# Si number density = 23.055983 Si / 1000 Ang^3
#
#
#
# Elastic Constant Matrix: (Units=GPa)
#
#
# Indices 1 2 3 4 5 6 
#
# 1 31.1397 21.4642 -0.8082 0.0000 -8.7962 0.0000
# 2 21.4642 150.2874 25.8622 0.0000 -15.3460 0.0000
# 3 -0.8082 25.8622 73.3614 0.0000 -10.1521 0.0000
# 4 0.0000 0.0000 0.0000 33.7392 0.0000 -4.5228
# 5 -8.7962 -15.3460 -10.1521 0.0000 37.5477 0.0000
# 6 0.0000 0.0000 0.0000 -4.5228 0.0000 19.1319
#
#
#
# Elastic Compliance Matrix: (Units=1/GPa)
#
#
# Indices 1 2 3 4 5 6 
#
# 1 0.037953 -0.005209 0.003314 0.000000 0.007658 0.000000
# 2 -0.005209 0.007996 -0.002694 0.000000 0.001320 0.000000
# 3 0.003314 -0.002694 0.015139 0.000000 0.003769 0.000000
# 4 0.000000 0.000000 0.000000 0.030609 0.000000 0.007236
# 5 0.007658 0.001320 0.003769 0.000000 0.029985 0.000000
# 6 0.000000 0.000000 0.000000 0.007236 0.000000 0.053979
#
#
# Mechanical properties :
#
#
# Convention : Reuss Voigt Hill
#
# Bulk Modulus (GPa) = 19.26356 38.64719 28.95537
# Shear Modulus (GPa) = 24.73508 31.96845 28.35176
#
# Velocity S-wave (km/s) = 3.27896 3.72769 3.51050
# Velocity P-wave (km/s) = 4.76536 5.94359 5.38679
#
# Compressibility (1/GPa) = 0.05191150
#
# Stress axis : x y z
#
# Youngs Moduli (GPa) = 26.34830 125.06067 66.05543
#
# Poissons Ratio (x) = 0.65142 -0.21892
# Poissons Ratio (y) = 0.13724 0.17793
# Poissons Ratio (z) = -0.08732 0.33687
#
# Static dielectric constant tensor:
#      x y z
#    x 4.146390 0.000000 -0.130910 
#    y 0.000000 4.046570 0.000000 
#    z -0.130910 0.000000 4.080640 
# 
# 
# High freq. dielectric constant tensor:
#      x y z
#    x 1.908520 0.000000 -0.008040 
#    y 0.000000 1.903090 0.000000 
#    z -0.008040 0.000000 1.916990 
# 
# From -- ./inp_files/105233.got.cif
#   From: 2010.06.25/outbox.cif.g09.slc.cpg/sg15_53_cif.got.tgz:105233.got - 2010.06.28 07:06:18.
