data_PCOD8146575
_publ_section_title
;
Structure prediction by ZEFSAII (Michael W. Deem and Ramdas Pophale) SiO2 
 PCOD8146575
Probable space group: C 2/C
;
_chemical_formula_sum "Si O2"
_cell_formula_units_Z 64
_cell_length_a 8.563402
_cell_length_b 29.075372
_cell_length_c 17.411921
_cell_angle_alpha 90.000000
_cell_angle_beta 42.682950
_cell_angle_gamma 90.000000
_cell_volume 2939.071587
_symmetry_space_group_name_H-M "C 2/C"
_symmetry_group_IT_number 15
_symmetry_cell_setting 'monoclinic'
loop_
_space_group_symop_operation_xyz
x,y,z
-x,y,1/2-z
-x,-y,-z
x,-y,1/2+z
1/2+x,1/2+y,z
1/2-x,1/2+y,1/2-z
1/2-x,1/2-y,-z
1/2+x,1/2-y,1/2+z
loop_
_atom_site_type_symbol
_atom_site_label
_atom_site_fract_x
_atom_site_fract_y
_atom_site_fract_z
Si Si1 0.041418 0.820248 0.931268
Si Si2 0.677200 0.830623 0.515605
Si Si3 0.004700 0.458514 0.837014
Si Si4 0.289754 0.374710 0.768803
Si Si5 0.165503 0.557763 0.816020
Si Si6 0.732810 0.774728 0.351825
Si Si7 0.973206 0.653555 0.849504
Si Si8 0.661527 0.573659 0.583059
O O1 0.171854 0.821771 0.964444
O O2 0.137412 0.860771 0.843063
O O3 0.087828 0.770017 0.878213
O O4 0.770773 0.827003 0.036547
O O5 0.415054 0.841406 0.631429
O O6 0.673921 0.786628 0.461491
O O7 0.792913 0.872182 0.426517
O O8 0.208270 0.427949 0.801041
O O9 0.041887 0.512383 0.831177
O O10 0.000000 0.444170 0.750000
O O11 0.764861 0.446430 0.966516
O O12 0.500000 0.367960 0.750000
O O13 0.388735 0.565627 0.682035
O O14 0.225445 0.549700 0.883563
O O15 0.993036 0.600449 0.867966
O O16 0.673121 0.816883 0.317390
O O17 0.000000 0.762509 0.250000
O O18 0.000000 0.658672 0.750000
#
# Coordination Sequence:
#
# PCOD8146575 Si02
#       8
#     8   8   8   8   8   8   8   8
#     4  12  26  43  68  99 136 178 227 281 340 404
#     4  11  22  44  68  97 134 178 227 279 336 405
#     4  11  25  42  67 101 137 178 227 281 344 413
#     4  11  25  43  67  96 136 180 224 277 340 404
#     4  11  23  42  69  99 134 181 228 281 343 406
#     4  12  24  43  69  97 133 181 226 276 342 408
#     4  12  26  43  66 102 136 174 229 289 339 401
#     4  10  22  41  68  97 134 177 229 277 339 413
#
# _framework density 21.775583000000001
#
# number of rings (size 3 to 8) (size 9 to 14) (size 15 to 20)
#    0.000    0.750    1.250    7.125    3.500    3.000 
#    0.000    0.000    0.000    0.000    0.000    0.000 
#    0.000    0.000    0.000    0.000    0.000    0.000 
#
# Total GULP energy -397001.132500 kJ/mol
# GULP energy per Si atom -12406.285391 kJ/mol
# Density = 2.172602 g / cm^3
# Si number density = 21.775583 Si / 1000 Ang^3
#
#
#
# Elastic Constant Matrix: (Units=GPa)
#
#
# Indices 1 2 3 4 5 6 
#
# 1 94.6041 21.2544 32.6196 0.0000 -0.2438 0.0000
# 2 21.2544 103.9669 50.7884 0.0000 -14.7000 0.0000
# 3 32.6196 50.7884 110.2303 0.0000 -5.6454 0.0000
# 4 0.0000 0.0000 0.0000 28.4385 0.0000 1.6048
# 5 -0.2438 -14.7000 -5.6454 0.0000 42.6950 0.0000
# 6 0.0000 0.0000 0.0000 1.6048 0.0000 31.5293
#
#
#
# Elastic Compliance Matrix: (Units=1/GPa)
#
#
# Indices 1 2 3 4 5 6 
#
# 1 0.011858 -0.001020 -0.003074 0.000000 -0.000690 0.000000
# 2 -0.001020 0.013055 -0.005521 0.000000 0.003759 0.000000
# 3 -0.003074 -0.005521 0.012512 0.000000 -0.000264 0.000000
# 4 0.000000 0.000000 0.000000 0.035265 0.000000 -0.001795
# 5 -0.000690 0.003759 -0.000264 0.000000 0.024677 0.000000
# 6 0.000000 0.000000 0.000000 -0.001795 0.000000 0.031808
#
#
# Mechanical properties :
#
#
# Convention : Reuss Voigt Hill
#
# Bulk Modulus (GPa) = 54.96087 57.56959 56.26523
# Shear Modulus (GPa) = 32.36861 34.14183 33.25522
#
# Velocity S-wave (km/s) = 3.85965 3.96396 3.91215
# Velocity P-wave (km/s) = 6.71990 6.88809 6.80451
#
# Compressibility (1/GPa) = 0.01819476
#
# Stress axis : x y z
#
# Youngs Moduli (GPa) = 84.33283 76.59630 79.92353
#
# Poissons Ratio (x) = 0.07811 0.24572
# Poissons Ratio (y) = 0.08600 0.44125
# Poissons Ratio (z) = 0.25928 0.42289
#
# Static dielectric constant tensor:
#      x y z
#    x 3.857670 0.000000 0.058690 
#    y 0.000000 4.016830 0.000000 
#    z 0.058690 0.000000 4.048500 
# 
# 
# High freq. dielectric constant tensor:
#      x y z
#    x 1.855890 0.000000 0.004320 
#    y 0.000000 1.862900 0.000000 
#    z 0.004320 0.000000 1.869340 
# 
# From -- ./inp_files/194220.got.cif
#   From: 2010.06.25/outbox.cif.g09.slc.cpg/sg15_98_cif.got.tgz:194220.got - 2010.06.28 07:06:18.
