data_PCOD8146772
_publ_section_title
;
Structure prediction by ZEFSAII (Michael W. Deem and Ramdas Pophale) SiO2 
 PCOD8146772
Probable space group: C 2/C
;
_chemical_formula_sum "Si O2"
_cell_formula_units_Z 48
_cell_length_a 19.434383
_cell_length_b 8.142764
_cell_length_c 20.887067
_cell_angle_alpha 90.000000
_cell_angle_beta 133.266139
_cell_angle_gamma 90.000000
_cell_volume 2406.897427
_symmetry_space_group_name_H-M "C 2/C"
_symmetry_group_IT_number 15
_symmetry_cell_setting 'monoclinic'
loop_
_space_group_symop_operation_xyz
x,y,z
-x,y,1/2-z
-x,-y,-z
x,-y,1/2+z
1/2+x,1/2+y,z
1/2-x,1/2+y,1/2-z
1/2-x,1/2-y,-z
1/2+x,1/2-y,1/2+z
loop_
_atom_site_type_symbol
_atom_site_label
_atom_site_fract_x
_atom_site_fract_y
_atom_site_fract_z
Si Si1 0.321665 0.828424 0.494936
Si Si2 0.474559 0.391467 0.803709
Si Si3 0.023751 0.105309 0.953092
Si Si4 0.007799 0.514048 0.827509
Si Si5 0.138887 0.670250 0.188649
Si Si6 0.774135 0.972739 0.184510
O O1 0.250000 0.750000 0.500000
O O2 0.373474 0.692721 0.482295
O O3 0.400428 0.933386 0.582203
O O4 0.262422 0.946776 0.410833
O O5 0.500000 0.462426 0.750000
O O6 0.524640 0.501331 0.888733
O O7 0.362243 0.403473 0.739684
O O8 0.514585 0.209416 0.837995
O O9 0.941920 0.239267 0.902594
O O10 0.000000 0.000000 0.000000
O O11 0.909376 0.457178 0.794420
O O12 0.000000 0.455356 0.750000
O O13 0.196166 0.564388 0.175276
O O14 0.202467 0.797824 0.268666
#
# Coordination Sequence:
#
# PCOD8146772 Si02
#       6
#     8   8   8   8   8   8
#     4  11  24  41  65  95 124 165 218 263 312 384
#     4  10  22  43  63  87 129 171 207 254 326 382
#     4  10  24  40  63  91 127 168 205 267 326 381
#     4  10  22  42  64  90 127 171 204 253 319 381
#     4  10  23  38  61  88 125 164 204 256 317 374
#     4  11  23  39  64  93 123 161 213 262 305 373
#
# _framework density 19.942686999999999
#
# number of rings (size 3 to 8) (size 9 to 14) (size 15 to 20)
#    0.000    1.667    0.000    3.000    9.333    6.000 
#    6.000    4.167    0.000    0.000    0.000    0.000 
#    0.000    0.000    0.000    0.000    0.000    0.000 
#
# Total GULP energy -297612.773195 kJ/mol
# GULP energy per Si atom -12400.532216 kJ/mol
# Density = 1.989730 g / cm^3
# Si number density = 19.942687 Si / 1000 Ang^3
#
#
#
# Elastic Constant Matrix: (Units=GPa)
#
#
# Indices 1 2 3 4 5 6 
#
# 1 128.2537 36.0389 35.4645 0.0000 -4.3908 0.0000
# 2 36.0389 62.4928 33.0467 0.0000 0.8166 0.0000
# 3 35.4645 33.0467 83.5345 0.0000 -3.1569 0.0000
# 4 0.0000 0.0000 0.0000 19.0426 0.0000 -0.5409
# 5 -4.3908 0.8166 -3.1569 0.0000 30.9877 0.0000
# 6 0.0000 0.0000 0.0000 -0.5409 0.0000 40.4440
#
#
#
# Elastic Compliance Matrix: (Units=1/GPa)
#
#
# Indices 1 2 3 4 5 6 
#
# 1 0.009720 -0.004381 -0.002346 0.000000 0.001254 0.000000
# 2 -0.004381 0.022266 -0.007021 0.000000 -0.001923 0.000000
# 3 -0.002346 -0.007021 0.015800 0.000000 0.001462 0.000000
# 4 0.000000 0.000000 0.000000 0.052534 0.000000 0.000703
# 5 0.001254 -0.001923 0.001462 0.000000 0.032648 0.000000
# 6 0.000000 0.000000 0.000000 0.000703 0.000000 0.024735
#
#
# Mechanical properties :
#
#
# Convention : Reuss Voigt Hill
#
# Bulk Modulus (GPa) = 49.28691 53.70900 51.49796
# Shear Modulus (GPa) = 26.04665 29.41025 27.72845
#
# Velocity S-wave (km/s) = 3.61789 3.84440 3.73286
# Velocity P-wave (km/s) = 6.49770 6.83345 6.66769
#
# Compressibility (1/GPa) = 0.02028936
#
# Stress axis : x y z
#
# Youngs Moduli (GPa) = 102.88348 44.91053 63.29099
#
# Poissons Ratio (x) = 0.19676 0.14848
# Poissons Ratio (y) = 0.45074 0.44439
# Poissons Ratio (z) = 0.24136 0.31534
#
# Static dielectric constant tensor:
#      x y z
#    x 3.797910 0.000000 0.005230 
#    y 0.000000 3.691300 0.000000 
#    z 0.005230 0.000000 3.653440 
# 
# 
# High freq. dielectric constant tensor:
#      x y z
#    x 1.797320 0.000000 -0.001080 
#    y 0.000000 1.784060 0.000000 
#    z -0.001080 0.000000 1.781070 
# 
# From -- ./inp_files/176861.got.cif
#   From: 2010.06.25/outbox.cif.g09.slc.cpg/sg15_89_cif.got.tgz:176861.got - 2010.06.28 07:06:18.
