data_PCOD8146627
_publ_section_title
;
Structure prediction by ZEFSAII (Michael W. Deem and Ramdas Pophale) SiO2 
 PCOD8146627
Probable space group: C 2/C
;
_chemical_formula_sum "Si O2"
_cell_formula_units_Z 52
_cell_length_a 11.077063
_cell_length_b 16.564905
_cell_length_c 13.959694
_cell_angle_alpha 90.000000
_cell_angle_beta 71.893667
_cell_angle_gamma 90.000000
_cell_volume 2434.630678
_symmetry_space_group_name_H-M "C 2/C"
_symmetry_group_IT_number 15
_symmetry_cell_setting 'monoclinic'
loop_
_space_group_symop_operation_xyz
x,y,z
-x,y,1/2-z
-x,-y,-z
x,-y,1/2+z
1/2+x,1/2+y,z
1/2-x,1/2+y,1/2-z
1/2-x,1/2-y,-z
1/2+x,1/2-y,1/2+z
loop_
_atom_site_type_symbol
_atom_site_label
_atom_site_fract_x
_atom_site_fract_y
_atom_site_fract_z
Si Si1 0.046187 0.441362 0.633702
Si Si2 0.310482 0.341861 0.903587
Si Si3 0.863126 0.739795 0.397680
Si Si4 0.684944 0.998861 0.927069
Si Si5 0.500000 0.235138 0.750000
Si Si6 0.375752 0.293987 0.086812
Si Si7 0.283933 0.842808 0.206680
O O1 0.093145 0.350498 0.635008
O O2 0.160520 0.487107 0.547803
O O3 0.000000 0.475956 0.750000
O O4 0.931470 0.449998 0.589198
O O5 0.300396 0.436908 0.883610
O O6 0.390356 0.294677 0.806822
O O7 0.174673 0.295609 0.930762
O O8 0.383947 0.340960 0.985614
O O9 0.750000 0.750000 0.500000
O O10 0.805712 0.772623 0.313478
O O11 0.984797 0.790560 0.401547
O O12 0.719550 0.079953 0.861233
O O13 0.566119 0.180165 0.816752
O O14 0.279891 0.350752 0.173064
#
# Coordination Sequence:
#
# PCOD8146627 Si02
#       7
#     8   8   8   8   4   8   8
#     4  11  25  41  69  94 138 175 232 271 339 389
#     4  10  22  43  67  97 136 170 229 271 336 395
#     4  12  22  43  67  99 130 180 225 272 324 420
#     4  11  25  43  65 105 133 174 222 296 323 401
#     4  10  24  44  68  96 130 192 212 274 332 422
#     4  10  22  41  70  93 130 186 223 267 331 416
#     4  11  24  42  70  96 137 167 232 272 338 395
#
# _framework density 21.358476
#
# number of rings (size 3 to 8) (size 9 to 14) (size 15 to 20)
#    0.000    1.231    3.077    2.308    5.385    2.462 
#    2.769    0.769    0.000    0.000    0.000    0.000 
#    0.000    0.000    0.000    0.000    0.000    0.000 
#
# Total GULP energy -322092.789901 kJ/mol
# GULP energy per Si atom -12388.184227 kJ/mol
# Density = 2.130986 g / cm^3
# Si number density = 21.358476 Si / 1000 Ang^3
#
#
#
# Elastic Constant Matrix: (Units=GPa)
#
#
# Indices 1 2 3 4 5 6 
#
# 1 119.5670 39.9449 12.4077 0.0000 11.3239 0.0000
# 2 39.9449 112.2539 33.6043 0.0000 7.0801 0.0000
# 3 12.4077 33.6043 100.0134 0.0000 5.0576 0.0000
# 4 0.0000 0.0000 0.0000 10.3799 0.0000 0.9929
# 5 11.3239 7.0801 5.0576 0.0000 34.0717 0.0000
# 6 0.0000 0.0000 0.0000 0.9929 0.0000 30.5697
#
#
#
# Elastic Compliance Matrix: (Units=1/GPa)
#
#
# Indices 1 2 3 4 5 6 
#
# 1 0.009704 -0.003303 0.000035 0.000000 -0.002544 0.000000
# 2 -0.003303 0.011114 -0.003288 0.000000 -0.000724 0.000000
# 3 0.000035 -0.003288 0.011149 0.000000 -0.000983 0.000000
# 4 0.000000 0.000000 0.000000 0.096640 0.000000 -0.003139
# 5 -0.002544 -0.000724 -0.000983 0.000000 0.030492 0.000000
# 6 0.000000 0.000000 0.000000 -0.003139 0.000000 0.032814
#
#
# Mechanical properties :
#
#
# Convention : Reuss Voigt Hill
#
# Bulk Modulus (GPa) = 53.03885 55.97200 54.50543
# Shear Modulus (GPa) = 23.66193 31.39610 27.52901
#
# Velocity S-wave (km/s) = 3.33204 3.83816 3.59403
# Velocity P-wave (km/s) = 6.30000 6.77532 6.54197
#
# Compressibility (1/GPa) = 0.01885410
#
# Stress axis : x y z
#
# Youngs Moduli (GPa) = 103.04635 89.97947 89.69584
#
# Poissons Ratio (x) = 0.29721 -0.00310
# Poissons Ratio (y) = 0.34038 0.29490
# Poissons Ratio (z) = -0.00356 0.29583
#
# Static dielectric constant tensor:
#      x y z
#    x 4.543650 0.000000 0.381670 
#    y 0.000000 3.758360 0.000000 
#    z 0.381670 0.000000 4.356440 
# 
# 
# High freq. dielectric constant tensor:
#      x y z
#    x 1.834190 0.000000 0.007450 
#    y 0.000000 1.823780 0.000000 
#    z 0.007450 0.000000 1.849200 
# 
# From -- ./inp_files/144168.got.cif
#   From: 2010.06.25/outbox.cif.g09.slc.cpg/sg15_73_cif.got.tgz:144168.got - 2010.06.28 07:06:18.
