data_PCOD8146712
_publ_section_title
;
Structure prediction by ZEFSAII (Michael W. Deem and Ramdas Pophale) SiO2 
 PCOD8146712
Probable space group: C 2/C
;
_chemical_formula_sum "Si O2"
_cell_formula_units_Z 44
_cell_length_a 7.073701
_cell_length_b 24.247516
_cell_length_c 15.898120
_cell_angle_alpha 90.000000
_cell_angle_beta 47.165301
_cell_angle_gamma 90.000000
_cell_volume 1999.641856
_symmetry_space_group_name_H-M "C 2/C"
_symmetry_group_IT_number 15
_symmetry_cell_setting 'monoclinic'
loop_
_space_group_symop_operation_xyz
x,y,z
-x,y,1/2-z
-x,-y,-z
x,-y,1/2+z
1/2+x,1/2+y,z
1/2-x,1/2+y,1/2-z
1/2-x,1/2-y,-z
1/2+x,1/2-y,1/2+z
loop_
_atom_site_type_symbol
_atom_site_label
_atom_site_fract_x
_atom_site_fract_y
_atom_site_fract_z
Si Si1 0.561807 0.763175 0.482437
Si Si2 0.202323 0.068602 0.968535
Si Si3 0.000000 0.802469 0.250000
Si Si4 0.230309 0.828895 0.353147
Si Si5 0.112626 0.545214 0.123790
Si Si6 0.236613 0.626687 0.377843
O O1 0.750000 0.750000 0.500000
O O2 0.738460 0.766982 0.344808
O O3 0.380858 0.709083 0.536653
O O4 0.401647 0.817993 0.549728
O O5 0.302937 0.112646 0.870756
O O6 0.404533 0.017601 0.905220
O O7 0.188085 0.089827 0.066707
O O8 0.913509 0.056985 0.027308
O O9 0.947895 0.835871 0.178125
O O10 0.500000 0.799942 0.250000
O O11 0.000000 0.547879 0.250000
O O12 0.960284 0.590418 0.116826
O O13 0.500000 0.641587 0.250000
#
# Coordination Sequence:
#
# PCOD8146712 Si02
#       6
#     8   8   4   8   8   8
#     4  10  23  41  65  98 135 176 219 275 335 404
#     4  11  25  42  69  97 135 179 227 286 336 407
#     4  10  22  42  62  92 138 172 222 266 332 400
#     4  11  23  42  64  99 132 174 220 270 335 404
#     4  11  23  45  66  98 135 174 233 281 344 399
#     4  12  24  44  70 103 134 182 226 283 345 408
#
# _framework density 22.003941999999999
#
# number of rings (size 3 to 8) (size 9 to 14) (size 15 to 20)
#    0.000    1.091    1.818    4.909    0.000    5.818 
#    8.182    3.636    0.000    0.000    0.000    0.000 
#    0.000    0.000    0.000    0.000    0.000    0.000 
#
# Total GULP energy -272600.336785 kJ/mol
# GULP energy per Si atom -12390.924399 kJ/mol
# Density = 2.195386 g / cm^3
# Si number density = 22.003942 Si / 1000 Ang^3
#
#
#
# Elastic Constant Matrix: (Units=GPa)
#
#
# Indices 1 2 3 4 5 6 
#
# 1 62.0642 20.1351 24.6844 0.0001 -3.0559 0.0004
# 2 20.1351 105.5362 38.4730 0.0000 -7.0429 0.0000
# 3 24.6844 38.4730 133.4446 0.0003 -6.5771 0.0009
# 4 0.0001 0.0000 0.0003 30.8945 -0.0001 14.1214
# 5 -3.0559 -7.0429 -6.5771 -0.0001 42.7105 -0.0003
# 6 0.0004 0.0000 0.0009 14.1214 -0.0003 79.8436
#
#
#
# Elastic Compliance Matrix: (Units=1/GPa)
#
#
# Indices 1 2 3 4 5 6 
#
# 1 0.017962 -0.002450 -0.002593 0.000000 0.000482 0.000000
# 2 -0.002450 0.010993 -0.002656 0.000000 0.001228 0.000000
# 3 -0.002593 -0.002656 0.008775 0.000000 0.000728 0.000000
# 4 0.000000 0.000000 0.000000 0.035215 0.000000 -0.006228
# 5 0.000482 0.001228 0.000728 0.000000 0.023763 0.000000
# 6 0.000000 0.000000 0.000000 -0.006228 0.000000 0.013626
#
#
# Mechanical properties :
#
#
# Convention : Reuss Voigt Hill
#
# Bulk Modulus (GPa) = 44.77495 51.95888 48.36692
# Shear Modulus (GPa) = 37.54495 45.20654 41.37574
#
# Velocity S-wave (km/s) = 4.13520 4.53755 4.34104
# Velocity P-wave (km/s) = 6.57211 7.14963 6.86694
#
# Compressibility (1/GPa) = 0.02233392
#
# Stress axis : x y z
#
# Youngs Moduli (GPa) = 55.67332 90.96797 113.96232
#
# Poissons Ratio (x) = 0.22284 0.29545
# Poissons Ratio (y) = 0.13638 0.30264
# Poissons Ratio (z) = 0.14434 0.24158
#
# Static dielectric constant tensor:
#      x y z
#    x 0.081280 0.000000 9.500450 
#    y 0.000000 4.333130 0.000010 
#    z 9.500450 0.000010 -18.766460 
# 
# 
# High freq. dielectric constant tensor:
#      x y z
#    x 1.872830 0.000000 -0.005820 
#    y 0.000000 1.860710 0.000000 
#    z -0.005820 0.000000 1.888160 
# 
# From -- ./inp_files/193145.got.cif
#   From: 2010.06.25/outbox.cif.g09.slc.cpg/sg15_97_cif.got.tgz:193145.got - 2010.06.28 07:06:18.
