data_PCOD8146049
_publ_section_title
;
Structure prediction by ZEFSAII (Michael W. Deem and Ramdas Pophale) SiO2 
 PCOD8146049
Probable space group: C 2/C
;
_chemical_formula_sum "Si O2"
_cell_formula_units_Z 56
_cell_length_a 8.768283
_cell_length_b 23.105170
_cell_length_c 13.747133
_cell_angle_alpha 90.000000
_cell_angle_beta 112.176443
_cell_angle_gamma 90.000000
_cell_volume 2579.045318
_symmetry_space_group_name_H-M "C 2/C"
_symmetry_group_IT_number 15
_symmetry_cell_setting 'monoclinic'
loop_
_space_group_symop_operation_xyz
x,y,z
-x,y,1/2-z
-x,-y,-z
x,-y,1/2+z
1/2+x,1/2+y,z
1/2-x,1/2+y,1/2-z
1/2-x,1/2-y,-z
1/2+x,1/2-y,1/2+z
loop_
_atom_site_type_symbol
_atom_site_label
_atom_site_fract_x
_atom_site_fract_y
_atom_site_fract_z
Si Si1 0.845178 0.683074 0.766192
Si Si2 0.729012 0.047649 0.951436
Si Si3 0.495854 0.141642 0.512028
Si Si4 0.923776 0.090934 0.830225
Si Si5 0.503368 0.608168 0.141378
Si Si6 0.296494 0.284736 0.606977
Si Si7 0.233085 0.084363 0.038354
O O1 0.908930 0.686938 0.893269
O O2 0.671560 0.650245 0.719100
O O3 0.819982 0.745233 0.707894
O O4 0.000000 0.651559 0.750000
O O5 0.569678 0.086632 0.939716
O O6 0.785971 0.052079 0.851444
O O7 0.701256 0.980403 0.964759
O O8 0.879938 0.067864 0.052977
O O9 0.352171 0.170509 0.414372
O O10 0.617780 0.124082 0.456579
O O11 0.000000 0.062793 0.750000
O O12 0.074858 0.102969 0.937404
O O13 0.500000 0.585046 0.250000
O O14 0.459078 0.676573 0.127228
O O15 0.684760 0.597952 0.138643
O O16 0.250000 0.250000 0.500000
#
# Coordination Sequence:
#
# PCOD8146049 Si02
#       7
#     8   8   8   8   8   8   8
#     4  12  21  41  67  96 124 174 217 268 324 383
#     4  10  22  40  65  96 132 178 211 254 339 382
#     4  11  23  42  67  96 134 167 219 275 317 394
#     4  11  21  37  64 101 131 162 224 266 311 393
#     4  10  22  41  64  92 129 169 217 264 320 395
#     4  11  22  40  68  90 124 171 221 259 332 385
#     4  11  23  41  65  95 137 169 210 276 324 381
#
# _framework density 21.713460999999999
#
# number of rings (size 3 to 8) (size 9 to 14) (size 15 to 20)
#    0.000    1.143    4.286    4.286    0.000    2.286 
#    0.000    8.571    3.143    0.000    0.000    0.000 
#    0.000    0.000    0.000    0.000    0.000    0.000 
#
# Total GULP energy -346931.806536 kJ/mol
# GULP energy per Si atom -12390.421662 kJ/mol
# Density = 2.166404 g / cm^3
# Si number density = 21.713461 Si / 1000 Ang^3
#
#
#
# Elastic Constant Matrix: (Units=GPa)
#
#
# Indices 1 2 3 4 5 6 
#
# 1 124.4376 34.5476 43.7172 0.0000 -22.4429 0.0000
# 2 34.5476 96.0025 40.1792 0.0000 0.0276 0.0000
# 3 43.7172 40.1792 94.3616 0.0000 -25.0471 0.0000
# 4 0.0000 0.0000 0.0000 15.3308 0.0000 -7.4507
# 5 -22.4429 0.0276 -25.0471 0.0000 40.2863 0.0000
# 6 0.0000 0.0000 0.0000 -7.4507 0.0000 19.0682
#
#
#
# Elastic Compliance Matrix: (Units=1/GPa)
#
#
# Indices 1 2 3 4 5 6 
#
# 1 0.010447 -0.002682 -0.002579 0.000000 0.004219 0.000000
# 2 -0.002682 0.013934 -0.006096 0.000000 -0.005293 0.000000
# 3 -0.002579 -0.006096 0.016776 0.000000 0.008998 0.000000
# 4 0.000000 0.000000 0.000000 0.080518 0.000000 0.031462
# 5 0.004219 -0.005293 0.008998 0.000000 0.032770 0.000000
# 6 0.000000 0.000000 0.000000 0.031462 0.000000 0.064737
#
#
# Mechanical properties :
#
#
# Convention : Reuss Voigt Hill
#
# Bulk Modulus (GPa) = 54.21338 61.29886 57.75612
# Shear Modulus (GPa) = 20.15770 28.02758 24.09264
#
# Velocity S-wave (km/s) = 3.05019 3.59666 3.33464
# Velocity P-wave (km/s) = 6.11774 6.74834 6.44076
#
# Compressibility (1/GPa) = 0.01844563
#
# Stress axis : x y z
#
# Youngs Moduli (GPa) = 95.71723 71.76589 59.60834
#
# Poissons Ratio (x) = 0.19245 0.15370
# Poissons Ratio (y) = 0.25668 0.36336
# Poissons Ratio (z) = 0.24681 0.43748
#
# Static dielectric constant tensor:
#      x y z
#    x 4.265390 0.000000 -0.117520 
#    y 0.000000 3.917640 0.000000 
#    z -0.117520 0.000000 4.101610 
# 
# 
# High freq. dielectric constant tensor:
#      x y z
#    x 1.854820 0.000000 -0.000690 
#    y 0.000000 1.836960 0.000000 
#    z -0.000690 0.000000 1.851300 
# 
# From -- ./inp_files/137441.got.cif
#   From: 2010.06.25/outbox.cif.g09.slc.cpg/sg15_69_cif.got.tgz:137441.got - 2010.06.28 07:06:18.
