data_PCOD8146226
_publ_section_title
;
Structure prediction by ZEFSAII (Michael W. Deem and Ramdas Pophale) SiO2 
 PCOD8146226
Probable space group: C 2/C
;
_chemical_formula_sum "Si O2"
_cell_formula_units_Z 40
_cell_length_a 7.672881
_cell_length_b 14.661428
_cell_length_c 16.568548
_cell_angle_alpha 90.000000
_cell_angle_beta 109.307597
_cell_angle_gamma 90.000000
_cell_volume 1759.055029
_symmetry_space_group_name_H-M "C 2/C"
_symmetry_group_IT_number 15
_symmetry_cell_setting 'monoclinic'
loop_
_space_group_symop_operation_xyz
x,y,z
-x,y,1/2-z
-x,-y,-z
x,-y,1/2+z
1/2+x,1/2+y,z
1/2-x,1/2+y,1/2-z
1/2-x,1/2-y,-z
1/2+x,1/2-y,1/2+z
loop_
_atom_site_type_symbol
_atom_site_label
_atom_site_fract_x
_atom_site_fract_y
_atom_site_fract_z
Si Si1 0.903194 0.647609 0.878193
Si Si2 0.202772 0.888756 0.509982
Si Si3 0.701526 0.181143 0.304984
Si Si4 0.198598 0.008097 0.743518
Si Si5 0.296482 0.415041 0.434339
O O1 0.799682 0.655296 0.947664
O O2 0.842348 0.734615 0.815577
O O3 0.853057 0.554208 0.823862
O O4 0.123226 0.650588 0.925203
O O5 0.305825 0.852299 0.604199
O O6 0.985921 0.860073 0.480473
O O7 0.215195 0.998742 0.506671
O O8 0.500000 0.217050 0.250000
O O9 0.761095 0.099596 0.254429
O O10 0.205387 0.052054 0.657355
O O11 0.000000 0.027498 0.750000
#
# Coordination Sequence:
#
# PCOD8146226 Si02
#       5
#     8   8   8   8   8
#     4  12  23  43  74  98 137 185 221 283 346 397
#     4  10  22  44  68 101 138 175 227 280 339 407
#     4  11  26  45  64 103 139 178 234 282 336 414
#     4  11  22  43  67  97 138 182 228 283 342 405
#     4  10  22  40  70 101 133 176 228 273 340 412
#
# _framework density 22.739481999999999
#
# number of rings (size 3 to 8) (size 9 to 14) (size 15 to 20)
#    0.000    1.200    2.000    4.800    0.000    2.400 
#    0.000    0.000    0.000    0.000    0.000    0.000 
#    0.000    0.000    0.000    0.000    0.000    0.000 
#
# Total GULP energy -248129.440051 kJ/mol
# GULP energy per Si atom -12406.472003 kJ/mol
# Density = 2.268773 g / cm^3
# Si number density = 22.739482 Si / 1000 Ang^3
#
#
#
# Elastic Constant Matrix: (Units=GPa)
#
#
# Indices 1 2 3 4 5 6 
#
# 1 131.2355 43.6082 47.0699 0.0000 29.2454 0.0000
# 2 43.6082 101.7329 28.7263 0.0000 8.0357 0.0000
# 3 47.0699 28.7263 90.3594 0.0000 20.7752 0.0000
# 4 0.0000 0.0000 0.0000 25.5852 0.0000 8.1675
# 5 29.2454 8.0357 20.7752 0.0000 43.7748 0.0000
# 6 0.0000 0.0000 0.0000 8.1675 0.0000 27.9187
#
#
#
# Elastic Compliance Matrix: (Units=1/GPa)
#
#
# Indices 1 2 3 4 5 6 
#
# 1 0.011166 -0.003374 -0.003559 0.000000 -0.005151 0.000000
# 2 -0.003374 0.011825 -0.002268 0.000000 0.001160 0.000000
# 3 -0.003559 -0.002268 0.014592 0.000000 -0.004131 0.000000
# 4 0.000000 0.000000 0.000000 0.043111 0.000000 -0.012612
# 5 -0.005151 0.001160 -0.004131 0.000000 0.028033 0.000000
# 6 0.000000 0.000000 0.000000 -0.012612 0.000000 0.039508
#
#
# Mechanical properties :
#
#
# Convention : Reuss Voigt Hill
#
# Bulk Modulus (GPa) = 52.14141 62.45963 57.30052
# Shear Modulus (GPa) = 28.89652 33.05063 30.97357
#
# Velocity S-wave (km/s) = 3.56865 3.81655 3.69468
# Velocity P-wave (km/s) = 6.32139 6.85190 6.59198
#
# Compressibility (1/GPa) = 0.01917861
#
# Stress axis : x y z
#
# Youngs Moduli (GPa) = 89.56059 84.56721 68.53105
#
# Poissons Ratio (x) = 0.28535 0.24393
# Poissons Ratio (y) = 0.30220 0.15545
# Poissons Ratio (z) = 0.31878 0.19182
#
# Static dielectric constant tensor:
#      x y z
#    x 4.089460 0.000000 0.164100 
#    y 0.000000 4.120530 0.000000 
#    z 0.164100 0.000000 4.137050 
# 
# 
# High freq. dielectric constant tensor:
#      x y z
#    x 1.897080 0.000000 0.010810 
#    y 0.000000 1.889770 0.000000 
#    z 0.010810 0.000000 1.903590 
# 
# From -- ./inp_files/189050.got.cif
#   From: 2010.06.25/outbox.cif.g09.slc.cpg/sg15_95_cif.got.tgz:189050.got - 2010.06.28 07:06:18.
