data_PCOD8146127
_publ_section_title
;
Structure prediction by ZEFSAII (Michael W. Deem and Ramdas Pophale) SiO2 
 PCOD8146127
Probable space group: C 2/C
;
_chemical_formula_sum "Si O2"
_cell_formula_units_Z 32
_cell_length_a 7.295966
_cell_length_b 13.632074
_cell_length_c 16.707142
_cell_angle_alpha 90.000000
_cell_angle_beta 117.580441
_cell_angle_gamma 90.000000
_cell_volume 1472.847810
_symmetry_space_group_name_H-M "C 2/C"
_symmetry_group_IT_number 15
_symmetry_cell_setting 'monoclinic'
loop_
_space_group_symop_operation_xyz
x,y,z
-x,y,1/2-z
-x,-y,-z
x,-y,1/2+z
1/2+x,1/2+y,z
1/2-x,1/2+y,1/2-z
1/2-x,1/2-y,-z
1/2+x,1/2-y,1/2+z
loop_
_atom_site_type_symbol
_atom_site_label
_atom_site_fract_x
_atom_site_fract_y
_atom_site_fract_z
Si Si1 0.755281 0.637445 0.019044
Si Si2 0.791548 0.598661 0.335247
Si Si3 0.905577 0.818469 0.850942
Si Si4 0.702618 0.381952 0.334353
O O1 0.621929 0.619441 0.072323
O O2 0.988955 0.603981 0.078908
O O3 0.750000 0.750000 0.000000
O O4 0.663219 0.588275 0.920128
O O5 0.777848 0.654045 0.247798
O O6 0.626891 0.650857 0.360995
O O7 0.753761 0.485405 0.304251
O O8 0.883882 0.700390 0.862007
O O9 0.500000 0.338748 0.250000
#
# Coordination Sequence:
#
# PCOD8146127 Si02
#       4
#     8   8   8   8
#     4  10  22  40  67  93 129 171 214 271 322 381
#     4  11  22  44  63  97 131 166 221 265 321 396
#     4  10  22  42  67  91 133 170 211 275 321 380
#     4  11  22  42  65  94 132 171 217 271 320 387
#
# _framework density 21.726616
#
# number of rings (size 3 to 8) (size 9 to 14) (size 15 to 20)
#    0.000    1.500    2.500    4.500    0.000    5.000 
#    9.000    0.000    0.000    0.000    0.000    0.000 
#    0.000    0.000    0.000    0.000    0.000    0.000 
#
# Total GULP energy -198256.835859 kJ/mol
# GULP energy per Si atom -12391.052241 kJ/mol
# Density = 2.167717 g / cm^3
# Si number density = 21.726616 Si / 1000 Ang^3
#
#
#
# Elastic Constant Matrix: (Units=GPa)
#
#
# Indices 1 2 3 4 5 6 
#
# 1 63.0348 23.1837 26.9257 0.0000 -18.1387 0.0000
# 2 23.1837 104.7461 -3.5150 0.0000 -14.0224 0.0000
# 3 26.9257 -3.5150 147.7327 0.0000 -24.6278 0.0000
# 4 0.0000 0.0000 0.0000 -84.4017 0.0000 -119.7771
# 5 -18.1387 -14.0224 -24.6278 0.0000 34.9109 0.0000
# 6 0.0000 0.0000 0.0000 -119.7771 0.0000 -110.2984
#
#
#
# Elastic Compliance Matrix: (Units=1/GPa)
#
#
# Indices 1 2 3 4 5 6 
#
# 1 0.020409 -0.003623 -0.002585 0.000000 0.007325 0.000000
# 2 -0.003623 0.010875 0.001511 0.000000 0.003552 0.000000
# 3 -0.002585 0.001511 0.008107 0.000000 0.004983 0.000000
# 4 0.000000 0.000000 0.000000 0.021897 0.000000 -0.023779
# 5 0.007325 0.003552 0.004983 0.000000 0.037392 0.000000
# 6 0.000000 0.000000 0.000000 -0.023779 0.000000 0.016756
#
#
# Mechanical properties :
#
#
# Convention : Reuss Voigt Hill
#
# Bulk Modulus (GPa) = 33.33683 45.41139 39.37411
# Shear Modulus (GPa) = 37.08433 -14.02990 11.52722
#
# Velocity S-wave (km/s) = 4.13590 -2.54391 2.30588
# Velocity P-wave (km/s) = 6.17937 3.50970 5.02507
#
# Compressibility (1/GPa) = 0.02999685
#
# Stress axis : x y z
#
# Youngs Moduli (GPa) = 48.99843 91.95390 123.35462
#
# Poissons Ratio (x) = 0.33317 0.31884
# Poissons Ratio (y) = 0.17753 -0.18641
# Poissons Ratio (z) = 0.12665 -0.13896
#
# Static dielectric constant tensor:
#      x y z
#    x 3.881940 0.000000 -0.697780 
#    y 0.000000 3.955210 0.000000 
#    z -0.697780 0.000000 4.788310 
# 
# 
# High freq. dielectric constant tensor:
#      x y z
#    x 1.828720 0.000000 -0.009100 
#    y 0.000000 1.854900 0.000000 
#    z -0.009100 0.000000 1.877630 
# 
# From -- ./inp_files/75333.got.cif
#   From: 2010.06.25/outbox.cif.g09.slc.cpg/sg15_38_cif.got.tgz:75333.got - 2010.06.28 07:06:18.
