data_PCOD8146025
_publ_section_title
;
Structure prediction by ZEFSAII (Michael W. Deem and Ramdas Pophale) SiO2 
 PCOD8146025
Probable space group: C 2/C
;
_chemical_formula_sum "Si O2"
_cell_formula_units_Z 64
_cell_length_a 8.715166
_cell_length_b 17.293155
_cell_length_c 20.941271
_cell_angle_alpha 90.000000
_cell_angle_beta 79.464604
_cell_angle_gamma 90.000000
_cell_volume 3102.910477
_symmetry_space_group_name_H-M "C 2/C"
_symmetry_group_IT_number 15
_symmetry_cell_setting 'monoclinic'
loop_
_space_group_symop_operation_xyz
x,y,z
-x,y,1/2-z
-x,-y,-z
x,-y,1/2+z
1/2+x,1/2+y,z
1/2-x,1/2+y,1/2-z
1/2-x,1/2-y,-z
1/2+x,1/2-y,1/2+z
loop_
_atom_site_type_symbol
_atom_site_label
_atom_site_fract_x
_atom_site_fract_y
_atom_site_fract_z
Si Si1 0.678910 0.572560 0.527829
Si Si2 0.055768 0.572714 0.893819
Si Si3 0.240178 0.405917 0.002512
Si Si4 0.811559 0.686344 0.420689
Si Si5 0.218632 0.231907 0.183169
Si Si6 0.602729 0.097757 0.374215
Si Si7 0.449636 0.310406 0.068086
Si Si8 0.119357 0.728577 0.827472
O O1 0.843304 0.580427 0.550249
O O2 0.649908 0.482304 0.513338
O O3 0.692238 0.630435 0.466512
O O4 0.535820 0.608042 0.580357
O O5 0.098886 0.492034 0.856400
O O6 0.093065 0.637605 0.839336
O O7 0.877476 0.575877 0.930428
O O8 0.344433 0.330994 0.013666
O O9 0.149392 0.386278 0.944654
O O10 0.713720 0.736469 0.378617
O O11 0.931607 0.631568 0.373902
O O12 0.915778 0.745649 0.456981
O O13 0.273187 0.142358 0.179546
O O14 0.342096 0.283657 0.134710
O O15 0.216689 0.262887 0.255198
O O16 0.048701 0.231224 0.164263
#
# Coordination Sequence:
#
# PCOD8146025 Si02
#       8
#     8   8   8   8   8   8   8   8
#     4  11  21  38  58  98 129 159 198 249 317 371
#     4  11  20  42  66  89 126 166 198 248 311 371
#     4  11  21  38  62  93 133 163 193 248 310 381
#     4  11  22  38  62  94 124 157 203 256 303 362
#     4  10  25  44  62  87 119 164 214 256 303 361
#     4  10  22  40  65  92 126 160 198 248 312 367
#     4  11  23  35  60  92 125 160 205 246 307 359
#     4  11  24  44  66  84 120 163 214 259 299 357
#
# _framework density 20.625796999999999
#
# number of rings (size 3 to 8) (size 9 to 14) (size 15 to 20)
#    0.000    1.250    5.000    1.500    1.750    4.000 
#    0.000    3.750    5.500    0.000    0.000    0.000 
#    0.000    0.000    0.000    0.000    0.000    0.000 
#
# Total GULP energy -396705.487583 kJ/mol
# GULP energy per Si atom -12397.046487 kJ/mol
# Density = 2.057885 g / cm^3
# Si number density = 20.625797 Si / 1000 Ang^3
#
#
#
# Elastic Constant Matrix: (Units=GPa)
#
#
# Indices 1 2 3 4 5 6 
#
# 1 72.1498 29.5346 12.7241 0.0000 -4.5536 0.0000
# 2 29.5346 115.1658 42.0014 0.0000 -7.9620 0.0000
# 3 12.7241 42.0014 59.1998 0.0000 -13.7584 0.0000
# 4 0.0000 0.0000 0.0000 25.5733 0.0000 -8.4810
# 5 -4.5536 -7.9620 -13.7584 0.0000 21.9205 0.0000
# 6 0.0000 0.0000 0.0000 -8.4810 0.0000 32.6370
#
#
#
# Elastic Compliance Matrix: (Units=1/GPa)
#
#
# Indices 1 2 3 4 5 6 
#
# 1 0.015560 -0.003773 -0.000275 0.000000 0.001689 0.000000
# 2 -0.003773 0.012653 -0.008524 0.000000 -0.001538 0.000000
# 3 -0.000275 -0.008524 0.026068 0.000000 0.013209 0.000000
# 4 0.000000 0.000000 0.000000 0.042791 0.000000 0.011120
# 5 0.001689 -0.001538 0.013209 0.000000 0.053702 0.000000
# 6 0.000000 0.000000 0.000000 0.011120 0.000000 0.033530
#
#
# Mechanical properties :
#
#
# Convention : Reuss Voigt Hill
#
# Bulk Modulus (GPa) = 34.31952 46.11505 40.21729
# Shear Modulus (GPa) = 22.81447 26.84318 24.82882
#
# Velocity S-wave (km/s) = 3.32944 3.61146 3.47331
# Velocity P-wave (km/s) = 5.60852 6.30846 5.96876
#
# Compressibility (1/GPa) = 0.02913793
#
# Stress axis : x y z
#
# Youngs Moduli (GPa) = 64.26842 79.03206 38.36113
#
# Poissons Ratio (x) = 0.29822 0.01053
# Poissons Ratio (y) = 0.24251 0.32697
# Poissons Ratio (z) = 0.01764 0.67363
#
# Static dielectric constant tensor:
#      x y z
#    x 3.968670 0.000000 -0.105160 
#    y 0.000000 4.041810 0.000000 
#    z -0.105160 0.000000 3.337310 
# 
# 
# High freq. dielectric constant tensor:
#      x y z
#    x 1.824140 0.000000 -0.008110 
#    y 0.000000 1.821980 0.000000 
#    z -0.008110 0.000000 1.762410 
# 
# From -- ./inp_files/265238.got.cif
#   From: 2010.06.25/outbox.cif.g09.slc.cpg/sg15_133_cif.got.tgz:265238.got - 2010.06.28 07:06:18.
