data_PCOD8146423
_publ_section_title
;
Structure prediction by ZEFSAII (Michael W. Deem and Ramdas Pophale) SiO2 
 PCOD8146423
Probable space group: C 2/C
;
_chemical_formula_sum "Si O2"
_cell_formula_units_Z 40
_cell_length_a 8.696600
_cell_length_b 23.692613
_cell_length_c 18.542207
_cell_angle_alpha 90.000000
_cell_angle_beta 150.758207
_cell_angle_gamma 90.000000
_cell_volume 1866.315766
_symmetry_space_group_name_H-M "C 2/C"
_symmetry_group_IT_number 15
_symmetry_cell_setting 'monoclinic'
loop_
_space_group_symop_operation_xyz
x,y,z
-x,y,1/2-z
-x,-y,-z
x,-y,1/2+z
1/2+x,1/2+y,z
1/2-x,1/2+y,1/2-z
1/2-x,1/2-y,-z
1/2+x,1/2-y,1/2+z
loop_
_atom_site_type_symbol
_atom_site_label
_atom_site_fract_x
_atom_site_fract_y
_atom_site_fract_z
Si Si1 0.831791 0.342258 0.606068
Si Si2 0.871369 0.772635 0.773603
Si Si3 0.736050 0.832235 0.446364
Si Si4 0.554765 0.056621 0.619332
Si Si5 0.743735 0.440992 0.458169
O O1 0.469263 0.325284 0.472955
O O2 0.838712 0.392711 0.552434
O O3 0.000000 0.360551 0.750000
O O4 0.008464 0.288422 0.642074
O O5 0.000000 0.792558 0.750000
O O6 0.922484 0.705328 0.805351
O O7 0.089146 0.809596 0.913196
O O8 0.651137 0.897198 0.423170
O O9 0.602247 0.074620 0.555675
O O10 0.874359 0.050618 0.795076
O O11 0.374655 0.997740 0.547285
#
# Coordination Sequence:
#
# PCOD8146423 Si02
#       5
#     8   8   8   8   8
#     4  10  23  42  64  98 129 170 219 267 326 385
#     4  10  22  41  65  89 128 179 212 265 319 388
#     4  10  23  42  61  98 131 166 218 270 324 382
#     4  10  23  43  68  97 130 172 220 267 322 390
#     4  10  23  43  68  97 130 174 218 265 324 394
#
# _framework density 21.432600999999998
#
# number of rings (size 3 to 8) (size 9 to 14) (size 15 to 20)
#    0.000    2.000    0.000    1.200    8.400    1.600 
#   18.000    0.000    0.000    0.000    0.000    0.000 
#    0.000    0.000    0.000    0.000    0.000    0.000 
#
# Total GULP energy -247965.755597 kJ/mol
# GULP energy per Si atom -12398.287780 kJ/mol
# Density = 2.138382 g / cm^3
# Si number density = 21.432601 Si / 1000 Ang^3
#
#
#
# Elastic Constant Matrix: (Units=GPa)
#
#
# Indices 1 2 3 4 5 6 
#
# 1 132.9711 70.7654 37.3071 0.0022 16.8337 0.0022
# 2 70.7654 133.5160 51.6427 -0.0038 21.8021 0.0033
# 3 37.3071 51.6427 66.2356 0.0435 9.6282 -0.0242
# 4 0.0022 -0.0038 0.0435 26.5232 0.0036 7.2162
# 5 16.8337 21.8021 9.6282 0.0036 36.3738 -0.0035
# 6 0.0022 0.0033 -0.0242 7.2162 -0.0035 29.0606
#
#
#
# Elastic Compliance Matrix: (Units=1/GPa)
#
#
# Indices 1 2 3 4 5 6 
#
# 1 0.010804 -0.004575 -0.002278 0.000003 -0.001655 -0.000003
# 2 -0.004575 0.013378 -0.007276 0.000018 -0.003975 -0.000012
# 3 -0.002278 -0.007276 0.022117 -0.000045 -0.000439 0.000031
# 4 0.000003 0.000018 -0.000045 0.040435 -0.000005 -0.010041
# 5 -0.001655 -0.003975 -0.000439 -0.000005 0.030757 0.000005
# 6 -0.000003 -0.000012 0.000031 -0.010041 0.000005 0.036904
#
#
# Mechanical properties :
#
#
# Convention : Reuss Voigt Hill
#
# Bulk Modulus (GPa) = 55.42606 72.46146 63.94376
# Shear Modulus (GPa) = 26.50192 29.92535 28.21363
#
# Velocity S-wave (km/s) = 3.52024 3.74070 3.63214
# Velocity P-wave (km/s) = 6.51456 7.24841 6.89126
#
# Compressibility (1/GPa) = 0.01804205
#
# Stress axis : x y z
#
# Youngs Moduli (GPa) = 92.56129 74.75025 45.21363
#
# Poissons Ratio (x) = 0.34198 0.10298
# Poissons Ratio (y) = 0.42346 0.32897
# Poissons Ratio (z) = 0.21082 0.54387
#
# Static dielectric constant tensor:
#      x y z
#    x 4.114550 0.000010 0.072480 
#    y 0.000010 3.814430 0.000040 
#    z 0.072480 0.000040 4.058600 
# 
# 
# High freq. dielectric constant tensor:
#      x y z
#    x 1.846560 0.000000 -0.005990 
#    y 0.000000 1.835900 0.000000 
#    z -0.005990 0.000000 1.855270 
# 
# From -- ./inp_files/23470.got.cif
#   From: 2010.06.25/outbox.cif.g09.slc.cpg/sg15_12_cif.got.tgz:23470.got - 2010.06.28 07:06:18.
