data_PCOD8146748
_publ_section_title
;
Structure prediction by ZEFSAII (Michael W. Deem and Ramdas Pophale) SiO2 
 PCOD8146748
Probable space group: C 2/C
;
_chemical_formula_sum "Si O2"
_cell_formula_units_Z 56
_cell_length_a 14.544819
_cell_length_b 13.907772
_cell_length_c 23.454832
_cell_angle_alpha 90.000000
_cell_angle_beta 32.744860
_cell_angle_gamma 90.000000
_cell_volume 2566.341249
_symmetry_space_group_name_H-M "C 2/C"
_symmetry_group_IT_number 15
_symmetry_cell_setting 'monoclinic'
loop_
_space_group_symop_operation_xyz
x,y,z
-x,y,1/2-z
-x,-y,-z
x,-y,1/2+z
1/2+x,1/2+y,z
1/2-x,1/2+y,1/2-z
1/2-x,1/2-y,-z
1/2+x,1/2-y,1/2+z
loop_
_atom_site_type_symbol
_atom_site_label
_atom_site_fract_x
_atom_site_fract_y
_atom_site_fract_z
Si Si1 0.372963 0.081221 0.936646
Si Si2 0.307463 0.574483 0.352657
Si Si3 0.754588 0.437208 0.218778
Si Si4 0.532936 0.695551 0.668362
Si Si5 0.780714 0.619767 0.456075
Si Si6 0.055155 0.922868 0.427241
Si Si7 0.813298 0.300341 0.362623
O O1 0.562657 0.103986 0.858344
O O2 0.293267 0.169226 0.940410
O O3 0.363443 0.984717 0.903703
O O4 0.264007 0.050473 0.048249
O O5 0.500000 0.539141 0.250000
O O6 0.220962 0.515503 0.345110
O O7 0.290775 0.689209 0.358235
O O8 0.642731 0.340932 0.267599
O O9 0.653931 0.482057 0.325446
O O10 0.500000 0.671886 0.750000
O O11 0.705007 0.639463 0.559080
O O12 0.565781 0.808095 0.639162
O O13 0.614057 0.634381 0.503662
O O14 0.176619 0.847434 0.393637
O O15 0.000000 0.000000 0.500000
O O16 0.000000 0.338376 0.250000
#
# Coordination Sequence:
#
# PCOD8146748 Si02
#       7
#     8   8   8   8   8   8   8
#     4  12  23  44  69  98 139 183 229 292 356 420
#     4  11  25  44  68 100 136 186 231 290 353 424
#     4  11  24  41  69  96 137 182 227 287 348 419
#     4  10  22  42  63  95 135 173 223 286 340 409
#     4  10  23  39  66  97 129 172 227 285 332 415
#     4  11  22  42  69  96 133 182 229 282 353 411
#     4  11  24  44  67 100 144 174 237 291 352 431
#
# _framework density 21.82095
#
# number of rings (size 3 to 8) (size 9 to 14) (size 15 to 20)
#    0.000    1.143    2.857    3.857    0.000    6.286 
#    0.000    0.000    0.000    0.000    0.000    0.000 
#    0.000    0.000    0.000    0.000    0.000    0.000 
#
# Total GULP energy -346890.656405 kJ/mol
# GULP energy per Si atom -12388.952014 kJ/mol
# Density = 2.177128 g / cm^3
# Si number density = 21.820950 Si / 1000 Ang^3
#
#
#
# Elastic Constant Matrix: (Units=GPa)
#
#
# Indices 1 2 3 4 5 6 
#
# 1 125.3519 51.4046 53.3728 -0.0003 -0.1467 0.0000
# 2 51.4046 98.5879 42.0487 -0.0009 -10.1184 0.0000
# 3 53.3728 42.0487 73.3029 -0.0037 1.5907 0.0005
# 4 -0.0003 -0.0009 -0.0037 24.2491 0.0010 -0.9520
# 5 -0.1467 -10.1184 1.5907 0.0010 46.1258 -0.0002
# 6 0.0000 0.0000 0.0005 -0.9520 -0.0002 22.0145
#
#
#
# Elastic Compliance Matrix: (Units=1/GPa)
#
#
# Indices 1 2 3 4 5 6 
#
# 1 0.012404 -0.003536 -0.006993 -0.000001 -0.000495 0.000000
# 2 -0.003536 0.014930 -0.006065 -0.000001 0.003473 0.000000
# 3 -0.006993 -0.006065 0.022259 0.000003 -0.002120 0.000000
# 4 -0.000001 -0.000001 0.000003 0.041309 -0.000001 0.001786
# 5 -0.000495 0.003473 -0.002120 -0.000001 0.022513 0.000000
# 6 0.000000 0.000000 0.000000 0.001786 0.000000 0.045502
#
#
# Mechanical properties :
#
#
# Convention : Reuss Voigt Hill
#
# Bulk Modulus (GPa) = 60.95509 65.65498 63.30504
# Shear Modulus (GPa) = 25.30704 28.50565 26.90634
#
# Velocity S-wave (km/s) = 3.40922 3.61826 3.51529
# Velocity P-wave (km/s) = 6.59484 6.89993 6.74911
#
# Compressibility (1/GPa) = 0.01640552
#
# Stress axis : x y z
#
# Youngs Moduli (GPa) = 80.61637 66.97789 44.92656
#
# Poissons Ratio (x) = 0.23685 0.31415
# Poissons Ratio (y) = 0.28507 0.27248
# Poissons Ratio (z) = 0.56372 0.40623
#
# Static dielectric constant tensor:
#      x y z
#    x 5.124680 -0.000020 0.169340 
#    y -0.000020 3.967470 0.000000 
#    z 0.169340 0.000000 4.165920 
# 
# 
# High freq. dielectric constant tensor:
#      x y z
#    x 1.861930 0.000000 0.006200 
#    y 0.000000 1.852450 0.000000 
#    z 0.006200 0.000000 1.866890 
# 
# From -- ./inp_files/274467.got.cif
#   From: 2010.06.25/outbox.cif.g09.slc.cpg/sg15_138_cif.got.tgz:274467.got - 2010.06.28 07:06:18.
