data_PCOD8146912
_publ_section_title
;
Structure prediction by ZEFSAII (Michael W. Deem and Ramdas Pophale) SiO2 
 PCOD8146912
Probable space group: C 2/C
;
_chemical_formula_sum "Si O2"
_cell_formula_units_Z 36
_cell_length_a 16.153247
_cell_length_b 14.220429
_cell_length_c 12.760486
_cell_angle_alpha 90.000000
_cell_angle_beta 36.827186
_cell_angle_gamma 90.000000
_cell_volume 1756.948363
_symmetry_space_group_name_H-M "C 2/C"
_symmetry_group_IT_number 15
_symmetry_cell_setting 'monoclinic'
loop_
_space_group_symop_operation_xyz
x,y,z
-x,y,1/2-z
-x,-y,-z
x,-y,1/2+z
1/2+x,1/2+y,z
1/2-x,1/2+y,1/2-z
1/2-x,1/2-y,-z
1/2+x,1/2-y,1/2+z
loop_
_atom_site_type_symbol
_atom_site_label
_atom_site_fract_x
_atom_site_fract_y
_atom_site_fract_z
Si Si1 0.056144 0.331671 0.410094
Si Si2 0.789171 0.475135 0.099473
Si Si3 0.739816 0.348237 0.775758
Si Si4 0.844552 0.839289 0.414346
Si Si5 0.500000 0.080709 0.750000
O O1 0.120604 0.420177 0.405938
O O2 0.144040 0.238365 0.339123
O O3 0.057349 0.353297 0.284993
O O4 0.899985 0.316313 0.609426
O O5 0.711855 0.563748 0.228626
O O6 0.674715 0.409190 0.163484
O O7 0.883198 0.511671 0.910192
O O8 0.694950 0.385901 0.935108
O O9 0.750000 0.750000 0.500000
O O10 0.000000 0.803121 0.250000
#
# Coordination Sequence:
#
# PCOD8146912 Si02
#       5
#     8   8   8   8   4
#     4  11  23  42  67  92 130 170 208 264 313 373
#     4  11  23  41  67  95 127 169 212 262 311 377
#     4  11  24  43  65  96 127 169 212 261 315 377
#     4  12  25  42  67  95 127 169 209 262 319 372
#     4  10  22  42  66  96 124 174 214 250 320 378
#
# _framework density 20.490071
#
# number of rings (size 3 to 8) (size 9 to 14) (size 15 to 20)
#    0.000    0.889    2.222    6.667    1.556    4.444 
#    6.000    0.000    0.000    0.000    0.000    0.000 
#    0.000    0.000    0.000    0.000    0.000    0.000 
#
# Total GULP energy -223234.003591 kJ/mol
# GULP energy per Si atom -12401.889088 kJ/mol
# Density = 2.044343 g / cm^3
# Si number density = 20.490071 Si / 1000 Ang^3
#
#
#
# Elastic Constant Matrix: (Units=GPa)
#
#
# Indices 1 2 3 4 5 6 
#
# 1 128.3160 56.8127 64.1547 0.0000 1.6449 0.0000
# 2 56.8127 125.4815 53.7112 0.0000 -12.8673 0.0000
# 3 64.1547 53.7112 134.6664 0.0000 1.6926 0.0000
# 4 0.0000 0.0000 0.0000 19.7856 0.0000 -2.1427
# 5 1.6449 -12.8673 1.6926 0.0000 40.2066 0.0000
# 6 0.0000 0.0000 0.0000 -2.1427 0.0000 36.5921
#
#
#
# Elastic Compliance Matrix: (Units=1/GPa)
#
#
# Indices 1 2 3 4 5 6 
#
# 1 0.011395 -0.003608 -0.003971 0.000000 -0.001454 0.000000
# 2 -0.003608 0.011193 -0.002794 0.000000 0.003847 0.000000
# 3 -0.003971 -0.002794 0.010447 0.000000 -0.001171 0.000000
# 4 0.000000 0.000000 0.000000 0.050864 0.000000 0.002978
# 5 -0.001454 0.003847 -0.001171 0.000000 0.026212 0.000000
# 6 0.000000 0.000000 0.000000 0.002978 0.000000 0.027503
#
#
# Mechanical properties :
#
#
# Convention : Reuss Voigt Hill
#
# Bulk Modulus (GPa) = 81.37730 81.98011 81.67871
# Shear Modulus (GPa) = 30.77749 33.56920 32.17335
#
# Velocity S-wave (km/s) = 3.87986 4.05200 3.96686
# Velocity P-wave (km/s) = 7.73775 7.87326 7.80580
#
# Compressibility (1/GPa) = 0.01228844
#
# Stress axis : x y z
#
# Youngs Moduli (GPa) = 87.75786 89.33806 95.72533
#
# Poissons Ratio (x) = 0.32237 0.38013
# Poissons Ratio (y) = 0.31667 0.26743
# Poissons Ratio (z) = 0.34849 0.24959
#
# Static dielectric constant tensor:
#      x y z
#    x 3.575960 0.000000 -0.143140 
#    y 0.000000 3.808120 0.000000 
#    z -0.143140 0.000000 3.530000 
# 
# 
# High freq. dielectric constant tensor:
#      x y z
#    x 1.812090 0.000000 0.011570 
#    y 0.000000 1.805860 0.000000 
#    z 0.011570 0.000000 1.809810 
# 
# From -- ./inp_files/46879.got.cif
#   From: 2010.06.25/outbox.cif.g09.slc.cpg/sg15_24_cif.got.tgz:46879.got - 2010.06.28 07:06:18.
