data_PCOD8146335
_publ_section_title
;
Structure prediction by ZEFSAII (Michael W. Deem and Ramdas Pophale) SiO2 
 PCOD8146335
Probable space group: C 2/C
;
_chemical_formula_sum "Si O2"
_cell_formula_units_Z 60
_cell_length_a 17.332121
_cell_length_b 18.594665
_cell_length_c 18.088568
_cell_angle_alpha 90.000000
_cell_angle_beta 150.083111
_cell_angle_gamma 90.000000
_cell_volume 2907.510491
_symmetry_space_group_name_H-M "C 2/C"
_symmetry_group_IT_number 15
_symmetry_cell_setting 'monoclinic'
loop_
_space_group_symop_operation_xyz
x,y,z
-x,y,1/2-z
-x,-y,-z
x,-y,1/2+z
1/2+x,1/2+y,z
1/2-x,1/2+y,1/2-z
1/2-x,1/2-y,-z
1/2+x,1/2-y,1/2+z
loop_
_atom_site_type_symbol
_atom_site_label
_atom_site_fract_x
_atom_site_fract_y
_atom_site_fract_z
Si Si1 0.500000 0.735709 0.750000
Si Si2 0.954533 0.787298 0.964918
Si Si3 0.758456 0.221665 0.162418
Si Si4 0.812146 0.625535 0.657521
Si Si5 0.860729 0.536525 0.931385
Si Si6 0.646975 0.907278 0.474586
Si Si7 0.172068 0.313030 0.024142
Si Si8 0.905501 0.069614 0.903843
O O1 0.645580 0.684694 0.847363
O O2 0.440272 0.787983 0.635245
O O3 0.892010 0.799604 0.830475
O O4 0.832924 0.744601 0.913768
O O5 0.109373 0.740121 0.087617
O O6 0.985734 0.864027 0.031112
O O7 0.810471 0.287979 0.153869
O O8 0.735767 0.155373 0.089898
O O9 0.804101 0.592213 0.569853
O O10 0.666357 0.595323 0.578980
O O11 0.963115 0.601944 0.828410
O O12 0.898032 0.611282 0.004291
O O13 0.718751 0.552233 0.760642
O O14 0.805579 0.482231 0.949187
O O15 0.000000 0.500000 0.000000
O O16 0.000000 0.000000 0.000000
#
# Coordination Sequence:
#
# PCOD8146335 Si02
#       8
#     4   8   8   8   8   8   8   8
#     4  10  24  44  70  92 134 172 224 286 334 402
#     4  11  22  39  70  95 130 168 226 275 320 394
#     4  11  20  39  65 100 128 172 213 266 325 390
#     4  10  22  41  62  95 131 167 217 264 326 398
#     4  12  24  43  68  95 132 173 225 275 333 408
#     4  11  22  40  64  94 133 174 212 268 329 401
#     4  11  23  45  65 101 126 175 226 275 342 390
#     4  11  24  44  62  96 132 169 218 277 327 393
#
# _framework density 20.636212
#
# number of rings (size 3 to 8) (size 9 to 14) (size 15 to 20)
#    0.000    1.067    2.667    5.200    0.000    2.133 
#    7.200    2.667    0.000    0.000    0.000    0.000 
#    0.000    0.000    0.000    0.000    0.000    0.000 
#
# Total GULP energy -372025.342653 kJ/mol
# GULP energy per Si atom -12400.844755 kJ/mol
# Density = 2.058924 g / cm^3
# Si number density = 20.636212 Si / 1000 Ang^3
#
#
#
# Elastic Constant Matrix: (Units=GPa)
#
#
# Indices 1 2 3 4 5 6 
#
# 1 73.7314 49.4276 30.6230 0.0055 -6.2984 0.0049
# 2 49.4276 157.5846 54.5364 0.0019 -9.5554 -0.0008
# 3 30.6230 54.5364 103.3809 -0.0051 -17.9956 -0.0053
# 4 0.0055 0.0019 -0.0051 39.2183 -0.0006 -5.8771
# 5 -6.2984 -9.5554 -17.9956 -0.0006 32.1393 0.0010
# 6 0.0049 -0.0008 -0.0053 -5.8771 0.0010 35.7995
#
#
#
# Elastic Compliance Matrix: (Units=1/GPa)
#
#
# Indices 1 2 3 4 5 6 
#
# 1 0.017846 -0.004609 -0.002753 -0.000003 0.000586 -0.000003
# 2 -0.004609 0.008954 -0.003381 0.000000 -0.000135 0.000000
# 3 -0.002753 -0.003381 0.013299 0.000003 0.005902 0.000003
# 4 -0.000003 0.000000 0.000003 0.026141 0.000001 0.004292
# 5 0.000586 -0.000135 0.005902 0.000001 0.034494 0.000000
# 6 -0.000003 0.000000 0.000003 0.004292 0.000000 0.028638
#
#
# Mechanical properties :
#
#
# Convention : Reuss Voigt Hill
#
# Bulk Modulus (GPa) = 53.72821 67.09674 60.41248
# Shear Modulus (GPa) = 31.83426 34.77207 33.30317
#
# Velocity S-wave (km/s) = 3.93191 4.10933 4.02160
# Velocity P-wave (km/s) = 6.83415 7.42295 7.13462
#
# Compressibility (1/GPa) = 0.01861220
#
# Stress axis : x y z
#
# Youngs Moduli (GPa) = 56.03471 111.68677 75.19084
#
# Poissons Ratio (x) = 0.51481 0.20698
# Poissons Ratio (y) = 0.25829 0.25425
# Poissons Ratio (z) = 0.15425 0.37765
#
# Static dielectric constant tensor:
#      x y z
#    x 3.701430 -0.000010 0.025470 
#    y -0.000010 3.801060 -0.000010 
#    z 0.025470 -0.000010 3.706320 
# 
# 
# High freq. dielectric constant tensor:
#      x y z
#    x 1.804540 0.000000 -0.008010 
#    y 0.000000 1.808780 0.000000 
#    z -0.008010 0.000000 1.821200 
# 
# From -- ./inp_files/211751.got.cif
#   From: 2010.06.25/outbox.cif.g09.slc.cpg/sg15_106_cif.got.tgz:211751.got - 2010.06.28 07:06:18.
