data_PCOD8146087
_publ_section_title
;
Structure prediction by ZEFSAII (Michael W. Deem and Ramdas Pophale) SiO2 
 PCOD8146087
Probable space group: C 2/C
;
_chemical_formula_sum "Si O2"
_cell_formula_units_Z 40
_cell_length_a 8.427285
_cell_length_b 24.570532
_cell_length_c 9.304494
_cell_angle_alpha 90.000000
_cell_angle_beta 99.908004
_cell_angle_gamma 90.000000
_cell_volume 1897.880394
_symmetry_space_group_name_H-M "C 2/C"
_symmetry_group_IT_number 15
_symmetry_cell_setting 'monoclinic'
loop_
_space_group_symop_operation_xyz
x,y,z
-x,y,1/2-z
-x,-y,-z
x,-y,1/2+z
1/2+x,1/2+y,z
1/2-x,1/2+y,1/2-z
1/2-x,1/2-y,-z
1/2+x,1/2-y,1/2+z
loop_
_atom_site_type_symbol
_atom_site_label
_atom_site_fract_x
_atom_site_fract_y
_atom_site_fract_z
Si Si1 0.338752 0.207870 0.160546
Si Si2 0.334845 0.399451 0.808039
Si Si3 0.381055 0.009899 0.349425
Si Si4 0.839218 0.085492 0.638712
Si Si5 0.150541 0.306910 0.164946
O O1 0.500000 0.183767 0.250000
O O2 0.201080 0.164085 0.174394
O O3 0.289803 0.264257 0.234779
O O4 0.384886 0.216217 0.000018
O O5 0.500000 0.406613 0.750000
O O6 0.188944 0.429472 0.697302
O O7 0.362336 0.422548 0.972184
O O8 0.500000 0.988672 0.250000
O O9 0.500000 0.000000 0.500000
O O10 0.224215 0.972480 0.320219
O O11 0.710891 0.131564 0.661874
O O12 0.000000 0.099417 0.750000
O O13 0.000000 0.304389 0.250000
#
# Coordination Sequence:
#
# PCOD8146087 Si02
#       5
#     8   8   8   8   8
#     4  10  22  40  66  93 130 168 212 264 317 380
#     4  11  25  42  64  95 130 170 215 265 322 382
#     4  12  25  43  67  94 128 169 217 267 320 381
#     4  11  25  42  64  94 131 169 215 266 320 382
#     4  10  22  41  64  96 128 168 215 260 319 380
#
# _framework density 21.076142999999998
#
# number of rings (size 3 to 8) (size 9 to 14) (size 15 to 20)
#    0.000    1.200    2.000    3.000    5.600    4.000 
#    0.000    0.000    0.000    0.000    0.000    0.000 
#    0.000    0.000    0.000    0.000    0.000    0.000 
#
# Total GULP energy -247775.192002 kJ/mol
# GULP energy per Si atom -12388.759600 kJ/mol
# Density = 2.102817 g / cm^3
# Si number density = 21.076143 Si / 1000 Ang^3
#
#
#
# Elastic Constant Matrix: (Units=GPa)
#
#
# Indices 1 2 3 4 5 6 
#
# 1 129.1232 27.1293 67.6892 0.0000 -25.4418 0.0000
# 2 27.1293 91.2472 30.2029 0.0000 -19.7070 0.0000
# 3 67.6892 30.2029 117.3165 0.0000 -10.5672 0.0000
# 4 0.0000 0.0000 0.0000 24.0641 0.0000 4.0740
# 5 -25.4418 -19.7070 -10.5672 0.0000 45.4099 0.0000
# 6 0.0000 0.0000 0.0000 4.0740 0.0000 30.0879
#
#
#
# Elastic Compliance Matrix: (Units=1/GPa)
#
#
# Indices 1 2 3 4 5 6 
#
# 1 0.012258 -0.000368 -0.006510 0.000000 0.005193 0.000000
# 2 -0.000368 0.013001 -0.002702 0.000000 0.004807 0.000000
# 3 -0.006510 -0.002702 0.012810 0.000000 -0.001839 0.000000
# 4 0.000000 0.000000 0.000000 0.042531 0.000000 -0.005759
# 5 0.005193 0.004807 -0.001839 0.000000 0.026589 0.000000
# 6 0.000000 0.000000 0.000000 -0.005759 0.000000 0.034016
#
#
# Mechanical properties :
#
#
# Convention : Reuss Voigt Hill
#
# Bulk Modulus (GPa) = 52.88376 65.30330 59.09353
# Shear Modulus (GPa) = 29.99987 34.09009 32.04498
#
# Velocity S-wave (km/s) = 3.77690 4.02614 3.90351
# Velocity P-wave (km/s) = 6.64576 7.25706 6.95813
#
# Compressibility (1/GPa) = 0.01890940
#
# Stress axis : x y z
#
# Youngs Moduli (GPa) = 81.58120 76.91584 78.06409
#
# Poissons Ratio (x) = 0.02831 0.50819
# Poissons Ratio (y) = 0.03003 0.21091
# Poissons Ratio (z) = 0.53109 0.20781
#
# Static dielectric constant tensor:
#      x y z
#    x 3.769690 0.000000 -0.065240 
#    y 0.000000 3.917110 0.000000 
#    z -0.065240 0.000000 3.866400 
# 
# 
# High freq. dielectric constant tensor:
#      x y z
#    x 1.831390 0.000000 -0.007130 
#    y 0.000000 1.837640 0.000000 
#    z -0.007130 0.000000 1.828420 
# 
# From -- ./inp_files/23490.got.cif
#   From: 2010.06.25/outbox.cif.g09.slc.cpg/sg15_12_cif.got.tgz:23490.got - 2010.06.28 07:06:18.
