data_PCOD8146208
_publ_section_title
;
Structure prediction by ZEFSAII (Michael W. Deem and Ramdas Pophale) SiO2 
 PCOD8146208
Probable space group: C 2/C
;
_chemical_formula_sum "Si O2"
_cell_formula_units_Z 60
_cell_length_a 16.566690
_cell_length_b 8.422632
_cell_length_c 22.937926
_cell_angle_alpha 90.000000
_cell_angle_beta 68.768642
_cell_angle_gamma 90.000000
_cell_volume 2983.405060
_symmetry_space_group_name_H-M "C 2/C"
_symmetry_group_IT_number 15
_symmetry_cell_setting 'monoclinic'
loop_
_space_group_symop_operation_xyz
x,y,z
-x,y,1/2-z
-x,-y,-z
x,-y,1/2+z
1/2+x,1/2+y,z
1/2-x,1/2+y,1/2-z
1/2-x,1/2-y,-z
1/2+x,1/2-y,1/2+z
loop_
_atom_site_type_symbol
_atom_site_label
_atom_site_fract_x
_atom_site_fract_y
_atom_site_fract_z
Si Si1 0.791967 0.151290 0.620453
Si Si2 0.000000 0.740405 0.250000
Si Si3 0.886688 0.523815 0.350143
Si Si4 0.674594 0.701949 0.562069
Si Si5 0.106138 0.970067 0.295242
Si Si6 0.192017 0.961490 0.655873
Si Si7 0.533376 0.290325 0.639358
Si Si8 0.081792 0.942424 0.513646
O O1 0.703172 0.054430 0.645256
O O2 0.851163 0.098011 0.658050
O O3 0.771646 0.338771 0.629859
O O4 0.840782 0.119460 0.547019
O O5 0.080996 0.632103 0.211353
O O6 0.030090 0.849409 0.296062
O O7 0.874117 0.635865 0.409223
O O8 0.960886 0.395072 0.345865
O O9 0.750000 0.750000 0.500000
O O10 0.712266 0.614361 0.610194
O O11 0.608574 0.590618 0.545759
O O12 0.179470 0.986569 0.226368
O O13 0.061936 0.140583 0.321218
O O14 0.102303 0.883849 0.660136
O O15 0.554990 0.302480 0.564929
O O16 0.000000 0.000000 0.500000
#
# Coordination Sequence:
#
# PCOD8146208 Si02
#       8
#     8   4   8   8   8   8   8   8
#     4  11  26  40  66  98 131 168 223 270 326 394
#     4  12  24  42  66  90 136 168 220 262 332 392
#     4  11  25  42  64 101 124 172 221 274 322 394
#     4  11  22  42  67  92 129 168 213 271 328 385
#     4  12  22  44  65  94 132 177 215 269 330 393
#     4  10  23  40  65  92 129 174 214 266 330 389
#     4  10  22  40  69  90 126 177 217 264 322 401
#     4  11  22  43  66  93 130 173 217 266 331 391
#
# _framework density 20.111246999999999
#
# number of rings (size 3 to 8) (size 9 to 14) (size 15 to 20)
#    0.000    1.067    5.333    0.800    7.467    1.600 
#    0.000    3.333    0.000    0.000    0.000    0.000 
#    0.000    0.000    0.000    0.000    0.000    0.000 
#
# Total GULP energy -372062.612957 kJ/mol
# GULP energy per Si atom -12402.087099 kJ/mol
# Density = 2.006547 g / cm^3
# Si number density = 20.111247 Si / 1000 Ang^3
#
#
#
# Elastic Constant Matrix: (Units=GPa)
#
#
# Indices 1 2 3 4 5 6 
#
# 1 81.0464 40.0852 32.2340 0.0000 4.7252 0.0001
# 2 40.0852 125.0376 47.1385 0.0001 -1.6463 0.0003
# 3 32.2340 47.1385 128.0327 0.0000 -3.4162 0.0000
# 4 0.0000 0.0001 0.0000 36.1517 0.0000 -11.3185
# 5 4.7252 -1.6463 -3.4162 0.0000 37.0797 0.0000
# 6 0.0001 0.0003 0.0000 -11.3185 0.0000 30.8034
#
#
#
# Elastic Compliance Matrix: (Units=1/GPa)
#
#
# Indices 1 2 3 4 5 6 
#
# 1 0.015465 -0.004061 -0.002462 0.000000 -0.002378 0.000000
# 2 -0.004061 0.010353 -0.002770 0.000000 0.000722 0.000000
# 3 -0.002462 -0.002770 0.009479 0.000000 0.001064 0.000000
# 4 0.000000 0.000000 0.000000 0.031257 0.000000 0.011485
# 5 -0.002378 0.000722 0.001064 0.000000 0.027402 0.000000
# 6 0.000000 0.000000 0.000000 0.011485 0.000000 0.036684
#
#
# Mechanical properties :
#
#
# Convention : Reuss Voigt Hill
#
# Bulk Modulus (GPa) = 59.84124 63.67023 61.75574
# Shear Modulus (GPa) = 32.30051 35.11757 33.70904
#
# Velocity S-wave (km/s) = 4.01196 4.18325 4.09850
# Velocity P-wave (km/s) = 7.16106 7.42028 7.29182
#
# Compressibility (1/GPa) = 0.01671088
#
# Stress axis : x y z
#
# Youngs Moduli (GPa) = 64.66238 96.58709 105.50105
#
# Poissons Ratio (x) = 0.39225 0.25972
# Poissons Ratio (y) = 0.26260 0.29225
# Poissons Ratio (z) = 0.15918 0.26756
#
# Static dielectric constant tensor:
#      x y z
#    x 3.511010 0.000000 -0.113050 
#    y 0.000000 3.651520 0.000000 
#    z -0.113050 0.000000 3.906730 
# 
# 
# High freq. dielectric constant tensor:
#      x y z
#    x 1.765990 0.000000 -0.007250 
#    y 0.000000 1.789980 0.000000 
#    z -0.007250 0.000000 1.803680 
# 
# From -- ./inp_files/247395.got.cif
#   From: 2010.06.25/outbox.cif.g09.slc.cpg/sg15_124_cif.got.tgz:247395.got - 2010.06.28 07:06:18.
