data_PCOD8146153
_publ_section_title
;
Structure prediction by ZEFSAII (Michael W. Deem and Ramdas Pophale) SiO2 
 PCOD8146153
Probable space group: C 2/C
;
_chemical_formula_sum "Si O2"
_cell_formula_units_Z 64
_cell_length_a 13.855404
_cell_length_b 12.438056
_cell_length_c 24.618418
_cell_angle_alpha 90.000000
_cell_angle_beta 44.188256
_cell_angle_gamma 90.000000
_cell_volume 2957.167502
_symmetry_space_group_name_H-M "C 2/C"
_symmetry_group_IT_number 15
_symmetry_cell_setting 'monoclinic'
loop_
_space_group_symop_operation_xyz
x,y,z
-x,y,1/2-z
-x,-y,-z
x,-y,1/2+z
1/2+x,1/2+y,z
1/2-x,1/2+y,1/2-z
1/2-x,1/2-y,-z
1/2+x,1/2-y,1/2+z
loop_
_atom_site_type_symbol
_atom_site_label
_atom_site_fract_x
_atom_site_fract_y
_atom_site_fract_z
Si Si1 0.480004 0.236896 0.404676
Si Si2 0.358343 0.455706 0.660175
Si Si3 0.022712 0.249719 0.423004
Si Si4 0.956112 0.433944 0.704584
Si Si5 0.635306 0.539859 0.575492
Si Si6 0.357177 0.640006 0.582147
Si Si7 0.840515 0.602525 0.924402
Si Si8 0.618350 0.914005 0.461646
O O1 0.515814 0.184063 0.331972
O O2 0.373224 0.336687 0.441940
O O3 0.623853 0.279778 0.374004
O O4 0.410487 0.147765 0.470719
O O5 0.379834 0.327325 0.651185
O O6 0.201110 0.472980 0.742159
O O7 0.478225 0.501392 0.652127
O O8 0.378634 0.517188 0.594067
O O9 0.123181 0.340068 0.406822
O O10 0.970807 0.174135 0.492435
O O11 0.895116 0.302293 0.441403
O O12 0.000000 0.431756 0.750000
O O13 0.038155 0.519767 0.635931
O O14 0.706043 0.459421 0.502977
O O15 0.730268 0.532579 0.591458
O O16 0.207140 0.653141 0.614157
O O17 0.500000 0.000000 0.500000
#
# Coordination Sequence:
#
# PCOD8146153 Si02
#       8
#     8   8   8   8   8   8   8   8
#     4  10  24  39  65  96 129 167 219 268 338 392
#     4  11  25  41  63  97 136 173 220 273 327 409
#     4  11  23  37  69 102 132 167 223 279 342 390
#     4  12  26  44  65  90 134 183 224 268 333 412
#     4  11  23  40  69  97 129 162 223 282 328 380
#     4  10  22  40  68 100 130 165 222 281 327 391
#     4  12  23  42  70 100 131 174 225 278 334 393
#     4  11  21  38  63 101 132 162 210 283 335 382
#
# _framework density 21.642332
#
# number of rings (size 3 to 8) (size 9 to 14) (size 15 to 20)
#    0.000    1.000    5.000    1.125    5.250    2.000 
#    0.000    0.000    0.000    3.000    0.000    0.000 
#    0.000    0.000    0.000    0.000    0.000    0.000 
#
# Total GULP energy -396527.548925 kJ/mol
# GULP energy per Si atom -12391.485904 kJ/mol
# Density = 2.159307 g / cm^3
# Si number density = 21.642332 Si / 1000 Ang^3
#
#
#
# Elastic Constant Matrix: (Units=GPa)
#
#
# Indices 1 2 3 4 5 6 
#
# 1 149.0013 24.9903 19.3350 0.0000 -26.4336 0.0000
# 2 24.9903 68.9042 11.9794 0.0000 -2.0430 0.0000
# 3 19.3350 11.9794 48.2267 0.0000 -22.1981 0.0000
# 4 0.0000 0.0000 0.0000 20.2552 0.0000 -4.3629
# 5 -26.4336 -2.0430 -22.1981 0.0000 35.0188 0.0000
# 6 0.0000 0.0000 0.0000 -4.3629 0.0000 37.3188
#
#
#
# Elastic Compliance Matrix: (Units=1/GPa)
#
#
# Indices 1 2 3 4 5 6 
#
# 1 0.008263 -0.002859 0.000270 0.000000 0.006242 0.000000
# 2 -0.002859 0.016270 -0.004874 0.000000 -0.004298 0.000000
# 3 0.000270 -0.004874 0.030782 0.000000 0.019432 0.000000
# 4 0.000000 0.000000 0.000000 0.050645 0.000000 0.005921
# 5 0.006242 -0.004298 0.019432 0.000000 0.045335 0.000000
# 6 0.000000 0.000000 0.000000 0.005921 0.000000 0.027488
#
#
# Mechanical properties :
#
#
# Convention : Reuss Voigt Hill
#
# Bulk Modulus (GPa) = 24.75821 42.08242 33.42031
# Shear Modulus (GPa) = 24.13469 32.50706 28.32087
#
# Velocity S-wave (km/s) = 3.34303 3.87979 3.62136
# Velocity P-wave (km/s) = 5.13475 6.28944 5.74120
#
# Compressibility (1/GPa) = 0.04039065
#
# Stress axis : x y z
#
# Youngs Moduli (GPa) = 121.02011 61.46431 32.48660
#
# Poissons Ratio (x) = 0.17571 -0.00878
# Poissons Ratio (y) = 0.34597 0.15832
# Poissons Ratio (z) = -0.03272 0.29955
#
# Static dielectric constant tensor:
#      x y z
#    x 4.381170 0.000000 -0.125750 
#    y 0.000000 4.181190 0.000000 
#    z -0.125750 0.000000 3.437470 
# 
# 
# High freq. dielectric constant tensor:
#      x y z
#    x 1.872970 0.000000 -0.017010 
#    y 0.000000 1.863250 0.000000 
#    z -0.017010 0.000000 1.795190 
# 
# From -- ./inp_files/296097.got.cif
#   From: 2010.06.25/outbox.cif.g09.slc.cpg/sg15_149_cif.got.tgz:296097.got - 2010.06.28 07:06:18.
