data_PCOD8146189
_publ_section_title
;
Structure prediction by ZEFSAII (Michael W. Deem and Ramdas Pophale) SiO2 
 PCOD8146189
Probable space group: C 2/C
;
_chemical_formula_sum "Si O2"
_cell_formula_units_Z 56
_cell_length_a 11.377607
_cell_length_b 13.864392
_cell_length_c 25.281506
_cell_angle_alpha 90.000000
_cell_angle_beta 42.050379
_cell_angle_gamma 90.000000
_cell_volume 2671.094938
_symmetry_space_group_name_H-M "C 2/C"
_symmetry_group_IT_number 15
_symmetry_cell_setting 'monoclinic'
loop_
_space_group_symop_operation_xyz
x,y,z
-x,y,1/2-z
-x,-y,-z
x,-y,1/2+z
1/2+x,1/2+y,z
1/2-x,1/2+y,1/2-z
1/2-x,1/2-y,-z
1/2+x,1/2-y,1/2+z
loop_
_atom_site_type_symbol
_atom_site_label
_atom_site_fract_x
_atom_site_fract_y
_atom_site_fract_z
Si Si1 0.916217 0.335570 0.564212
Si Si2 0.751666 0.149178 0.888180
Si Si3 0.447560 0.678631 0.636933
Si Si4 0.983989 0.825366 0.811350
Si Si5 0.167835 0.518227 0.727391
Si Si6 0.268892 0.982888 0.682698
Si Si7 0.263039 0.207232 0.292499
O O1 0.965262 0.235190 0.575867
O O2 0.718135 0.343234 0.607428
O O3 0.924363 0.418712 0.605728
O O4 0.047219 0.354202 0.472164
O O5 0.792291 0.242831 0.838984
O O6 0.862449 0.145320 0.905384
O O7 0.804210 0.058074 0.835361
O O8 0.334357 0.585182 0.658191
O O9 0.378477 0.747955 0.706776
O O10 0.000000 0.764579 0.750000
O O11 0.102524 0.921060 0.759562
O O12 0.065312 0.775401 0.836016
O O13 0.137127 0.537595 0.800156
O O14 0.200446 0.404654 0.707597
O O15 0.000000 0.552374 0.750000
#
# Coordination Sequence:
#
# PCOD8146189 Si02
#       7
#     8   8   8   8   8   8   8
#     4  11  24  42  65  96 135 168 207 278 325 377
#     4  12  26  40  64 101 132 165 218 264 332 381
#     4  12  24  40  69  92 127 178 215 258 322 390
#     4   9  19  38  68  87 127 161 215 257 317 363
#     4  11  24  40  66  98 124 161 225 268 310 374
#     4  10  22  40  68  97 123 165 218 273 310 378
#     4  11  23  41  67  95 127 170 219 272 306 387
#
# _framework density 20.965185000000002
#
# number of rings (size 3 to 8) (size 9 to 14) (size 15 to 20)
#    0.000    1.143    5.714    2.143   12.000    0.571 
#    0.000    0.714    0.000    0.000    0.000    0.000 
#    0.000    0.000    0.000    0.000    0.000    0.000 
#
# Total GULP energy -346891.918529 kJ/mol
# GULP energy per Si atom -12388.997090 kJ/mol
# Density = 2.091747 g / cm^3
# Si number density = 20.965185 Si / 1000 Ang^3
#
#
#
# Elastic Constant Matrix: (Units=GPa)
#
#
# Indices 1 2 3 4 5 6 
#
# 1 119.1937 9.5914 11.4859 0.0002 -11.5718 -0.0001
# 2 9.5914 96.6544 12.6069 0.0001 -2.0466 0.0000
# 3 11.4859 12.6069 64.1268 0.0003 -13.5082 0.0001
# 4 0.0002 0.0001 0.0003 17.6305 0.0000 1.5755
# 5 -11.5718 -2.0466 -13.5082 0.0000 24.1328 0.0000
# 6 -0.0001 0.0000 0.0001 1.5755 0.0000 19.0818
#
#
#
# Elastic Compliance Matrix: (Units=1/GPa)
#
#
# Indices 1 2 3 4 5 6 
#
# 1 0.008882 -0.000716 -0.000641 0.000000 0.003839 0.000000
# 2 -0.000716 0.010678 -0.002100 0.000000 -0.000614 0.000000
# 3 -0.000641 -0.002100 0.018161 0.000000 0.009680 0.000000
# 4 0.000000 0.000000 0.000000 0.057141 0.000000 -0.004718
# 5 0.003839 -0.000614 0.009680 0.000000 0.048645 0.000000
# 6 0.000000 0.000000 0.000000 -0.004718 0.000000 0.052796
#
#
# Mechanical properties :
#
#
# Convention : Reuss Voigt Hill
#
# Bulk Modulus (GPa) = 32.46210 38.59369 35.52789
# Shear Modulus (GPa) = 23.42067 28.58840 26.00453
#
# Velocity S-wave (km/s) = 3.34596 3.69672 3.52571
# Velocity P-wave (km/s) = 5.51767 6.05553 5.79285
#
# Compressibility (1/GPa) = 0.03080516
#
# Stress axis : x y z
#
# Youngs Moduli (GPa) = 112.58881 93.64895 55.06334
#
# Poissons Ratio (x) = 0.06709 0.03531
# Poissons Ratio (y) = 0.08066 0.11564
# Poissons Ratio (z) = 0.07220 0.19668
#
# Static dielectric constant tensor:
#      x y z
#    x 4.468050 0.000000 -0.007160 
#    y 0.000000 3.905910 0.000000 
#    z -0.007160 0.000000 3.444640 
# 
# 
# High freq. dielectric constant tensor:
#      x y z
#    x 1.840740 0.000000 -0.005610 
#    y 0.000000 1.824160 0.000000 
#    z -0.005610 0.000000 1.782340 
# 
# From -- ./inp_files/292846.got.cif
#   From: 2010.06.25/outbox.cif.g09.slc.cpg/sg15_147_cif.got.tgz:292846.got - 2010.06.28 07:06:18.
