data_PCOD8146894
_publ_section_title
;
Structure prediction by ZEFSAII (Michael W. Deem and Ramdas Pophale) SiO2 
 PCOD8146894
Probable space group: C 2/C
;
_chemical_formula_sum "Si O2"
_cell_formula_units_Z 48
_cell_length_a 8.732008
_cell_length_b 11.355199
_cell_length_c 24.809961
_cell_angle_alpha 90.000000
_cell_angle_beta 71.939810
_cell_angle_gamma 90.000000
_cell_volume 2338.798345
_symmetry_space_group_name_H-M "C 2/C"
_symmetry_group_IT_number 15
_symmetry_cell_setting 'monoclinic'
loop_
_space_group_symop_operation_xyz
x,y,z
-x,y,1/2-z
-x,-y,-z
x,-y,1/2+z
1/2+x,1/2+y,z
1/2-x,1/2+y,1/2-z
1/2-x,1/2-y,-z
1/2+x,1/2-y,1/2+z
loop_
_atom_site_type_symbol
_atom_site_label
_atom_site_fract_x
_atom_site_fract_y
_atom_site_fract_z
Si Si1 0.500000 0.012559 0.750000
Si Si2 0.172534 0.629749 0.827447
Si Si3 0.012941 0.586534 0.549652
Si Si4 0.083820 0.808224 0.998617
Si Si5 0.500000 0.519633 0.750000
Si Si6 0.839258 0.961891 0.074435
Si Si7 0.813062 0.098057 0.182385
O O1 0.537702 0.095350 0.797640
O O2 0.356324 0.919310 0.770162
O O3 0.129373 0.567670 0.889930
O O4 0.349851 0.598726 0.786146
O O5 0.165873 0.769212 0.840484
O O6 0.013893 0.716115 0.525680
O O7 0.000000 0.500000 0.500000
O O8 0.179609 0.577780 0.561982
O O9 0.102484 0.919665 0.959293
O O10 0.250000 0.750000 0.000000
O O11 0.971565 0.855745 0.059792
O O12 0.541967 0.431976 0.793661
O O13 0.809434 0.994871 0.138767
#
# Coordination Sequence:
#
# PCOD8146894 Si02
#       7
#     4   8   8   8   4   8   8
#     4  10  22  42  66  94 124 170 222 268 334 392
#     4  11  23  43  67  95 134 169 220 277 331 394
#     4  12  24  43  67 101 137 175 224 276 337 404
#     4  11  24  43  65  92 134 173 218 270 324 398
#     4  10  26  42  66 100 126 172 224 276 326 402
#     4  11  24  41  66  95 127 178 217 266 334 396
#     4  11  22  42  66  94 128 169 217 273 334 387
#
# _framework density 20.523361999999999
#
# number of rings (size 3 to 8) (size 9 to 14) (size 15 to 20)
#    0.000    1.000    5.000    1.500    2.333    0.000 
#    3.000    1.667    0.000    0.000    0.000    0.000 
#    0.000    0.000    0.000    0.000    0.000    0.000 
#
# Total GULP energy -297452.260172 kJ/mol
# GULP energy per Si atom -12393.844174 kJ/mol
# Density = 2.047665 g / cm^3
# Si number density = 20.523362 Si / 1000 Ang^3
#
#
#
# Elastic Constant Matrix: (Units=GPa)
#
#
# Indices 1 2 3 4 5 6 
#
# 1 121.2794 60.0723 41.7217 0.0000 14.0223 0.0000
# 2 60.0723 102.8218 56.6759 0.0000 -4.8312 0.0000
# 3 41.7217 56.6759 115.7391 0.0000 10.9350 0.0000
# 4 0.0000 0.0000 0.0000 32.3397 0.0000 -0.1162
# 5 14.0223 -4.8312 10.9350 0.0000 31.2145 0.0000
# 6 0.0000 0.0000 0.0000 -0.1162 0.0000 31.4106
#
#
#
# Elastic Compliance Matrix: (Units=1/GPa)
#
#
# Indices 1 2 3 4 5 6 
#
# 1 0.012986 -0.007803 -0.000201 0.000000 -0.006971 0.000000
# 2 -0.007803 0.018650 -0.007160 0.000000 0.008900 0.000000
# 3 -0.000201 -0.007160 0.012737 0.000000 -0.005480 0.000000
# 4 0.000000 0.000000 0.000000 0.030922 0.000000 0.000114
# 5 -0.006971 0.008900 -0.005480 0.000000 0.038465 0.000000
# 6 0.000000 0.000000 0.000000 0.000114 0.000000 0.031837
#
#
# Mechanical properties :
#
#
# Convention : Reuss Voigt Hill
#
# Bulk Modulus (GPa) = 71.21488 72.97555 72.09522
# Shear Modulus (GPa) = 27.68445 31.08433 29.38439
#
# Velocity S-wave (km/s) = 3.67675 3.89599 3.78796
# Velocity P-wave (km/s) = 7.26632 7.47481 7.37130
#
# Compressibility (1/GPa) = 0.01404201
#
# Stress axis : x y z
#
# Youngs Moduli (GPa) = 77.00722 53.62054 78.51280
#
# Poissons Ratio (x) = 0.41842 0.01581
# Poissons Ratio (y) = 0.60091 0.56218
# Poissons Ratio (z) = 0.01551 0.38394
#
# Static dielectric constant tensor:
#      x y z
#    x 3.802740 0.000000 -0.136690 
#    y 0.000000 3.869970 0.000000 
#    z -0.136690 0.000000 4.100420 
# 
# 
# High freq. dielectric constant tensor:
#      x y z
#    x 1.811370 0.000000 -0.001270 
#    y 0.000000 1.804550 0.000000 
#    z -0.001270 0.000000 1.811590 
# 
# From -- ./inp_files/263122.got.cif
#   From: 2010.06.25/outbox.cif.g09.slc.cpg/sg15_132_cif.got.tgz:263122.got - 2010.06.28 07:06:18.
