data_PCOD8146844
_publ_section_title
;
Structure prediction by ZEFSAII (Michael W. Deem and Ramdas Pophale) SiO2 
 PCOD8146844
Probable space group: C 2/C
;
_chemical_formula_sum "Si O2"
_cell_formula_units_Z 56
_cell_length_a 15.326987
_cell_length_b 9.453101
_cell_length_c 22.384317
_cell_angle_alpha 90.000000
_cell_angle_beta 55.021974
_cell_angle_gamma 90.000000
_cell_volume 2657.394508
_symmetry_space_group_name_H-M "C 2/C"
_symmetry_group_IT_number 15
_symmetry_cell_setting 'monoclinic'
loop_
_space_group_symop_operation_xyz
x,y,z
-x,y,1/2-z
-x,-y,-z
x,-y,1/2+z
1/2+x,1/2+y,z
1/2-x,1/2+y,1/2-z
1/2-x,1/2-y,-z
1/2+x,1/2-y,1/2+z
loop_
_atom_site_type_symbol
_atom_site_label
_atom_site_fract_x
_atom_site_fract_y
_atom_site_fract_z
Si Si1 0.942409 0.920161 0.574946
Si Si2 0.195542 0.631584 0.443599
Si Si3 0.912751 0.756168 0.900983
Si Si4 0.397514 0.786579 0.753476
Si Si5 0.686082 0.148307 0.880456
Si Si6 0.610497 0.097745 0.782440
Si Si7 0.327863 0.685320 0.657303
O O1 0.894928 0.772733 0.569589
O O2 0.027078 0.889360 0.593801
O O3 0.849730 0.019155 0.637727
O O4 0.000000 0.000000 0.500000
O O5 0.132800 0.652346 0.529875
O O6 0.317212 0.683731 0.399134
O O7 0.191255 0.465044 0.431524
O O8 0.140047 0.722802 0.413081
O O9 0.994043 0.670833 0.826084
O O10 0.500000 0.735928 0.750000
O O11 0.300058 0.718136 0.826643
O O12 0.401157 0.734219 0.683679
O O13 0.391554 0.956334 0.755614
O O14 0.643914 0.067483 0.837987
O O15 0.701704 0.202777 0.720700
#
# Coordination Sequence:
#
# PCOD8146844 Si02
#       7
#     8   8   8   8   8   8   8
#     4  11  22  42  68  92 129 172 217 264 329 391
#     4  11  23  45  66  97 135 171 221 267 331 398
#     4  10  25  40  68  99 131 172 223 271 327 402
#     4  11  24  40  63  99 130 164 218 274 323 385
#     4  10  23  42  65  94 129 170 215 268 322 393
#     4  10  22  42  65  95 129 171 221 271 327 389
#     4  11  23  42  67  92 130 177 212 270 330 392
#
# _framework density 21.073273
#
# number of rings (size 3 to 8) (size 9 to 14) (size 15 to 20)
#    0.000    1.429    4.286    0.000    4.000    3.429 
#    0.000    0.714    0.000    0.000    0.000    0.000 
#    0.000    0.000    0.000    0.000    0.000    0.000 
#
# Total GULP energy -347267.854910 kJ/mol
# GULP energy per Si atom -12402.423390 kJ/mol
# Density = 2.102531 g / cm^3
# Si number density = 21.073273 Si / 1000 Ang^3
#
#
#
# Elastic Constant Matrix: (Units=GPa)
#
#
# Indices 1 2 3 4 5 6 
#
# 1 117.2675 41.9269 29.8621 0.0000 -9.9455 0.0000
# 2 41.9269 113.7006 31.8602 0.0000 5.9757 0.0000
# 3 29.8621 31.8602 63.3028 0.0000 -5.2219 0.0000
# 4 0.0000 0.0000 0.0000 34.4377 0.0000 0.7655
# 5 -9.9455 5.9757 -5.2219 0.0000 30.7791 0.0000
# 6 0.0000 0.0000 0.0000 0.7655 0.0000 27.4403
#
#
#
# Elastic Compliance Matrix: (Units=1/GPa)
#
#
# Indices 1 2 3 4 5 6 
#
# 1 0.010812 -0.003295 -0.003145 0.000000 0.003600 0.000000
# 2 -0.003295 0.011505 -0.004572 0.000000 -0.004074 0.000000
# 3 -0.003145 -0.004572 0.019849 0.000000 0.003239 0.000000
# 4 0.000000 0.000000 0.000000 0.029056 0.000000 -0.000811
# 5 0.003600 -0.004074 0.003239 0.000000 0.034993 0.000000
# 6 0.000000 0.000000 0.000000 -0.000811 0.000000 0.036465
#
#
# Mechanical properties :
#
#
# Convention : Reuss Voigt Hill
#
# Bulk Modulus (GPa) = 49.64812 55.72992 52.68902
# Shear Modulus (GPa) = 29.16829 31.23954 30.20391
#
# Velocity S-wave (km/s) = 3.72443 3.85440 3.78998
# Velocity P-wave (km/s) = 6.48892 6.80527 6.64898
#
# Compressibility (1/GPa) = 0.02014175
#
# Stress axis : x y z
#
# Youngs Moduli (GPa) = 92.49297 86.91647 50.37971
#
# Poissons Ratio (x) = 0.28636 0.15845
# Poissons Ratio (y) = 0.30473 0.23036
# Poissons Ratio (z) = 0.29090 0.39742
#
# Static dielectric constant tensor:
#      x y z
#    x 3.850510 0.000000 -0.210580 
#    y 0.000000 3.834880 0.000000 
#    z -0.210580 0.000000 3.293550 
# 
# 
# High freq. dielectric constant tensor:
#      x y z
#    x 1.828170 0.000000 -0.009150 
#    y 0.000000 1.823440 0.000000 
#    z -0.009150 0.000000 1.823280 
# 
# From -- ./inp_files/273057.got.cif
#   From: 2010.06.25/outbox.cif.g09.slc.cpg/sg15_137_cif.got.tgz:273057.got - 2010.06.28 07:06:18.
