data_PCOD8146322
_publ_section_title
;
Structure prediction by ZEFSAII (Michael W. Deem and Ramdas Pophale) SiO2 
 PCOD8146322
Probable space group: C 2/C
;
_chemical_formula_sum "Si O2"
_cell_formula_units_Z 52
_cell_length_a 33.679848
_cell_length_b 8.174972
_cell_length_c 15.123681
_cell_angle_alpha 90.000000
_cell_angle_beta 37.043220
_cell_angle_gamma 90.000000
_cell_volume 2508.483977
_symmetry_space_group_name_H-M "C 2/C"
_symmetry_group_IT_number 15
_symmetry_cell_setting 'monoclinic'
loop_
_space_group_symop_operation_xyz
x,y,z
-x,y,1/2-z
-x,-y,-z
x,-y,1/2+z
1/2+x,1/2+y,z
1/2-x,1/2+y,1/2-z
1/2-x,1/2-y,-z
1/2+x,1/2-y,1/2+z
loop_
_atom_site_type_symbol
_atom_site_label
_atom_site_fract_x
_atom_site_fract_y
_atom_site_fract_z
Si Si1 0.309265 0.433672 0.470690
Si Si2 0.935505 0.125151 0.194857
Si Si3 0.271262 0.071569 0.555368
Si Si4 0.500000 0.873583 0.750000
Si Si5 0.335916 0.572664 0.603998
Si Si6 0.888894 0.628563 0.916039
Si Si7 0.546661 0.380791 0.033478
O O1 0.380143 0.489180 0.310090
O O2 0.311833 0.239235 0.477891
O O3 0.253870 0.481660 0.497171
O O4 0.293699 0.523612 0.591663
O O5 0.927334 0.285248 0.268186
O O6 0.932724 0.186131 0.098996
O O7 0.005301 0.046657 0.095357
O O8 0.210014 0.094711 0.729967
O O9 0.318427 0.930902 0.506476
O O10 0.496080 0.758454 0.842835
O O11 0.433962 0.981198 0.869350
O O12 0.374199 0.743785 0.520968
O O13 0.388568 0.427387 0.525534
#
# Coordination Sequence:
#
# PCOD8146322 Si02
#       7
#     8   8   8   4   8   8   8
#     4  10  22  41  62  89 128 164 208 248 308 365
#     4  10  22  42  64  91 120 169 203 253 308 371
#     4  11  22  41  62  95 126 165 201 258 305 368
#     4  12  24  42  62  96 120 162 204 264 308 360
#     4  11  22  41  65  94 121 171 204 253 305 373
#     4  11  24  40  63  94 127 156 210 256 307 361
#     4  11  22  41  67  87 125 162 209 249 313 369
#
# _framework density 20.729651
#
# number of rings (size 3 to 8) (size 9 to 14) (size 15 to 20)
#    0.000    1.231    1.538    5.538    0.000    3.077 
#   11.077    0.000    0.000    0.000    0.000    0.000 
#    0.000    0.000    0.000    0.000    0.000    0.000 
#
# Total GULP energy -322525.904223 kJ/mol
# GULP energy per Si atom -12404.842470 kJ/mol
# Density = 2.068247 g / cm^3
# Si number density = 20.729651 Si / 1000 Ang^3
#
#
#
# Elastic Constant Matrix: (Units=GPa)
#
#
# Indices 1 2 3 4 5 6 
#
# 1 103.2976 36.1771 30.1879 0.0016 11.1777 0.0008
# 2 36.1771 68.8733 22.0964 -0.0040 13.4839 -0.0012
# 3 30.1879 22.0964 71.8647 -0.0015 17.7019 -0.0006
# 4 0.0016 -0.0040 -0.0015 28.6937 -0.0037 -16.5286
# 5 11.1777 13.4839 17.7019 -0.0037 33.7046 0.0011
# 6 0.0008 -0.0012 -0.0006 -16.5286 0.0011 23.9103
#
#
#
# Elastic Compliance Matrix: (Units=1/GPa)
#
#
# Indices 1 2 3 4 5 6 
#
# 1 0.012664 -0.005472 -0.003609 -0.000004 -0.000115 -0.000003
# 2 -0.005472 0.019065 -0.002449 0.000005 -0.004527 0.000005
# 3 -0.003609 -0.002449 0.017973 0.000000 -0.007263 0.000001
# 4 -0.000004 0.000005 0.000000 0.057911 0.000004 0.040032
# 5 -0.000115 -0.004527 -0.007263 0.000004 0.035333 0.000001
# 6 -0.000003 0.000005 0.000001 0.040032 0.000001 0.069496
#
#
# Mechanical properties :
#
#
# Convention : Reuss Voigt Hill
#
# Bulk Modulus (GPa) = 37.53180 46.77317 42.15249
# Shear Modulus (GPa) = 20.45970 27.63334 24.04652
#
# Velocity S-wave (km/s) = 3.14503 3.65504 3.40958
# Velocity P-wave (km/s) = 5.59758 6.35805 5.98990
#
# Compressibility (1/GPa) = 0.02664407
#
# Stress axis : x y z
#
# Youngs Moduli (GPa) = 78.96235 52.45121 55.63909
#
# Poissons Ratio (x) = 0.28700 0.20080
# Poissons Ratio (y) = 0.43206 0.13624
# Poissons Ratio (z) = 0.28497 0.12843
#
# Static dielectric constant tensor:
#      x y z
#    x 3.885410 0.000000 0.115700 
#    y 0.000000 3.633030 0.000010 
#    z 0.115700 0.000010 3.730570 
# 
# 
# High freq. dielectric constant tensor:
#      x y z
#    x 1.820380 0.000000 0.004380 
#    y 0.000000 1.808450 0.000000 
#    z 0.004380 0.000000 1.814670 
# 
# From -- ./inp_files/181041.got.cif
#   From: 2010.06.25/outbox.cif.g09.slc.cpg/sg15_91_cif.got.tgz:181041.got - 2010.06.28 07:06:18.
