data_PCOD8146874
_publ_section_title
;
Structure prediction by ZEFSAII (Michael W. Deem and Ramdas Pophale) SiO2 
 PCOD8146874
Probable space group: C 2/C
;
_chemical_formula_sum "Si O2"
_cell_formula_units_Z 48
_cell_length_a 15.859178
_cell_length_b 30.400537
_cell_length_c 9.094002
_cell_angle_alpha 90.000000
_cell_angle_beta 32.357210
_cell_angle_gamma 90.000000
_cell_volume 2346.550458
_symmetry_space_group_name_H-M "C 2/C"
_symmetry_group_IT_number 15
_symmetry_cell_setting 'monoclinic'
loop_
_space_group_symop_operation_xyz
x,y,z
-x,y,1/2-z
-x,-y,-z
x,-y,1/2+z
1/2+x,1/2+y,z
1/2-x,1/2+y,1/2-z
1/2-x,1/2-y,-z
1/2+x,1/2-y,1/2+z
loop_
_atom_site_type_symbol
_atom_site_label
_atom_site_fract_x
_atom_site_fract_y
_atom_site_fract_z
Si Si1 0.664280 0.947162 0.271830
Si Si2 0.000000 0.507543 0.750000
Si Si3 0.385004 0.341570 0.736397
Si Si4 0.238402 0.693672 0.176301
Si Si5 0.687311 0.292056 0.260656
Si Si6 0.399311 0.846063 0.134837
Si Si7 0.000000 0.919508 0.750000
O O1 0.603652 0.977832 0.490618
O O2 0.601953 0.898082 0.389865
O O3 0.611589 0.962243 0.186714
O O4 0.853144 0.949952 0.008538
O O5 0.351070 0.335766 0.613289
O O6 0.527213 0.309113 0.572925
O O7 0.446614 0.390157 0.688013
O O8 0.221491 0.330877 0.059455
O O9 0.210143 0.742356 0.283160
O O10 0.074802 0.668080 0.410335
O O11 0.327971 0.701745 0.891581
O O12 0.839210 0.321286 0.078190
#
# Coordination Sequence:
#
# PCOD8146874 Si02
#       7
#     8   4   8   8   8   8   4
#     4  10  23  43  68  97 127 160 205 254 323 376
#     4  10  24  44  70  99 124 154 203 268 312 388
#     4  11  21  40  57  89 120 165 209 258 300 357
#     4  11  25  35  62  89 126 169 218 259 305 360
#     4  11  22  42  55  90 127 169 214 263 308 357
#     4  11  23  39  64  91 126 169 208 257 308 373
#     4  10  22  42  66  89 130 160 203 250 308 386
#
# _framework density 20.455559000000001
#
# number of rings (size 3 to 8) (size 9 to 14) (size 15 to 20)
#    0.000    1.333    3.333    2.500    7.000    7.333 
#    0.000    0.000    0.000    0.000    0.000    0.000 
#    0.000    0.000    0.000    0.000    0.000    0.000 
#
# Total GULP energy -297574.155676 kJ/mol
# GULP energy per Si atom -12398.923153 kJ/mol
# Density = 2.040900 g / cm^3
# Si number density = 20.455559 Si / 1000 Ang^3
#
#
#
# Elastic Constant Matrix: (Units=GPa)
#
#
# Indices 1 2 3 4 5 6 
#
# 1 104.9876 29.0452 16.9032 0.0000 -9.0631 0.0000
# 2 29.0452 93.0806 21.6382 0.0000 -11.3049 0.0000
# 3 16.9032 21.6382 77.8670 0.0000 -19.3799 0.0000
# 4 0.0000 0.0000 0.0000 12.5557 0.0000 -0.2464
# 5 -9.0631 -11.3049 -19.3799 0.0000 37.4506 0.0000
# 6 0.0000 0.0000 0.0000 -0.2464 0.0000 34.8515
#
#
#
# Elastic Compliance Matrix: (Units=1/GPa)
#
#
# Indices 1 2 3 4 5 6 
#
# 1 0.010617 -0.002897 -0.001237 0.000000 0.001055 0.000000
# 2 -0.002897 0.012419 -0.002369 0.000000 0.001822 0.000000
# 3 -0.001237 -0.002369 0.015515 0.000000 0.007014 0.000000
# 4 0.000000 0.000000 0.000000 0.079656 0.000000 0.000563
# 5 0.001055 0.001822 0.007014 0.000000 0.031137 0.000000
# 6 0.000000 0.000000 0.000000 0.000563 0.000000 0.028697
#
#
# Mechanical properties :
#
#
# Convention : Reuss Voigt Hill
#
# Bulk Modulus (GPa) = 39.14688 45.67870 42.41279
# Shear Modulus (GPa) = 25.05483 30.86147 27.95815
#
# Velocity S-wave (km/s) = 3.50357 3.88842 3.70100
# Velocity P-wave (km/s) = 5.96203 6.52219 6.24839
#
# Compressibility (1/GPa) = 0.02554482
#
# Stress axis : x y z
#
# Youngs Moduli (GPa) = 94.19161 80.51932 64.45400
#
# Poissons Ratio (x) = 0.23328 0.07974
# Poissons Ratio (y) = 0.27289 0.15268
# Poissons Ratio (z) = 0.11652 0.19073
#
# Static dielectric constant tensor:
#      x y z
#    x 3.927160 0.000000 -0.004080 
#    y 0.000000 3.631580 0.000000 
#    z -0.004080 0.000000 3.779690 
# 
# 
# High freq. dielectric constant tensor:
#      x y z
#    x 1.810040 0.000000 -0.007930 
#    y 0.000000 1.787120 0.000000 
#    z -0.007930 0.000000 1.808360 
# 
# From -- ./inp_files/44448.got.cif
#   From: 2010.06.25/outbox.cif.g09.slc.cpg/sg15_23_cif.got.tgz:44448.got - 2010.06.28 07:06:18.
