data_PCOD8146804
_publ_section_title
;
Structure prediction by ZEFSAII (Michael W. Deem and Ramdas Pophale) SiO2 
 PCOD8146804
Probable space group: C 2/C
;
_chemical_formula_sum "Si O2"
_cell_formula_units_Z 60
_cell_length_a 11.757813
_cell_length_b 8.456091
_cell_length_c 29.398360
_cell_angle_alpha 90.000000
_cell_angle_beta 108.250958
_cell_angle_gamma 90.000000
_cell_volume 2775.894423
_symmetry_space_group_name_H-M "C 2/C"
_symmetry_group_IT_number 15
_symmetry_cell_setting 'monoclinic'
loop_
_space_group_symop_operation_xyz
x,y,z
-x,y,1/2-z
-x,-y,-z
x,-y,1/2+z
1/2+x,1/2+y,z
1/2-x,1/2+y,1/2-z
1/2-x,1/2-y,-z
1/2+x,1/2-y,1/2+z
loop_
_atom_site_type_symbol
_atom_site_label
_atom_site_fract_x
_atom_site_fract_y
_atom_site_fract_z
Si Si1 0.629128 0.183659 0.963126
Si Si2 0.570208 0.336213 0.507964
Si Si3 0.668812 0.837481 0.938142
Si Si4 0.946836 0.752620 0.646982
Si Si5 0.847705 0.952997 0.786303
Si Si6 0.752496 0.745490 0.305619
Si Si7 0.509323 0.890229 0.835764
Si Si8 0.000000 0.193891 0.750000
O O1 0.520031 0.206391 0.984118
O O2 0.601119 0.263969 0.910643
O O3 0.639482 0.997867 0.960431
O O4 0.750000 0.250000 0.000000
O O5 0.500000 0.500000 0.500000
O O6 0.617033 0.303710 0.462740
O O7 0.689071 0.331977 0.554048
O O8 0.606667 0.823882 0.882371
O O9 0.841286 0.804869 0.667731
O O10 0.053928 0.876844 0.668002
O O11 0.993813 0.579475 0.666254
O O12 0.783609 0.818032 0.748957
O O13 0.757564 0.061171 0.805233
O O14 0.898637 0.082823 0.757750
O O15 0.879139 0.670050 0.335156
O O16 0.552711 0.812847 0.794265
#
# Coordination Sequence:
#
# PCOD8146804 Si02
#       8
#     8   8   8   8   8   8   8   4
#     4  11  24  45  69 101 133 178 224 280 348 401
#     4  11  23  44  73  97 137 175 225 284 341 402
#     4  10  24  46  66 102 133 179 227 280 338 410
#     4  11  25  44  67  97 135 176 228 281 334 409
#     4  11  23  43  67  98 132 176 228 268 340 399
#     4  11  24  42  67  97 135 179 220 281 331 402
#     4  10  25  42  65  98 133 177 227 272 341 395
#     4  10  22  42  64  96 136 172 216 278 324 406
#
# _framework density 21.614654000000002
#
# number of rings (size 3 to 8) (size 9 to 14) (size 15 to 20)
#    0.000    1.333    2.667    1.200    7.467    4.267 
#    4.800    0.000    0.000    0.000    0.000    0.000 
#    0.000    0.000    0.000    0.000    0.000    0.000 
#
# Total GULP energy -372012.079547 kJ/mol
# GULP energy per Si atom -12400.402652 kJ/mol
# Density = 2.156546 g / cm^3
# Si number density = 21.614654 Si / 1000 Ang^3
#
#
#
# Elastic Constant Matrix: (Units=GPa)
#
#
# Indices 1 2 3 4 5 6 
#
# 1 106.1768 32.4060 44.9179 0.0000 23.7867 0.0000
# 2 32.4060 101.3838 54.6527 0.0000 17.0736 0.0000
# 3 44.9179 54.6527 134.9134 0.0000 29.0629 0.0000
# 4 0.0000 0.0000 0.0000 34.8902 0.0000 1.0322
# 5 23.7867 17.0736 29.0629 0.0000 33.4888 0.0000
# 6 0.0000 0.0000 0.0000 1.0322 0.0000 42.3134
#
#
#
# Elastic Compliance Matrix: (Units=1/GPa)
#
#
# Indices 1 2 3 4 5 6 
#
# 1 0.012161 -0.001782 -0.002044 0.000000 -0.005955 0.000000
# 2 -0.001782 0.013047 -0.004344 0.000000 -0.001616 0.000000
# 3 -0.002044 -0.004344 0.011146 0.000000 -0.006007 0.000000
# 4 0.000000 0.000000 0.000000 0.028682 0.000000 -0.000700
# 5 -0.005955 -0.001616 -0.006007 0.000000 0.040128 0.000000
# 6 0.000000 0.000000 0.000000 -0.000700 0.000000 0.023650
#
#
# Mechanical properties :
#
#
# Convention : Reuss Voigt Hill
#
# Bulk Modulus (GPa) = 49.96445 67.38079 58.67262
# Shear Modulus (GPa) = 32.93250 36.17165 34.55207
#
# Velocity S-wave (km/s) = 3.90759 4.09525 4.00252
# Velocity P-wave (km/s) = 6.59736 7.32139 6.96879
#
# Compressibility (1/GPa) = 0.02001423
#
# Stress axis : x y z
#
# Youngs Moduli (GPa) = 82.22914 76.64642 89.71612
#
# Poissons Ratio (x) = 0.13661 0.18338
# Poissons Ratio (y) = 0.14656 0.38970
# Poissons Ratio (z) = 0.16807 0.33293
#
# Static dielectric constant tensor:
#      x y z
#    x 3.927670 0.000000 -0.013680 
#    y 0.000000 3.934600 0.000000 
#    z -0.013680 0.000000 3.903020 
# 
# 
# High freq. dielectric constant tensor:
#      x y z
#    x 1.859010 0.000000 0.007510 
#    y 0.000000 1.860130 0.000000 
#    z 0.007510 0.000000 1.846300 
# 
# From -- ./inp_files/291570.got.cif
#   From: 2010.06.25/outbox.cif.g09.slc.cpg/sg15_146_cif.got.tgz:291570.got - 2010.06.28 07:06:18.
