data_PCOD8146701
_publ_section_title
;
Structure prediction by ZEFSAII (Michael W. Deem and Ramdas Pophale) SiO2 
 PCOD8146701
Probable space group: C 2/C
;
_chemical_formula_sum "Si O2"
_cell_formula_units_Z 40
_cell_length_a 15.698724
_cell_length_b 13.386297
_cell_length_c 8.839993
_cell_angle_alpha 90.000000
_cell_angle_beta 92.093347
_cell_angle_gamma 90.000000
_cell_volume 1856.465167
_symmetry_space_group_name_H-M "C 2/C"
_symmetry_group_IT_number 15
_symmetry_cell_setting 'monoclinic'
loop_
_space_group_symop_operation_xyz
x,y,z
-x,y,1/2-z
-x,-y,-z
x,-y,1/2+z
1/2+x,1/2+y,z
1/2-x,1/2+y,1/2-z
1/2-x,1/2-y,-z
1/2+x,1/2-y,1/2+z
loop_
_atom_site_type_symbol
_atom_site_label
_atom_site_fract_x
_atom_site_fract_y
_atom_site_fract_z
Si Si1 0.374607 0.606828 0.442806
Si Si2 0.323987 0.210278 0.789137
Si Si3 0.032023 0.402702 0.084131
Si Si4 0.451629 0.706633 0.042150
Si Si5 0.844792 0.099218 0.788880
O O1 0.308358 0.697984 0.404688
O O2 0.471235 0.634244 0.394536
O O3 0.377307 0.586943 0.621326
O O4 0.335474 0.511191 0.356108
O O5 0.366998 0.118345 0.887155
O O6 0.384077 0.265513 0.668127
O O7 0.241764 0.163623 0.705593
O O8 0.000000 0.407237 0.250000
O O9 0.993553 0.309967 0.989077
O O10 0.000000 0.500000 0.000000
O O11 0.411991 0.658767 0.891946
#
# Coordination Sequence:
#
# PCOD8146701 Si02
#       5
#     8   8   8   8   8
#     4  11  24  41  62  94 129 167 211 260 320 389
#     4  10  23  42  62  91 127 165 214 269 315 372
#     4   9  20  36  58  84 117 161 207 253 309 374
#     4  10  22  42  62  87 126 171 213 260 317 382
#     4  12  24  39  65  96 127 168 212 266 322 377
#
# _framework density 21.546325
#
# number of rings (size 3 to 8) (size 9 to 14) (size 15 to 20)
#    0.000    1.600    0.000    5.400    0.000    9.600 
#    0.000    0.000    0.000    0.000    0.000    0.000 
#    0.000    0.000    0.000    0.000    0.000    0.000 
#
# Total GULP energy -247761.314580 kJ/mol
# GULP energy per Si atom -12388.065729 kJ/mol
# Density = 2.149728 g / cm^3
# Si number density = 21.546325 Si / 1000 Ang^3
#
#
#
# Elastic Constant Matrix: (Units=GPa)
#
#
# Indices 1 2 3 4 5 6 
#
# 1 101.6453 60.2953 25.6264 0.0000 20.7744 0.0000
# 2 60.2953 155.0629 63.9533 0.0000 31.2856 0.0000
# 3 25.6264 63.9533 87.7241 0.0000 11.6326 0.0000
# 4 0.0000 0.0000 0.0000 49.1870 0.0000 21.1442
# 5 20.7744 31.2856 11.6326 0.0000 34.9544 0.0000
# 6 0.0000 0.0000 0.0000 21.1442 0.0000 32.3107
#
#
#
# Elastic Compliance Matrix: (Units=1/GPa)
#
#
# Indices 1 2 3 4 5 6 
#
# 1 0.013229 -0.004238 -0.000246 0.000000 -0.003987 0.000000
# 2 -0.004238 0.012125 -0.006796 0.000000 -0.006072 0.000000
# 3 -0.000246 -0.006796 0.016320 0.000000 0.000798 0.000000
# 4 0.000000 0.000000 0.000000 0.028288 0.000000 -0.018512
# 5 -0.003987 -0.006072 0.000798 0.000000 0.036147 0.000000
# 6 0.000000 0.000000 0.000000 -0.018512 0.000000 0.043064
#
#
# Mechanical properties :
#
#
# Convention : Reuss Voigt Hill
#
# Bulk Modulus (GPa) = 52.31968 71.57582 61.94775
# Shear Modulus (GPa) = 28.07315 36.26089 32.16702
#
# Velocity S-wave (km/s) = 3.61351 4.10680 3.86803
# Velocity P-wave (km/s) = 6.46105 7.46856 6.98300
#
# Compressibility (1/GPa) = 0.01911327
#
# Stress axis : x y z
#
# Youngs Moduli (GPa) = 75.59090 82.47410 61.27390
#
# Poissons Ratio (x) = 0.34953 0.01508
# Poissons Ratio (y) = 0.32036 0.41644
# Poissons Ratio (z) = 0.01861 0.56052
#
# Static dielectric constant tensor:
#      x y z
#    x 3.395930 0.000000 -0.771890 
#    y 0.000000 3.824640 0.000000 
#    z -0.771890 0.000000 2.230610 
# 
# 
# High freq. dielectric constant tensor:
#      x y z
#    x 1.839070 0.000000 0.012780 
#    y 0.000000 1.857130 0.000000 
#    z 0.012780 0.000000 1.851290 
# 
# From -- ./inp_files/46173.got.cif
#   From: 2010.06.25/outbox.cif.g09.slc.cpg/sg15_24_cif.got.tgz:46173.got - 2010.06.28 07:06:18.
