data_PCOD8146900
_publ_section_title
;
Structure prediction by ZEFSAII (Michael W. Deem and Ramdas Pophale) SiO2 
 PCOD8146900
Probable space group: C 2/C
;
_chemical_formula_sum "Si O2"
_cell_formula_units_Z 32
_cell_length_a 16.947008
_cell_length_b 7.270640
_cell_length_c 13.932542
_cell_angle_alpha 90.000000
_cell_angle_beta 50.520891
_cell_angle_gamma 90.000000
_cell_volume 1325.050952
_symmetry_space_group_name_H-M "C 2/C"
_symmetry_group_IT_number 15
_symmetry_cell_setting 'monoclinic'
loop_
_space_group_symop_operation_xyz
x,y,z
-x,y,1/2-z
-x,-y,-z
x,-y,1/2+z
1/2+x,1/2+y,z
1/2-x,1/2+y,1/2-z
1/2-x,1/2-y,-z
1/2+x,1/2-y,1/2+z
loop_
_atom_site_type_symbol
_atom_site_label
_atom_site_fract_x
_atom_site_fract_y
_atom_site_fract_z
Si Si1 0.703477 0.195477 0.716861
Si Si2 0.381277 0.512876 0.350825
Si Si3 0.620050 0.793219 0.798939
Si Si4 0.422176 0.362012 0.513189
O O1 0.681877 0.309995 0.636724
O O2 0.824444 0.208072 0.648263
O O3 0.659362 0.993189 0.739609
O O4 0.653564 0.285488 0.849820
O O5 0.500000 0.563041 0.250000
O O6 0.350772 0.337831 0.311601
O O7 0.355169 0.462914 0.481574
O O8 0.496704 0.796872 0.910469
O O9 0.500000 0.500000 0.500000
#
# Coordination Sequence:
#
# PCOD8146900 Si02
#       4
#     8   8   8   8
#     4  12  22  44  69  92 139 172 213 277 326 379
#     4  10  22  42  66  94 132 167 222 266 320 389
#     4  11  23  42  65  99 131 172 217 268 322 391
#     4  11  22  44  68  95 134 174 214 270 330 386
#
# _framework density 24.150016000000001
#
# number of rings (size 3 to 8) (size 9 to 14) (size 15 to 20)
#    0.000    1.000    7.500    0.750    0.000    4.000 
#    4.500    2.500    0.000    0.000    0.000    0.000 
#    0.000    0.000    0.000    0.000    0.000    0.000 
#
# Total GULP energy -198408.896802 kJ/mol
# GULP energy per Si atom -12400.556050 kJ/mol
# Density = 2.409505 g / cm^3
# Si number density = 24.150016 Si / 1000 Ang^3
#
#
#
# Elastic Constant Matrix: (Units=GPa)
#
#
# Indices 1 2 3 4 5 6 
#
# 1 149.0500 45.9325 13.4316 -0.0002 30.5478 0.0002
# 2 45.9325 107.4473 9.7376 -0.0006 30.3085 0.0006
# 3 13.4316 9.7376 51.4927 -0.0001 13.0513 0.0001
# 4 -0.0002 -0.0006 -0.0001 17.4071 0.0001 9.2018
# 5 30.5478 30.3085 13.0513 0.0001 33.0632 -0.0001
# 6 0.0002 0.0006 0.0001 9.2018 -0.0001 53.8711
#
#
#
# Elastic Compliance Matrix: (Units=1/GPa)
#
#
# Indices 1 2 3 4 5 6 
#
# 1 0.008568 -0.001938 -0.000347 0.000000 -0.006002 0.000000
# 2 -0.001938 0.013008 0.000682 0.000001 -0.010403 0.000000
# 3 -0.000347 0.000682 0.021622 0.000000 -0.008840 0.000000
# 4 0.000000 0.000001 0.000000 0.063150 -0.000001 -0.010787
# 5 -0.006002 -0.010403 -0.008840 -0.000001 0.048817 0.000000
# 6 0.000000 0.000000 0.000000 -0.010787 0.000000 0.020405
#
#
# Mechanical properties :
#
#
# Convention : Reuss Voigt Hill
#
# Bulk Modulus (GPa) = 25.00452 49.57705 37.29079
# Shear Modulus (GPa) = 26.02727 36.79419 31.41073
#
# Velocity S-wave (km/s) = 3.28645 3.90753 3.61037
# Velocity P-wave (km/s) = 4.97768 6.39779 5.73188
#
# Compressibility (1/GPa) = 0.03999276
#
# Stress axis : x y z
#
# Youngs Moduli (GPa) = 116.71493 76.87576 46.24861
#
# Poissons Ratio (x) = 0.14899 0.01605
# Poissons Ratio (y) = 0.22620 -0.03156
# Poissons Ratio (z) = 0.04050 -0.05246
#
# Static dielectric constant tensor:
#      x y z
#    x 4.711870 0.000000 0.329910 
#    y 0.000000 4.271700 0.000000 
#    z 0.329910 0.000000 3.826590 
# 
# 
# High freq. dielectric constant tensor:
#      x y z
#    x 1.974990 0.000000 0.000780 
#    y 0.000000 1.959010 0.000000 
#    z 0.000780 0.000000 1.954100 
# 
# From -- ./inp_files/150078.got.cif
#   From: 2010.06.25/outbox.cif.g09.slc.cpg/sg15_76_cif.got.tgz:150078.got - 2010.06.28 07:06:18.
