data_PCOD8146034
_publ_section_title
;
Structure prediction by ZEFSAII (Michael W. Deem and Ramdas Pophale) SiO2 
 PCOD8146034
Probable space group: C 2/C
;
_chemical_formula_sum "Si O2"
_cell_formula_units_Z 32
_cell_length_a 21.657005
_cell_length_b 5.064408
_cell_length_c 13.955326
_cell_angle_alpha 90.000000
_cell_angle_beta 120.063517
_cell_angle_gamma 90.000000
_cell_volume 1324.705621
_symmetry_space_group_name_H-M "C 2/C"
_symmetry_group_IT_number 15
_symmetry_cell_setting 'monoclinic'
loop_
_space_group_symop_operation_xyz
x,y,z
-x,y,1/2-z
-x,-y,-z
x,-y,1/2+z
1/2+x,1/2+y,z
1/2-x,1/2+y,1/2-z
1/2-x,1/2-y,-z
1/2+x,1/2-y,1/2+z
loop_
_atom_site_type_symbol
_atom_site_label
_atom_site_fract_x
_atom_site_fract_y
_atom_site_fract_z
Si Si1 0.750687 0.998416 0.433487
Si Si2 0.458703 0.307596 0.355759
Si Si3 0.103227 0.670563 0.786034
Si Si4 0.597165 0.388995 0.987137
O O1 0.750000 0.750000 0.500000
O O2 0.823848 0.006038 0.428904
O O3 0.750000 0.250000 0.500000
O O4 0.679635 0.960011 0.313120
O O5 0.455428 0.040436 0.292201
O O6 0.430778 0.238132 0.440556
O O7 0.542334 0.375017 0.421242
O O8 0.411854 0.546956 0.274552
O O9 0.099980 0.694479 0.898407
#
# Coordination Sequence:
#
# PCOD8146034 Si02
#       4
#     8   8   8   8
#     4  10  22  40  65  94 129 172 211 263 325 377
#     4  11  26  43  69  99 128 176 220 265 332 389
#     4  11  24  43  67  97 132 174 218 266 326 391
#     4  10  25  45  67  98 137 168 218 277 322 389
#
# _framework density 24.156307999999999
#
# number of rings (size 3 to 8) (size 9 to 14) (size 15 to 20)
#    0.000    1.500    0.000    3.750    0.000   22.000 
#    0.000    0.000    0.000    0.000    0.000    0.000 
#    0.000    0.000    0.000    0.000    0.000    0.000 
#
# Total GULP energy -198333.057440 kJ/mol
# GULP energy per Si atom -12395.816090 kJ/mol
# Density = 2.410133 g / cm^3
# Si number density = 24.156308 Si / 1000 Ang^3
#
#
#
# Elastic Constant Matrix: (Units=GPa)
#
#
# Indices 1 2 3 4 5 6 
#
# 1 173.1415 13.6780 50.4512 0.0000 15.7235 0.0000
# 2 13.6780 115.3092 26.9657 -0.0001 -19.5660 0.0000
# 3 50.4512 26.9657 95.5916 0.0000 -9.5625 0.0000
# 4 0.0000 -0.0001 0.0000 39.7474 0.0000 3.8931
# 5 15.7235 -19.5660 -9.5625 0.0000 35.5492 0.0000
# 6 0.0000 0.0000 0.0000 3.8931 0.0000 17.1520
#
#
#
# Elastic Compliance Matrix: (Units=1/GPa)
#
#
# Indices 1 2 3 4 5 6 
#
# 1 0.007512 -0.000723 -0.004247 0.000000 -0.004863 0.000000
# 2 -0.000723 0.010122 -0.001937 0.000000 0.005370 0.000000
# 3 -0.004247 -0.001937 0.013699 0.000000 0.004498 0.000000
# 4 0.000000 0.000000 0.000000 0.025731 0.000000 -0.005840
# 5 -0.004863 0.005370 0.004498 0.000000 0.034446 0.000000
# 6 0.000000 0.000000 0.000000 -0.005840 0.000000 0.059628
#
#
# Mechanical properties :
#
#
# Convention : Reuss Voigt Hill
#
# Bulk Modulus (GPa) = 57.07922 62.91469 59.99696
# Shear Modulus (GPa) = 29.27543 38.01953 33.64748
#
# Velocity S-wave (km/s) = 3.48504 3.97154 3.73622
# Velocity P-wave (km/s) = 6.31462 6.86529 6.59570
#
# Compressibility (1/GPa) = 0.01751951
#
# Stress axis : x y z
#
# Youngs Moduli (GPa) = 133.12173 98.79294 72.99829
#
# Poissons Ratio (x) = 0.07143 0.31003
# Poissons Ratio (y) = 0.09625 0.14137
# Poissons Ratio (z) = 0.56539 0.19132
#
# Static dielectric constant tensor:
#      x y z
#    x 6.204260 0.000000 1.553360 
#    y 0.000000 4.058140 0.000000 
#    z 1.553360 0.000000 5.491170 
# 
# 
# High freq. dielectric constant tensor:
#      x y z
#    x 1.973590 0.000000 0.023570 
#    y 0.000000 1.954880 0.000000 
#    z 0.023570 0.000000 1.955760 
# 
# From -- ./inp_files/165186.got.cif
#   From: 2010.06.25/outbox.cif.g09.slc.cpg/sg15_83_cif.got.tgz:165186.got - 2010.06.28 07:06:18.
