data_PCOD8146991
_publ_section_title
;
Structure prediction by ZEFSAII (Michael W. Deem and Ramdas Pophale) SiO2 
 PCOD8146991
Probable space group: C 2/C
;
_chemical_formula_sum "Si O2"
_cell_formula_units_Z 48
_cell_length_a 15.433286
_cell_length_b 29.025672
_cell_length_c 8.963845
_cell_angle_alpha 90.000000
_cell_angle_beta 148.213512
_cell_angle_gamma 90.000000
_cell_volume 2115.163689
_symmetry_space_group_name_H-M "C 2/C"
_symmetry_group_IT_number 15
_symmetry_cell_setting 'monoclinic'
loop_
_space_group_symop_operation_xyz
x,y,z
-x,y,1/2-z
-x,-y,-z
x,-y,1/2+z
1/2+x,1/2+y,z
1/2-x,1/2+y,1/2-z
1/2-x,1/2-y,-z
1/2+x,1/2-y,1/2+z
loop_
_atom_site_type_symbol
_atom_site_label
_atom_site_fract_x
_atom_site_fract_y
_atom_site_fract_z
Si Si1 0.344446 0.124680 0.823994
Si Si2 0.750322 0.281080 0.642455
Si Si3 0.674618 0.528994 0.049755
Si Si4 0.617661 0.227355 0.701553
Si Si5 0.225207 0.620401 0.446042
Si Si6 0.325554 0.956311 0.076942
O O1 0.312312 0.176975 0.730977
O O2 0.282675 0.091064 0.601321
O O3 0.534375 0.114278 0.130100
O O4 0.244543 0.117707 0.831731
O O5 0.750000 0.250000 0.500000
O O6 0.611258 0.260680 0.547379
O O7 0.708543 0.332848 0.532107
O O8 0.930743 0.277387 0.987723
O O9 0.674469 0.579683 0.980941
O O10 0.819093 0.497610 0.188660
O O11 0.692135 0.532959 0.253607
O O12 0.500000 0.506131 0.750000
O O13 0.750000 0.250000 0.000000
O O14 0.500000 0.952990 0.250000
#
# Coordination Sequence:
#
# PCOD8146991 Si02
#       6
#     8   8   8   8   8   8
#     4  10  22  42  68  97 127 175 226 279 315 391
#     4  11  22  43  66  96 129 182 221 269 330 389
#     4  12  27  45  67 102 136 172 211 282 339 391
#     4  11  24  40  65  97 138 172 222 277 326 388
#     4  10  22  42  68  93 133 174 228 266 328 398
#     4  12  25  45  73 100 129 177 227 268 329 409
#
# _framework density 22.693280000000001
#
# number of rings (size 3 to 8) (size 9 to 14) (size 15 to 20)
#    0.000    1.000    3.333    3.000    4.667    1.333 
#    0.000    1.667    0.000    0.000    0.000    0.000 
#    0.000    0.000    0.000    0.000    0.000    0.000 
#
# Total GULP energy -297595.085998 kJ/mol
# GULP energy per Si atom -12399.795250 kJ/mol
# Density = 2.264163 g / cm^3
# Si number density = 22.693280 Si / 1000 Ang^3
#
#
#
# Elastic Constant Matrix: (Units=GPa)
#
#
# Indices 1 2 3 4 5 6 
#
# 1 90.2455 57.1116 20.5277 0.0000 -17.3198 0.0000
# 2 57.1116 149.8236 10.2051 0.0000 -16.8058 0.0000
# 3 20.5277 10.2051 80.4751 0.0000 -21.7961 0.0000
# 4 0.0000 0.0000 0.0000 33.2988 0.0000 -9.8817
# 5 -17.3198 -16.8058 -21.7961 0.0000 33.5635 0.0000
# 6 0.0000 0.0000 0.0000 -9.8817 0.0000 46.2494
#
#
#
# Elastic Compliance Matrix: (Units=1/GPa)
#
#
# Indices 1 2 3 4 5 6 
#
# 1 0.015786 -0.005419 -0.002267 0.000000 0.003961 0.000000
# 2 -0.005419 0.008932 0.000854 0.000000 0.002231 0.000000
# 3 -0.002267 0.000854 0.015405 0.000000 0.009261 0.000000
# 4 0.000000 0.000000 0.000000 0.032064 0.000000 0.006851
# 5 0.003961 0.002231 0.009261 0.000000 0.038969 0.000000
# 6 0.000000 0.000000 0.000000 0.006851 0.000000 0.023086
#
#
# Mechanical properties :
#
#
# Convention : Reuss Voigt Hill
#
# Bulk Modulus (GPa) = 37.79459 55.13698 46.46579
# Shear Modulus (GPa) = 31.90297 38.13567 35.01932
#
# Velocity S-wave (km/s) = 3.75351 4.10382 3.93257
# Velocity P-wave (km/s) = 5.95616 6.84138 6.41406
#
# Compressibility (1/GPa) = 0.02645881
#
# Stress axis : x y z
#
# Youngs Moduli (GPa) = 63.34771 111.95484 64.91583
#
# Poissons Ratio (x) = 0.60666 0.14715
# Poissons Ratio (y) = 0.34327 -0.05542
# Poissons Ratio (z) = 0.14360 -0.09557
#
# Static dielectric constant tensor:
#      x y z
#    x 4.194280 0.000000 -0.044120 
#    y 0.000000 4.149380 0.000000 
#    z -0.044120 0.000000 4.059710 
# 
# 
# High freq. dielectric constant tensor:
#      x y z
#    x 1.898580 0.000000 -0.013140 
#    y 0.000000 1.904060 0.000000 
#    z -0.013140 0.000000 1.887180 
# 
# From -- ./inp_files/44663.got.cif
#   From: 2010.06.25/outbox.cif.g09.slc.cpg/sg15_23_cif.got.tgz:44663.got - 2010.06.28 07:06:18.
