data_PCOD8146403
_publ_section_title
;
Structure prediction by ZEFSAII (Michael W. Deem and Ramdas Pophale) SiO2 
 PCOD8146403
Probable space group: C 2/C
;
_chemical_formula_sum "Si O2"
_cell_formula_units_Z 64
_cell_length_a 11.780775
_cell_length_b 24.488019
_cell_length_c 10.637691
_cell_angle_alpha 90.000000
_cell_angle_beta 72.514039
_cell_angle_gamma 90.000000
_cell_volume 2927.035066
_symmetry_space_group_name_H-M "C 2/C"
_symmetry_group_IT_number 15
_symmetry_cell_setting 'monoclinic'
loop_
_space_group_symop_operation_xyz
x,y,z
-x,y,1/2-z
-x,-y,-z
x,-y,1/2+z
1/2+x,1/2+y,z
1/2-x,1/2+y,1/2-z
1/2-x,1/2-y,-z
1/2+x,1/2-y,1/2+z
loop_
_atom_site_type_symbol
_atom_site_label
_atom_site_fract_x
_atom_site_fract_y
_atom_site_fract_z
Si Si1 0.862086 0.121918 0.294561
Si Si2 0.626425 0.983907 0.193757
Si Si3 0.343255 0.135114 0.752467
Si Si4 0.205084 0.180138 0.426677
Si Si5 0.322525 0.196846 0.004279
Si Si6 0.133882 0.106884 0.673267
Si Si7 0.420142 0.791057 0.006988
Si Si8 0.233745 0.990616 0.611135
O O1 0.807969 0.133810 0.174819
O O2 0.773800 0.154597 0.413716
O O3 0.858730 0.059695 0.347346
O O4 0.000000 0.141249 0.250000
O O5 0.500000 0.015274 0.250000
O O6 0.596434 0.922426 0.243716
O O7 0.709878 0.011911 0.268901
O O8 0.675284 0.984051 0.035030
O O9 0.202498 0.123570 0.778275
O O10 0.396412 0.158858 0.607272
O O11 0.373949 0.175183 0.855871
O O12 0.150110 0.155676 0.570693
O O13 0.344868 0.196520 0.403654
O O14 0.128769 0.234245 0.417318
O O15 0.250000 0.250000 0.000000
O O16 0.435450 0.209815 0.059521
O O17 0.000000 0.100200 0.750000
O O18 0.172636 0.048442 0.604971
#
# Coordination Sequence:
#
# PCOD8146403 Si02
#       8
#     8   8   8   8   8   8   8   8
#     4  12  26  42  64  95 140 175 228 284 338 402
#     4  11  22  42  68  94 136 174 228 278 344 415
#     4  10  22  41  64  97 127 173 220 269 338 403
#     4  10  23  45  65  99 135 177 223 287 344 409
#     4  12  24  39  66  99 130 177 221 270 341 406
#     4  10  23  41  71  92 130 179 225 277 338 405
#     4  10  22  43  69  96 138 174 226 282 345 413
#     4  11  24  43  64 104 130 182 228 284 348 408
#
# _framework density 21.865127999999999
#
# number of rings (size 3 to 8) (size 9 to 14) (size 15 to 20)
#    0.000    1.250    1.250    4.125    3.500    0.500 
#    4.500    3.125    0.000    0.000    0.000    0.000 
#    0.000    0.000    0.000    0.000    0.000    0.000 
#
# Total GULP energy -396547.013008 kJ/mol
# GULP energy per Si atom -12392.094157 kJ/mol
# Density = 2.181536 g / cm^3
# Si number density = 21.865128 Si / 1000 Ang^3
#
#
#
# Elastic Constant Matrix: (Units=GPa)
#
#
# Indices 1 2 3 4 5 6 
#
# 1 146.5140 38.3180 31.7621 0.0000 -12.5378 0.0000
# 2 38.3180 97.2875 12.9878 0.0000 -1.0230 0.0000
# 3 31.7621 12.9878 78.0216 0.0000 7.3271 0.0000
# 4 0.0000 0.0000 0.0000 20.9252 0.0000 19.1223
# 5 -12.5378 -1.0230 7.3271 0.0000 29.7740 0.0000
# 6 0.0000 0.0000 0.0000 19.1223 0.0000 7.6474
#
#
#
# Elastic Compliance Matrix: (Units=1/GPa)
#
#
# Indices 1 2 3 4 5 6 
#
# 1 0.008724 -0.002925 -0.003481 0.000000 0.004430 0.000000
# 2 -0.002925 0.011512 -0.000663 0.000000 -0.000673 0.000000
# 3 -0.003481 -0.000663 0.014827 0.000000 -0.005137 0.000000
# 4 0.000000 0.000000 0.000000 -0.037189 0.000000 0.092990
# 5 0.004430 -0.000673 -0.005137 0.000000 0.036693 0.000000
# 6 0.000000 0.000000 0.000000 0.092990 0.000000 -0.101757
#
#
# Mechanical properties :
#
#
# Convention : Reuss Voigt Hill
#
# Bulk Modulus (GPa) = 47.78531 54.21766 51.00148
# Shear Modulus (GPa) = -108.50828 27.58635 -40.46096
#
# Velocity S-wave (km/s) = -7.05223 3.55584 -4.30639
# Velocity P-wave (km/s) = 6.66407 6.45824 1.16211
#
# Compressibility (1/GPa) = 0.02092693
#
# Stress axis : x y z
#
# Youngs Moduli (GPa) = 114.62906 86.86486 67.44645
#
# Poissons Ratio (x) = 0.25406 0.23475
# Poissons Ratio (y) = 0.33526 0.04468
# Poissons Ratio (z) = 0.39897 0.05755
#
# Static dielectric constant tensor:
#      x y z
#    x 4.300920 0.000000 0.245730 
#    y 0.000000 3.795030 0.000000 
#    z 0.245730 0.000000 3.774280 
# 
# 
# High freq. dielectric constant tensor:
#      x y z
#    x 1.875250 0.000000 0.004980 
#    y 0.000000 1.869450 0.000000 
#    z 0.004980 0.000000 1.844670 
# 
# From -- ./inp_files/91258.got.cif
#   From: 2010.06.25/outbox.cif.g09.slc.cpg/sg15_46_cif.got.tgz:91258.got - 2010.06.28 07:06:18.
