data_PCOD8146135
_publ_section_title
;
Structure prediction by ZEFSAII (Michael W. Deem and Ramdas Pophale) SiO2 
 PCOD8146135
Probable space group: C 2/C
;
_chemical_formula_sum "Si O2"
_cell_formula_units_Z 44
_cell_length_a 15.747485
_cell_length_b 8.650752
_cell_length_c 15.556297
_cell_angle_alpha 90.000000
_cell_angle_beta 102.308171
_cell_angle_gamma 90.000000
_cell_volume 2070.487460
_symmetry_space_group_name_H-M "C 2/C"
_symmetry_group_IT_number 15
_symmetry_cell_setting 'monoclinic'
loop_
_space_group_symop_operation_xyz
x,y,z
-x,y,1/2-z
-x,-y,-z
x,-y,1/2+z
1/2+x,1/2+y,z
1/2-x,1/2+y,1/2-z
1/2-x,1/2-y,-z
1/2+x,1/2-y,1/2+z
loop_
_atom_site_type_symbol
_atom_site_label
_atom_site_fract_x
_atom_site_fract_y
_atom_site_fract_z
Si Si1 0.189945 0.460814 0.276712
Si Si2 0.521941 0.857036 0.566667
Si Si3 0.500000 0.015331 0.250000
Si Si4 0.687005 0.313267 0.058230
Si Si5 0.126759 0.870037 0.484680
Si Si6 0.238373 0.780965 0.358537
O O1 0.251292 0.367957 0.352964
O O2 0.201211 0.644408 0.290579
O O3 0.217208 0.416207 0.186673
O O4 0.088640 0.413621 0.271003
O O5 0.501800 0.886132 0.662493
O O6 0.623913 0.821713 0.577855
O O7 0.467726 0.706233 0.526320
O O8 0.500000 0.000000 0.500000
O O9 0.750000 0.250000 0.000000
O O10 0.625802 0.450539 0.009584
O O11 0.158526 0.854591 0.393232
O O12 0.190262 0.778691 0.560782
#
# Coordination Sequence:
#
# PCOD8146135 Si02
#       6
#     8   8   4   8   8   8
#     4  11  23  42  64 100 133 178 227 279 338 404
#     4  12  25  45  72 102 138 184 231 290 347 417
#     4  12  24  40  68 102 134 172 238 278 342 408
#     4  11  26  42  69 100 134 185 230 281 351 413
#     4  10  23  43  65  97 139 178 224 281 344 404
#     4  10  22  40  67  95 135 177 223 280 337 404
#
# _framework density 21.251035000000002
#
# number of rings (size 3 to 8) (size 9 to 14) (size 15 to 20)
#    0.000    1.091    1.818    3.818   10.182    0.000 
#    0.000    0.000    0.000    0.000    0.000    0.000 
#    0.000    0.000    0.000    0.000    0.000    0.000 
#
# Total GULP energy -272801.377270 kJ/mol
# GULP energy per Si atom -12400.062603 kJ/mol
# Density = 2.120267 g / cm^3
# Si number density = 21.251035 Si / 1000 Ang^3
#
#
#
# Elastic Constant Matrix: (Units=GPa)
#
#
# Indices 1 2 3 4 5 6 
#
# 1 151.9307 44.5393 45.7082 0.0000 -3.3884 0.0000
# 2 44.5393 79.1821 54.6250 0.0000 4.7151 0.0000
# 3 45.7082 54.6250 105.0835 0.0000 -20.4161 0.0000
# 4 0.0000 0.0000 0.0000 27.4911 0.0000 -7.3819
# 5 -3.3884 4.7151 -20.4161 0.0000 34.6904 0.0000
# 6 0.0000 0.0000 0.0000 -7.3819 0.0000 44.4105
#
#
#
# Elastic Compliance Matrix: (Units=1/GPa)
#
#
# Indices 1 2 3 4 5 6 
#
# 1 0.008096 -0.003385 -0.001715 0.000000 0.000242 0.000000
# 2 -0.003385 0.024596 -0.013580 0.000000 -0.011666 0.000000
# 3 -0.001715 -0.013580 0.019925 0.000000 0.013405 0.000000
# 4 0.000000 0.000000 0.000000 0.038075 0.000000 0.006329
# 5 0.000242 -0.011666 0.013405 0.000000 0.038325 0.000000
# 6 0.000000 0.000000 0.000000 0.006329 0.000000 0.023569
#
#
# Mechanical properties :
#
#
# Convention : Reuss Voigt Hill
#
# Bulk Modulus (GPa) = 65.53899 69.54903 67.54401
# Shear Modulus (GPa) = 25.63701 34.07332 29.85516
#
# Velocity S-wave (km/s) = 3.47708 4.00856 3.75224
# Velocity P-wave (km/s) = 6.85765 7.36363 7.11514
#
# Compressibility (1/GPa) = 0.01525809
#
# Stress axis : x y z
#
# Youngs Moduli (GPa) = 123.52411 40.65704 50.18720
#
# Poissons Ratio (x) = 0.13763 0.08605
# Poissons Ratio (y) = 0.41816 0.68152
# Poissons Ratio (z) = 0.21180 0.55211
#
# Static dielectric constant tensor:
#      x y z
#    x 4.016750 0.000000 0.094470 
#    y 0.000000 3.751580 0.000000 
#    z 0.094470 0.000000 3.825930 
# 
# 
# High freq. dielectric constant tensor:
#      x y z
#    x 1.846200 0.000000 -0.000800 
#    y 0.000000 1.821110 0.000000 
#    z -0.000800 0.000000 1.847740 
# 
# From -- ./inp_files/159384.got.cif
#   From: 2010.06.25/outbox.cif.g09.slc.cpg/sg15_80_cif.got.tgz:159384.got - 2010.06.28 07:06:18.
