data_PCOD8146820
_publ_section_title
;
Structure prediction by ZEFSAII (Michael W. Deem and Ramdas Pophale) SiO2 
 PCOD8146820
Probable space group: C 2/C
;
_chemical_formula_sum "Si O2"
_cell_formula_units_Z 64
_cell_length_a 29.788321
_cell_length_b 8.059852
_cell_length_c 14.582532
_cell_angle_alpha 90.000000
_cell_angle_beta 125.767573
_cell_angle_gamma 90.000000
_cell_volume 2840.784070
_symmetry_space_group_name_H-M "C 2/C"
_symmetry_group_IT_number 15
_symmetry_cell_setting 'monoclinic'
loop_
_space_group_symop_operation_xyz
x,y,z
-x,y,1/2-z
-x,-y,-z
x,-y,1/2+z
1/2+x,1/2+y,z
1/2-x,1/2+y,1/2-z
1/2-x,1/2-y,-z
1/2+x,1/2-y,1/2+z
loop_
_atom_site_type_symbol
_atom_site_label
_atom_site_fract_x
_atom_site_fract_y
_atom_site_fract_z
Si Si1 0.904878 0.869532 0.523871
Si Si2 0.229340 0.281607 0.802140
Si Si3 0.977732 0.880809 0.897496
Si Si4 0.158953 0.444519 0.562617
Si Si5 0.684061 0.455099 0.690340
Si Si6 0.380444 0.838532 0.320950
Si Si7 0.937816 0.875008 0.204805
Si Si8 0.150019 0.596638 0.362425
O O1 0.876030 0.703763 0.526730
O O2 0.967624 0.807925 0.584710
O O3 0.870527 0.932902 0.394071
O O4 0.904044 0.032867 0.585145
O O5 0.207201 0.361332 0.679847
O O6 0.290753 0.364246 0.871705
O O7 0.199035 0.325595 0.860074
O O8 0.228895 0.081460 0.790553
O O9 0.942584 0.731422 0.897578
O O10 0.939338 0.987820 0.785415
O O11 0.000000 0.000000 0.000000
O O12 0.122810 0.551504 0.591015
O O13 0.175883 0.555444 0.493830
O O14 0.665687 0.307432 0.735991
O O15 0.371652 0.935967 0.216476
O O16 0.902871 0.716523 0.193936
O O17 0.000000 0.819566 0.250000
#
# Coordination Sequence:
#
# PCOD8146820 Si02
#       8
#     8   8   8   8   8   8   8   8
#     4  10  22  42  65  88 129 167 211 256 315 374
#     4  10  23  41  66  91 124 164 211 258 317 377
#     4  11  22  38  64  90 123 171 212 248 317 376
#     4  10  23  40  62  96 129 164 208 266 309 366
#     4  11  21  44  67  91 125 164 204 265 317 369
#     4  11  23  39  64  93 128 164 211 262 308 375
#     4  10  23  40  62  91 126 168 211 257 309 378
#     4  11  23  41  63  95 129 165 212 256 315 371
#
# _framework density 22.528991999999999
#
# number of rings (size 3 to 8) (size 9 to 14) (size 15 to 20)
#    0.000    1.500    1.250    3.750    5.250    1.500 
#    0.000   12.500    0.000    0.000    0.000    0.000 
#    0.000    0.000    0.000    0.000    0.000    0.000 
#
# Total GULP energy -396556.522350 kJ/mol
# GULP energy per Si atom -12392.391323 kJ/mol
# Density = 2.247772 g / cm^3
# Si number density = 22.528992 Si / 1000 Ang^3
#
#
#
# Elastic Constant Matrix: (Units=GPa)
#
#
# Indices 1 2 3 4 5 6 
#
# 1 105.4753 52.5364 15.1536 0.0000 -11.3790 0.0000
# 2 52.5364 116.2671 6.6718 0.0000 0.3584 0.0000
# 3 15.1536 6.6718 51.4378 0.0000 -16.2301 0.0000
# 4 0.0000 0.0000 0.0000 30.0179 0.0000 3.4855
# 5 -11.3790 0.3584 -16.2301 0.0000 28.9275 0.0000
# 6 0.0000 0.0000 0.0000 3.4855 0.0000 51.4735
#
#
#
# Elastic Compliance Matrix: (Units=1/GPa)
#
#
# Indices 1 2 3 4 5 6 
#
# 1 0.013094 -0.005828 -0.001766 0.000000 0.004232 0.000000
# 2 -0.005828 0.011279 -0.000624 0.000000 -0.002782 0.000000
# 3 -0.001766 -0.000624 0.024090 0.000000 0.012829 0.000000
# 4 0.000000 0.000000 0.000000 0.033578 0.000000 -0.002274
# 5 0.004232 -0.002782 0.012829 0.000000 0.043466 0.000000
# 6 0.000000 0.000000 0.000000 -0.002274 0.000000 0.019581
#
#
# Mechanical properties :
#
#
# Convention : Reuss Voigt Hill
#
# Bulk Modulus (GPa) = 31.22442 46.87820 39.05131
# Shear Modulus (GPa) = 29.03584 35.33834 32.18709
#
# Velocity S-wave (km/s) = 3.59391 3.96482 3.78391
# Velocity P-wave (km/s) = 5.57775 6.46628 6.03838
#
# Compressibility (1/GPa) = 0.03202621
#
# Stress axis : x y z
#
# Youngs Moduli (GPa) = 76.36887 88.66105 41.51078
#
# Poissons Ratio (x) = 0.51676 0.07332
# Poissons Ratio (y) = 0.44511 0.02589
# Poissons Ratio (z) = 0.13489 0.05531
#
# Static dielectric constant tensor:
#      x y z
#    x 2.414010 0.000000 -0.604700 
#    y 0.000000 4.175630 0.000000 
#    z -0.604700 0.000000 3.611620 
# 
# 
# High freq. dielectric constant tensor:
#      x y z
#    x 1.894350 0.000000 0.005180 
#    y 0.000000 1.902580 0.000000 
#    z 0.005180 0.000000 1.874660 
# 
# From -- ./inp_files/180823.got.cif
#   From: 2010.06.25/outbox.cif.g09.slc.cpg/sg15_91_cif.got.tgz:180823.got - 2010.06.28 07:06:18.
