data_PCOD8146425
_publ_section_title
;
Structure prediction by ZEFSAII (Michael W. Deem and Ramdas Pophale) SiO2 
 PCOD8146425
Probable space group: C 2/C
;
_chemical_formula_sum "Si O2"
_cell_formula_units_Z 48
_cell_length_a 8.431435
_cell_length_b 26.347738
_cell_length_c 11.776251
_cell_angle_alpha 90.000000
_cell_angle_beta 129.024079
_cell_angle_gamma 90.000000
_cell_volume 2032.387985
_symmetry_space_group_name_H-M "C 2/C"
_symmetry_group_IT_number 15
_symmetry_cell_setting 'monoclinic'
loop_
_space_group_symop_operation_xyz
x,y,z
-x,y,1/2-z
-x,-y,-z
x,-y,1/2+z
1/2+x,1/2+y,z
1/2-x,1/2+y,1/2-z
1/2-x,1/2-y,-z
1/2+x,1/2-y,1/2+z
loop_
_atom_site_type_symbol
_atom_site_label
_atom_site_fract_x
_atom_site_fract_y
_atom_site_fract_z
Si Si1 0.175932 0.688146 0.740041
Si Si2 0.124157 0.638448 0.194378
Si Si3 0.783211 0.472455 0.194553
Si Si4 0.194030 0.406239 0.094382
Si Si5 0.031779 0.257674 0.962277
Si Si6 0.607867 0.422268 0.552648
O O1 0.252300 0.639020 0.706465
O O2 0.076847 0.730123 0.612973
O O3 0.000000 0.673621 0.750000
O O4 0.385258 0.708730 0.891600
O O5 0.355199 0.622816 0.336980
O O6 0.000000 0.622669 0.250000
O O7 0.038569 0.603979 0.052409
O O8 0.097841 0.697559 0.156140
O O9 0.776619 0.459526 0.326592
O O10 0.751755 0.531599 0.158910
O O11 0.000000 0.453747 0.250000
O O12 0.625416 0.439414 0.048748
O O13 0.344784 0.405503 0.055081
O O14 0.250000 0.250000 0.000000
#
# Coordination Sequence:
#
# PCOD8146425 Si02
#       6
#     8   8   8   8   8   8
#     4  11  24  43  66  97 136 177 225 283 343 404
#     4   9  19  38  62  92 127 169 222 272 323 392
#     4  11  23  40  63  94 128 168 221 279 339 403
#     4  10  22  41  65  90 124 174 225 273 334 407
#     4  11  23  40  67 101 137 181 228 276 339 416
#     4  10  23  42  65  92 130 175 220 279 339 406
#
# _framework density 23.617536999999999
#
# number of rings (size 3 to 8) (size 9 to 14) (size 15 to 20)
#    0.000    1.667    0.000    4.500    0.000   10.667 
#    0.000    5.833    0.000    4.000    0.000    0.000 
#    0.000    0.000    0.000    0.000    0.000    0.000 
#
# Total GULP energy -297485.849816 kJ/mol
# GULP energy per Si atom -12395.243742 kJ/mol
# Density = 2.356378 g / cm^3
# Si number density = 23.617537 Si / 1000 Ang^3
#
#
#
# Elastic Constant Matrix: (Units=GPa)
#
#
# Indices 1 2 3 4 5 6 
#
# 1 91.2614 40.0506 38.0563 0.0000 19.3017 0.0000
# 2 40.0506 88.9059 50.1960 0.0000 3.3725 0.0000
# 3 38.0563 50.1960 95.4640 0.0000 0.3709 0.0000
# 4 0.0000 0.0000 0.0000 65.7910 0.0000 1.2915
# 5 19.3017 3.3725 0.3709 0.0000 34.8103 0.0000
# 6 0.0000 0.0000 0.0000 1.2915 0.0000 29.5129
#
#
#
# Elastic Compliance Matrix: (Units=1/GPa)
#
#
# Indices 1 2 3 4 5 6 
#
# 1 0.016619 -0.004885 -0.004022 0.000000 -0.008699 0.000000
# 2 -0.004885 0.017508 -0.007262 0.000000 0.001090 0.000000
# 3 -0.004022 -0.007262 0.015887 0.000000 0.002765 0.000000
# 4 0.000000 0.000000 0.000000 0.015213 0.000000 -0.000666
# 5 -0.008699 0.001090 0.002765 0.000000 0.033415 0.000000
# 6 0.000000 0.000000 0.000000 -0.000666 0.000000 0.033913
#
#
# Mechanical properties :
#
#
# Convention : Reuss Voigt Hill
#
# Bulk Modulus (GPa) = 56.58515 59.13746 57.86130
# Shear Modulus (GPa) = 29.27669 35.84475 32.56072
#
# Velocity S-wave (km/s) = 3.52464 3.90002 3.71707
# Velocity P-wave (km/s) = 6.36986 6.73603 6.55550
#
# Compressibility (1/GPa) = 0.01767248
#
# Stress axis : x y z
#
# Youngs Moduli (GPa) = 60.17362 57.11798 62.94645
#
# Poissons Ratio (x) = 0.27905 0.25319
# Poissons Ratio (y) = 0.29397 0.45714
# Poissons Ratio (z) = 0.24204 0.41481
#
# Static dielectric constant tensor:
#      x y z
#    x 3.926950 0.000000 0.131620 
#    y 0.000000 4.239650 0.000000 
#    z 0.131620 0.000000 4.822580 
# 
# 
# High freq. dielectric constant tensor:
#      x y z
#    x 1.899530 0.000000 0.012790 
#    y 0.000000 1.935530 0.000000 
#    z 0.012790 0.000000 1.963930 
# 
# From -- ./inp_files/80906.got.cif
#   From: 2010.06.25/outbox.cif.g09.slc.cpg/sg15_41_cif.got.tgz:80906.got - 2010.06.28 07:06:18.
