data_PCOD8146726
_publ_section_title
;
Structure prediction by ZEFSAII (Michael W. Deem and Ramdas Pophale) SiO2 
 PCOD8146726
Probable space group: C 2/C
;
_chemical_formula_sum "Si O2"
_cell_formula_units_Z 48
_cell_length_a 21.737901
_cell_length_b 11.645358
_cell_length_c 26.238902
_cell_angle_alpha 90.000000
_cell_angle_beta 158.904417
_cell_angle_gamma 90.000000
_cell_volume 2390.715967
_symmetry_space_group_name_H-M "C 2/C"
_symmetry_group_IT_number 15
_symmetry_cell_setting 'monoclinic'
loop_
_space_group_symop_operation_xyz
x,y,z
-x,y,1/2-z
-x,-y,-z
x,-y,1/2+z
1/2+x,1/2+y,z
1/2-x,1/2+y,1/2-z
1/2-x,1/2-y,-z
1/2+x,1/2-y,1/2+z
loop_
_atom_site_type_symbol
_atom_site_label
_atom_site_fract_x
_atom_site_fract_y
_atom_site_fract_z
Si Si1 0.807450 0.076364 0.697342
Si Si2 0.087497 0.654050 0.619361
Si Si3 0.049524 0.264443 0.846287
Si Si4 0.699445 0.322622 0.787966
Si Si5 0.927809 0.685359 0.639877
Si Si6 0.953506 0.477097 0.588546
O O1 0.681114 0.139829 0.638468
O O2 0.712467 0.061898 0.570496
O O3 0.974736 0.149427 0.814057
O O4 0.858656 0.955004 0.762148
O O5 0.182619 0.758830 0.720910
O O6 0.891312 0.687217 0.457467
O O7 0.092197 0.535761 0.656918
O O8 0.978322 0.368171 0.826874
O O9 0.000000 0.287061 0.750000
O O10 0.250000 0.250000 0.000000
O O11 0.575134 0.264863 0.731787
O O12 0.750000 0.750000 0.500000
O O13 0.893393 0.571397 0.581882
O O14 0.000000 0.648049 0.750000
#
# Coordination Sequence:
#
# PCOD8146726 Si02
#       6
#     8   8   8   8   8   8
#     4  11  24  41  71  89 131 174 209 271 328 391
#     4  10  23  42  70  93 128 164 216 272 332 379
#     4  12  26  44  64  95 133 178 218 259 327 396
#     4  10  22  42  62  99 124 163 217 260 325 392
#     4  11  22  38  68  95 130 170 210 268 321 380
#     4  10  22  43  63  93 129 167 216 265 316 385
#
# _framework density 20.077669
#
# number of rings (size 3 to 8) (size 9 to 14) (size 15 to 20)
#    0.000    1.333    1.667    5.500    7.000    0.667 
#    6.000    0.833    0.000    0.000    0.000    0.000 
#    0.000    0.000    0.000    0.000    0.000    0.000 
#
# Total GULP energy -297562.538202 kJ/mol
# GULP energy per Si atom -12398.439092 kJ/mol
# Density = 2.003197 g / cm^3
# Si number density = 20.077669 Si / 1000 Ang^3
#
#
#
# Elastic Constant Matrix: (Units=GPa)
#
#
# Indices 1 2 3 4 5 6 
#
# 1 127.2307 59.5517 77.0572 0.0019 -3.5813 0.0001
# 2 59.5517 126.5945 41.1037 -0.0062 -11.7518 0.0035
# 3 77.0572 41.1037 86.4996 -0.0204 -9.4715 -0.0013
# 4 0.0019 -0.0062 -0.0204 31.8620 -0.0001 -9.9779
# 5 -3.5813 -11.7518 -9.4715 -0.0001 30.2806 0.0044
# 6 0.0001 0.0035 -0.0013 -9.9779 0.0044 24.2623
#
#
#
# Elastic Compliance Matrix: (Units=1/GPa)
#
#
# Indices 1 2 3 4 5 6 
#
# 1 0.019141 -0.004389 -0.015433 -0.000013 -0.004267 -0.000005
# 2 -0.004389 0.010506 -0.000717 0.000001 0.003334 -0.000002
# 3 -0.015433 -0.000717 0.026321 0.000020 0.006129 0.000009
# 4 -0.000013 0.000001 0.000020 0.036025 0.000003 0.014815
# 5 -0.004267 0.003334 0.006129 0.000003 0.035731 -0.000005
# 6 -0.000005 -0.000002 0.000009 0.014815 -0.000005 0.047309
#
#
# Mechanical properties :
#
#
# Convention : Reuss Voigt Hill
#
# Bulk Modulus (GPa) = 67.16259 77.30556 72.23408
# Shear Modulus (GPa) = 22.61659 28.12178 25.36918
#
# Velocity S-wave (km/s) = 3.35991 3.74659 3.55850
# Velocity P-wave (km/s) = 6.96965 7.56986 7.27594
#
# Compressibility (1/GPa) = 0.01488924
#
# Stress axis : x y z
#
# Youngs Moduli (GPa) = 52.24313 95.17959 37.99216
#
# Poissons Ratio (x) = 0.41779 0.58634
# Poissons Ratio (y) = 0.22932 0.02725
# Poissons Ratio (z) = 0.80628 0.06826
#
# Static dielectric constant tensor:
#      x y z
#    x 3.917510 0.000310 -0.052140 
#    y 0.000310 4.290060 0.000040 
#    z -0.052140 0.000040 3.411860 
# 
# 
# High freq. dielectric constant tensor:
#      x y z
#    x 1.802960 0.000000 -0.005290 
#    y 0.000000 1.793430 0.000000 
#    z -0.005290 0.000000 1.772550 
# 
# From -- ./inp_files/65249.got.cif
#   From: 2010.06.25/outbox.cif.g09.slc.cpg/sg15_33_cif.got.tgz:65249.got - 2010.06.28 07:06:18.
