data_PCOD8146577
_publ_section_title
;
Structure prediction by ZEFSAII (Michael W. Deem and Ramdas Pophale) SiO2 
 PCOD8146577
Probable space group: C 2/C
;
_chemical_formula_sum "Si O2"
_cell_formula_units_Z 52
_cell_length_a 26.839129
_cell_length_b 10.859265
_cell_length_c 8.691153
_cell_angle_alpha 90.000000
_cell_angle_beta 120.365947
_cell_angle_gamma 90.000000
_cell_volume 2185.564181
_symmetry_space_group_name_H-M "C 2/C"
_symmetry_group_IT_number 15
_symmetry_cell_setting 'monoclinic'
loop_
_space_group_symop_operation_xyz
x,y,z
-x,y,1/2-z
-x,-y,-z
x,-y,1/2+z
1/2+x,1/2+y,z
1/2-x,1/2+y,1/2-z
1/2-x,1/2-y,-z
1/2+x,1/2-y,1/2+z
loop_
_atom_site_type_symbol
_atom_site_label
_atom_site_fract_x
_atom_site_fract_y
_atom_site_fract_z
Si Si1 0.500000 0.467303 0.250000
Si Si2 0.625375 0.081026 0.186547
Si Si3 0.811354 0.227664 0.522815
Si Si4 0.692846 0.527450 0.360226
Si Si5 0.228382 0.404634 0.274687
Si Si6 0.071187 0.131882 0.135312
Si Si7 0.062928 0.389240 0.278400
O O1 0.545654 0.553535 0.235364
O O2 0.533476 0.380919 0.422282
O O3 0.638408 0.203039 0.305083
O O4 0.681964 0.997507 0.272443
O O5 0.573771 0.010063 0.192526
O O6 0.608382 0.120516 0.988585
O O7 0.750000 0.250000 0.500000
O O8 0.826092 0.083381 0.552152
O O9 0.804750 0.281992 0.338359
O O10 0.735834 0.474671 0.300523
O O11 0.727150 0.628022 0.518081
O O12 0.636115 0.588463 0.199196
O O13 0.070846 0.273810 0.179601
O O14 0.000000 0.396872 0.250000
#
# Coordination Sequence:
#
# PCOD8146577 Si02
#       7
#     4   8   8   8   8   8   8
#     4  10  24  48  72 104 146 184 256 296 370 418
#     4  12  24  47  74  99 145 189 239 295 370 430
#     4  10  22  41  68  97 145 188 219 285 354 423
#     4  11  24  39  70 104 145 183 235 281 364 431
#     4  11  21  42  64 108 141 184 232 285 351 444
#     4  11  25  47  74 107 142 195 242 308 361 427
#     4  12  28  51  72 103 139 193 255 312 357 423
#
# _framework density 23.792484999999999
#
# number of rings (size 3 to 8) (size 9 to 14) (size 15 to 20)
#    0.000    0.923    5.385    1.385    6.462    2.462 
#    4.154    2.308    0.000    0.000    0.000    0.000 
#    0.000    0.000    0.000    0.000    0.000    0.000 
#
# Total GULP energy -322445.274825 kJ/mol
# GULP energy per Si atom -12401.741339 kJ/mol
# Density = 2.373833 g / cm^3
# Si number density = 23.792485 Si / 1000 Ang^3
#
#
#
# Elastic Constant Matrix: (Units=GPa)
#
#
# Indices 1 2 3 4 5 6 
#
# 1 91.4559 18.7992 3.7689 0.0000 4.0115 0.0000
# 2 18.7992 89.5794 20.9157 0.0000 10.2800 0.0000
# 3 3.7689 20.9157 114.7727 0.0000 12.1190 0.0000
# 4 0.0000 0.0000 0.0000 17.1899 0.0000 -4.6405
# 5 4.0115 10.2800 12.1190 0.0000 26.0216 0.0000
# 6 0.0000 0.0000 0.0000 -4.6405 0.0000 24.4502
#
#
#
# Elastic Compliance Matrix: (Units=1/GPa)
#
#
# Indices 1 2 3 4 5 6 
#
# 1 0.011448 -0.002332 0.000145 0.000000 -0.000911 0.000000
# 2 -0.002332 0.012504 -0.001807 0.000000 -0.003738 0.000000
# 3 0.000145 -0.001807 0.009428 0.000000 -0.003699 0.000000
# 4 0.000000 0.000000 0.000000 0.061315 0.000000 0.011637
# 5 -0.000911 -0.003738 -0.003699 0.000000 0.041770 0.000000
# 6 0.000000 0.000000 0.000000 0.011637 0.000000 0.043108
#
#
# Mechanical properties :
#
#
# Convention : Reuss Voigt Hill
#
# Bulk Modulus (GPa) = 39.38303 42.53062 40.95683
# Shear Modulus (GPa) = 25.50707 30.35395 27.93051
#
# Velocity S-wave (km/s) = 3.27779 3.57568 3.42997
# Velocity P-wave (km/s) = 5.56002 5.91285 5.73915
#
# Compressibility (1/GPa) = 0.02539165
#
# Stress axis : x y z
#
# Youngs Moduli (GPa) = 87.35522 79.97679 106.06620
#
# Poissons Ratio (x) = 0.18648 -0.01540
# Poissons Ratio (y) = 0.20369 0.19169
# Poissons Ratio (z) = -0.01269 0.14454
#
# Static dielectric constant tensor:
#      x y z
#    x 4.313280 0.000000 -0.036730 
#    y 0.000000 4.687730 0.000000 
#    z -0.036730 0.000000 4.963280 
# 
# 
# High freq. dielectric constant tensor:
#      x y z
#    x 1.948980 0.000000 -0.004160 
#    y 0.000000 1.936140 0.000000 
#    z -0.004160 0.000000 1.958810 
# 
# From -- ./inp_files/65600.got.cif
#   From: 2010.06.25/outbox.cif.g09.slc.cpg/sg15_33_cif.got.tgz:65600.got - 2010.06.28 07:06:18.
