data_PCOD8146996
_publ_section_title
;
Structure prediction by ZEFSAII (Michael W. Deem and Ramdas Pophale) SiO2 
 PCOD8146996
Probable space group: C 2/C
;
_chemical_formula_sum "Si O2"
_cell_formula_units_Z 52
_cell_length_a 12.352122
_cell_length_b 12.113061
_cell_length_c 21.628244
_cell_angle_alpha 90.000000
_cell_angle_beta 128.415756
_cell_angle_gamma 90.000000
_cell_volume 2535.527199
_symmetry_space_group_name_H-M "C 2/C"
_symmetry_group_IT_number 15
_symmetry_cell_setting 'monoclinic'
loop_
_space_group_symop_operation_xyz
x,y,z
-x,y,1/2-z
-x,-y,-z
x,-y,1/2+z
1/2+x,1/2+y,z
1/2-x,1/2+y,1/2-z
1/2-x,1/2-y,-z
1/2+x,1/2-y,1/2+z
loop_
_atom_site_type_symbol
_atom_site_label
_atom_site_fract_x
_atom_site_fract_y
_atom_site_fract_z
Si Si1 0.261968 0.246456 0.102692
Si Si2 0.500000 0.349026 0.250000
Si Si3 0.821064 0.350563 0.058085
Si Si4 0.583830 0.490887 0.171252
Si Si5 0.899388 0.242261 0.328786
Si Si6 0.705974 0.423567 0.482339
Si Si7 0.338871 0.892922 0.200935
O O1 0.421861 0.267772 0.175092
O O2 0.193436 0.245737 0.144464
O O3 0.218216 0.347364 0.042103
O O4 0.231475 0.130500 0.058739
O O5 0.595366 0.430135 0.241901
O O6 0.773016 0.358458 0.112169
O O7 0.983150 0.330560 0.113946
O O8 0.750000 0.250000 0.000000
O O9 0.784126 0.460646 0.007655
O O10 0.546972 0.619558 0.167022
O O11 0.458534 0.437527 0.086920
O O12 0.734253 0.484904 0.191406
O O13 0.825508 0.285906 0.240444
O O14 0.500000 0.934061 0.250000
#
# Coordination Sequence:
#
# PCOD8146996 Si02
#       7
#     8   4   8   8   8   8   8
#     4  10  22  43  64  98 130 172 221 262 329 387
#     4  10  22  42  68  94 130 174 218 270 326 388
#     4  11  23  41  64  96 128 171 213 273 326 382
#     4  11  22  41  69  94 128 178 217 268 328 390
#     4  11  23  41  65  94 132 168 217 274 322 391
#     4  10  23  42  68  94 133 172 216 272 320 400
#     4  10  24  42  59  94 132 166 218 269 326 383
#
# _framework density 20.508555999999999
#
# number of rings (size 3 to 8) (size 9 to 14) (size 15 to 20)
#    0.000    1.538    3.077    0.923    5.385    1.846 
#   11.077    0.000    0.000    0.000    0.000    0.000 
#    0.000    0.000    0.000    0.000    0.000    0.000 
#
# Total GULP energy -322242.922709 kJ/mol
# GULP energy per Si atom -12393.958566 kJ/mol
# Density = 2.046188 g / cm^3
# Si number density = 20.508556 Si / 1000 Ang^3
#
#
#
# Elastic Constant Matrix: (Units=GPa)
#
#
# Indices 1 2 3 4 5 6 
#
# 1 66.6242 22.6863 5.2052 0.0000 2.1115 0.0000
# 2 22.6863 119.8788 38.4217 0.0000 9.4979 0.0000
# 3 5.2052 38.4217 87.5702 0.0000 -1.9760 0.0000
# 4 0.0000 0.0000 0.0000 35.7784 0.0000 3.6785
# 5 2.1115 9.4979 -1.9760 0.0000 22.4384 0.0000
# 6 0.0000 0.0000 0.0000 3.6785 0.0000 24.0534
#
#
#
# Elastic Compliance Matrix: (Units=1/GPa)
#
#
# Indices 1 2 3 4 5 6 
#
# 1 0.016058 -0.003167 0.000432 0.000000 -0.000133 0.000000
# 2 -0.003167 0.010805 -0.004658 0.000000 -0.004686 0.000000
# 3 0.000432 -0.004658 0.013508 0.000000 0.003121 0.000000
# 4 0.000000 0.000000 0.000000 0.028396 0.000000 -0.004343
# 5 -0.000133 -0.004686 0.003121 0.000000 0.046837 0.000000
# 6 0.000000 0.000000 0.000000 -0.004343 0.000000 0.042238
#
#
# Mechanical properties :
#
#
# Convention : Reuss Voigt Hill
#
# Bulk Modulus (GPa) = 39.08516 45.18887 42.13702
# Shear Modulus (GPa) = 27.60013 30.30472 28.95242
#
# Velocity S-wave (km/s) = 3.67248 3.84821 3.76137
# Velocity P-wave (km/s) = 6.08951 6.46737 6.28128
#
# Compressibility (1/GPa) = 0.02558516
#
# Stress axis : x y z
#
# Youngs Moduli (GPa) = 62.27281 92.54647 74.02999
#
# Poissons Ratio (x) = 0.29309 -0.03198
# Poissons Ratio (y) = 0.19721 0.34486
# Poissons Ratio (z) = -0.02690 0.43112
#
# Static dielectric constant tensor:
#      x y z
#    x 3.710110 0.000000 0.011330 
#    y 0.000000 3.810970 0.000000 
#    z 0.011330 0.000000 5.847200 
# 
# 
# High freq. dielectric constant tensor:
#      x y z
#    x 1.790000 0.000000 -0.011760 
#    y 0.000000 1.801630 0.000000 
#    z -0.011760 0.000000 1.817130 
# 
# From -- ./inp_files/237704.got.cif
#   From: 2010.06.25/outbox.cif.g09.slc.cpg/sg15_119_cif.got.tgz:237704.got - 2010.06.28 07:06:18.
