data_PCOD8146152
_publ_section_title
;
Structure prediction by ZEFSAII (Michael W. Deem and Ramdas Pophale) SiO2 
 PCOD8146152
Probable space group: C 2/C
;
_chemical_formula_sum "Si O2"
_cell_formula_units_Z 44
_cell_length_a 15.012302
_cell_length_b 15.553527
_cell_length_c 12.445981
_cell_angle_alpha 90.000000
_cell_angle_beta 139.196368
_cell_angle_gamma 90.000000
_cell_volume 1899.022149
_symmetry_space_group_name_H-M "C 2/C"
_symmetry_group_IT_number 15
_symmetry_cell_setting 'monoclinic'
loop_
_space_group_symop_operation_xyz
x,y,z
-x,y,1/2-z
-x,-y,-z
x,-y,1/2+z
1/2+x,1/2+y,z
1/2-x,1/2+y,1/2-z
1/2-x,1/2-y,-z
1/2+x,1/2-y,1/2+z
loop_
_atom_site_type_symbol
_atom_site_label
_atom_site_fract_x
_atom_site_fract_y
_atom_site_fract_z
Si Si1 0.618504 0.640054 0.221615
Si Si2 0.136384 0.595002 0.534093
Si Si3 0.500000 0.499442 0.250000
Si Si4 0.000000 0.712788 0.250000
Si Si5 0.093943 0.602075 0.013634
Si Si6 0.945185 0.864038 0.355495
Si Si7 0.000000 0.717006 0.750000
O O1 0.614890 0.560864 0.304319
O O2 0.765105 0.630044 0.297447
O O3 0.604238 0.727405 0.274342
O O4 0.496518 0.639579 0.024111
O O5 0.091017 0.497042 0.475734
O O6 0.290854 0.601170 0.715652
O O7 0.116973 0.650694 0.406998
O O8 0.034025 0.631176 0.531431
O O9 0.545036 0.432948 0.385963
O O10 0.943887 0.771677 0.295813
O O11 0.096556 0.656825 0.908053
#
# Coordination Sequence:
#
# PCOD8146152 Si02
#       7
#     8   8   4   4   8   8   4
#     4  11  24  45  72 100 134 176 231 278 332 397
#     4  11  25  45  68 101 138 180 220 280 339 397
#     4  10  22  40  68 100 128 172 222 276 326 398
#     4  11  25  43  69 102 136 182 223 275 331 407
#     4  11  25  45  68 101 138 180 220 280 339 397
#     4  11  24  45  72 100 134 176 231 278 332 397
#     4  11  25  43  69 102 136 182 223 275 331 407
#
# _framework density 23.169819
#
# number of rings (size 3 to 8) (size 9 to 14) (size 15 to 20)
#    0.000    1.091    1.818    3.273    0.000   11.636 
#    6.545    0.000    0.000    0.000    0.000    0.000 
#    0.000    0.000    0.000    0.000    0.000    0.000 
#
# Total GULP energy -272660.127386 kJ/mol
# GULP energy per Si atom -12393.642154 kJ/mol
# Density = 2.311708 g / cm^3
# Si number density = 23.169819 Si / 1000 Ang^3
#
#
#
# Elastic Constant Matrix: (Units=GPa)
#
#
# Indices 1 2 3 4 5 6 
#
# 1 105.1778 48.3075 57.9397 0.0000 -1.0949 0.0000
# 2 48.3075 129.8540 50.2737 0.0000 -14.4567 0.0000
# 3 57.9397 50.2737 132.3947 0.0000 -0.5878 0.0000
# 4 0.0000 0.0000 0.0000 27.4771 0.0000 -9.9598
# 5 -1.0949 -14.4567 -0.5878 0.0000 31.3228 0.0000
# 6 0.0000 0.0000 0.0000 -9.9598 0.0000 22.2375
#
#
#
# Elastic Compliance Matrix: (Units=1/GPa)
#
#
# Indices 1 2 3 4 5 6 
#
# 1 0.013632 -0.003389 -0.004684 0.000000 -0.001175 0.000000
# 2 -0.003389 0.010431 -0.002457 0.000000 0.004650 0.000000
# 3 -0.004684 -0.002457 0.010531 0.000000 -0.001100 0.000000
# 4 0.000000 0.000000 0.000000 0.043448 0.000000 0.019459
# 5 -0.001175 0.004650 -0.001100 0.000000 0.034010 0.000000
# 6 0.000000 0.000000 0.000000 0.019459 0.000000 0.053685
#
#
# Mechanical properties :
#
#
# Convention : Reuss Voigt Hill
#
# Bulk Modulus (GPa) = 73.88864 75.60759 74.74811
# Shear Modulus (GPa) = 26.13588 30.26784 28.20186
#
# Velocity S-wave (km/s) = 3.36224 3.61826 3.49260
# Velocity P-wave (km/s) = 6.85800 7.08227 6.97103
#
# Compressibility (1/GPa) = 0.01353388
#
# Stress axis : x y z
#
# Youngs Moduli (GPa) = 73.35478 95.87259 94.95481
#
# Poissons Ratio (x) = 0.32488 0.44480
# Poissons Ratio (y) = 0.24858 0.23331
# Poissons Ratio (z) = 0.34362 0.23557
#
# Static dielectric constant tensor:
#      x y z
#    x 4.146070 0.000000 -0.066060 
#    y 0.000000 4.525450 0.000000 
#    z -0.066060 0.000000 3.916800 
# 
# 
# High freq. dielectric constant tensor:
#      x y z
#    x 1.910410 0.000000 -0.004240 
#    y 0.000000 1.946190 0.000000 
#    z -0.004240 0.000000 1.895890 
# 
# From -- ./inp_files/162085.got.cif
#   From: 2010.06.25/outbox.cif.g09.slc.cpg/sg15_82_cif.got.tgz:162085.got - 2010.06.28 07:06:18.
