data_PCOD8146535
_publ_section_title
;
Structure prediction by ZEFSAII (Michael W. Deem and Ramdas Pophale) SiO2 
 PCOD8146535
Probable space group: C 2/C
;
_chemical_formula_sum "Si O2"
_cell_formula_units_Z 40
_cell_length_a 8.008595
_cell_length_b 16.645215
_cell_length_c 14.915843
_cell_angle_alpha 90.000000
_cell_angle_beta 105.238746
_cell_angle_gamma 90.000000
_cell_volume 1918.440704
_symmetry_space_group_name_H-M "C 2/C"
_symmetry_group_IT_number 15
_symmetry_cell_setting 'monoclinic'
loop_
_space_group_symop_operation_xyz
x,y,z
-x,y,1/2-z
-x,-y,-z
x,-y,1/2+z
1/2+x,1/2+y,z
1/2-x,1/2+y,1/2-z
1/2-x,1/2-y,-z
1/2+x,1/2-y,1/2+z
loop_
_atom_site_type_symbol
_atom_site_label
_atom_site_fract_x
_atom_site_fract_y
_atom_site_fract_z
Si Si1 0.860215 0.673825 0.987644
Si Si2 0.798373 0.984773 0.969499
Si Si3 0.300342 0.093848 0.218642
Si Si4 0.781619 0.621181 0.412010
Si Si5 0.034864 0.229935 0.153874
O O1 0.925240 0.688787 0.895022
O O2 0.750000 0.750000 0.000000
O O3 0.743212 0.594925 0.979262
O O4 0.032168 0.663968 0.073138
O O5 0.735518 0.978614 0.856745
O O6 0.702108 0.058443 0.004214
O O7 0.000000 0.000000 0.000000
O O8 0.500000 0.115293 0.250000
O O9 0.235404 0.075639 0.311204
O O10 0.198513 0.170970 0.166801
O O11 0.633011 0.685975 0.411773
O O12 0.000000 0.256848 0.250000
#
# Coordination Sequence:
#
# PCOD8146535 Si02
#       5
#     8   8   8   8   8
#     4  12  22  41  67  95 129 172 224 272 329 389
#     4  12  24  42  67  98 130 173 228 272 326 392
#     4  11  21  41  69  90 133 175 221 255 340 395
#     4  11  23  42  68  94 130 178 215 269 330 397
#     4  10  22  41  67  95 132 174 218 267 337 396
#
# _framework density 20.850268
#
# number of rings (size 3 to 8) (size 9 to 14) (size 15 to 20)
#    0.000    0.800    6.000    1.200    0.000    0.000 
#    3.600    0.000    8.800    0.000    0.000    0.000 
#    0.000    0.000    0.000    0.000    0.000    0.000 
#
# Total GULP energy -247965.735816 kJ/mol
# GULP energy per Si atom -12398.286791 kJ/mol
# Density = 2.080281 g / cm^3
# Si number density = 20.850268 Si / 1000 Ang^3
#
#
#
# Elastic Constant Matrix: (Units=GPa)
#
#
# Indices 1 2 3 4 5 6 
#
# 1 146.0198 62.0974 45.7101 0.0000 23.1960 0.0000
# 2 62.0974 83.2703 52.9031 0.0000 -1.0154 0.0000
# 3 45.7101 52.9031 138.0744 0.0000 -9.4710 0.0000
# 4 0.0000 0.0000 0.0000 40.1536 0.0000 -13.3808
# 5 23.1960 -1.0154 -9.4710 0.0000 41.4951 0.0000
# 6 0.0000 0.0000 0.0000 -13.3808 0.0000 44.9106
#
#
#
# Elastic Compliance Matrix: (Units=1/GPa)
#
#
# Indices 1 2 3 4 5 6 
#
# 1 0.011817 -0.008068 -0.001308 0.000000 -0.007102 0.000000
# 2 -0.008068 0.021423 -0.005275 0.000000 0.003830 0.000000
# 3 -0.001308 -0.005275 0.009893 0.000000 0.002860 0.000000
# 4 0.000000 0.000000 0.000000 0.027650 0.000000 0.008238
# 5 -0.007102 0.003830 0.002860 0.000000 0.028816 0.000000
# 6 0.000000 0.000000 0.000000 0.008238 0.000000 0.024721
#
#
# Mechanical properties :
#
#
# Convention : Reuss Voigt Hill
#
# Bulk Modulus (GPa) = 72.29695 76.53177 74.41436
# Shear Modulus (GPa) = 31.59931 39.08878 35.34405
#
# Velocity S-wave (km/s) = 3.89721 4.33452 4.12167
# Velocity P-wave (km/s) = 7.41624 7.86358 7.64318
#
# Compressibility (1/GPa) = 0.01383184
#
# Stress axis : x y z
#
# Youngs Moduli (GPa) = 84.62364 46.67781 101.08502
#
# Poissons Ratio (x) = 0.37660 0.13222
# Poissons Ratio (y) = 0.68274 0.53319
# Poissons Ratio (z) = 0.11069 0.24621
#
# Static dielectric constant tensor:
#      x y z
#    x 4.085670 0.000000 -0.237660 
#    y 0.000000 3.604830 0.000000 
#    z -0.237660 0.000000 4.199840 
# 
# 
# High freq. dielectric constant tensor:
#      x y z
#    x 1.845580 0.000000 -0.009350 
#    y 0.000000 1.781860 0.000000 
#    z -0.009350 0.000000 1.823880 
# 
# From -- ./inp_files/133265.got.cif
#   From: 2010.06.25/outbox.cif.g09.slc.cpg/sg15_67_cif.got.tgz:133265.got - 2010.06.28 07:06:18.
