data_PCOD8146827
_publ_section_title
;
Structure prediction by ZEFSAII (Michael W. Deem and Ramdas Pophale) SiO2 
 PCOD8146827
Probable space group: C 2/C
;
_chemical_formula_sum "Si O2"
_cell_formula_units_Z 36
_cell_length_a 16.988828
_cell_length_b 19.593902
_cell_length_c 8.773585
_cell_angle_alpha 90.000000
_cell_angle_beta 145.823109
_cell_angle_gamma 90.000000
_cell_volume 1640.606110
_symmetry_space_group_name_H-M "C 2/C"
_symmetry_group_IT_number 15
_symmetry_cell_setting 'monoclinic'
loop_
_space_group_symop_operation_xyz
x,y,z
-x,y,1/2-z
-x,-y,-z
x,-y,1/2+z
1/2+x,1/2+y,z
1/2-x,1/2+y,1/2-z
1/2-x,1/2-y,-z
1/2+x,1/2-y,1/2+z
loop_
_atom_site_type_symbol
_atom_site_label
_atom_site_fract_x
_atom_site_fract_y
_atom_site_fract_z
Si Si1 0.808429 0.962584 0.692471
Si Si2 0.636523 0.096323 0.391967
Si Si3 0.163977 0.258974 0.016098
Si Si4 0.000000 0.010157 0.250000
Si Si5 0.362408 0.152019 0.447306
O O1 0.683151 0.910663 0.517965
O O2 0.895697 0.942060 0.681134
O O3 0.757315 0.040295 0.584434
O O4 0.912168 0.959493 0.001835
O O5 0.500000 0.061388 0.250000
O O6 0.673801 0.159826 0.564869
O O7 0.607747 0.124992 0.175722
O O8 0.244061 0.211301 0.266317
O O9 0.250000 0.250000 0.000000
O O10 0.000000 0.236359 0.750000
O O11 0.500000 0.182013 0.750000
#
# Coordination Sequence:
#
# PCOD8146827 Si02
#       5
#     8   8   8   4   8
#     4  11  22  40  64  96 136 169 226 270 337 394
#     4  10  22  42  65  91 130 175 218 270 335 395
#     4   9  21  43  68  90 129 180 221 267 335 398
#     4  10  24  38  60 102 128 176 218 274 330 404
#     4  11  24  40  69 100 132 175 224 279 334 397
#
# _framework density 21.943109
#
# number of rings (size 3 to 8) (size 9 to 14) (size 15 to 20)
#    0.000    1.778    2.222    0.667    4.667    3.556 
#    2.000   10.000    0.000    0.000    0.000    0.000 
#    0.000    0.000    0.000    0.000    0.000    0.000 
#
# Total GULP energy -223075.296187 kJ/mol
# GULP energy per Si atom -12393.072010 kJ/mol
# Density = 2.189317 g / cm^3
# Si number density = 21.943109 Si / 1000 Ang^3
#
#
#
# Elastic Constant Matrix: (Units=GPa)
#
#
# Indices 1 2 3 4 5 6 
#
# 1 141.5215 29.6679 45.7252 0.0000 16.2669 0.0000
# 2 29.6679 103.2251 63.9635 0.0000 5.8530 0.0000
# 3 45.7252 63.9635 141.8375 0.0000 16.8719 0.0000
# 4 0.0000 0.0000 0.0000 18.1518 0.0000 -3.4745
# 5 16.2669 5.8530 16.8719 0.0000 35.2741 0.0000
# 6 0.0000 0.0000 0.0000 -3.4745 0.0000 17.9352
#
#
#
# Elastic Compliance Matrix: (Units=1/GPa)
#
#
# Indices 1 2 3 4 5 6 
#
# 1 0.008196 -0.001061 -0.001840 0.000000 -0.002724 0.000000
# 2 -0.001061 0.013599 -0.005917 0.000000 0.001063 0.000000
# 3 -0.001840 -0.005917 0.010703 0.000000 -0.003289 0.000000
# 4 0.000000 0.000000 0.000000 0.057213 0.000000 0.011084
# 5 -0.002724 0.001063 -0.003289 0.000000 0.031002 0.000000
# 6 0.000000 0.000000 0.000000 0.011084 0.000000 0.057903
#
#
# Mechanical properties :
#
#
# Convention : Reuss Voigt Hill
#
# Bulk Modulus (GPa) = 67.28508 73.92193 70.60350
# Shear Modulus (GPa) = 24.85025 30.75406 27.80216
#
# Velocity S-wave (km/s) = 3.36889 3.74777 3.56337
# Velocity P-wave (km/s) = 6.77219 7.24492 7.01254
#
# Compressibility (1/GPa) = 0.01486214
#
# Stress axis : x y z
#
# Youngs Moduli (GPa) = 122.01102 73.53663 93.43263
#
# Poissons Ratio (x) = 0.07804 0.17188
# Poissons Ratio (y) = 0.12948 0.55282
# Poissons Ratio (z) = 0.22446 0.43510
#
# Static dielectric constant tensor:
#      x y z
#    x 4.370440 0.000000 0.183610 
#    y 0.000000 4.056400 0.000000 
#    z 0.183610 0.000000 3.944180 
# 
# 
# High freq. dielectric constant tensor:
#      x y z
#    x 1.880410 0.000000 0.018040 
#    y 0.000000 1.843560 0.000000 
#    z 0.018040 0.000000 1.852720 
# 
# From -- ./inp_files/28982.got.cif
#   From: 2010.06.25/outbox.cif.g09.slc.cpg/sg15_15_cif.got.tgz:28982.got - 2010.06.28 07:06:18.
