data_PCOD8146099
_publ_section_title
;
Structure prediction by ZEFSAII (Michael W. Deem and Ramdas Pophale) SiO2 
 PCOD8146099
Probable space group: C 2/C
;
_chemical_formula_sum "Si O2"
_cell_formula_units_Z 64
_cell_length_a 9.824029
_cell_length_b 17.367872
_cell_length_c 30.946899
_cell_angle_alpha 90.000000
_cell_angle_beta 142.525072
_cell_angle_gamma 90.000000
_cell_volume 3212.570969
_symmetry_space_group_name_H-M "C 2/C"
_symmetry_group_IT_number 15
_symmetry_cell_setting 'monoclinic'
loop_
_space_group_symop_operation_xyz
x,y,z
-x,y,1/2-z
-x,-y,-z
x,-y,1/2+z
1/2+x,1/2+y,z
1/2-x,1/2+y,1/2-z
1/2-x,1/2-y,-z
1/2+x,1/2-y,1/2+z
loop_
_atom_site_type_symbol
_atom_site_label
_atom_site_fract_x
_atom_site_fract_y
_atom_site_fract_z
Si Si1 0.472930 0.948452 0.175886
Si Si2 0.343498 0.198452 0.824113
Si Si3 0.690834 0.709812 0.029285
Si Si4 0.736997 0.468998 0.546077
Si Si5 0.125880 0.947731 0.162617
Si Si6 0.294411 0.959812 0.970715
Si Si7 0.756615 0.281002 0.953923
Si Si8 0.437205 0.302269 0.162617
O O1 0.523258 0.875000 0.159303
O O2 0.265371 0.926157 0.154793
O O3 0.694795 0.976282 0.256837
O O4 0.407662 0.019602 0.128788
O O5 0.513724 0.269602 0.871212
O O6 0.241407 0.176157 0.845207
O O7 0.160611 0.226282 0.743163
O O8 0.724549 0.619709 0.030305
O O9 0.844484 0.735519 0.108370
O O10 0.750000 0.750000 0.000000
O O11 0.434288 0.729797 0.973102
O O12 0.500000 0.500000 0.500000
O O13 0.818775 0.520203 0.526897
O O14 0.987610 0.875000 0.145044
O O15 0.947367 0.014481 0.108370
O O16 0.323026 0.869709 0.969695
O O17 0.500000 0.000000 0.000000
O O18 0.750000 0.250000 0.000000
#
# Coordination Sequence:
#
# PCOD8146099 Si02
#       8
#     8   8   8   8   8   8   8   8
#     4  10  22  40  66  95 127 168 212 262 316 379
#     4  10  22  40  66  95 127 168 212 262 316 379
#     4  12  26  43  63  93 130 169 209 262 318 376
#     4  12  24  41  65  94 126 164 214 264 312 372
#     4  10  22  41  64  94 131 169 208 257 324 383
#     4  12  26  43  63  93 130 169 209 262 318 376
#     4  12  24  41  65  94 126 164 214 264 312 372
#     4  10  22  41  64  94 131 169 208 257 324 383
#
# _framework density 19.921738999999999
#
# number of rings (size 3 to 8) (size 9 to 14) (size 15 to 20)
#    0.000    1.000    2.500    4.500    3.500    1.000 
#    0.000    2.500    0.000    3.000    0.000    0.000 
#    0.000    0.000    0.000    0.000    0.000    0.000 
#
# Total GULP energy -396864.269299 kJ/mol
# GULP energy per Si atom -12402.008416 kJ/mol
# Density = 1.987640 g / cm^3
# Si number density = 19.921739 Si / 1000 Ang^3
#
#
#
# Elastic Constant Matrix: (Units=GPa)
#
#
# Indices 1 2 3 4 5 6 
#
# 1 126.4364 24.1695 46.1245 0.0000 0.1199 0.0000
# 2 24.1695 93.9091 41.8995 0.0001 -0.2335 0.0001
# 3 46.1245 41.8995 123.1256 0.0004 -0.0760 0.0000
# 4 0.0000 0.0001 0.0004 37.4849 0.0000 -0.0899
# 5 0.1199 -0.2335 -0.0760 0.0000 35.6112 0.0000
# 6 0.0000 0.0001 0.0000 -0.0899 0.0000 30.6586
#
#
#
# Elastic Compliance Matrix: (Units=1/GPa)
#
#
# Indices 1 2 3 4 5 6 
#
# 1 0.009237 -0.000983 -0.003126 0.000000 -0.000044 0.000000
# 2 -0.000983 0.012660 -0.003940 0.000000 0.000078 0.000000
# 3 -0.003126 -0.003940 0.010634 0.000000 0.000007 0.000000
# 4 0.000000 0.000000 0.000000 0.026678 0.000000 0.000078
# 5 -0.000044 0.000078 0.000007 0.000000 0.028082 0.000000
# 6 0.000000 0.000000 0.000000 0.000078 0.000000 0.032617
#
#
# Mechanical properties :
#
#
# Convention : Reuss Voigt Hill
#
# Bulk Modulus (GPa) = 60.85232 63.09534 61.97383
# Shear Modulus (GPa) = 35.34006 36.16943 35.75475
#
# Velocity S-wave (km/s) = 4.21639 4.26558 4.24106
# Velocity P-wave (km/s) = 7.36993 7.48335 7.42686
#
# Compressibility (1/GPa) = 0.01643323
#
# Stress axis : x y z
#
# Youngs Moduli (GPa) = 108.25530 78.99163 94.04176
#
# Poissons Ratio (x) = 0.07763 0.29398
# Poissons Ratio (y) = 0.10639 0.37051
# Poissons Ratio (z) = 0.33841 0.31121
#
# Static dielectric constant tensor:
#      x y z
#    x 3.717450 -0.000010 -0.003480 
#    y -0.000010 3.890410 0.000000 
#    z -0.003480 0.000000 3.982850 
# 
# 
# High freq. dielectric constant tensor:
#      x y z
#    x 1.796880 0.000000 -0.000010 
#    y 0.000000 1.760850 0.000000 
#    z -0.000010 0.000000 1.797400 
# 
# From -- ./inp_files/308814.got.cif
#   From: 2010.06.25/outbox.cif.g09.slc.cpg/sg15_155_cif.got.tgz:308814.got - 2010.06.28 07:06:18.
