data_PCOD8146787
_publ_section_title
;
Structure prediction by ZEFSAII (Michael W. Deem and Ramdas Pophale) SiO2 
 PCOD8146787
Probable space group: C 2/C
;
_chemical_formula_sum "Si O2"
_cell_formula_units_Z 52
_cell_length_a 14.940593
_cell_length_b 8.320025
_cell_length_c 18.403515
_cell_angle_alpha 90.000000
_cell_angle_beta 93.254316
_cell_angle_gamma 90.000000
_cell_volume 2283.980208
_symmetry_space_group_name_H-M "C 2/C"
_symmetry_group_IT_number 15
_symmetry_cell_setting 'monoclinic'
loop_
_space_group_symop_operation_xyz
x,y,z
-x,y,1/2-z
-x,-y,-z
x,-y,1/2+z
1/2+x,1/2+y,z
1/2-x,1/2+y,1/2-z
1/2-x,1/2-y,-z
1/2+x,1/2-y,1/2+z
loop_
_atom_site_type_symbol
_atom_site_label
_atom_site_fract_x
_atom_site_fract_y
_atom_site_fract_z
Si Si1 0.000000 0.645591 0.750000
Si Si2 0.588745 0.243805 0.558833
Si Si3 0.426764 0.930254 0.864986
Si Si4 0.749985 0.746601 0.667143
Si Si5 0.599315 0.280059 0.396060
Si Si6 0.733376 0.629013 0.173046
Si Si7 0.578589 0.640805 0.377531
O O1 0.069534 0.532686 0.709335
O O2 0.055219 0.759789 0.804785
O O3 0.595377 0.051554 0.569941
O O4 0.626498 0.291386 0.482073
O O5 0.642982 0.336654 0.624010
O O6 0.484158 0.298925 0.559259
O O7 0.351259 0.795465 0.856232
O O8 0.522571 0.850652 0.882290
O O9 0.757584 0.556450 0.668424
O O10 0.781725 0.822715 0.744651
O O11 0.815792 0.817338 0.606799
O O12 0.686370 0.234747 0.354955
O O13 0.564945 0.451181 0.365576
#
# Coordination Sequence:
#
# PCOD8146787 Si02
#       7
#     4   8   8   8   8   8   8
#     4  10  22  42  64  94 126 164 210 266 326 366
#     4  11  24  45  65  92 129 172 214 257 310 379
#     4  11  23  41  66  93 128 166 210 265 315 377
#     4  12  24  42  66 100 126 163 213 265 327 368
#     4  12  25  43  65  95 129 173 212 254 315 381
#     4  12  25  42  67  94 128 165 211 268 315 377
#     4  11  23  41  66  93 128 165 209 265 314 376
#
# _framework density 22.767272999999999
#
# number of rings (size 3 to 8) (size 9 to 14) (size 15 to 20)
#    0.000    0.615    0.000   10.615    0.000    1.846 
#    0.000    2.308    0.000    0.000    0.000    0.000 
#    0.000    0.000    0.000    0.000    0.000    0.000 
#
# Total GULP energy -322520.205134 kJ/mol
# GULP energy per Si atom -12404.623274 kJ/mol
# Density = 2.271545 g / cm^3
# Si number density = 22.767273 Si / 1000 Ang^3
#
#
#
# Elastic Constant Matrix: (Units=GPa)
#
#
# Indices 1 2 3 4 5 6 
#
# 1 86.2375 3.8030 17.0729 0.0000 -5.0774 0.0000
# 2 3.8030 129.3943 11.3029 0.0000 -0.1346 0.0000
# 3 17.0729 11.3029 45.9257 0.0000 -0.7152 0.0000
# 4 0.0000 0.0000 0.0000 18.1771 0.0000 -4.9015
# 5 -5.0774 -0.1346 -0.7152 0.0000 24.8469 0.0000
# 6 0.0000 0.0000 0.0000 -4.9015 0.0000 43.5883
#
#
#
# Elastic Compliance Matrix: (Units=1/GPa)
#
#
# Indices 1 2 3 4 5 6 
#
# 1 0.012665 0.000039 -0.004680 0.000000 0.002454 0.000000
# 2 0.000039 0.007898 -0.001958 0.000000 -0.000006 0.000000
# 3 -0.004680 -0.001958 0.023992 0.000000 -0.000276 0.000000
# 4 0.000000 0.000000 0.000000 0.056735 0.000000 0.006380
# 5 0.002454 -0.000006 -0.000276 0.000000 0.040740 0.000000
# 6 0.000000 0.000000 0.000000 0.006380 0.000000 0.023659
#
#
# Mechanical properties :
#
#
# Convention : Reuss Voigt Hill
#
# Bulk Modulus (GPa) = 31.89091 36.21279 34.05185
# Shear Modulus (GPa) = 26.40764 32.61436 29.51100
#
# Velocity S-wave (km/s) = 3.40942 3.78896 3.60419
# Velocity P-wave (km/s) = 5.43476 5.92299 5.68412
#
# Compressibility (1/GPa) = 0.03135690
#
# Stress axis : x y z
#
# Youngs Moduli (GPa) = 78.95729 126.61056 41.68118
#
# Poissons Ratio (x) = -0.00495 0.19505
# Poissons Ratio (y) = -0.00309 0.08163
# Poissons Ratio (z) = 0.36949 0.24796
#
# Static dielectric constant tensor:
#      x y z
#    x 4.384000 0.000000 -0.215490 
#    y 0.000000 4.199710 0.000000 
#    z -0.215490 0.000000 3.988610 
# 
# 
# High freq. dielectric constant tensor:
#      x y z
#    x 1.915250 0.000000 -0.015100 
#    y 0.000000 1.915290 0.000000 
#    z -0.015100 0.000000 1.881680 
# 
# From -- ./inp_files/242487.got.cif
#   From: 2010.06.25/outbox.cif.g09.slc.cpg/sg15_122_cif.got.tgz:242487.got - 2010.06.28 07:06:18.
