data_PCOD8146100
_publ_section_title
;
Structure prediction by ZEFSAII (Michael W. Deem and Ramdas Pophale) SiO2 
 PCOD8146100
Probable space group: C 2/C
;
_chemical_formula_sum "Si O2"
_cell_formula_units_Z 44
_cell_length_a 6.604034
_cell_length_b 14.101220
_cell_length_c 21.814375
_cell_angle_alpha 90.000000
_cell_angle_beta 68.383858
_cell_angle_gamma 90.000000
_cell_volume 1888.595100
_symmetry_space_group_name_H-M "C 2/C"
_symmetry_group_IT_number 15
_symmetry_cell_setting 'monoclinic'
loop_
_space_group_symop_operation_xyz
x,y,z
-x,y,1/2-z
-x,-y,-z
x,-y,1/2+z
1/2+x,1/2+y,z
1/2-x,1/2+y,1/2-z
1/2-x,1/2-y,-z
1/2+x,1/2-y,1/2+z
loop_
_atom_site_type_symbol
_atom_site_label
_atom_site_fract_x
_atom_site_fract_y
_atom_site_fract_z
Si Si1 0.000000 0.369067 0.250000
Si Si2 0.355526 0.964576 0.961489
Si Si3 0.436957 0.420885 0.080829
Si Si4 0.115313 0.268243 0.576573
Si Si5 0.239554 0.729724 0.197884
Si Si6 0.376443 0.516242 0.201567
O O1 0.917118 0.302137 0.204409
O O2 0.810855 0.439375 0.292999
O O3 0.479932 0.875843 0.914930
O O4 0.300284 0.047879 0.919241
O O5 0.122029 0.925047 0.008585
O O6 0.500000 0.000000 0.000000
O O7 0.422257 0.310072 0.103355
O O8 0.523138 0.492846 0.125273
O O9 0.250000 0.250000 0.500000
O O10 0.258299 0.260084 0.622449
O O11 0.293016 0.623041 0.213513
O O12 0.000000 0.755407 0.250000
O O13 0.500000 0.489998 0.250000
#
# Coordination Sequence:
#
# PCOD8146100 Si02
#       6
#     4   8   8   8   8   8
#     4  12  26  46  74 100 140 188 234 294 360 424
#     4  10  22  40  66  95 130 178 225 276 344 415
#     4  10  22  42  63  92 136 171 221 289 336 406
#     4  10  22  43  67  95 137 177 225 286 345 417
#     4  12  25  47  72 104 141 187 240 292 358 429
#     4  12  25  45  72 104 142 186 233 295 358 426
#
# _framework density 23.297740999999998
#
# number of rings (size 3 to 8) (size 9 to 14) (size 15 to 20)
#    0.000    1.091    3.636    2.727    0.000    6.545 
#    3.273    0.000    0.000    0.000    0.000    0.000 
#    0.000    0.000    0.000    0.000    0.000    0.000 
#
# Total GULP energy -272627.900506 kJ/mol
# GULP energy per Si atom -12392.177296 kJ/mol
# Density = 2.324471 g / cm^3
# Si number density = 23.297741 Si / 1000 Ang^3
#
#
#
# Elastic Constant Matrix: (Units=GPa)
#
#
# Indices 1 2 3 4 5 6 
#
# 1 76.1693 67.9780 38.7917 0.0000 37.0881 0.0000
# 2 67.9780 193.1605 35.2260 0.0000 40.5164 0.0000
# 3 38.7917 35.2260 145.2399 0.0000 43.0138 0.0000
# 4 0.0000 0.0000 0.0000 40.6094 0.0000 8.3752
# 5 37.0881 40.5164 43.0138 0.0000 48.2260 0.0000
# 6 0.0000 0.0000 0.0000 8.3752 0.0000 47.5562
#
#
#
# Elastic Compliance Matrix: (Units=1/GPa)
#
#
# Indices 1 2 3 4 5 6 
#
# 1 0.025774 -0.005972 -0.001428 0.000000 -0.013530 0.000000
# 2 -0.005972 0.007669 0.000385 0.000000 -0.002193 0.000000
# 3 -0.001428 0.000385 0.009436 0.000000 -0.007641 0.000000
# 4 0.000000 0.000000 0.000000 0.025553 0.000000 -0.004500
# 5 -0.013530 -0.002193 -0.007641 0.000000 0.039799 0.000000
# 6 0.000000 0.000000 0.000000 -0.004500 0.000000 0.021820
#
#
# Mechanical properties :
#
#
# Convention : Reuss Voigt Hill
#
# Bulk Modulus (GPa) = 34.66549 77.61790 56.14169
# Shear Modulus (GPa) = 32.53134 45.44992 38.99063
#
# Velocity S-wave (km/s) = 3.74080 4.42161 4.09538
# Velocity P-wave (km/s) = 5.79394 7.71074 6.82002
#
# Compressibility (1/GPa) = 0.02884714
#
# Stress axis : x y z
#
# Youngs Moduli (GPa) = 38.79899 130.40239 105.97305
#
# Poissons Ratio (x) = 0.77876 0.15137
# Poissons Ratio (y) = 0.23171 -0.04075
# Poissons Ratio (z) = 0.05542 -0.05015
#
# Static dielectric constant tensor:
#      x y z
#    x 4.026170 0.000000 0.061070 
#    y 0.000000 5.256670 0.000000 
#    z 0.061070 0.000000 4.441140 
# 
# 
# High freq. dielectric constant tensor:
#      x y z
#    x 1.883560 0.000000 0.014470 
#    y 0.000000 1.949210 0.000000 
#    z 0.014470 0.000000 1.939570 
# 
# From -- ./inp_files/260409.got.cif
#   From: 2010.06.25/outbox.cif.g09.slc.cpg/sg15_131_cif.got.tgz:260409.got - 2010.06.28 07:06:18.
