data_PCOD8146014
_publ_section_title
;
Structure prediction by ZEFSAII (Michael W. Deem and Ramdas Pophale) SiO2 
 PCOD8146014
Probable space group: C 2/C
;
_chemical_formula_sum "Si O2"
_cell_formula_units_Z 48
_cell_length_a 10.343246
_cell_length_b 26.679688
_cell_length_c 12.916175
_cell_angle_alpha 90.000000
_cell_angle_beta 146.533717
_cell_angle_gamma 90.000000
_cell_volume 1965.507233
_symmetry_space_group_name_H-M "C 2/C"
_symmetry_group_IT_number 15
_symmetry_cell_setting 'monoclinic'
loop_
_space_group_symop_operation_xyz
x,y,z
-x,y,1/2-z
-x,-y,-z
x,-y,1/2+z
1/2+x,1/2+y,z
1/2-x,1/2+y,1/2-z
1/2-x,1/2-y,-z
1/2+x,1/2-y,1/2+z
loop_
_atom_site_type_symbol
_atom_site_label
_atom_site_fract_x
_atom_site_fract_y
_atom_site_fract_z
Si Si1 0.135713 0.894919 0.735015
Si Si2 0.307368 0.796619 0.812813
Si Si3 0.878721 0.929813 0.991829
Si Si4 0.589396 0.195019 0.698521
Si Si5 0.000000 0.346525 0.750000
Si Si6 0.000000 0.488072 0.250000
Si Si7 0.619793 0.088029 0.656663
O O1 0.090604 0.837020 0.664951
O O2 0.056053 0.931410 0.588670
O O3 0.000000 0.907768 0.750000
O O4 0.421656 0.902100 0.936835
O O5 0.260262 0.737781 0.767301
O O6 0.489516 0.810991 0.844066
O O7 0.378921 0.806568 0.978106
O O8 0.731266 0.880101 0.918861
O O9 0.731529 0.978684 0.921830
O O10 0.127774 0.930104 0.220759
O O11 0.500000 0.212438 0.750000
O O12 0.689907 0.138500 0.768255
O O13 0.012521 0.454225 0.157469
#
# Coordination Sequence:
#
# PCOD8146014 Si02
#       7
#     8   8   8   8   4   4   8
#     4  10  22  40  65 101 137 172 225 281 335 406
#     4  10  23  39  64  98 137 185 221 273 339 397
#     4  10  23  43  70  93 135 181 219 284 343 404
#     4  11  23  39  64 100 135 177 229 280 331 403
#     4   9  22  46  64  96 144 178 230 275 330 418
#     4  11  22  44  68  96 130 178 224 283 352 396
#     4  11  23  41  66  99 132 174 227 279 341 399
#
# _framework density 24.421178999999999
#
# number of rings (size 3 to 8) (size 9 to 14) (size 15 to 20)
#    0.000    1.667    0.833    2.500    7.000    1.333 
#    0.000   14.167    0.000    0.000    0.000    0.000 
#    0.000    0.000    0.000    0.000    0.000    0.000 
#
# Total GULP energy -297391.771594 kJ/mol
# GULP energy per Si atom -12391.323816 kJ/mol
# Density = 2.436560 g / cm^3
# Si number density = 24.421179 Si / 1000 Ang^3
#
#
#
# Elastic Constant Matrix: (Units=GPa)
#
#
# Indices 1 2 3 4 5 6 
#
# 1 78.8420 26.3859 9.9313 0.0000 9.4619 0.0000
# 2 26.3859 151.9271 21.7776 0.0000 13.0221 0.0000
# 3 9.9313 21.7776 69.2938 0.0001 16.2757 0.0000
# 4 0.0000 0.0000 0.0001 17.0875 0.0000 7.0882
# 5 9.4619 13.0221 16.2757 0.0000 32.9328 0.0000
# 6 0.0000 0.0000 0.0000 7.0882 0.0000 36.2622
#
#
#
# Elastic Compliance Matrix: (Units=1/GPa)
#
#
# Indices 1 2 3 4 5 6 
#
# 1 0.013795 -0.002058 -0.000668 0.000000 -0.002819 0.000000
# 2 -0.002058 0.007303 -0.001653 0.000000 -0.001480 0.000000
# 3 -0.000668 -0.001653 0.016798 0.000000 -0.007456 0.000000
# 4 0.000000 0.000000 0.000000 0.063686 0.000000 -0.012449
# 5 -0.002819 -0.001480 -0.007456 0.000000 0.035445 0.000000
# 6 0.000000 0.000000 0.000000 -0.012449 0.000000 0.030010
#
#
# Mechanical properties :
#
#
# Convention : Reuss Voigt Hill
#
# Bulk Modulus (GPa) = 34.31969 46.25027 40.28498
# Shear Modulus (GPa) = 26.95295 33.38771 30.17033
#
# Velocity S-wave (km/s) = 3.32576 3.70153 3.51866
# Velocity P-wave (km/s) = 5.36948 6.10312 5.74802
#
# Compressibility (1/GPa) = 0.02913779
#
# Stress axis : x y z
#
# Youngs Moduli (GPa) = 72.49015 136.92378 59.53169
#
# Poissons Ratio (x) = 0.28185 0.03977
# Poissons Ratio (y) = 0.14922 0.09839
# Poissons Ratio (z) = 0.04842 0.22630
#
# Static dielectric constant tensor:
#      x y z
#    x 4.289620 0.000000 0.031090 
#    y 0.000000 5.365570 0.000000 
#    z 0.031090 0.000000 4.230750 
# 
# 
# High freq. dielectric constant tensor:
#      x y z
#    x 1.960640 0.000000 -0.000910 
#    y 0.000000 1.985330 0.000000 
#    z -0.000910 0.000000 1.956010 
# 
# From -- ./inp_files/148865.got.cif
#   From: 2010.06.25/outbox.cif.g09.slc.cpg/sg15_75_cif.got.tgz:148865.got - 2010.06.28 07:06:18.
