data_PCOD8146800
_publ_section_title
;
Structure prediction by ZEFSAII (Michael W. Deem and Ramdas Pophale) SiO2 
 PCOD8146800
Probable space group: C 2/C
;
_chemical_formula_sum "Si O2"
_cell_formula_units_Z 52
_cell_length_a 14.218337
_cell_length_b 15.397621
_cell_length_c 12.162437
_cell_angle_alpha 90.000000
_cell_angle_beta 66.451631
_cell_angle_gamma 90.000000
_cell_volume 2440.963129
_symmetry_space_group_name_H-M "C 2/C"
_symmetry_group_IT_number 15
_symmetry_cell_setting 'monoclinic'
loop_
_space_group_symop_operation_xyz
x,y,z
-x,y,1/2-z
-x,-y,-z
x,-y,1/2+z
1/2+x,1/2+y,z
1/2-x,1/2+y,1/2-z
1/2-x,1/2-y,-z
1/2+x,1/2-y,1/2+z
loop_
_atom_site_type_symbol
_atom_site_label
_atom_site_fract_x
_atom_site_fract_y
_atom_site_fract_z
Si Si1 0.961171 0.406415 0.993681
Si Si2 0.113987 0.101837 0.170398
Si Si3 0.837257 0.837024 0.620287
Si Si4 0.274564 0.567245 0.935399
Si Si5 0.168088 0.789272 0.236333
Si Si6 0.445360 0.269426 0.985860
Si Si7 0.000000 0.332667 0.750000
O O1 0.014087 0.330694 0.045855
O O2 0.004946 0.392185 0.852701
O O3 0.839334 0.416108 0.055511
O O4 0.000000 0.500000 0.000000
O O5 0.172958 0.118169 0.256348
O O6 0.000000 0.066072 0.250000
O O7 0.184699 0.031548 0.074783
O O8 0.104455 0.191380 0.102732
O O9 0.782054 0.894925 0.554522
O O10 0.784046 0.743271 0.660170
O O11 0.954917 0.825689 0.529258
O O12 0.344328 0.615192 0.810434
O O13 0.136638 0.783739 0.378735
O O14 0.099403 0.727196 0.193258
#
# Coordination Sequence:
#
# PCOD8146800 Si02
#       7
#     8   8   8   8   8   8   4
#     4  11  24  44  67  96 136 175 228 280 342 412
#     4  10  27  44  66 101 142 177 224 288 348 408
#     4  11  23  45  68  94 139 178 231 278 338 418
#     4  12  24  40  70 104 131 178 234 282 334 414
#     4  11  22  40  72  95 129 178 226 279 339 408
#     4  10  24  47  66  95 139 177 222 282 354 398
#     4  10  22  42  64  96 126 176 220 280 338 400
#
# _framework density 21.303066000000001
#
# number of rings (size 3 to 8) (size 9 to 14) (size 15 to 20)
#    0.000    1.231    3.077    2.308    9.692    1.846 
#    4.154    0.000    0.000    0.000    0.000    0.000 
#    0.000    0.000    0.000    0.000    0.000    0.000 
#
# Total GULP energy -322204.729961 kJ/mol
# GULP energy per Si atom -12392.489614 kJ/mol
# Density = 2.125458 g / cm^3
# Si number density = 21.303066 Si / 1000 Ang^3
#
#
#
# Elastic Constant Matrix: (Units=GPa)
#
#
# Indices 1 2 3 4 5 6 
#
# 1 76.9510 51.6319 42.7733 0.0000 2.3712 0.0000
# 2 51.6319 149.9215 54.8789 0.0000 8.9316 0.0000
# 3 42.7733 54.8789 96.5845 0.0000 4.1561 0.0000
# 4 0.0000 0.0000 0.0000 30.9204 0.0000 -8.4054
# 5 2.3712 8.9316 4.1561 0.0000 22.6164 0.0000
# 6 0.0000 0.0000 0.0000 -8.4054 0.0000 28.6219
#
#
#
# Elastic Compliance Matrix: (Units=1/GPa)
#
#
# Indices 1 2 3 4 5 6 
#
# 1 0.019352 -0.004501 -0.006049 0.000000 0.000860 0.000000
# 2 -0.004501 0.009608 -0.003349 0.000000 -0.002707 0.000000
# 3 -0.006049 -0.003349 0.014970 0.000000 -0.000794 0.000000
# 4 0.000000 0.000000 0.000000 0.035147 0.000000 0.010322
# 5 0.000860 -0.002707 -0.000794 0.000000 0.045340 0.000000
# 6 0.000000 0.000000 0.000000 0.010322 0.000000 0.037969
#
#
# Mechanical properties :
#
#
# Convention : Reuss Voigt Hill
#
# Bulk Modulus (GPa) = 61.99899 69.11391 65.55645
# Shear Modulus (GPa) = 25.56736 28.04326 26.80531
#
# Velocity S-wave (km/s) = 3.46811 3.63215 3.55108
# Velocity P-wave (km/s) = 6.72336 7.07839 6.90316
#
# Compressibility (1/GPa) = 0.01612929
#
# Stress axis : x y z
#
# Youngs Moduli (GPa) = 51.67509 104.08435 66.80151
#
# Poissons Ratio (x) = 0.46853 0.40411
# Poissons Ratio (y) = 0.23261 0.22372
# Poissons Ratio (z) = 0.31260 0.34858
#
# Static dielectric constant tensor:
#      x y z
#    x 3.880730 0.000000 -0.261800 
#    y 0.000000 3.816020 0.000000 
#    z -0.261800 0.000000 3.091810 
# 
# 
# High freq. dielectric constant tensor:
#      x y z
#    x 1.841060 0.000000 -0.006380 
#    y 0.000000 1.828390 0.000000 
#    z -0.006380 0.000000 1.837070 
# 
# From -- ./inp_files/96942.got.cif
#   From: 2010.06.25/outbox.cif.g09.slc.cpg/sg15_49_cif.got.tgz:96942.got - 2010.06.28 07:06:18.
