data_PCOD8146039
_publ_section_title
;
Structure prediction by ZEFSAII (Michael W. Deem and Ramdas Pophale) SiO2 
 PCOD8146039
Probable space group: C 2/C
;
_chemical_formula_sum "Si O2"
_cell_formula_units_Z 52
_cell_length_a 8.739593
_cell_length_b 16.522645
_cell_length_c 30.674369
_cell_angle_alpha 90.000000
_cell_angle_beta 143.279837
_cell_angle_gamma 90.000000
_cell_volume 2648.379679
_symmetry_space_group_name_H-M "C 2/C"
_symmetry_group_IT_number 15
_symmetry_cell_setting 'monoclinic'
loop_
_space_group_symop_operation_xyz
x,y,z
-x,y,1/2-z
-x,-y,-z
x,-y,1/2+z
1/2+x,1/2+y,z
1/2-x,1/2+y,1/2-z
1/2-x,1/2-y,-z
1/2+x,1/2-y,1/2+z
loop_
_atom_site_type_symbol
_atom_site_label
_atom_site_fract_x
_atom_site_fract_y
_atom_site_fract_z
Si Si1 0.814563 0.341680 0.011073
Si Si2 0.500000 0.233401 0.250000
Si Si3 0.199611 0.030665 0.331264
Si Si4 0.747994 0.564793 0.670636
Si Si5 0.771832 0.535733 0.574985
Si Si6 0.377138 0.641022 0.646146
Si Si7 0.454584 0.393619 0.853394
O O1 0.809339 0.381937 0.057252
O O2 0.104324 0.345972 0.061038
O O3 0.750000 0.250000 0.000000
O O4 0.618007 0.385922 0.934557
O O5 0.535921 0.286375 0.302011
O O6 0.243945 0.179960 0.198887
O O7 0.000000 0.062457 0.250000
O O8 0.162678 0.095460 0.362046
O O9 0.496246 0.027980 0.382437
O O10 0.111670 0.940867 0.323620
O O11 0.773276 0.563347 0.624842
O O12 0.543455 0.630577 0.640417
O O13 0.705391 0.475201 0.679400
O O14 0.000000 0.599258 0.750000
O O15 0.500000 0.500000 0.500000
#
# Coordination Sequence:
#
# PCOD8146039 Si02
#       7
#     8   4   8   8   8   8   8
#     4  11  23  41  62  91 129 171 205 263 329 382
#     4  12  22  42  66  98 126 172 212 276 332 384
#     4  10  22  40  65  95 125 168 216 266 316 386
#     4  11  23  40  66  96 125 170 219 268 317 383
#     4  11  23  39  66  93 128 163 218 266 315 384
#     4  10  23  39  68  89 128 168 216 253 323 392
#     4  11  23  38  68  93 127 166 219 263 326 383
#
# _framework density 19.634647000000001
#
# number of rings (size 3 to 8) (size 9 to 14) (size 15 to 20)
#    0.000    1.231    4.615    1.846    4.308    1.846 
#    0.000    3.077    0.000    0.000    0.000    0.000 
#    0.000    0.000    0.000    0.000    0.000    0.000 
#
# Total GULP energy -322272.308681 kJ/mol
# GULP energy per Si atom -12395.088795 kJ/mol
# Density = 1.958996 g / cm^3
# Si number density = 19.634647 Si / 1000 Ang^3
#
#
#
# Elastic Constant Matrix: (Units=GPa)
#
#
# Indices 1 2 3 4 5 6 
#
# 1 161.5406 45.0737 68.3161 0.0001 7.1905 0.0001
# 2 45.0737 78.4945 23.8816 0.0001 6.0403 0.0001
# 3 68.3161 23.8816 126.4263 0.0000 11.6794 0.0001
# 4 0.0001 0.0001 0.0000 29.2778 0.0000 1.3547
# 5 7.1905 6.0403 11.6794 0.0000 38.0002 0.0001
# 6 0.0001 0.0001 0.0001 1.3547 0.0001 28.3307
#
#
#
# Elastic Compliance Matrix: (Units=1/GPa)
#
#
# Indices 1 2 3 4 5 6 
#
# 1 0.009040 -0.003941 -0.004158 0.000000 0.000194 0.000000
# 2 -0.003941 0.015308 -0.000624 0.000000 -0.001496 0.000000
# 3 -0.004158 -0.000624 0.010491 0.000000 -0.002338 0.000000
# 4 0.000000 0.000000 0.000000 0.034231 0.000000 -0.001637
# 5 0.000194 -0.001496 -0.002338 0.000000 0.027235 0.000000
# 6 0.000000 0.000000 0.000000 -0.001637 0.000000 0.035376
#
#
# Mechanical properties :
#
#
# Convention : Reuss Voigt Hill
#
# Bulk Modulus (GPa) = 57.49757 71.22269 64.36013
# Shear Modulus (GPa) = 32.27392 34.40108 33.33750
#
# Velocity S-wave (km/s) = 4.05868 4.19030 4.12502
# Velocity P-wave (km/s) = 7.16318 7.73073 7.45236
#
# Compressibility (1/GPa) = 0.01739204
#
# Stress axis : x y z
#
# Youngs Moduli (GPa) = 110.62074 65.32729 95.32307
#
# Poissons Ratio (x) = 0.25744 0.39639
# Poissons Ratio (y) = 0.43592 0.05948
# Poissons Ratio (z) = 0.46000 0.04076
#
# Static dielectric constant tensor:
#      x y z
#    x 3.740590 0.000000 0.363130 
#    y 0.000000 3.513790 0.000000 
#    z 0.363130 0.000000 3.452440 
# 
# 
# High freq. dielectric constant tensor:
#      x y z
#    x 1.771990 0.000000 0.008150 
#    y 0.000000 1.746840 0.000000 
#    z 0.008150 0.000000 1.783860 
# 
# From -- ./inp_files/190398.got.cif
#   From: 2010.06.25/outbox.cif.g09.slc.cpg/sg15_96_cif.got.tgz:190398.got - 2010.06.28 07:06:18.
