data_PCOD8146841
_publ_section_title
;
Structure prediction by ZEFSAII (Michael W. Deem and Ramdas Pophale) SiO2 
 PCOD8146841
Probable space group: C 2/C
;
_chemical_formula_sum "Si O2"
_cell_formula_units_Z 56
_cell_length_a 6.143829
_cell_length_b 23.038707
_cell_length_c 19.161583
_cell_angle_alpha 90.000000
_cell_angle_beta 69.875099
_cell_angle_gamma 90.000000
_cell_volume 2546.646533
_symmetry_space_group_name_H-M "C 2/C"
_symmetry_group_IT_number 15
_symmetry_cell_setting 'monoclinic'
loop_
_space_group_symop_operation_xyz
x,y,z
-x,y,1/2-z
-x,-y,-z
x,-y,1/2+z
1/2+x,1/2+y,z
1/2-x,1/2+y,1/2-z
1/2-x,1/2-y,-z
1/2+x,1/2-y,1/2+z
loop_
_atom_site_type_symbol
_atom_site_label
_atom_site_fract_x
_atom_site_fract_y
_atom_site_fract_z
Si Si1 0.698896 0.865652 0.976912
Si Si2 0.500000 0.406889 0.750000
Si Si3 0.435929 0.774777 0.926577
Si Si4 0.000000 0.608313 0.750000
Si Si5 0.425041 0.045787 0.122226
Si Si6 0.959468 0.835165 0.174048
Si Si7 0.119140 0.582914 0.882548
Si Si8 0.806256 0.124479 0.127810
O O1 0.641490 0.802248 0.951191
O O2 0.567165 0.911422 0.943511
O O3 0.973084 0.877348 0.948636
O O4 0.586619 0.875581 0.065621
O O5 0.299530 0.446916 0.804063
O O6 0.606928 0.367669 0.801248
O O7 0.530944 0.721529 0.873231
O O8 0.344360 0.820620 0.879249
O O9 0.250000 0.750000 0.000000
O O10 0.197243 0.646119 0.692087
O O11 0.105328 0.570802 0.800844
O O12 0.660662 0.063803 0.138347
O O13 0.412865 0.982645 0.087137
O O14 0.000000 0.819154 0.250000
O O15 0.136660 0.885488 0.127739
#
# Coordination Sequence:
#
# PCOD8146841 Si02
#       8
#     8   4   8   4   8   8   8   8
#     4  10  23  41  65  99 126 170 216 274 328 390
#     4  10  22  42  65  94 132 163 222 268 322 392
#     4  11  23  43  70  91 130 174 217 275 326 390
#     4  10  26  38  63  96 124 173 206 266 322 378
#     4  10  23  39  66  94 129 174 212 270 330 385
#     4  10  24  44  61  95 128 165 218 266 327 393
#     4  11  23  41  65  91 134 168 219 263 323 401
#     4  10  24  41  64 101 128 171 223 268 337 383
#
# _framework density 21.989702999999999
#
# number of rings (size 3 to 8) (size 9 to 14) (size 15 to 20)
#    0.000    1.714    1.429    0.857    7.000    8.000 
#    0.000    3.571    0.000    0.000    0.000    0.000 
#    0.000    0.000    0.000    0.000    0.000    0.000 
#
# Total GULP energy -347021.495215 kJ/mol
# GULP energy per Si atom -12393.624829 kJ/mol
# Density = 2.193965 g / cm^3
# Si number density = 21.989703 Si / 1000 Ang^3
#
#
#
# Elastic Constant Matrix: (Units=GPa)
#
#
# Indices 1 2 3 4 5 6 
#
# 1 103.7846 32.9900 22.8482 0.0000 -23.1431 0.0000
# 2 32.9900 117.7274 21.3913 0.0000 -4.8725 0.0000
# 3 22.8482 21.3913 79.1981 0.0000 -12.6376 0.0000
# 4 0.0000 0.0000 0.0000 34.5891 0.0000 -2.8576
# 5 -23.1431 -4.8725 -12.6376 0.0000 41.4613 0.0000
# 6 0.0000 0.0000 0.0000 -2.8576 0.0000 19.8165
#
#
#
# Elastic Compliance Matrix: (Units=1/GPa)
#
#
# Indices 1 2 3 4 5 6 
#
# 1 0.012275 -0.002863 -0.001817 0.000000 0.005961 0.000000
# 2 -0.002863 0.009605 -0.001937 0.000000 -0.001060 0.000000
# 3 -0.001817 -0.001937 0.014165 0.000000 0.003076 0.000000
# 4 0.000000 0.000000 0.000000 0.029259 0.000000 0.004219
# 5 0.005961 -0.001060 0.003076 0.000000 0.028259 0.000000
# 6 0.000000 0.000000 0.000000 0.004219 0.000000 0.051072
#
#
# Mechanical properties :
#
#
# Convention : Reuss Voigt Hill
#
# Bulk Modulus (GPa) = 43.84002 50.57435 47.20719
# Shear Modulus (GPa) = 30.21667 34.07205 32.14436
#
# Velocity S-wave (km/s) = 3.71094 3.94058 3.82749
# Velocity P-wave (km/s) = 6.19204 6.61463 6.40682
#
# Compressibility (1/GPa) = 0.02281021
#
# Stress axis : x y z
#
# Youngs Moduli (GPa) = 81.46893 104.11682 70.59778
#
# Poissons Ratio (x) = 0.29807 0.12825
# Poissons Ratio (y) = 0.23323 0.13678
# Poissons Ratio (z) = 0.14800 0.20172
#
# Static dielectric constant tensor:
#      x y z
#    x 4.079440 0.000000 0.104320 
#    y 0.000000 3.976060 0.000000 
#    z 0.104320 0.000000 3.860510 
# 
# 
# High freq. dielectric constant tensor:
#      x y z
#    x 1.865370 0.000000 -0.004420 
#    y 0.000000 1.851120 0.000000 
#    z -0.004420 0.000000 1.881620 
# 
# From -- ./inp_files/228112.got.cif
#   From: 2010.06.25/outbox.cif.g09.slc.cpg/sg15_115_cif.got.tgz:228112.got - 2010.06.28 07:06:18.
