data_PCOD8146587
_publ_section_title
;
Structure prediction by ZEFSAII (Michael W. Deem and Ramdas Pophale) SiO2 
 PCOD8146587
Probable space group: C 2/C
;
_chemical_formula_sum "Si O2"
_cell_formula_units_Z 40
_cell_length_a 8.596479
_cell_length_b 25.087027
_cell_length_c 8.901759
_cell_angle_alpha 90.000000
_cell_angle_beta 107.969405
_cell_angle_gamma 90.000000
_cell_volume 1826.111301
_symmetry_space_group_name_H-M "C 2/C"
_symmetry_group_IT_number 15
_symmetry_cell_setting 'monoclinic'
loop_
_space_group_symop_operation_xyz
x,y,z
-x,y,1/2-z
-x,-y,-z
x,-y,1/2+z
1/2+x,1/2+y,z
1/2-x,1/2+y,1/2-z
1/2-x,1/2-y,-z
1/2+x,1/2-y,1/2+z
loop_
_atom_site_type_symbol
_atom_site_label
_atom_site_fract_x
_atom_site_fract_y
_atom_site_fract_z
Si Si1 0.668019 0.080649 0.714613
Si Si2 0.169530 0.383299 0.880739
Si Si3 0.184903 0.681024 0.859006
Si Si4 0.618134 0.480205 0.662520
Si Si5 0.693872 0.296132 0.782353
O O1 0.500000 0.064261 0.750000
O O2 0.636382 0.109885 0.546455
O O3 0.773116 0.125913 0.835870
O O4 0.777784 0.028228 0.732845
O O5 0.264296 0.434701 0.855891
O O6 0.261888 0.328431 0.856576
O O7 0.000000 0.381848 0.750000
O O8 0.248234 0.733762 0.790190
O O9 0.000000 0.670780 0.750000
O O10 0.205589 0.682661 0.044398
O O11 0.500000 0.454290 0.750000
O O12 0.500000 0.500000 0.500000
O O13 0.500000 0.299498 0.750000
#
# Coordination Sequence:
#
# PCOD8146587 Si02
#       5
#     8   8   8   8   8
#     4  11  25  43  66  94 132 176 218 269 329 396
#     4  12  26  42  67  97 132 175 219 269 335 397
#     4   9  20  41  67  96 135 174 216 268 332 396
#     4  12  27  45  67  98 131 169 222 276 333 393
#     4  10  22  41  69 100 131 174 220 274 329 389
#
# _framework density 21.90447
#
# number of rings (size 3 to 8) (size 9 to 14) (size 15 to 20)
#    0.000    1.200    2.000    3.600    8.400    2.400 
#    0.000    1.000    0.000    0.000    0.000    0.000 
#    0.000    0.000    0.000    0.000    0.000    0.000 
#
# Total GULP energy -247797.526639 kJ/mol
# GULP energy per Si atom -12389.876332 kJ/mol
# Density = 2.185461 g / cm^3
# Si number density = 21.904470 Si / 1000 Ang^3
#
#
#
# Elastic Constant Matrix: (Units=GPa)
#
#
# Indices 1 2 3 4 5 6 
#
# 1 81.8936 14.9427 13.9890 0.0000 -10.4857 0.0000
# 2 14.9427 102.8146 -1.7547 0.0000 -11.5211 0.0000
# 3 13.9890 -1.7547 74.8945 0.0000 -10.6462 0.0000
# 4 0.0000 0.0000 0.0000 35.2526 0.0000 -5.8585
# 5 -10.4857 -11.5211 -10.6462 0.0000 38.3341 0.0000
# 6 0.0000 0.0000 0.0000 -5.8585 0.0000 23.5070
#
#
#
# Elastic Compliance Matrix: (Units=1/GPa)
#
#
# Indices 1 2 3 4 5 6 
#
# 1 0.013205 -0.001674 -0.002149 0.000000 0.002512 0.000000
# 2 -0.001674 0.010312 0.000968 0.000000 0.002910 0.000000
# 3 -0.002149 0.000968 0.014298 0.000000 0.003674 0.000000
# 4 0.000000 0.000000 0.000000 0.029592 0.000000 0.007375
# 5 0.002512 0.002910 0.003674 0.000000 0.028669 0.000000
# 6 0.000000 0.000000 0.000000 0.007375 0.000000 0.044379
#
#
# Mechanical properties :
#
#
# Convention : Reuss Voigt Hill
#
# Bulk Modulus (GPa) = 31.14697 34.88406 33.01552
# Shear Modulus (GPa) = 31.87411 34.91379 33.39395
#
# Velocity S-wave (km/s) = 3.81877 3.99671 3.90875
# Velocity P-wave (km/s) = 5.80468 6.10397 5.95620
#
# Compressibility (1/GPa) = 0.03210585
#
# Stress axis : x y z
#
# Youngs Moduli (GPa) = 75.72798 96.97241 69.93784
#
# Poissons Ratio (x) = 0.16237 0.15027
# Poissons Ratio (y) = 0.12680 -0.06770
# Poissons Ratio (z) = 0.16271 -0.09387
#
# Static dielectric constant tensor:
#      x y z
#    x 3.835010 0.000000 0.033000 
#    y 0.000000 4.332160 0.000000 
#    z 0.033000 0.000000 4.043180 
# 
# 
# High freq. dielectric constant tensor:
#      x y z
#    x 1.849440 0.000000 0.006870 
#    y 0.000000 1.884690 0.000000 
#    z 0.006870 0.000000 1.867930 
# 
# From -- ./inp_files/23415.got.cif
#   From: 2010.06.25/outbox.cif.g09.slc.cpg/sg15_12_cif.got.tgz:23415.got - 2010.06.28 07:06:18.
