data_PCOD8146933
_publ_section_title
;
Structure prediction by ZEFSAII (Michael W. Deem and Ramdas Pophale) SiO2 
 PCOD8146933
Probable space group: C 2/C
;
_chemical_formula_sum "Si O2"
_cell_formula_units_Z 32
_cell_length_a 17.193342
_cell_length_b 4.947860
_cell_length_c 16.825345
_cell_angle_alpha 90.000000
_cell_angle_beta 124.602157
_cell_angle_gamma 90.000000
_cell_volume 1178.154358
_symmetry_space_group_name_H-M "C 2/C"
_symmetry_group_IT_number 15
_symmetry_cell_setting 'monoclinic'
loop_
_space_group_symop_operation_xyz
x,y,z
-x,y,1/2-z
-x,-y,-z
x,-y,1/2+z
1/2+x,1/2+y,z
1/2-x,1/2+y,1/2-z
1/2-x,1/2-y,-z
1/2+x,1/2-y,1/2+z
loop_
_atom_site_type_symbol
_atom_site_label
_atom_site_fract_x
_atom_site_fract_y
_atom_site_fract_z
Si Si1 0.056576 0.681422 0.093685
Si Si2 0.211590 0.305581 0.566930
Si Si3 0.373750 0.320916 0.059509
Si Si4 0.600588 0.062855 0.782409
O O1 0.143497 0.817948 0.096994
O O2 0.100657 0.508207 0.190261
O O3 0.978840 0.888240 0.086004
O O4 0.000000 0.500000 0.000000
O O5 0.183040 0.612526 0.530312
O O6 0.318653 0.287312 0.660027
O O7 0.188193 0.100950 0.477630
O O8 0.381102 0.202558 0.152404
O O9 0.500000 0.194456 0.750000
#
# Coordination Sequence:
#
# PCOD8146933 Si02
#       4
#     8   8   8   8
#     4   9  21  41  65  96 134 172 217 271 328 389
#     4  11  22  42  67  96 130 172 217 271 329 390
#     4  10  22  43  67  96 130 170 218 273 328 389
#     4  10  22  42  67 100 135 176 222 271 329 394
#
# _framework density 27.161125999999999
#
# number of rings (size 3 to 8) (size 9 to 14) (size 15 to 20)
#    0.000    2.000    0.000    2.250    0.000    4.000 
#    0.000   42.500    0.000    0.000    0.000    0.000 
#    0.000    0.000    0.000    0.000    0.000    0.000 
#
# Total GULP energy -198396.260769 kJ/mol
# GULP energy per Si atom -12399.766298 kJ/mol
# Density = 2.709931 g / cm^3
# Si number density = 27.161126 Si / 1000 Ang^3
#
#
#
# Elastic Constant Matrix: (Units=GPa)
#
#
# Indices 1 2 3 4 5 6 
#
# 1 182.4136 33.7531 73.8610 0.0000 33.9460 0.0002
# 2 33.7531 104.7038 35.3853 -0.0004 15.1148 0.0013
# 3 73.8610 35.3853 181.6666 0.0001 9.1950 0.0000
# 4 0.0000 -0.0004 0.0001 20.1339 0.0000 12.3488
# 5 33.9460 15.1148 9.1950 0.0000 54.4659 -0.0001
# 6 0.0002 0.0013 0.0000 12.3488 -0.0001 40.1259
#
#
#
# Elastic Compliance Matrix: (Units=1/GPa)
#
#
# Indices 1 2 3 4 5 6 
#
# 1 0.007464 -0.000941 -0.002652 0.000000 -0.003943 0.000000
# 2 -0.000941 0.010698 -0.001594 0.000001 -0.002113 -0.000001
# 3 -0.002652 -0.001594 0.006846 0.000000 0.000939 0.000000
# 4 0.000000 0.000001 0.000000 0.061224 0.000000 -0.018842
# 5 -0.003943 -0.002113 0.000939 0.000000 0.021245 0.000000
# 6 0.000000 -0.000001 0.000000 -0.018842 0.000000 0.030720
#
#
# Mechanical properties :
#
#
# Convention : Reuss Voigt Hill
#
# Bulk Modulus (GPa) = 68.33508 83.86474 76.09991
# Shear Modulus (GPa) = 32.58440 44.66412 38.62426
#
# Velocity S-wave (km/s) = 3.46738 4.05954 3.77509
# Velocity P-wave (km/s) = 6.42216 7.27440 6.86152
#
# Compressibility (1/GPa) = 0.01463377
#
# Stress axis : x y z
#
# Youngs Moduli (GPa) = 133.98433 93.47639 146.07706
#
# Poissons Ratio (x) = 0.08793 0.38735
# Poissons Ratio (y) = 0.12603 0.23290
# Poissons Ratio (z) = 0.35529 0.14903
#
# Static dielectric constant tensor:
#      x y z
#    x 6.808220 0.000000 -0.038990 
#    y 0.000000 4.189670 0.000000 
#    z -0.038990 0.000000 5.108940 
# 
# 
# High freq. dielectric constant tensor:
#      x y z
#    x 2.145160 0.000000 0.000660 
#    y 0.000000 2.057050 0.000000 
#    z 0.000660 0.000000 2.105680 
# 
# From -- ./inp_files/212771.got.cif
#   From: 2010.06.25/outbox.cif.g09.slc.cpg/sg15_107_cif.got.tgz:212771.got - 2010.06.28 07:06:18.
