data_PCOD8146480
_publ_section_title
;
Structure prediction by ZEFSAII (Michael W. Deem and Ramdas Pophale) SiO2 
 PCOD8146480
Probable space group: C 2/C
;
_chemical_formula_sum "Si O2"
_cell_formula_units_Z 48
_cell_length_a 23.137265
_cell_length_b 10.593952
_cell_length_c 12.974322
_cell_angle_alpha 90.000000
_cell_angle_beta 39.732084
_cell_angle_gamma 90.000000
_cell_volume 2032.780477
_symmetry_space_group_name_H-M "C 2/C"
_symmetry_group_IT_number 15
_symmetry_cell_setting 'monoclinic'
loop_
_space_group_symop_operation_xyz
x,y,z
-x,y,1/2-z
-x,-y,-z
x,-y,1/2+z
1/2+x,1/2+y,z
1/2-x,1/2+y,1/2-z
1/2-x,1/2-y,-z
1/2+x,1/2-y,1/2+z
loop_
_atom_site_type_symbol
_atom_site_label
_atom_site_fract_x
_atom_site_fract_y
_atom_site_fract_z
Si Si1 0.500182 0.110204 0.078127
Si Si2 0.856637 0.599685 0.452224
Si Si3 0.679850 0.551662 0.211484
Si Si4 0.604510 0.292006 0.399134
Si Si5 0.100929 0.930968 0.607713
Si Si6 0.783838 0.844468 0.630457
O O1 0.423013 0.084136 0.267216
O O2 0.596459 0.102912 0.000637
O O3 0.485365 0.242064 0.035968
O O4 0.500000 0.000000 0.000000
O O5 0.783170 0.488621 0.547015
O O6 0.815464 0.739572 0.505991
O O7 0.627377 0.425476 0.316868
O O8 0.630045 0.615363 0.181810
O O9 0.677898 0.656859 0.304655
O O10 0.593427 0.313986 0.537780
O O11 0.676084 0.177644 0.284302
O O12 0.000000 0.994590 0.750000
O O13 0.182697 0.023906 0.463522
#
# Coordination Sequence:
#
# PCOD8146480 Si02
#       6
#     8   8   8   8   8   8
#     4  11  23  41  65  93 133 170 224 281 331 399
#     4  10  23  40  66  96 121 183 222 269 336 401
#     4  10  22  42  66  93 136 172 226 277 337 413
#     4  10  23  43  65  97 134 176 228 279 339 413
#     4  11  25  39  65 103 132 176 223 288 348 391
#     4  10  22  41  66  90 131 179 222 271 338 417
#
# _framework density 23.612977999999998
#
# number of rings (size 3 to 8) (size 9 to 14) (size 15 to 20)
#    0.000    1.667    0.000    3.000    7.000    7.333 
#    6.000    0.000    0.000    0.000    0.000    0.000 
#    0.000    0.000    0.000    0.000    0.000    0.000 
#
# Total GULP energy -297388.072651 kJ/mol
# GULP energy per Si atom -12391.169694 kJ/mol
# Density = 2.355923 g / cm^3
# Si number density = 23.612978 Si / 1000 Ang^3
#
#
#
# Elastic Constant Matrix: (Units=GPa)
#
#
# Indices 1 2 3 4 5 6 
#
# 1 158.2041 15.6721 36.8163 0.0000 13.9922 0.0000
# 2 15.6721 45.7305 18.1075 0.0000 -1.2143 0.0000
# 3 36.8163 18.1075 52.6958 0.0000 12.5382 0.0000
# 4 0.0000 0.0000 0.0000 22.2595 0.0000 13.0171
# 5 13.9922 -1.2143 12.5382 0.0000 35.8326 0.0000
# 6 0.0000 0.0000 0.0000 13.0171 0.0000 33.1586
#
#
#
# Elastic Compliance Matrix: (Units=1/GPa)
#
#
# Indices 1 2 3 4 5 6 
#
# 1 0.007619 -0.000770 -0.004739 0.000000 -0.001343 0.000000
# 2 -0.000770 0.025998 -0.009465 0.000000 0.004494 0.000000
# 3 -0.004739 -0.009465 0.027462 0.000000 -0.008080 0.000000
# 4 0.000000 0.000000 0.000000 0.058311 0.000000 -0.022891
# 5 -0.001343 0.004494 -0.008080 0.000000 0.031411 0.000000
# 6 0.000000 0.000000 0.000000 -0.022891 0.000000 0.039145
#
#
# Mechanical properties :
#
#
# Convention : Reuss Voigt Hill
#
# Bulk Modulus (GPa) = 32.12121 44.20247 38.16184
# Shear Modulus (GPa) = 21.71356 30.65244 26.18300
#
# Velocity S-wave (km/s) = 3.03572 3.60685 3.33354
# Velocity P-wave (km/s) = 5.09118 6.00883 5.56894
#
# Compressibility (1/GPa) = 0.03113207
#
# Stress axis : x y z
#
# Youngs Moduli (GPa) = 131.25428 38.46425 36.41365
#
# Poissons Ratio (x) = 0.02963 0.17255
# Poissons Ratio (y) = 0.10111 0.34464
# Poissons Ratio (z) = 0.62197 0.36405
#
# Static dielectric constant tensor:
#      x y z
#    x 4.450600 0.000000 0.040080 
#    y 0.000000 3.814520 0.000000 
#    z 0.040080 0.000000 5.580940 
# 
# 
# High freq. dielectric constant tensor:
#      x y z
#    x 1.957440 0.000000 0.009390 
#    y 0.000000 1.899840 0.000000 
#    z 0.009390 0.000000 1.942660 
# 
# From -- ./inp_files/111439.got.cif
#   From: 2010.06.25/outbox.cif.g09.slc.cpg/sg15_56_cif.got.tgz:111439.got - 2010.06.28 07:06:18.
