data_PCOD8146512
_publ_section_title
;
Structure prediction by ZEFSAII (Michael W. Deem and Ramdas Pophale) SiO2 
 PCOD8146512
Probable space group: C 2/C
;
_chemical_formula_sum "Si O2"
_cell_formula_units_Z 56
_cell_length_a 19.380147
_cell_length_b 14.034308
_cell_length_c 18.050172
_cell_angle_alpha 90.000000
_cell_angle_beta 145.554287
_cell_angle_gamma 90.000000
_cell_volume 2776.886406
_symmetry_space_group_name_H-M "C 2/C"
_symmetry_group_IT_number 15
_symmetry_cell_setting 'monoclinic'
loop_
_space_group_symop_operation_xyz
x,y,z
-x,y,1/2-z
-x,-y,-z
x,-y,1/2+z
1/2+x,1/2+y,z
1/2-x,1/2+y,1/2-z
1/2-x,1/2-y,-z
1/2+x,1/2-y,1/2+z
loop_
_atom_site_type_symbol
_atom_site_label
_atom_site_fract_x
_atom_site_fract_y
_atom_site_fract_z
Si Si1 0.500000 0.068400 0.250000
Si Si2 0.208591 0.580650 0.934860
Si Si3 0.056984 0.137085 0.430107
Si Si4 0.706010 0.404777 0.824081
Si Si5 0.440355 0.890278 0.856537
Si Si6 0.157938 0.442013 0.149791
Si Si7 0.682881 0.735483 0.664360
Si Si8 0.000000 0.276837 0.250000
O O1 0.507324 0.127717 0.179731
O O2 0.371454 0.014253 0.131248
O O3 0.115160 0.661518 0.824987
O O4 0.320797 0.573701 0.975914
O O5 0.270376 0.602871 0.068187
O O6 0.067544 0.192356 0.517550
O O7 0.047186 0.216818 0.359586
O O8 0.935937 0.071828 0.320105
O O9 0.785990 0.489056 0.862324
O O10 0.736319 0.301502 0.817472
O O11 0.357955 0.798191 0.801224
O O12 0.369859 0.993041 0.801272
O O13 0.538629 0.894605 0.009223
O O14 0.244116 0.355373 0.243898
#
# Coordination Sequence:
#
# PCOD8146512 Si02
#       8
#     4   8   8   8   8   8   8   4
#     4  11  22  40  66  89 118 158 216 255 298 365
#     4  11  21  34  57  92 122 157 198 254 311 365
#     4  12  21  34  56  90 130 160 195 247 319 371
#     4  11  21  37  60  88 126 162 200 253 305 368
#     4  10  22  41  67  89 122 164 207 258 305 358
#     4  10  22  42  62  90 122 164 210 252 305 369
#     4  11  23  38  61  90 122 167 208 250 304 365
#     4  11  20  30  54  85 130 158 192 247 308 379
#
# _framework density 20.166471999999999
#
# number of rings (size 3 to 8) (size 9 to 14) (size 15 to 20)
#    0.000    1.143    4.286    3.000    0.000    1.714 
#    0.000    2.143    3.143    0.000    0.000    0.000 
#    0.000    0.000    0.000    0.000    0.000    0.000 
#
# Total GULP energy -347092.944411 kJ/mol
# GULP energy per Si atom -12396.176586 kJ/mol
# Density = 2.012057 g / cm^3
# Si number density = 20.166472 Si / 1000 Ang^3
#
#
#
# Elastic Constant Matrix: (Units=GPa)
#
#
# Indices 1 2 3 4 5 6 
#
# 1 89.4697 16.3415 19.6720 -0.0001 -3.4223 0.0000
# 2 16.3415 72.8196 28.9819 -0.0001 -6.6163 0.0000
# 3 19.6720 28.9819 85.1557 -0.0001 12.5224 -0.0001
# 4 -0.0001 -0.0001 -0.0001 3.8364 -0.0001 0.2481
# 5 -3.4223 -6.6163 12.5224 -0.0001 39.7962 0.0000
# 6 0.0000 0.0000 -0.0001 0.2481 0.0000 17.8645
#
#
#
# Elastic Compliance Matrix: (Units=1/GPa)
#
#
# Indices 1 2 3 4 5 6 
#
# 1 0.012070 -0.001581 -0.002479 0.000000 0.001555 0.000000
# 2 -0.001581 0.016919 -0.006067 0.000000 0.004586 0.000000
# 3 -0.002479 -0.006067 0.015267 0.000000 -0.006026 0.000000
# 4 0.000000 0.000000 0.000000 0.260896 0.000001 -0.003623
# 5 0.001555 0.004586 -0.006026 0.000001 0.027920 0.000000
# 6 0.000000 0.000000 0.000000 -0.003623 0.000000 0.056027
#
#
# Mechanical properties :
#
#
# Convention : Reuss Voigt Hill
#
# Bulk Modulus (GPa) = 41.66379 41.93731 41.80055
# Shear Modulus (GPa) = 11.98022 24.46274 18.22148
#
# Velocity S-wave (km/s) = 2.43999 3.48665 3.00918
# Velocity P-wave (km/s) = 5.35190 6.08685 5.73117
#
# Compressibility (1/GPa) = 0.02400166
#
# Stress axis : x y z
#
# Youngs Moduli (GPa) = 82.84830 59.10597 65.50076
#
# Poissons Ratio (x) = 0.09343 0.16238
# Poissons Ratio (y) = 0.13096 0.39742
# Poissons Ratio (z) = 0.20539 0.35862
#
# Static dielectric constant tensor:
#      x y z
#    x 3.754100 0.000000 0.116690 
#    y 0.000000 3.377520 0.000000 
#    z 0.116690 0.000000 6.316400 
# 
# 
# High freq. dielectric constant tensor:
#      x y z
#    x 1.786510 0.000000 0.004400 
#    y 0.000000 1.757010 0.000000 
#    z 0.004400 0.000000 1.801920 
# 
# From -- ./inp_files/215813.got.cif
#   From: 2010.06.25/outbox.cif.g09.slc.cpg/sg15_108_cif.got.tgz:215813.got - 2010.06.28 07:06:18.
