data_PCOD8146556
_publ_section_title
;
Structure prediction by ZEFSAII (Michael W. Deem and Ramdas Pophale) SiO2 
 PCOD8146556
Probable space group: C 2/C
;
_chemical_formula_sum "Si O2"
_cell_formula_units_Z 52
_cell_length_a 14.101441
_cell_length_b 18.410265
_cell_length_c 14.308408
_cell_angle_alpha 90.000000
_cell_angle_beta 40.179168
_cell_angle_gamma 90.000000
_cell_volume 2396.600827
_symmetry_space_group_name_H-M "C 2/C"
_symmetry_group_IT_number 15
_symmetry_cell_setting 'monoclinic'
loop_
_space_group_symop_operation_xyz
x,y,z
-x,y,1/2-z
-x,-y,-z
x,-y,1/2+z
1/2+x,1/2+y,z
1/2-x,1/2+y,1/2-z
1/2-x,1/2-y,-z
1/2+x,1/2-y,1/2+z
loop_
_atom_site_type_symbol
_atom_site_label
_atom_site_fract_x
_atom_site_fract_y
_atom_site_fract_z
Si Si1 0.845420 0.073841 0.585576
Si Si2 0.000000 0.436634 0.750000
Si Si3 0.595727 0.215208 0.588442
Si Si4 0.839850 0.951786 0.725792
Si Si5 0.324836 0.941502 0.468844
Si Si6 0.021346 0.782934 0.452562
Si Si7 0.708019 0.832364 0.705290
O O1 0.726670 0.085495 0.594520
O O2 0.986583 0.045708 0.421895
O O3 0.881001 0.144045 0.621259
O O4 0.775056 0.015614 0.709553
O O5 0.870367 0.386702 0.807411
O O6 0.068855 0.488697 0.618223
O O7 0.500000 0.230573 0.750000
O O8 0.750000 0.250000 0.500000
O O9 0.594252 0.131011 0.556844
O O10 0.519449 0.255731 0.560052
O O11 0.804023 0.963813 0.861899
O O12 0.767362 0.875696 0.750557
O O13 0.852554 0.797197 0.547361
O O14 0.092604 0.728194 0.324873
#
# Coordination Sequence:
#
# PCOD8146556 Si02
#       7
#     8   4   8   8   8   8   8
#     4  10  22  41  68 103 139 173 225 279 341 423
#     4  12  28  46  64  94 138 184 244 286 334 402
#     4  12  24  38  65 107 142 174 215 275 356 429
#     4  10  22  42  68 100 137 181 220 274 350 416
#     4  12  23  41  68 103 139 177 223 288 346 411
#     4  11  24  43  72  99 138 179 226 283 357 407
#     4  11  25  46  68  96 135 182 229 292 339 416
#
# _framework density 21.697396999999999
#
# number of rings (size 3 to 8) (size 9 to 14) (size 15 to 20)
#    0.000    0.923    5.385    1.385    2.154    2.462 
#    0.000    0.000    0.000    0.000    0.000    0.000 
#    0.000    0.000    0.000    0.000    0.000    0.000 
#
# Total GULP energy -322378.305528 kJ/mol
# GULP energy per Si atom -12399.165597 kJ/mol
# Density = 2.164801 g / cm^3
# Si number density = 21.697397 Si / 1000 Ang^3
#
#
#
# Elastic Constant Matrix: (Units=GPa)
#
#
# Indices 1 2 3 4 5 6 
#
# 1 63.9236 27.5445 13.6164 0.0001 -18.9548 -0.0009
# 2 27.5445 132.3968 59.1170 -0.0005 -8.6603 -0.0004
# 3 13.6164 59.1170 96.5377 -0.0020 -8.9035 -0.0010
# 4 0.0001 -0.0005 -0.0020 37.3799 0.0000 -4.7880
# 5 -18.9548 -8.6603 -8.9035 0.0000 28.6581 0.0009
# 6 -0.0009 -0.0004 -0.0010 -4.7880 0.0009 33.6268
#
#
#
# Elastic Compliance Matrix: (Units=1/GPa)
#
#
# Indices 1 2 3 4 5 6 
#
# 1 0.020976 -0.003758 0.000533 0.000000 0.012903 0.000000
# 2 -0.003758 0.011109 -0.006375 0.000000 -0.001109 0.000000
# 3 0.000533 -0.006375 0.014456 0.000001 0.002917 0.000000
# 4 0.000000 0.000000 0.000001 0.027249 0.000000 0.003880
# 5 0.012903 -0.001109 0.002917 0.000000 0.044000 -0.000001
# 6 0.000000 0.000000 0.000000 0.003880 -0.000001 0.030291
#
#
# Mechanical properties :
#
#
# Convention : Reuss Voigt Hill
#
# Bulk Modulus (GPa) = 36.57552 54.82377 45.69964
# Shear Modulus (GPa) = 28.34561 32.77164 30.55863
#
# Velocity S-wave (km/s) = 3.61835 3.89060 3.75694
# Velocity P-wave (km/s) = 5.86091 6.74571 6.31882
#
# Compressibility (1/GPa) = 0.02734069
#
# Stress axis : x y z
#
# Youngs Moduli (GPa) = 47.67461 90.01883 69.17338
#
# Poissons Ratio (x) = 0.33826 -0.03684
# Poissons Ratio (y) = 0.17914 0.44098
# Poissons Ratio (z) = -0.02539 0.57387
#
# Static dielectric constant tensor:
#      x y z
#    x 3.725450 0.000000 -0.086540 
#    y 0.000000 4.175490 0.000000 
#    z -0.086540 0.000000 3.735320 
# 
# 
# High freq. dielectric constant tensor:
#      x y z
#    x 1.834640 0.000000 -0.011640 
#    y 0.000000 1.866960 0.000000 
#    z -0.011640 0.000000 1.850410 
# 
# From -- ./inp_files/155411.got.cif
#   From: 2010.06.25/outbox.cif.g09.slc.cpg/sg15_78_cif.got.tgz:155411.got - 2010.06.28 07:06:18.
