data_PCOD8146013
_publ_section_title
;
Structure prediction by ZEFSAII (Michael W. Deem and Ramdas Pophale) SiO2 
 PCOD8146013
Probable space group: C 2/C
;
_chemical_formula_sum "Si O2"
_cell_formula_units_Z 40
_cell_length_a 28.241068
_cell_length_b 8.400556
_cell_length_c 19.597219
_cell_angle_alpha 90.000000
_cell_angle_beta 157.433149
_cell_angle_gamma 90.000000
_cell_volume 1784.204269
_symmetry_space_group_name_H-M "C 2/C"
_symmetry_group_IT_number 15
_symmetry_cell_setting 'monoclinic'
loop_
_space_group_symop_operation_xyz
x,y,z
-x,y,1/2-z
-x,-y,-z
x,-y,1/2+z
1/2+x,1/2+y,z
1/2-x,1/2+y,1/2-z
1/2-x,1/2-y,-z
1/2+x,1/2-y,1/2+z
loop_
_atom_site_type_symbol
_atom_site_label
_atom_site_fract_x
_atom_site_fract_y
_atom_site_fract_z
Si Si1 0.105407 0.626666 0.100407
Si Si2 0.100343 0.938837 0.823224
Si Si3 0.781864 0.708195 0.746246
Si Si4 0.648954 0.850489 0.299392
Si Si5 0.982357 0.872178 0.416913
O O1 0.201824 0.483011 0.231612
O O2 0.148300 0.749808 0.098170
O O3 0.102188 0.728618 0.165944
O O4 0.967752 0.563927 0.894758
O O5 0.101041 0.754931 0.798631
O O6 0.000000 0.959022 0.750000
O O7 0.074584 0.059257 0.727735
O O8 0.242273 0.974431 0.035587
O O9 0.791298 0.764731 0.679626
O O10 0.885755 0.797682 0.928779
O O11 0.000000 0.000000 0.500000
#
# Coordination Sequence:
#
# PCOD8146013 Si02
#       5
#     8   8   8   8   8
#     4  11  23  41  69 101 135 182 234 283 343 405
#     4  11  23  40  69 101 140 184 218 280 348 414
#     4  11  23  40  72  97 134 184 232 288 340 414
#     4  10  22  40  65 100 139 174 228 274 340 420
#     4  11  21  42  67 100 134 177 232 283 340 417
#
# _framework density 22.418959000000001
#
# number of rings (size 3 to 8) (size 9 to 14) (size 15 to 20)
#    0.000    1.200    4.000    4.800    2.800    0.000 
#    0.000    4.000    0.000    0.000    0.000    0.000 
#    0.000    0.000    0.000    0.000    0.000    0.000 
#
# Total GULP energy -247811.771705 kJ/mol
# GULP energy per Si atom -12390.588585 kJ/mol
# Density = 2.236793 g / cm^3
# Si number density = 22.418959 Si / 1000 Ang^3
#
#
#
# Elastic Constant Matrix: (Units=GPa)
#
#
# Indices 1 2 3 4 5 6 
#
# 1 146.6370 46.1095 56.2809 0.0000 2.7509 0.0000
# 2 46.1095 100.1349 41.6196 0.0000 -0.0072 0.0000
# 3 56.2809 41.6196 119.3604 0.0000 -15.0054 0.0000
# 4 0.0000 0.0000 0.0000 41.7971 0.0000 -4.5738
# 5 2.7509 -0.0072 -15.0054 0.0000 39.7263 0.0000
# 6 0.0000 0.0000 0.0000 -4.5738 0.0000 28.4545
#
#
#
# Elastic Compliance Matrix: (Units=1/GPa)
#
#
# Indices 1 2 3 4 5 6 
#
# 1 0.009082 -0.002688 -0.003595 0.000000 -0.001987 0.000000
# 2 -0.002688 0.012574 -0.003247 0.000000 -0.001038 0.000000
# 3 -0.003595 -0.003247 0.011797 0.000000 0.004704 0.000000
# 4 0.000000 0.000000 0.000000 0.024353 0.000000 0.003915
# 5 -0.001987 -0.001038 0.004704 0.000000 0.027087 0.000000
# 6 0.000000 0.000000 0.000000 0.003915 0.000000 0.035773
#
#
# Mechanical properties :
#
#
# Convention : Reuss Voigt Hill
#
# Bulk Modulus (GPa) = 69.48299 72.68359 71.08329
# Shear Modulus (GPa) = 34.59646 36.80373 35.70009
#
# Velocity S-wave (km/s) = 3.93259 4.05610 3.99483
# Velocity P-wave (km/s) = 7.18892 7.37746 7.28380
#
# Compressibility (1/GPa) = 0.01439201
#
# Stress axis : x y z
#
# Youngs Moduli (GPa) = 110.11053 79.52952 84.76889
#
# Poissons Ratio (x) = 0.21377 0.30473
# Poissons Ratio (y) = 0.29597 0.27529
# Poissons Ratio (z) = 0.39583 0.25827
#
# Static dielectric constant tensor:
#      x y z
#    x 4.374480 0.000000 0.080950 
#    y 0.000000 3.882910 0.000000 
#    z 0.080950 0.000000 4.208830 
# 
# 
# High freq. dielectric constant tensor:
#      x y z
#    x 1.894590 0.000000 0.011670 
#    y 0.000000 1.864020 0.000000 
#    z 0.011670 0.000000 1.883990 
# 
# From -- ./inp_files/150602.got.cif
#   From: 2010.06.25/outbox.cif.g09.slc.cpg/sg15_76_cif.got.tgz:150602.got - 2010.06.28 07:06:18.
