data_PCOD8146197
_publ_section_title
;
Structure prediction by ZEFSAII (Michael W. Deem and Ramdas Pophale) SiO2 
 PCOD8146197
Probable space group: C 2/C
;
_chemical_formula_sum "Si O2"
_cell_formula_units_Z 56
_cell_length_a 21.640204
_cell_length_b 8.663150
_cell_length_c 14.816210
_cell_angle_alpha 90.000000
_cell_angle_beta 113.370107
_cell_angle_gamma 90.000000
_cell_volume 2549.757475
_symmetry_space_group_name_H-M "C 2/C"
_symmetry_group_IT_number 15
_symmetry_cell_setting 'monoclinic'
loop_
_space_group_symop_operation_xyz
x,y,z
-x,y,1/2-z
-x,-y,-z
x,-y,1/2+z
1/2+x,1/2+y,z
1/2-x,1/2+y,1/2-z
1/2-x,1/2-y,-z
1/2+x,1/2-y,1/2+z
loop_
_atom_site_type_symbol
_atom_site_label
_atom_site_fract_x
_atom_site_fract_y
_atom_site_fract_z
Si Si1 0.951244 0.782399 0.645272
Si Si2 0.820774 0.591997 0.539084
Si Si3 0.267458 0.528423 0.346064
Si Si4 0.323808 0.239564 0.003620
Si Si5 0.681795 0.207556 0.149585
Si Si6 0.547268 0.353156 0.355688
Si Si7 0.974447 0.328392 0.968764
O O1 0.880183 0.695224 0.615280
O O2 0.984143 0.753929 0.568843
O O3 0.000000 0.714268 0.750000
O O4 0.946795 0.964884 0.648886
O O5 0.771917 0.539931 0.590413
O O6 0.846735 0.437447 0.501321
O O7 0.787583 0.683885 0.434985
O O8 0.322348 0.656475 0.411154
O O9 0.306839 0.388207 0.320751
O O10 0.217996 0.601877 0.244160
O O11 0.375128 0.303212 0.108883
O O12 0.250000 0.250000 0.000000
O O13 0.602771 0.171196 0.108523
O O14 0.500000 0.284998 0.250000
O O15 0.520329 0.277214 0.431639
O O16 0.000000 0.500000 0.000000
#
# Coordination Sequence:
#
# PCOD8146197 Si02
#       7
#     8   8   8   8   8   8   8
#     4  10  23  43  65  97 134 180 230 277 342 406
#     4  10  22  42  67  96 133 175 228 282 336 409
#     4  11  24  43  69  97 142 173 229 285 340 414
#     4  10  22  40  68  98 132 176 225 278 334 396
#     4  11  24  43  64 103 130 183 224 281 348 406
#     4  11  24  43  69 100 139 181 223 281 348 410
#     4  11  25  42  69  95 137 175 234 286 338 413
#
# _framework density 21.962872999999998
#
# number of rings (size 3 to 8) (size 9 to 14) (size 15 to 20)
#    0.000    1.429    0.000    5.143    6.000    2.286 
#    5.143    0.000    0.000    0.000    0.000    0.000 
#    0.000    0.000    0.000    0.000    0.000    0.000 
#
# Total GULP energy -346961.647023 kJ/mol
# GULP energy per Si atom -12391.487394 kJ/mol
# Density = 2.191288 g / cm^3
# Si number density = 21.962873 Si / 1000 Ang^3
#
#
#
# Elastic Constant Matrix: (Units=GPa)
#
#
# Indices 1 2 3 4 5 6 
#
# 1 72.1383 26.7027 52.0384 0.0000 22.7983 0.0000
# 2 26.7027 133.3050 55.5097 0.0000 31.5689 0.0000
# 3 52.0384 55.5097 151.2304 0.0000 37.7741 0.0000
# 4 0.0000 0.0000 0.0000 43.7901 0.0000 7.0029
# 5 22.7983 31.5689 37.7741 0.0000 36.9436 0.0000
# 6 0.0000 0.0000 0.0000 7.0029 0.0000 28.0389
#
#
#
# Elastic Compliance Matrix: (Units=1/GPa)
#
#
# Indices 1 2 3 4 5 6 
#
# 1 0.019715 -0.000251 -0.004978 0.000000 -0.006862 0.000000
# 2 -0.000251 0.009852 -0.001968 0.000000 -0.006251 0.000000
# 3 -0.004978 -0.001968 0.010556 0.000000 -0.006040 0.000000
# 4 0.000000 0.000000 0.000000 0.023786 0.000000 -0.005941
# 5 -0.006862 -0.006251 -0.006040 0.000000 0.042820 0.000000
# 6 0.000000 0.000000 0.000000 -0.005941 0.000000 0.037148
#
#
# Mechanical properties :
#
#
# Convention : Reuss Voigt Hill
#
# Bulk Modulus (GPa) = 38.86785 69.46393 54.16589
# Shear Modulus (GPa) = 29.96736 36.58272 33.27504
#
# Velocity S-wave (km/s) = 3.69786 4.08568 3.89660
# Velocity P-wave (km/s) = 5.99731 7.34531 6.70527
#
# Compressibility (1/GPa) = 0.02572821
#
# Stress axis : x y z
#
# Youngs Moduli (GPa) = 50.72390 101.50318 94.72967
#
# Poissons Ratio (x) = 0.02551 0.47153
# Poissons Ratio (y) = 0.01275 0.18646
# Poissons Ratio (z) = 0.25248 0.19979
#
# Static dielectric constant tensor:
#      x y z
#    x 3.748910 0.000000 0.153410 
#    y 0.000000 4.642370 0.000000 
#    z 0.153410 0.000000 4.281890 
# 
# 
# High freq. dielectric constant tensor:
#      x y z
#    x 1.847500 0.000000 0.013450 
#    y 0.000000 1.892900 0.000000 
#    z 0.013450 0.000000 1.873290 
# 
# From -- ./inp_files/172458.got.cif
#   From: 2010.06.25/outbox.cif.g09.slc.cpg/sg15_87_cif.got.tgz:172458.got - 2010.06.28 07:06:18.
