data_PCOD8146164
_publ_section_title
;
Structure prediction by ZEFSAII (Michael W. Deem and Ramdas Pophale) SiO2 
 PCOD8146164
Probable space group: C 2/C
;
_chemical_formula_sum "Si O2"
_cell_formula_units_Z 52
_cell_length_a 27.844612
_cell_length_b 8.696080
_cell_length_c 29.340139
_cell_angle_alpha 90.000000
_cell_angle_beta 20.716316
_cell_angle_gamma 90.000000
_cell_volume 2513.115946
_symmetry_space_group_name_H-M "C 2/C"
_symmetry_group_IT_number 15
_symmetry_cell_setting 'monoclinic'
loop_
_space_group_symop_operation_xyz
x,y,z
-x,y,1/2-z
-x,-y,-z
x,-y,1/2+z
1/2+x,1/2+y,z
1/2-x,1/2+y,1/2-z
1/2-x,1/2-y,-z
1/2+x,1/2-y,1/2+z
loop_
_atom_site_type_symbol
_atom_site_label
_atom_site_fract_x
_atom_site_fract_y
_atom_site_fract_z
Si Si1 0.000000 0.592259 0.750000
Si Si2 0.211043 0.316075 0.733834
Si Si3 0.796834 0.322482 0.251115
Si Si4 0.905635 0.321086 0.989352
Si Si5 0.193005 0.382217 0.519066
Si Si6 0.715257 0.307533 0.581056
Si Si7 0.600927 0.178951 0.498009
O O1 0.083948 0.483498 0.642518
O O2 0.083034 0.706109 0.710733
O O3 0.214374 0.496040 0.738726
O O4 0.280316 0.230177 0.714108
O O5 0.296293 0.280401 0.612944
O O6 0.056454 0.258180 0.865335
O O7 0.678981 0.253339 0.386620
O O8 0.944520 0.266446 0.137515
O O9 0.877757 0.299267 0.960488
O O10 0.890174 0.497279 0.017804
O O11 0.250000 0.250000 0.500000
O O12 0.307663 0.506052 0.400244
O O13 0.750000 0.250000 0.500000
O O14 0.832515 0.268705 0.513398
#
# Coordination Sequence:
#
# PCOD8146164 Si02
#       7
#     4   8   8   8   8   8   8
#     4  10  22  40  68  86 140 168 218 268 324 390
#     4  11  24  42  65  92 130 165 216 268 324 385
#     4  11  24  41  66  94 126 169 212 269 324 384
#     4  10  24  43  63  93 130 168 212 267 323 386
#     4  10  23  41  64  98 130 172 218 269 328 384
#     4   9  21  39  62  93 124 168 211 262 317 385
#     4  10  23  41  65  92 128 164 216 260 322 384
#
# _framework density 20.691445000000002
#
# number of rings (size 3 to 8) (size 9 to 14) (size 15 to 20)
#    0.000    1.846    0.000    1.846   10.769    8.000 
#    2.769    0.000    0.000    0.000    0.000    0.000 
#    0.000    0.000    0.000    0.000    0.000    0.000 
#
# Total GULP energy -322351.690447 kJ/mol
# GULP energy per Si atom -12398.141940 kJ/mol
# Density = 2.064435 g / cm^3
# Si number density = 20.691445 Si / 1000 Ang^3
#
#
#
# Elastic Constant Matrix: (Units=GPa)
#
#
# Indices 1 2 3 4 5 6 
#
# 1 152.4442 62.5454 50.0227 -0.0067 -12.8828 0.0090
# 2 62.5454 89.4254 56.4429 0.0004 -13.2497 0.0039
# 3 50.0227 56.4429 125.8544 0.0178 -12.6177 -0.0009
# 4 -0.0067 0.0004 0.0178 39.1320 -0.0002 3.7533
# 5 -12.8828 -13.2497 -12.6177 -0.0002 34.0493 -0.0062
# 6 0.0090 0.0039 -0.0009 3.7533 -0.0062 35.7866
#
#
#
# Elastic Compliance Matrix: (Units=1/GPa)
#
#
# Indices 1 2 3 4 5 6 
#
# 1 0.009332 -0.005730 -0.001048 0.000002 0.000913 -0.000002
# 2 -0.005730 0.019556 -0.006177 0.000002 0.003153 0.000000
# 3 -0.001048 -0.006177 0.011270 -0.000005 0.001376 0.000002
# 4 0.000002 0.000002 -0.000005 0.025814 -0.000001 -0.002707
# 5 0.000913 0.003153 0.001376 -0.000001 0.031452 0.000005
# 6 -0.000002 0.000000 0.000002 -0.002707 0.000005 0.028227
#
#
# Mechanical properties :
#
#
# Convention : Reuss Voigt Hill
#
# Bulk Modulus (GPa) = 70.18201 78.41622 74.29911
# Shear Modulus (GPa) = 31.98770 35.04111 33.51440
#
# Velocity S-wave (km/s) = 3.93611 4.11969 4.02894
# Velocity P-wave (km/s) = 7.39251 7.78520 7.59139
#
# Compressibility (1/GPa) = 0.01424867
#
# Stress axis : x y z
#
# Youngs Moduli (GPa) = 107.16151 51.13491 88.72921
#
# Poissons Ratio (x) = 0.29302 0.09296
# Poissons Ratio (y) = 0.61406 0.54806
# Poissons Ratio (z) = 0.11227 0.31585
#
# Static dielectric constant tensor:
#      x y z
#    x 3.967410 0.000030 -0.302170 
#    y 0.000030 3.956160 -0.000310 
#    z -0.302170 -0.000310 3.804070 
# 
# 
# High freq. dielectric constant tensor:
#      x y z
#    x 1.824680 0.000000 -0.000970 
#    y 0.000000 1.811270 0.000000 
#    z -0.000970 0.000000 1.809790 
# 
# From -- ./inp_files/320169.got.cif
#   From: 2010.06.25/outbox.cif.g09.slc.cpg/sg15_161_cif.got.tgz:320169.got - 2010.06.28 07:06:18.
