data_PCOD8146219
_publ_section_title
;
Structure prediction by ZEFSAII (Michael W. Deem and Ramdas Pophale) SiO2 
 PCOD8146219
Probable space group: C 2/C
;
_chemical_formula_sum "Si O2"
_cell_formula_units_Z 64
_cell_length_a 24.417316
_cell_length_b 16.752544
_cell_length_c 14.753146
_cell_angle_alpha 90.000000
_cell_angle_beta 151.631946
_cell_angle_gamma 90.000000
_cell_volume 2867.339675
_symmetry_space_group_name_H-M "C 2/C"
_symmetry_group_IT_number 15
_symmetry_cell_setting 'monoclinic'
loop_
_space_group_symop_operation_xyz
x,y,z
-x,y,1/2-z
-x,-y,-z
x,-y,1/2+z
1/2+x,1/2+y,z
1/2-x,1/2+y,1/2-z
1/2-x,1/2-y,-z
1/2+x,1/2-y,1/2+z
loop_
_atom_site_type_symbol
_atom_site_label
_atom_site_fract_x
_atom_site_fract_y
_atom_site_fract_z
Si Si1 0.742974 0.141740 0.444299
Si Si2 0.614518 0.961071 0.627111
Si Si3 0.241023 0.605282 0.734054
Si Si4 0.873838 0.819344 0.584442
Si Si5 0.859292 0.903971 0.748271
Si Si6 0.917811 0.917827 0.333491
Si Si7 0.129302 0.720328 0.440018
Si Si8 0.116304 0.364189 0.462952
O O1 0.698597 0.061311 0.332565
O O2 0.862321 0.131794 0.672152
O O3 0.775460 0.209140 0.417954
O O4 0.644419 0.168711 0.370398
O O5 0.595081 0.879791 0.539799
O O6 0.500000 0.000000 0.500000
O O7 0.675316 0.022453 0.648569
O O8 0.351365 0.594173 0.831277
O O9 0.151105 0.667843 0.560972
O O10 0.278868 0.633745 0.888695
O O11 0.851951 0.836250 0.659084
O O12 0.868534 0.727266 0.545541
O O13 0.000000 0.854451 0.750000
O O14 0.730707 0.912397 0.600173
O O15 0.908872 0.989861 0.787884
O O16 0.952555 0.882420 0.963262
O O17 0.000000 0.753459 0.250000
O O18 0.000000 0.400510 0.250000
#
# Coordination Sequence:
#
# PCOD8146219 Si02
#       8
#     8   8   8   8   8   8   8   8
#     4  10  23  42  65  99 132 169 229 279 328 412
#     4  12  26  43  68 101 136 181 232 281 340 411
#     4  11  22  42  67  94 134 174 226 283 336 408
#     4  11  23  42  67 100 133 178 227 276 340 417
#     4  11  22  45  66  98 135 180 224 276 355 407
#     4  10  22  40  69  97 135 173 218 290 342 406
#     4  10  22  43  65  95 131 180 214 278 346 393
#     4  11  27  44  65  98 138 182 223 287 336 412
#
# _framework density 22.320340999999999
#
# number of rings (size 3 to 8) (size 9 to 14) (size 15 to 20)
#    0.000    1.250    2.500    2.625    3.500    2.500 
#    0.000    0.000    0.000    0.000    0.000    0.000 
#    0.000    0.000    0.000    0.000    0.000    0.000 
#
# Total GULP energy -396670.128689 kJ/mol
# GULP energy per Si atom -12395.941522 kJ/mol
# Density = 2.226954 g / cm^3
# Si number density = 22.320341 Si / 1000 Ang^3
#
#
#
# Elastic Constant Matrix: (Units=GPa)
#
#
# Indices 1 2 3 4 5 6 
#
# 1 88.1333 37.3407 61.0765 0.0000 -3.2980 0.0000
# 2 37.3407 95.1678 46.0673 0.0000 -13.9376 0.0000
# 3 61.0765 46.0673 155.2805 0.0000 5.9261 0.0000
# 4 0.0000 0.0000 0.0000 37.7501 0.0000 -9.3368
# 5 -3.2980 -13.9376 5.9261 0.0000 33.1205 0.0000
# 6 0.0000 0.0000 0.0000 -9.3368 0.0000 40.3143
#
#
#
# Elastic Compliance Matrix: (Units=1/GPa)
#
#
# Indices 1 2 3 4 5 6 
#
# 1 0.016820 -0.003758 -0.005542 0.000000 0.001085 0.000000
# 2 -0.003758 0.014351 -0.003016 0.000000 0.006205 0.000000
# 3 -0.005542 -0.003016 0.009650 0.000000 -0.003548 0.000000
# 4 0.000000 0.000000 0.000000 0.028100 0.000000 0.006508
# 5 0.001085 0.006205 -0.003548 0.000000 0.033547 0.000000
# 6 0.000000 0.000000 0.000000 0.006508 0.000000 0.026312
#
#
# Mechanical properties :
#
#
# Convention : Reuss Voigt Hill
#
# Bulk Modulus (GPa) = 61.77323 69.72783 65.75053
# Shear Modulus (GPa) = 31.48440 35.17679 33.33060
#
# Velocity S-wave (km/s) = 3.75983 3.97419 3.86849
# Velocity P-wave (km/s) = 6.82527 7.23646 7.03387
#
# Compressibility (1/GPa) = 0.01618824
#
# Stress axis : x y z
#
# Youngs Moduli (GPa) = 59.45270 69.68196 103.62495
#
# Poissons Ratio (x) = 0.26185 0.57433
# Poissons Ratio (y) = 0.22341 0.31256
# Poissons Ratio (z) = 0.32951 0.21018
#
# Static dielectric constant tensor:
#      x y z
#    x 3.884260 0.000000 0.001640 
#    y 0.000000 3.927880 0.000000 
#    z 0.001640 0.000000 4.226300 
# 
# 
# High freq. dielectric constant tensor:
#      x y z
#    x 1.870030 0.000000 -0.000390 
#    y 0.000000 1.874620 0.000000 
#    z -0.000390 0.000000 1.892810 
# 
# From -- ./inp_files/174270.got.cif
#   From: 2010.06.25/outbox.cif.g09.slc.cpg/sg15_88_cif.got.tgz:174270.got - 2010.06.28 07:06:18.
