data_PCOD8146688
_publ_section_title
;
Structure prediction by ZEFSAII (Michael W. Deem and Ramdas Pophale) SiO2 
 PCOD8146688
Probable space group: C 2/C
;
_chemical_formula_sum "Si O2"
_cell_formula_units_Z 64
_cell_length_a 21.331812
_cell_length_b 25.469464
_cell_length_c 15.239760
_cell_angle_alpha 90.000000
_cell_angle_beta 159.198854
_cell_angle_gamma 90.000000
_cell_volume 2940.408942
_symmetry_space_group_name_H-M "C 2/C"
_symmetry_group_IT_number 15
_symmetry_cell_setting 'monoclinic'
loop_
_space_group_symop_operation_xyz
x,y,z
-x,y,1/2-z
-x,-y,-z
x,-y,1/2+z
1/2+x,1/2+y,z
1/2-x,1/2+y,1/2-z
1/2-x,1/2-y,-z
1/2+x,1/2-y,1/2+z
loop_
_atom_site_type_symbol
_atom_site_label
_atom_site_fract_x
_atom_site_fract_y
_atom_site_fract_z
Si Si1 0.367894 0.369334 0.315864
Si Si2 0.540881 0.200711 0.905136
Si Si3 0.376243 0.546054 0.307245
Si Si4 0.507261 0.171810 0.363152
Si Si5 0.985225 0.419061 0.126176
Si Si6 0.692953 0.483695 0.972607
Si Si7 0.824879 0.102948 0.564831
Si Si8 0.568123 0.264013 0.576699
O O1 0.505060 0.401802 0.555337
O O2 0.360309 0.400412 0.214489
O O3 0.422306 0.308983 0.378041
O O4 0.171010 0.367269 0.098140
O O5 0.500000 0.213234 0.750000
O O6 0.493465 0.141712 0.871396
O O7 0.429106 0.238411 0.822703
O O8 0.744121 0.209927 0.193081
O O9 0.500000 0.500000 0.500000
O O10 0.288122 0.525386 0.104857
O O11 0.211823 0.559368 0.157659
O O12 0.500000 0.185835 0.250000
O O13 0.521708 0.224159 0.438437
O O14 0.334047 0.141209 0.167731
O O15 0.000000 0.423213 0.250000
O O16 0.137136 0.450609 0.269912
O O17 0.500000 0.462478 0.750000
O O18 0.715038 0.544859 0.025385
O O19 0.000000 0.126514 0.750000
#
# Coordination Sequence:
#
# PCOD8146688 Si02
#       8
#     8   8   8   8   8   8   8   8
#     4  11  23  40  63  96 129 168 220 264 321 396
#     4  11  24  45  66  96 130 173 220 272 331 390
#     4  11  21  37  64  90 124 168 208 262 319 381
#     4  10  25  43  65  98 133 176 219 269 328 386
#     4   9  21  39  65  90 122 170 213 258 326 390
#     4  10  22  42  61  94 128 167 212 267 325 385
#     4  10  23  40  65  93 132 172 213 265 326 385
#     4  12  24  44  67  96 135 168 224 271 323 393
#
# _framework density 21.765678000000001
#
# number of rings (size 3 to 8) (size 9 to 14) (size 15 to 20)
#    0.000    1.500    3.750    0.375    3.500    5.000 
#    0.000    0.625    0.000    0.000    0.000    0.000 
#    0.000    0.000    0.000    0.000    0.000    0.000 
#
# Total GULP energy -396700.663954 kJ/mol
# GULP energy per Si atom -12396.895749 kJ/mol
# Density = 2.171614 g / cm^3
# Si number density = 21.765678 Si / 1000 Ang^3
#
#
#
# Elastic Constant Matrix: (Units=GPa)
#
#
# Indices 1 2 3 4 5 6 
#
# 1 53.4129 38.0596 28.0803 0.0000 18.4514 0.0000
# 2 38.0596 126.3949 68.7993 0.0000 19.0243 0.0000
# 3 28.0803 68.7993 140.9932 -0.0002 30.8619 0.0000
# 4 0.0000 0.0000 -0.0002 41.8733 0.0000 1.0729
# 5 18.4514 19.0243 30.8619 0.0000 36.2431 0.0000
# 6 0.0000 0.0000 0.0000 1.0729 0.0000 27.3560
#
#
#
# Elastic Compliance Matrix: (Units=1/GPa)
#
#
# Indices 1 2 3 4 5 6 
#
# 1 0.026954 -0.006630 0.000134 0.000000 -0.010356 0.000000
# 2 -0.006630 0.012466 -0.005001 0.000000 0.001091 0.000000
# 3 0.000134 -0.005001 0.010996 0.000000 -0.006807 0.000000
# 4 0.000000 0.000000 0.000000 0.023906 0.000000 -0.000938
# 5 -0.010356 0.001091 -0.006807 0.000000 0.038087 0.000000
# 6 0.000000 0.000000 0.000000 -0.000938 0.000000 0.036592
#
#
# Mechanical properties :
#
#
# Convention : Reuss Voigt Hill
#
# Bulk Modulus (GPa) = 36.46864 65.63103 51.04983
# Shear Modulus (GPa) = 27.60353 33.48528 30.54441
#
# Velocity S-wave (km/s) = 3.56506 3.92656 3.75017
# Velocity P-wave (km/s) = 5.80842 7.12573 6.50053
#
# Compressibility (1/GPa) = 0.02742082
#
# Stress axis : x y z
#
# Youngs Moduli (GPa) = 37.10088 80.21550 90.94076
#
# Poissons Ratio (x) = 0.53186 -0.01220
# Poissons Ratio (y) = 0.24600 0.45482
# Poissons Ratio (z) = -0.00498 0.40118
#
# Static dielectric constant tensor:
#      x y z
#    x 3.730050 0.000000 0.163670 
#    y 0.000000 4.431610 0.000000 
#    z 0.163670 0.000000 3.459530 
# 
# 
# High freq. dielectric constant tensor:
#      x y z
#    x 1.833650 0.000000 0.014260 
#    y 0.000000 1.859060 0.000000 
#    z 0.014260 0.000000 1.873350 
# 
# From -- ./inp_files/220275.got.cif
#   From: 2010.06.25/outbox.cif.g09.slc.cpg/sg15_111_cif.got.tgz:220275.got - 2010.06.28 07:06:18.
