data_PCOD8146095
_publ_section_title
;
Structure prediction by ZEFSAII (Michael W. Deem and Ramdas Pophale) SiO2 
 PCOD8146095
Probable space group: C 2/C
;
_chemical_formula_sum "Si O2"
_cell_formula_units_Z 60
_cell_length_a 12.025235
_cell_length_b 14.871511
_cell_length_c 18.083691
_cell_angle_alpha 90.000000
_cell_angle_beta 119.591494
_cell_angle_gamma 90.000000
_cell_volume 2812.156075
_symmetry_space_group_name_H-M "C 2/C"
_symmetry_group_IT_number 15
_symmetry_cell_setting 'monoclinic'
loop_
_space_group_symop_operation_xyz
x,y,z
-x,y,1/2-z
-x,-y,-z
x,-y,1/2+z
1/2+x,1/2+y,z
1/2-x,1/2+y,1/2-z
1/2-x,1/2-y,-z
1/2+x,1/2-y,1/2+z
loop_
_atom_site_type_symbol
_atom_site_label
_atom_site_fract_x
_atom_site_fract_y
_atom_site_fract_z
Si Si1 0.000000 0.249750 0.250000
Si Si2 0.841865 0.233094 0.325230
Si Si3 0.462240 0.911744 0.411161
Si Si4 0.432206 0.258232 0.304777
Si Si5 0.060793 0.405005 0.925480
Si Si6 0.909745 0.084059 0.904325
Si Si7 0.669210 0.411010 0.565774
Si Si8 0.799132 0.327008 0.069775
O O1 0.934212 0.190183 0.292652
O O2 0.884660 0.304396 0.170989
O O3 0.874657 0.340328 0.337812
O O4 0.699858 0.209677 0.254816
O O5 0.860953 0.187482 0.410899
O O6 0.412269 0.906914 0.478480
O O7 0.612789 0.887466 0.455057
O O8 0.458223 0.013741 0.375994
O O9 0.500000 0.275694 0.250000
O O10 0.508427 0.192390 0.384443
O O11 0.401970 0.355105 0.329381
O O12 0.192311 0.419800 0.925064
O O13 0.831178 0.126058 0.947046
O O14 0.846339 0.985145 0.873380
O O15 0.060315 0.071980 0.969519
O O16 0.750000 0.250000 0.000000
#
# Coordination Sequence:
#
# PCOD8146095 Si02
#       8
#     4   8   8   8   8   8   8   8
#     4  10  22  40  66  94 134 172 226 272 340 404
#     4  11  23  43  64 102 130 176 221 276 344 402
#     4  10  24  41  69  99 131 174 226 282 333 399
#     4  12  25  42  66  98 137 177 219 274 343 408
#     4  11  23  45  68 100 129 175 230 276 332 410
#     4  11  24  43  66  95 133 178 219 281 342 403
#     4  11  24  44  69  95 134 174 229 278 341 407
#     4  11  20  40  67  97 133 174 226 279 339 406
#
# _framework density 21.335941999999999
#
# number of rings (size 3 to 8) (size 9 to 14) (size 15 to 20)
#    0.000    1.067    4.000    3.200    1.867    2.133 
#    6.000    0.000    0.000    0.000    0.000    0.000 
#    0.000    0.000    0.000    0.000    0.000    0.000 
#
# Total GULP energy -371667.375233 kJ/mol
# GULP energy per Si atom -12388.912508 kJ/mol
# Density = 2.128738 g / cm^3
# Si number density = 21.335942 Si / 1000 Ang^3
#
#
#
# Elastic Constant Matrix: (Units=GPa)
#
#
# Indices 1 2 3 4 5 6 
#
# 1 137.5921 34.2059 36.1851 0.0000 -16.2331 0.0000
# 2 34.2059 77.3947 23.6076 0.0000 -8.7555 0.0000
# 3 36.1851 23.6076 67.9044 0.0000 -7.2752 0.0000
# 4 0.0000 0.0000 0.0000 42.8085 0.0000 -28.0300
# 5 -16.2331 -8.7555 -7.2752 0.0000 40.8384 0.0000
# 6 0.0000 0.0000 0.0000 -28.0300 0.0000 69.3162
#
#
#
# Elastic Compliance Matrix: (Units=1/GPa)
#
#
# Indices 1 2 3 4 5 6 
#
# 1 0.009191 -0.002655 -0.003715 0.000000 0.002422 0.000000
# 2 -0.002655 0.015425 -0.003779 0.000000 0.001579 0.000000
# 3 -0.003715 -0.003779 0.018121 0.000000 0.000941 0.000000
# 4 0.000000 0.000000 0.000000 0.031773 0.000000 0.012848
# 5 0.002422 0.001579 0.000941 0.000000 0.025956 0.000000
# 6 0.000000 0.000000 0.000000 0.012848 0.000000 0.019622
#
#
# Mechanical properties :
#
#
# Convention : Reuss Voigt Hill
#
# Bulk Modulus (GPa) = 44.56450 52.32090 48.44270
# Shear Modulus (GPa) = 33.81470 43.18546 38.50008
#
# Velocity S-wave (km/s) = 3.98536 4.50385 4.25251
# Velocity P-wave (km/s) = 6.48921 7.18484 6.84587
#
# Compressibility (1/GPa) = 0.02243939
#
# Stress axis : x y z
#
# Youngs Moduli (GPa) = 108.80648 64.82824 55.18481
#
# Poissons Ratio (x) = 0.17210 0.20502
# Poissons Ratio (y) = 0.28885 0.20854
# Poissons Ratio (z) = 0.40422 0.24498
#
# Static dielectric constant tensor:
#      x y z
#    x 4.168580 0.000000 -0.069820 
#    y 0.000000 4.049740 0.000000 
#    z -0.069820 0.000000 3.636970 
# 
# 
# High freq. dielectric constant tensor:
#      x y z
#    x 1.863770 0.000000 -0.007820 
#    y 0.000000 1.831090 0.000000 
#    z -0.007820 0.000000 1.815700 
# 
# From -- ./inp_files/198377.got.cif
#   From: 2010.06.25/outbox.cif.g09.slc.cpg/sg15_100_cif.got.tgz:198377.got - 2010.06.28 07:06:18.
