data_PCOD8146207
_publ_section_title
;
Structure prediction by ZEFSAII (Michael W. Deem and Ramdas Pophale) SiO2 
 PCOD8146207
Probable space group: C 2/C
;
_chemical_formula_sum "Si O2"
_cell_formula_units_Z 60
_cell_length_a 21.984155
_cell_length_b 8.805078
_cell_length_c 17.022565
_cell_angle_alpha 90.000000
_cell_angle_beta 117.633353
_cell_angle_gamma 90.000000
_cell_volume 2919.236131
_symmetry_space_group_name_H-M "C 2/C"
_symmetry_group_IT_number 15
_symmetry_cell_setting 'monoclinic'
loop_
_space_group_symop_operation_xyz
x,y,z
-x,y,1/2-z
-x,-y,-z
x,-y,1/2+z
1/2+x,1/2+y,z
1/2-x,1/2+y,1/2-z
1/2-x,1/2-y,-z
1/2+x,1/2-y,1/2+z
loop_
_atom_site_type_symbol
_atom_site_label
_atom_site_fract_x
_atom_site_fract_y
_atom_site_fract_z
Si Si1 0.630190 0.251019 0.878491
Si Si2 0.318298 0.179116 0.310411
Si Si3 0.914975 0.271006 0.608705
Si Si4 0.061068 0.823139 0.206306
Si Si5 0.203178 0.031668 0.972144
Si Si6 0.500000 0.603506 0.250000
Si Si7 0.839884 0.519501 0.480899
Si Si8 0.274582 0.924226 0.168102
O O1 0.670055 0.408698 0.894268
O O2 0.548609 0.284521 0.829401
O O3 0.652916 0.137350 0.822447
O O4 0.655870 0.184127 0.976596
O O5 0.379864 0.292433 0.321636
O O6 0.342723 0.055533 0.390167
O O7 0.257281 0.289434 0.299563
O O8 0.289650 0.078961 0.222518
O O9 0.921286 0.282733 0.707329
O O10 0.851234 0.164595 0.548053
O O11 0.904259 0.427983 0.555585
O O12 0.988554 0.214756 0.621511
O O13 0.051478 0.999085 0.228073
O O14 0.272208 0.077799 0.966043
O O15 0.221411 0.965520 0.067919
#
# Coordination Sequence:
#
# PCOD8146207 Si02
#       8
#     8   8   8   8   8   4   8   8
#     4  11  20  44  62  94 119 168 218 262 304 375
#     4  12  26  40  61  95 134 167 204 269 331 376
#     4  10  22  40  69  87 120 171 214 260 311 381
#     4  10  22  41  60  96 124 156 216 268 306 375
#     4  11  19  42  64  91 118 165 221 256 307 380
#     4  10  22  40  76  88 120 176 222 258 310 390
#     4  11  23  38  65  92 128 164 207 268 317 377
#     4  11  26  40  63  94 136 166 208 268 323 378
#
# _framework density 20.553321
#
# number of rings (size 3 to 8) (size 9 to 14) (size 15 to 20)
#    0.000    1.333    5.333    2.800    5.600    2.667 
#    0.000    2.667    0.000    0.000    0.000    0.000 
#    0.000    0.000    0.000    0.000    0.000    0.000 
#
# Total GULP energy -371770.526133 kJ/mol
# GULP energy per Si atom -12392.350871 kJ/mol
# Density = 2.050654 g / cm^3
# Si number density = 20.553321 Si / 1000 Ang^3
#
#
#
# Elastic Constant Matrix: (Units=GPa)
#
#
# Indices 1 2 3 4 5 6 
#
# 1 82.9334 37.4337 53.3419 0.0000 5.6154 0.0000
# 2 37.4337 68.5705 28.8085 0.0000 5.6656 0.0000
# 3 53.3419 28.8085 77.8404 0.0000 12.7305 0.0000
# 4 0.0000 0.0000 0.0000 39.2254 0.0000 11.0505
# 5 5.6154 5.6656 12.7305 0.0000 32.7442 0.0000
# 6 0.0000 0.0000 0.0000 11.0505 0.0000 26.5113
#
#
#
# Elastic Compliance Matrix: (Units=1/GPa)
#
#
# Indices 1 2 3 4 5 6 
#
# 1 0.024632 -0.007571 -0.014525 0.000000 0.002733 0.000000
# 2 -0.007571 0.019604 -0.001842 0.000000 -0.001377 0.000000
# 3 -0.014525 -0.001842 0.024586 0.000000 -0.006749 0.000000
# 4 0.000000 0.000000 0.000000 0.028886 0.000000 -0.012040
# 5 0.002733 -0.001377 -0.006749 0.000000 0.032933 0.000000
# 6 0.000000 0.000000 0.000000 -0.012040 0.000000 0.042738
#
#
# Mechanical properties :
#
#
# Convention : Reuss Voigt Hill
#
# Bulk Modulus (GPa) = 47.73975 52.05694 49.89835
# Shear Modulus (GPa) = 21.90702 27.01353 24.46028
#
# Velocity S-wave (km/s) = 3.26830 3.62928 3.45351
# Velocity P-wave (km/s) = 6.12536 6.55324 6.34291
#
# Compressibility (1/GPa) = 0.02094690
#
# Stress axis : x y z
#
# Youngs Moduli (GPa) = 40.59727 51.00942 40.67377
#
# Poissons Ratio (x) = 0.38617 0.59078
# Poissons Ratio (y) = 0.30734 0.07493
# Poissons Ratio (z) = 0.58967 0.09397
#
# Static dielectric constant tensor:
#      x y z
#    x 3.697010 0.000000 0.192660 
#    y 0.000000 3.749390 0.000000 
#    z 0.192660 0.000000 3.687400 
# 
# 
# High freq. dielectric constant tensor:
#      x y z
#    x 1.788350 0.000000 0.020840 
#    y 0.000000 1.807290 0.000000 
#    z 0.020840 0.000000 1.800660 
# 
# From -- ./inp_files/218614.got.cif
#   From: 2010.06.25/outbox.cif.g09.slc.cpg/sg15_110_cif.got.tgz:218614.got - 2010.06.28 07:06:18.
