data_PCOD8146921
_publ_section_title
;
Structure prediction by ZEFSAII (Michael W. Deem and Ramdas Pophale) SiO2 
 PCOD8146921
Probable space group: C 2/C
;
_chemical_formula_sum "Si O2"
_cell_formula_units_Z 52
_cell_length_a 16.889015
_cell_length_b 14.261750
_cell_length_c 12.746285
_cell_angle_alpha 90.000000
_cell_angle_beta 129.704916
_cell_angle_gamma 90.000000
_cell_volume 2362.010139
_symmetry_space_group_name_H-M "C 2/C"
_symmetry_group_IT_number 15
_symmetry_cell_setting 'monoclinic'
loop_
_space_group_symop_operation_xyz
x,y,z
-x,y,1/2-z
-x,-y,-z
x,-y,1/2+z
1/2+x,1/2+y,z
1/2-x,1/2+y,1/2-z
1/2-x,1/2-y,-z
1/2+x,1/2-y,1/2+z
loop_
_atom_site_type_symbol
_atom_site_label
_atom_site_fract_x
_atom_site_fract_y
_atom_site_fract_z
Si Si1 0.582724 0.036056 0.153706
Si Si2 0.500000 0.819854 0.750000
Si Si3 0.653308 0.313903 0.888575
Si Si4 0.694130 0.425178 0.721394
Si Si5 0.874539 0.337045 0.281454
Si Si6 0.442089 0.279313 0.013588
Si Si7 0.641989 0.370084 0.104697
O O1 0.555937 0.116247 0.212619
O O2 0.683052 0.072890 0.179394
O O3 0.610366 0.943062 0.245595
O O4 0.500000 0.000000 0.000000
O O5 0.576810 0.752033 0.881513
O O6 0.672717 0.399254 0.824200
O O7 0.582599 0.237051 0.768595
O O8 0.750000 0.250000 0.000000
O O9 0.604325 0.361775 0.950506
O O10 0.645730 0.349895 0.599942
O O11 0.644261 0.523561 0.646875
O O12 0.938328 0.316432 0.441506
O O13 0.753315 0.320650 0.207227
O O14 0.557939 0.319055 0.104929
#
# Coordination Sequence:
#
# PCOD8146921 Si02
#       7
#     8   4   8   8   8   8   8
#     4  11  24  44  66  95 139 168 234 277 341 404
#     4  12  28  40  66 102 134 194 212 286 356 396
#     4   9  20  38  68  97 122 175 224 259 350 385
#     4  10  24  43  68  97 137 176 221 294 326 412
#     4   9  21  41  64  96 126 173 224 284 324 398
#     4  11  24  43  64  99 136 174 230 271 349 402
#     4  10  22  42  66  97 134 173 223 280 333 409
#
# _framework density 22.015146999999999
#
# number of rings (size 3 to 8) (size 9 to 14) (size 15 to 20)
#    0.000    1.846    1.538    0.462    6.462    9.231 
#    0.000    0.000    0.000    0.000    0.000    0.000 
#    0.000    0.000    0.000    0.000    0.000    0.000 
#
# Total GULP energy -322111.946526 kJ/mol
# GULP energy per Si atom -12388.921020 kJ/mol
# Density = 2.196504 g / cm^3
# Si number density = 22.015147 Si / 1000 Ang^3
#
#
#
# Elastic Constant Matrix: (Units=GPa)
#
#
# Indices 1 2 3 4 5 6 
#
# 1 78.6020 41.1820 43.6552 0.0000 4.3155 0.0000
# 2 41.1820 119.1311 55.4095 0.0000 -13.6422 0.0000
# 3 43.6552 55.4095 138.4981 0.0000 -17.7969 0.0000
# 4 0.0000 0.0000 0.0000 34.9013 0.0000 -11.8743
# 5 4.3155 -13.6422 -17.7969 0.0000 40.0586 0.0000
# 6 0.0000 0.0000 0.0000 -11.8743 0.0000 31.0975
#
#
#
# Elastic Compliance Matrix: (Units=1/GPa)
#
#
# Indices 1 2 3 4 5 6 
#
# 1 0.018023 -0.004782 -0.004482 0.000000 -0.005562 0.000000
# 2 -0.004782 0.011703 -0.002754 0.000000 0.003278 0.000000
# 3 -0.004482 -0.002754 0.010262 0.000000 0.004104 0.000000
# 4 0.000000 0.000000 0.000000 0.032930 0.000000 0.012574
# 5 -0.005562 0.003278 0.004104 0.000000 0.028502 0.000000
# 6 0.000000 0.000000 0.000000 0.012574 0.000000 0.036958
#
#
# Mechanical properties :
#
#
# Convention : Reuss Voigt Hill
#
# Bulk Modulus (GPa) = 62.68852 68.52495 65.60674
# Shear Modulus (GPa) = 29.80939 34.27712 32.04325
#
# Velocity S-wave (km/s) = 3.68372 3.95014 3.81925
# Velocity P-wave (km/s) = 6.82862 7.21101 7.02242
#
# Compressibility (1/GPa) = 0.01595188
#
# Stress axis : x y z
#
# Youngs Moduli (GPa) = 55.48567 85.44530 97.44523
#
# Poissons Ratio (x) = 0.40863 0.43677
# Poissons Ratio (y) = 0.26535 0.26833
# Poissons Ratio (z) = 0.24870 0.23529
#
# Static dielectric constant tensor:
#      x y z
#    x 3.716770 0.000000 -0.122760 
#    y 0.000000 4.393840 0.000000 
#    z -0.122760 0.000000 4.521030 
# 
# 
# High freq. dielectric constant tensor:
#      x y z
#    x 1.839330 0.000000 0.006820 
#    y 0.000000 1.885670 0.000000 
#    z 0.006820 0.000000 1.878460 
# 
# From -- ./inp_files/105486.got.cif
#   From: 2010.06.25/outbox.cif.g09.slc.cpg/sg15_53_cif.got.tgz:105486.got - 2010.06.28 07:06:18.
