data_PCOD8146180
_publ_section_title
;
Structure prediction by ZEFSAII (Michael W. Deem and Ramdas Pophale) SiO2 
 PCOD8146180
Probable space group: C 2/C
;
_chemical_formula_sum "Si O2"
_cell_formula_units_Z 52
_cell_length_a 15.961220
_cell_length_b 11.287381
_cell_length_c 22.820410
_cell_angle_alpha 90.000000
_cell_angle_beta 38.617567
_cell_angle_gamma 90.000000
_cell_volume 2565.962131
_symmetry_space_group_name_H-M "C 2/C"
_symmetry_group_IT_number 15
_symmetry_cell_setting 'monoclinic'
loop_
_space_group_symop_operation_xyz
x,y,z
-x,y,1/2-z
-x,-y,-z
x,-y,1/2+z
1/2+x,1/2+y,z
1/2-x,1/2+y,1/2-z
1/2-x,1/2-y,-z
1/2+x,1/2-y,1/2+z
loop_
_atom_site_type_symbol
_atom_site_label
_atom_site_fract_x
_atom_site_fract_y
_atom_site_fract_z
Si Si1 0.804613 0.099384 0.785705
Si Si2 0.048507 0.727834 0.138810
Si Si3 0.211104 0.389405 0.461098
Si Si4 0.315074 0.151880 0.006273
Si Si5 0.365457 0.346919 0.789675
Si Si6 0.102866 0.369806 0.298367
Si Si7 0.000000 0.528726 0.250000
O O1 0.701008 0.117132 0.896244
O O2 0.719956 0.073358 0.773499
O O3 0.900966 0.214493 0.725987
O O4 0.887229 0.980493 0.754893
O O5 0.153091 0.829465 0.093016
O O6 0.083670 0.619374 0.163720
O O7 0.075457 0.673762 0.059303
O O8 0.233637 0.518018 0.478198
O O9 0.473769 0.147569 0.910083
O O10 0.250000 0.250000 0.000000
O O11 0.267605 0.177687 0.098578
O O12 0.500000 0.308763 0.750000
O O13 0.348772 0.261513 0.743701
O O14 0.085222 0.447300 0.248435
#
# Coordination Sequence:
#
# PCOD8146180 Si02
#       7
#     8   8   8   8   8   8   4
#     4  11  25  41  65  97 132 165 212 267 321 373
#     4  11  22  41  70  93 130 170 214 262 311 385
#     4  10  22  40  68  95 124 172 219 253 317 381
#     4  11  21  39  65  90 125 166 214 258 311 379
#     4  11  23  43  66  91 128 166 214 259 320 382
#     4  12  26  41  66  97 128 170 211 269 320 375
#     4  12  22  44  64  92 128 170 218 256 318 382
#
# _framework density 20.265302999999999
#
# number of rings (size 3 to 8) (size 9 to 14) (size 15 to 20)
#    0.000    0.923    5.385    1.846    2.154    3.692 
#    0.000    0.000    0.000    3.692    0.000    0.000 
#    0.000    0.000    0.000    0.000    0.000    0.000 
#
# Total GULP energy -322112.257842 kJ/mol
# GULP energy per Si atom -12388.932994 kJ/mol
# Density = 2.021918 g / cm^3
# Si number density = 20.265303 Si / 1000 Ang^3
#
#
#
# Elastic Constant Matrix: (Units=GPa)
#
#
# Indices 1 2 3 4 5 6 
#
# 1 99.1531 43.8308 41.5135 0.0000 14.1319 0.0000
# 2 43.8308 122.3507 56.7769 0.0000 14.6071 0.0000
# 3 41.5135 56.7769 124.8535 -0.0001 12.3188 0.0000
# 4 0.0000 0.0000 -0.0001 37.8982 0.0000 10.6240
# 5 14.1319 14.6071 12.3188 0.0000 21.9650 0.0000
# 6 0.0000 0.0000 0.0000 10.6240 0.0000 25.1654
#
#
#
# Elastic Compliance Matrix: (Units=1/GPa)
#
#
# Indices 1 2 3 4 5 6 
#
# 1 0.013173 -0.002929 -0.002545 0.000000 -0.005100 0.000000
# 2 -0.002929 0.011448 -0.003881 0.000000 -0.003551 0.000000
# 3 -0.002545 -0.003881 0.010802 0.000000 -0.001840 0.000000
# 4 0.000000 0.000000 0.000000 0.029928 0.000000 -0.012635
# 5 -0.005100 -0.003551 -0.001840 0.000000 0.052202 0.000000
# 6 0.000000 0.000000 0.000000 -0.012635 0.000000 0.045071
#
#
# Mechanical properties :
#
#
# Convention : Reuss Voigt Hill
#
# Bulk Modulus (GPa) = 59.83799 70.06662 64.95231
# Shear Modulus (GPa) = 26.75158 30.62146 28.68652
#
# Velocity S-wave (km/s) = 3.63722 3.89141 3.76646
# Velocity P-wave (km/s) = 6.87245 7.40544 7.14392
#
# Compressibility (1/GPa) = 0.01671179
#
# Stress axis : x y z
#
# Youngs Moduli (GPa) = 75.91557 87.35299 92.57475
#
# Poissons Ratio (x) = 0.25588 0.23556
# Poissons Ratio (y) = 0.22238 0.35933
# Poissons Ratio (z) = 0.19317 0.33906
#
# Static dielectric constant tensor:
#      x y z
#    x 3.361190 0.000000 0.358770 
#    y 0.000000 3.970880 0.000000 
#    z 0.358770 0.000000 4.101250 
# 
# 
# High freq. dielectric constant tensor:
#      x y z
#    x 1.756780 0.000000 0.021090 
#    y 0.000000 1.814310 0.000000 
#    z 0.021090 0.000000 1.802700 
# 
# From -- ./inp_files/273812.got.cif
#   From: 2010.06.25/outbox.cif.g09.slc.cpg/sg15_137_cif.got.tgz:273812.got - 2010.06.28 07:06:18.
