data_PCOD8146177
_publ_section_title
;
Structure prediction by ZEFSAII (Michael W. Deem and Ramdas Pophale) SiO2 
 PCOD8146177
Probable space group: C 2/C
;
_chemical_formula_sum "Si O2"
_cell_formula_units_Z 52
_cell_length_a 18.082626
_cell_length_b 30.370122
_cell_length_c 5.220488
_cell_angle_alpha 90.000000
_cell_angle_beta 121.806609
_cell_angle_gamma 90.000000
_cell_volume 2436.420075
_symmetry_space_group_name_H-M "C 2/C"
_symmetry_group_IT_number 15
_symmetry_cell_setting 'monoclinic'
loop_
_space_group_symop_operation_xyz
x,y,z
-x,y,1/2-z
-x,-y,-z
x,-y,1/2+z
1/2+x,1/2+y,z
1/2-x,1/2+y,1/2-z
1/2-x,1/2-y,-z
1/2+x,1/2-y,1/2+z
loop_
_atom_site_type_symbol
_atom_site_label
_atom_site_fract_x
_atom_site_fract_y
_atom_site_fract_z
Si Si1 0.900451 0.090678 0.028292
Si Si2 0.697618 0.263029 0.655150
Si Si3 0.500000 0.132708 0.750000
Si Si4 0.156671 0.392111 0.833895
Si Si5 0.170947 0.134023 0.091758
Si Si6 0.753747 0.472017 0.275494
Si Si7 0.407616 0.182189 0.970148
O O1 0.867711 0.116981 0.214828
O O2 0.000000 0.076701 0.250000
O O3 0.890599 0.121222 0.759242
O O4 0.844466 0.046519 0.884155
O O5 0.750000 0.250000 0.500000
O O6 0.672761 0.313512 0.610235
O O7 0.610722 0.233544 0.522466
O O8 0.750000 0.250000 0.000000
O O9 0.441949 0.101827 0.456961
O O10 0.578365 0.165182 0.794012
O O11 0.233176 0.387554 0.762659
O O12 0.164662 0.347912 0.022275
O O13 0.175314 0.433688 0.050503
O O14 0.768234 0.508830 0.519029
O O15 0.500000 0.169479 0.250000
#
# Coordination Sequence:
#
# PCOD8146177 Si02
#       7
#     8   8   4   8   8   8   8
#     4  11  25  45  69  99 136 178 217 267 341 403
#     4  12  24  40  65  96 132 176 228 269 315 375
#     4  10  22  40  68  94 128 184 218 274 326 398
#     4  10  22  41  68  91 134 170 226 265 337 394
#     4  11  23  41  69  98 136 182 224 273 323 390
#     4  11  25  43  70 102 128 166 215 278 334 402
#     4  10  23  40  63  95 128 176 224 272 320 378
#
# _framework density 21.342790999999998
#
# number of rings (size 3 to 8) (size 9 to 14) (size 15 to 20)
#    0.000    1.231    1.538    4.154   10.769    1.846 
#    1.385    0.769    0.000    0.000    0.000    0.000 
#    0.000    0.000    0.000    0.000    0.000    0.000 
#
# Total GULP energy -322261.016603 kJ/mol
# GULP energy per Si atom -12394.654485 kJ/mol
# Density = 2.129421 g / cm^3
# Si number density = 21.342791 Si / 1000 Ang^3
#
#
#
# Elastic Constant Matrix: (Units=GPa)
#
#
# Indices 1 2 3 4 5 6 
#
# 1 65.3314 15.7044 34.4380 0.0000 6.0317 0.0000
# 2 15.7044 102.2389 34.6046 0.0000 5.3509 0.0000
# 3 34.4380 34.6046 115.4680 0.0000 -0.3461 0.0000
# 4 0.0000 0.0000 0.0000 30.6417 0.0000 -2.7590
# 5 6.0317 5.3509 -0.3461 0.0000 40.6850 0.0000
# 6 0.0000 0.0000 0.0000 -2.7590 0.0000 31.9443
#
#
#
# Elastic Compliance Matrix: (Units=1/GPa)
#
#
# Indices 1 2 3 4 5 6 
#
# 1 0.018550 -0.000928 -0.005262 0.000000 -0.002673 0.000000
# 2 -0.000928 0.011019 -0.003029 0.000000 -0.001337 0.000000
# 3 -0.005262 -0.003029 0.011142 0.000000 0.001273 0.000000
# 4 0.000000 0.000000 0.000000 0.032891 0.000000 0.002841
# 5 -0.002673 -0.001337 0.001273 0.000000 0.025162 0.000000
# 6 0.000000 0.000000 0.000000 0.002841 0.000000 0.031550
#
#
# Mechanical properties :
#
#
# Convention : Reuss Voigt Hill
#
# Bulk Modulus (GPa) = 44.90214 50.28136 47.59175
# Shear Modulus (GPa) = 32.01479 33.87363 32.94421
#
# Velocity S-wave (km/s) = 3.87722 3.98819 3.93310
# Velocity P-wave (km/s) = 6.41311 6.69460 6.55537
#
# Compressibility (1/GPa) = 0.02227065
#
# Stress axis : x y z
#
# Youngs Moduli (GPa) = 53.90704 90.75264 89.75378
#
# Poissons Ratio (x) = 0.08425 0.47232
# Poissons Ratio (y) = 0.05005 0.27190
# Poissons Ratio (z) = 0.28368 0.27493
#
# Static dielectric constant tensor:
#      x y z
#    x 4.323410 0.000000 -0.696580 
#    y 0.000000 3.718730 0.000000 
#    z -0.696580 0.000000 4.781220 
# 
# 
# High freq. dielectric constant tensor:
#      x y z
#    x 1.835150 0.000000 -0.010410 
#    y 0.000000 1.831160 0.000000 
#    z -0.010410 0.000000 1.854590 
# 
# From -- ./inp_files/11635.got.cif
#   From: 2010.06.25/outbox.cif.g09.slc.cpg/sg15_6_cif.got.tgz:11635.got - 2010.06.28 07:06:18.
