data_PCOD8146677
_publ_section_title
;
Structure prediction by ZEFSAII (Michael W. Deem and Ramdas Pophale) SiO2 
 PCOD8146677
Probable space group: C 2/C
;
_chemical_formula_sum "Si O2"
_cell_formula_units_Z 56
_cell_length_a 10.403952
_cell_length_b 8.896603
_cell_length_c 31.605239
_cell_angle_alpha 90.000000
_cell_angle_beta 109.311694
_cell_angle_gamma 90.000000
_cell_volume 2760.774848
_symmetry_space_group_name_H-M "C 2/C"
_symmetry_group_IT_number 15
_symmetry_cell_setting 'monoclinic'
loop_
_space_group_symop_operation_xyz
x,y,z
-x,y,1/2-z
-x,-y,-z
x,-y,1/2+z
1/2+x,1/2+y,z
1/2-x,1/2+y,1/2-z
1/2-x,1/2-y,-z
1/2+x,1/2-y,1/2+z
loop_
_atom_site_type_symbol
_atom_site_label
_atom_site_fract_x
_atom_site_fract_y
_atom_site_fract_z
Si Si1 0.500000 0.013592 0.750000
Si Si2 0.657612 0.187452 0.397482
Si Si3 0.500000 0.511256 0.750000
Si Si4 0.326361 0.167004 0.593355
Si Si5 0.835561 0.238965 0.185923
Si Si6 0.443804 0.761714 0.806899
Si Si7 0.039755 0.311322 0.548772
Si Si8 0.939834 0.660946 0.945681
O O1 0.426959 0.910669 0.776883
O O2 0.614989 0.115290 0.783619
O O3 0.588580 0.241083 0.346279
O O4 0.566958 0.242391 0.427266
O O5 0.804982 0.261313 0.413826
O O6 0.672671 0.009522 0.398651
O O7 0.607441 0.411276 0.786917
O O8 0.422934 0.615885 0.775362
O O9 0.375723 0.252549 0.641090
O O10 0.174671 0.211221 0.563394
O O11 0.431473 0.213569 0.568193
O O12 0.672306 0.234672 0.170155
O O13 0.082905 0.483248 0.560280
O O14 0.964546 0.287114 0.496157
#
# Coordination Sequence:
#
# PCOD8146677 Si02
#       8
#     4   8   4   8   8   8   8   8
#     4  10  22  42  60  86 122 158 196 260 302 358
#     4  11  23  39  64  94 125 163 204 253 305 363
#     4  10  26  38  62  92 114 164 206 248 304 362
#     4  11  23  39  64  93 126 162 203 254 304 365
#     4  11  22  42  62  89 122 160 202 249 307 360
#     4  11  22  41  61  90 122 157 205 251 303 361
#     4  10  22  44  64  89 127 163 205 253 306 359
#     4  10  24  41  64  94 124 163 204 253 305 366
#
# _framework density 20.284161000000001
#
# number of rings (size 3 to 8) (size 9 to 14) (size 15 to 20)
#    0.000    1.429    2.857    1.714    2.000    2.857 
#   10.286    0.000    0.000    0.000    0.000    0.000 
#    0.000    0.000    0.000    0.000    0.000    0.000 
#
# Total GULP energy -347342.128034 kJ/mol
# GULP energy per Si atom -12405.076001 kJ/mol
# Density = 2.023799 g / cm^3
# Si number density = 20.284161 Si / 1000 Ang^3
#
#
#
# Elastic Constant Matrix: (Units=GPa)
#
#
# Indices 1 2 3 4 5 6 
#
# 1 92.8748 25.0642 5.7968 0.0000 -0.4970 0.0000
# 2 25.0642 81.9354 25.2669 0.0000 1.8039 0.0000
# 3 5.7968 25.2669 74.7628 0.0000 -1.7239 0.0000
# 4 0.0000 0.0000 0.0000 15.1920 0.0000 8.5693
# 5 -0.4970 1.8039 -1.7239 0.0000 40.1031 0.0000
# 6 0.0000 0.0000 0.0000 8.5693 0.0000 22.7512
#
#
#
# Elastic Compliance Matrix: (Units=1/GPa)
#
#
# Indices 1 2 3 4 5 6 
#
# 1 0.011748 -0.003709 0.000350 0.000000 0.000327 0.000000
# 2 -0.003709 0.014822 -0.004743 0.000000 -0.000917 0.000000
# 3 0.000350 -0.004743 0.014971 0.000000 0.000861 0.000000
# 4 0.000000 0.000000 0.000000 0.083582 0.000000 -0.031481
# 5 0.000327 -0.000917 0.000861 0.000000 0.025018 0.000000
# 6 0.000000 0.000000 0.000000 -0.031481 0.000000 0.055811
#
#
# Mechanical properties :
#
#
# Convention : Reuss Voigt Hill
#
# Bulk Modulus (GPa) = 39.46633 40.20320 39.83476
# Shear Modulus (GPa) = 21.68244 28.50560 25.09402
#
# Velocity S-wave (km/s) = 3.27300 3.75282 3.52109
# Velocity P-wave (km/s) = 5.81226 6.21621 6.01762
#
# Compressibility (1/GPa) = 0.02533805
#
# Stress axis : x y z
#
# Youngs Moduli (GPa) = 85.12080 67.46696 66.79475
#
# Poissons Ratio (x) = 0.25023 -0.02339
# Poissons Ratio (y) = 0.31571 0.31680
# Poissons Ratio (z) = -0.02980 0.31999
#
# Static dielectric constant tensor:
#      x y z
#    x 3.603210 0.000000 -0.110160 
#    y 0.000000 3.708010 0.000000 
#    z -0.110160 0.000000 3.800000 
# 
# 
# High freq. dielectric constant tensor:
#      x y z
#    x 1.792750 0.000000 -0.002890 
#    y 0.000000 1.792350 0.000000 
#    z -0.002890 0.000000 1.809200 
# 
# From -- ./inp_files/309951.got.cif
#   From: 2010.06.25/outbox.cif.g09.slc.cpg/sg15_155_cif.got.tgz:309951.got - 2010.06.28 07:06:18.
