data_PCOD8146179
_publ_section_title
;
Structure prediction by ZEFSAII (Michael W. Deem and Ramdas Pophale) SiO2 
 PCOD8146179
Probable space group: C 2/C
;
_chemical_formula_sum "Si O2"
_cell_formula_units_Z 52
_cell_length_a 18.645200
_cell_length_b 13.255690
_cell_length_c 19.104781
_cell_angle_alpha 90.000000
_cell_angle_beta 30.888421
_cell_angle_gamma 90.000000
_cell_volume 2424.041789
_symmetry_space_group_name_H-M "C 2/C"
_symmetry_group_IT_number 15
_symmetry_cell_setting 'monoclinic'
loop_
_space_group_symop_operation_xyz
x,y,z
-x,y,1/2-z
-x,-y,-z
x,-y,1/2+z
1/2+x,1/2+y,z
1/2-x,1/2+y,1/2-z
1/2-x,1/2-y,-z
1/2+x,1/2-y,1/2+z
loop_
_atom_site_type_symbol
_atom_site_label
_atom_site_fract_x
_atom_site_fract_y
_atom_site_fract_z
Si Si1 0.398705 0.134291 0.062478
Si Si2 0.170129 0.805160 0.004820
Si Si3 0.635340 0.731813 0.777895
Si Si4 0.363861 0.737321 0.464765
Si Si5 0.700923 0.939201 0.290661
Si Si6 0.500000 0.866641 0.250000
Si Si7 0.769444 0.969993 0.075423
O O1 0.395364 0.181045 0.141660
O O2 0.321057 0.027133 0.133477
O O3 0.318462 0.204735 0.073831
O O4 0.558168 0.123654 0.903293
O O5 0.235109 0.764624 0.878406
O O6 0.181873 0.925985 0.999566
O O7 0.250000 0.750000 0.000000
O O8 0.006025 0.780948 0.148324
O O9 0.672895 0.628891 0.786576
O O10 0.250000 0.750000 0.500000
O O11 0.499114 0.793256 0.319240
O O12 0.384726 0.618869 0.465744
O O13 0.742746 0.983932 0.180236
O O14 0.631446 0.939284 0.148360
#
# Coordination Sequence:
#
# PCOD8146179 Si02
#       7
#     8   8   8   8   8   4   8
#     4  11  22  42  71 103 142 183 236 288 349 429
#     4  12  29  49  70 103 145 189 243 301 356 432
#     4  12  25  47  71 105 140 187 240 297 357 418
#     4  10  22  41  65 101 136 177 230 291 348 419
#     4  11  23  41  73 105 136 185 241 286 354 427
#     4  10  22  40  68  94 138 184 232 282 366 432
#     4  11  23  42  69 101 134 188 233 293 358 422
#
# _framework density 21.451775999999999
#
# number of rings (size 3 to 8) (size 9 to 14) (size 15 to 20)
#    0.000    0.923    6.154    0.462    2.154    3.077 
#   11.077    0.000    0.000    0.000    0.000    0.000 
#    0.000    0.000    0.000    0.000    0.000    0.000 
#
# Total GULP energy -322375.191229 kJ/mol
# GULP energy per Si atom -12399.045816 kJ/mol
# Density = 2.140295 g / cm^3
# Si number density = 21.451776 Si / 1000 Ang^3
#
#
#
# Elastic Constant Matrix: (Units=GPa)
#
#
# Indices 1 2 3 4 5 6 
#
# 1 88.6871 40.3821 9.0054 -0.0012 1.8145 0.0006
# 2 40.3821 131.4857 21.2354 -0.0016 3.3026 0.0009
# 3 9.0054 21.2354 49.0656 -0.0045 -1.4476 0.0024
# 4 -0.0012 -0.0016 -0.0045 34.4453 0.0017 5.4757
# 5 1.8145 3.3026 -1.4476 0.0017 38.3939 -0.0007
# 6 0.0006 0.0009 0.0024 5.4757 -0.0007 37.5768
#
#
#
# Elastic Compliance Matrix: (Units=1/GPa)
#
#
# Indices 1 2 3 4 5 6 
#
# 1 0.013136 -0.003909 -0.000728 0.000000 -0.000312 0.000000
# 2 -0.003909 0.009367 -0.003359 0.000000 -0.000748 0.000000
# 3 -0.000728 -0.003359 0.022002 0.000003 0.001153 -0.000002
# 4 0.000000 0.000000 0.000003 0.029720 -0.000001 -0.004331
# 5 -0.000312 -0.000748 0.001153 -0.000001 0.026168 0.000001
# 6 0.000000 0.000000 -0.000002 -0.004331 0.000001 0.027243
#
#
# Mechanical properties :
#
#
# Convention : Reuss Voigt Hill
#
# Bulk Modulus (GPa) = 35.07137 45.60936 40.34037
# Shear Modulus (GPa) = 32.65139 35.32423 33.98781
#
# Velocity S-wave (km/s) = 3.90562 4.06233 3.98475
# Velocity P-wave (km/s) = 6.05994 6.58110 6.32589
#
# Compressibility (1/GPa) = 0.02851329
#
# Stress axis : x y z
#
# Youngs Moduli (GPa) = 76.12814 106.75680 45.44994
#
# Poissons Ratio (x) = 0.41729 0.03311
# Poissons Ratio (y) = 0.29757 0.15265
# Poissons Ratio (z) = 0.05545 0.35856
#
# Static dielectric constant tensor:
#      x y z
#    x 3.712860 0.000000 0.187850 
#    y 0.000000 4.121010 0.000010 
#    z 0.187850 0.000010 4.259140 
# 
# 
# High freq. dielectric constant tensor:
#      x y z
#    x 1.840420 0.000000 0.012420 
#    y 0.000000 1.853250 0.000000 
#    z 0.012420 0.000000 1.836310 
# 
# From -- ./inp_files/252725.got.cif
#   From: 2010.06.25/outbox.cif.g09.slc.cpg/sg15_127_cif.got.tgz:252725.got - 2010.06.28 07:06:18.
