data_PCOD8146496
_publ_section_title
;
Structure prediction by ZEFSAII (Michael W. Deem and Ramdas Pophale) SiO2 
 PCOD8146496
Probable space group: C 2/C
;
_chemical_formula_sum "Si O2"
_cell_formula_units_Z 64
_cell_length_a 30.331840
_cell_length_b 11.132263
_cell_length_c 22.404541
_cell_angle_alpha 90.000000
_cell_angle_beta 25.209763
_cell_angle_gamma 90.000000
_cell_volume 3222.255907
_symmetry_space_group_name_H-M "C 2/C"
_symmetry_group_IT_number 15
_symmetry_cell_setting 'monoclinic'
loop_
_space_group_symop_operation_xyz
x,y,z
-x,y,1/2-z
-x,-y,-z
x,-y,1/2+z
1/2+x,1/2+y,z
1/2-x,1/2+y,1/2-z
1/2-x,1/2-y,-z
1/2+x,1/2-y,1/2+z
loop_
_atom_site_type_symbol
_atom_site_label
_atom_site_fract_x
_atom_site_fract_y
_atom_site_fract_z
Si Si1 0.893033 0.961392 0.194960
Si Si2 0.117538 0.030901 0.924410
Si Si3 0.712098 0.112769 0.212639
Si Si4 0.111847 0.415576 0.261495
Si Si5 0.254280 0.798176 0.061527
Si Si6 0.117740 0.476296 0.121425
Si Si7 0.260795 0.319676 0.873093
Si Si8 0.889971 0.294988 0.548008
O O1 0.843655 0.938893 0.190007
O O2 0.853566 0.862941 0.290410
O O3 0.860867 0.095120 0.253897
O O4 0.016298 0.947469 0.043536
O O5 0.089771 0.155378 0.991239
O O6 0.200690 0.959860 0.859941
O O7 0.769567 0.191666 0.091008
O O8 0.647089 0.193324 0.338222
O O9 0.628663 0.019427 0.289126
O O10 0.133060 0.481142 0.173185
O O11 0.198472 0.314103 0.166221
O O12 0.994646 0.368801 0.408503
O O13 0.250000 0.750000 0.000000
O O14 0.344134 0.899374 0.956076
O O15 0.000000 0.454873 0.250000
O O16 0.180131 0.359407 0.022701
O O17 0.202825 0.338017 0.880969
#
# Coordination Sequence:
#
# PCOD8146496 Si02
#       8
#     8   8   8   8   8   8   8   8
#     4  10  22  41  66  95 126 176 216 258 332 390
#     4  11  22  40  66  95 133 169 214 270 327 393
#     4  12  25  42  65 102 131 170 220 275 328 391
#     4  12  24  43  67  96 133 171 221 274 325 395
#     4  11  24  44  66  91 135 176 220 273 324 397
#     4  11  24  43  67  92 129 177 221 267 333 398
#     4  11  22  40  68  94 128 171 215 270 328 392
#     4  12  23  41  64 101 135 163 216 272 335 388
#
# _framework density 19.86186
#
# number of rings (size 3 to 8) (size 9 to 14) (size 15 to 20)
#    0.000    0.750    7.500    0.750    0.000    1.000 
#    0.000    0.000    2.750    0.000    0.000    0.000 
#    0.000    0.000    0.000    0.000    0.000    0.000 
#
# Total GULP energy -396807.937520 kJ/mol
# GULP energy per Si atom -12400.248048 kJ/mol
# Density = 1.981665 g / cm^3
# Si number density = 19.861860 Si / 1000 Ang^3
#
#
#
# Elastic Constant Matrix: (Units=GPa)
#
#
# Indices 1 2 3 4 5 6 
#
# 1 107.1007 36.1744 40.7659 0.0002 7.3553 0.0000
# 2 36.1744 101.4375 34.1704 -0.0001 1.4390 0.0000
# 3 40.7659 34.1704 95.0869 -0.0001 6.0940 0.0001
# 4 0.0002 -0.0001 -0.0001 20.5342 -0.0001 14.5639
# 5 7.3553 1.4390 6.0940 -0.0001 34.5812 0.0000
# 6 0.0000 0.0000 0.0001 14.5639 0.0000 24.1272
#
#
#
# Elastic Compliance Matrix: (Units=1/GPa)
#
#
# Indices 1 2 3 4 5 6 
#
# 1 0.011945 -0.002898 -0.003969 0.000000 -0.001721 0.000000
# 2 -0.002898 0.011921 -0.003084 0.000000 0.000664 0.000000
# 3 -0.003969 -0.003084 0.013416 0.000000 -0.001392 0.000000
# 4 0.000000 0.000000 0.000000 0.085157 0.000000 -0.051403
# 5 -0.001721 0.000664 -0.001392 0.000000 0.029501 0.000000
# 6 0.000000 0.000000 0.000000 -0.051403 0.000000 0.072475
#
#
# Mechanical properties :
#
#
# Convention : Reuss Voigt Hill
#
# Bulk Modulus (GPa) = 57.54077 58.42739 57.98408
# Shear Modulus (GPa) = 19.99106 28.68281 24.33693
#
# Velocity S-wave (km/s) = 3.17599 3.80427 3.50424
# Velocity P-wave (km/s) = 6.51787 6.98408 6.75500
#
# Compressibility (1/GPa) = 0.01737898
#
# Stress axis : x y z
#
# Youngs Moduli (GPa) = 83.71751 83.88328 74.53856
#
# Poissons Ratio (x) = 0.24312 0.29586
# Poissons Ratio (y) = 0.24264 0.22988
# Poissons Ratio (z) = 0.33230 0.25870
#
# Static dielectric constant tensor:
#      x y z
#    x 3.635620 0.000000 0.178220 
#    y 0.000000 3.653610 0.000000 
#    z 0.178220 0.000000 3.579420 
# 
# 
# High freq. dielectric constant tensor:
#      x y z
#    x 1.775100 0.000000 0.006510 
#    y 0.000000 1.783370 0.000000 
#    z 0.006510 0.000000 1.775310 
# 
# From -- ./inp_files/257502.got.cif
#   From: 2010.06.25/outbox.cif.g09.slc.cpg/sg15_129_cif.got.tgz:257502.got - 2010.06.28 07:06:18.
