data_PCOD8146269
_publ_section_title
;
Structure prediction by ZEFSAII (Michael W. Deem and Ramdas Pophale) SiO2 
 PCOD8146269
Probable space group: C 2/C
;
_chemical_formula_sum "Si O2"
_cell_formula_units_Z 48
_cell_length_a 18.665785
_cell_length_b 15.810702
_cell_length_c 16.586070
_cell_angle_alpha 90.000000
_cell_angle_beta 26.354764
_cell_angle_gamma 90.000000
_cell_volume 2172.967888
_symmetry_space_group_name_H-M "C 2/C"
_symmetry_group_IT_number 15
_symmetry_cell_setting 'monoclinic'
loop_
_space_group_symop_operation_xyz
x,y,z
-x,y,1/2-z
-x,-y,-z
x,-y,1/2+z
1/2+x,1/2+y,z
1/2-x,1/2+y,1/2-z
1/2-x,1/2-y,-z
1/2+x,1/2-y,1/2+z
loop_
_atom_site_type_symbol
_atom_site_label
_atom_site_fract_x
_atom_site_fract_y
_atom_site_fract_z
Si Si1 0.217904 0.169054 0.426206
Si Si2 0.839894 0.097171 0.358625
Si Si3 0.500000 0.210446 0.250000
Si Si4 0.464439 0.454401 0.119626
Si Si5 0.813227 0.800336 0.201206
Si Si6 0.000000 0.635529 0.750000
Si Si7 0.422914 0.754064 0.181910
O O1 0.366664 0.152834 0.338230
O O2 0.282763 0.213340 0.279851
O O3 0.084856 0.230567 0.598666
O O4 0.131699 0.080307 0.490546
O O5 0.670555 0.083094 0.579003
O O6 0.812236 0.182089 0.334498
O O7 0.000000 0.113038 0.250000
O O8 0.871516 0.015277 0.273588
O O9 0.336394 0.378267 0.238390
O O10 0.500000 0.500000 0.000000
O O11 0.677009 0.819470 0.272357
O O12 0.970964 0.795981 0.988527
O O13 0.984626 0.692453 0.844836
#
# Coordination Sequence:
#
# PCOD8146269 Si02
#       7
#     8   8   4   8   8   4   8
#     4  11  22  43  72 106 135 191 249 298 362 440
#     4  12  26  46  72 110 150 188 237 304 381 437
#     4  10  22  40  74 104 130 182 254 298 342 429
#     4  12  26  44  69 103 149 191 231 306 384 427
#     4  12  22  42  72 105 133 189 248 295 353 439
#     4  12  26  46  76 112 142 200 246 302 364 449
#     4  12  22  43  76 104 140 186 253 297 349 449
#
# _framework density 22.089604999999999
#
# number of rings (size 3 to 8) (size 9 to 14) (size 15 to 20)
#    0.000    0.333    7.500    1.500    1.167    0.000 
#    0.000    5.833    0.000    0.000    0.000    0.000 
#    0.000    0.000    0.000    0.000    0.000    0.000 
#
# Total GULP energy -297463.054985 kJ/mol
# GULP energy per Si atom -12394.293958 kJ/mol
# Density = 2.203933 g / cm^3
# Si number density = 22.089605 Si / 1000 Ang^3
#
#
#
# Elastic Constant Matrix: (Units=GPa)
#
#
# Indices 1 2 3 4 5 6 
#
# 1 149.2987 54.7637 44.2220 0.0045 -22.4658 0.0008
# 2 54.7637 92.7107 46.1433 -0.0323 -10.8485 -0.0401
# 3 44.2220 46.1433 142.2339 -0.0262 -14.2104 -0.0363
# 4 0.0045 -0.0323 -0.0262 -64.2352 0.0075 -72.0588
# 5 -22.4658 -10.8485 -14.2104 0.0075 42.9476 0.0153
# 6 0.0008 -0.0401 -0.0363 -72.0588 0.0153 -24.2089
#
#
#
# Elastic Compliance Matrix: (Units=1/GPa)
#
#
# Indices 1 2 3 4 5 6 
#
# 1 0.009158 -0.004496 -0.001059 0.000004 0.003305 0.000000
# 2 -0.004496 0.015227 -0.003509 -0.000007 0.000334 0.000000
# 3 -0.001059 -0.003509 0.008640 -0.000002 0.001419 0.000001
# 4 0.000004 -0.000007 -0.000002 0.006656 0.000005 -0.019811
# 5 0.003305 0.000334 0.001419 0.000005 0.025566 -0.000003
# 6 0.000000 0.000000 0.000001 -0.019811 -0.000003 0.017660
#
#
# Mechanical properties :
#
#
# Convention : Reuss Voigt Hill
#
# Bulk Modulus (GPa) = 67.12144 74.94461 71.03302
# Shear Modulus (GPa) = 47.16983 6.84164 27.00573
#
# Velocity S-wave (km/s) = 4.62604 1.76180 3.50030
# Velocity P-wave (km/s) = 7.68021 6.17574 6.96869
#
# Compressibility (1/GPa) = 0.01489837
#
# Stress axis : x y z
#
# Youngs Moduli (GPa) = 109.19484 65.67083 115.74241
#
# Poissons Ratio (x) = 0.29526 0.12252
# Poissons Ratio (y) = 0.49094 0.40613
# Poissons Ratio (z) = 0.11559 0.23043
#
# Static dielectric constant tensor:
#      x y z
#    x 4.284350 0.000010 0.119980 
#    y 0.000010 3.720300 0.000010 
#    z 0.119980 0.000010 3.999270 
# 
# 
# High freq. dielectric constant tensor:
#      x y z
#    x 1.892810 0.000000 0.001670 
#    y 0.000000 1.835920 0.000000 
#    z 0.001670 0.000000 1.880250 
# 
# From -- ./inp_files/48399.got.cif
#   From: 2010.06.25/outbox.cif.g09.slc.cpg/sg15_25_cif.got.tgz:48399.got - 2010.06.28 07:06:18.
