data_PCOD8146569
_publ_section_title
;
Structure prediction by ZEFSAII (Michael W. Deem and Ramdas Pophale) SiO2 
 PCOD8146569
Probable space group: C 2/C
;
_chemical_formula_sum "Si O2"
_cell_formula_units_Z 48
_cell_length_a 11.553771
_cell_length_b 21.751148
_cell_length_c 9.151389
_cell_angle_alpha 90.000000
_cell_angle_beta 80.883700
_cell_angle_gamma 90.000000
_cell_volume 2270.765791
_symmetry_space_group_name_H-M "C 2/C"
_symmetry_group_IT_number 15
_symmetry_cell_setting 'monoclinic'
loop_
_space_group_symop_operation_xyz
x,y,z
-x,y,1/2-z
-x,-y,-z
x,-y,1/2+z
1/2+x,1/2+y,z
1/2-x,1/2+y,1/2-z
1/2-x,1/2-y,-z
1/2+x,1/2-y,1/2+z
loop_
_atom_site_type_symbol
_atom_site_label
_atom_site_fract_x
_atom_site_fract_y
_atom_site_fract_z
Si Si1 0.483538 0.903329 0.079531
Si Si2 0.246178 0.555048 0.025812
Si Si3 0.793900 0.563023 0.126256
Si Si4 0.583895 0.218599 0.610071
Si Si5 0.816792 0.160811 0.533465
Si Si6 0.993442 0.062948 0.915137
O O1 0.500000 0.916760 0.250000
O O2 0.508289 0.831851 0.037274
O O3 0.351768 0.915643 0.057471
O O4 0.573277 0.942914 0.962538
O O5 0.205284 0.550426 0.201616
O O6 0.277106 0.487943 0.952203
O O7 0.367828 0.593540 0.985825
O O8 0.733173 0.629028 0.105335
O O9 0.500000 0.245947 0.750000
O O10 0.700318 0.181831 0.647985
O O11 0.614479 0.276266 0.505093
O O12 0.902359 0.112681 0.592640
O O13 0.000000 0.040406 0.750000
O O14 0.000000 0.000000 0.000000
#
# Coordination Sequence:
#
# PCOD8146569 Si02
#       6
#     8   8   8   8   8   8
#     4  10  22  41  68  95 132 173 219 270 321 385
#     4  12  24  39  64 100 130 176 211 267 332 387
#     4  11  23  39  66  95 138 167 219 267 322 402
#     4   9  21  41  72  89 129 175 222 267 324 385
#     4  10  23  43  65 100 126 178 220 266 326 389
#     4  12  27  42  66  96 139 170 219 271 330 400
#
# _framework density 21.138244
#
# number of rings (size 3 to 8) (size 9 to 14) (size 15 to 20)
#    0.000    1.333    1.667    3.000    9.333    0.000 
#    0.000    5.833    0.000    0.000    0.000    0.000 
#    0.000    0.000    0.000    0.000    0.000    0.000 
#
# Total GULP energy -297326.982970 kJ/mol
# GULP energy per Si atom -12388.624290 kJ/mol
# Density = 2.109013 g / cm^3
# Si number density = 21.138244 Si / 1000 Ang^3
#
#
#
# Elastic Constant Matrix: (Units=GPa)
#
#
# Indices 1 2 3 4 5 6 
#
# 1 141.7396 46.3149 53.5303 0.0000 -10.2184 0.0000
# 2 46.3149 90.1910 37.7898 0.0000 -1.8696 0.0000
# 3 53.5303 37.7898 152.7553 0.0000 -0.8888 0.0000
# 4 0.0000 0.0000 0.0000 14.2122 0.0000 -8.8784
# 5 -10.2184 -1.8696 -0.8888 0.0000 32.8425 0.0000
# 6 0.0000 0.0000 0.0000 -8.8784 0.0000 28.1786
#
#
#
# Elastic Compliance Matrix: (Units=1/GPa)
#
#
# Indices 1 2 3 4 5 6 
#
# 1 0.009359 -0.003775 -0.002330 0.000000 0.002634 0.000000
# 2 -0.003775 0.013905 -0.002120 0.000000 -0.000440 0.000000
# 3 -0.002330 -0.002120 0.007884 0.000000 -0.000632 0.000000
# 4 0.000000 0.000000 0.000000 0.087606 0.000000 0.027603
# 5 0.002634 -0.000440 -0.000632 0.000000 0.031226 0.000000
# 6 0.000000 0.000000 0.000000 0.027603 0.000000 0.044185
#
#
# Mechanical properties :
#
#
# Convention : Reuss Voigt Hill
#
# Bulk Modulus (GPa) = 68.03808 73.32843 70.68325
# Shear Modulus (GPa) = 23.20048 31.51670 27.35859
#
# Velocity S-wave (km/s) = 3.31654 3.86551 3.60150
# Velocity P-wave (km/s) = 6.85003 7.39514 7.12780
#
# Compressibility (1/GPa) = 0.01469765
#
# Stress axis : x y z
#
# Youngs Moduli (GPa) = 106.85307 71.91640 126.84295
#
# Poissons Ratio (x) = 0.27147 0.29559
# Poissons Ratio (y) = 0.40335 0.26887
# Poissons Ratio (z) = 0.24901 0.15244
#
# Static dielectric constant tensor:
#      x y z
#    x 4.412770 0.000000 -0.386330 
#    y 0.000000 3.835170 0.000000 
#    z -0.386330 0.000000 3.626140 
# 
# 
# High freq. dielectric constant tensor:
#      x y z
#    x 1.852230 0.000000 -0.024950 
#    y 0.000000 1.823520 0.000000 
#    z -0.024950 0.000000 1.808520 
# 
# From -- ./inp_files/31922.got.cif
#   From: 2010.06.25/outbox.cif.g09.slc.cpg/sg15_16_cif.got.tgz:31922.got - 2010.06.28 07:06:18.
