data_PCOD8146048
_publ_section_title
;
Structure prediction by ZEFSAII (Michael W. Deem and Ramdas Pophale) SiO2 
 PCOD8146048
Probable space group: C 2/C
;
_chemical_formula_sum "Si O2"
_cell_formula_units_Z 44
_cell_length_a 18.707622
_cell_length_b 14.792134
_cell_length_c 20.801543
_cell_angle_alpha 90.000000
_cell_angle_beta 20.753955
_cell_angle_gamma 90.000000
_cell_volume 2039.784346
_symmetry_space_group_name_H-M "C 2/C"
_symmetry_group_IT_number 15
_symmetry_cell_setting 'monoclinic'
loop_
_space_group_symop_operation_xyz
x,y,z
-x,y,1/2-z
-x,-y,-z
x,-y,1/2+z
1/2+x,1/2+y,z
1/2-x,1/2+y,1/2-z
1/2-x,1/2-y,-z
1/2+x,1/2-y,1/2+z
loop_
_atom_site_type_symbol
_atom_site_label
_atom_site_fract_x
_atom_site_fract_y
_atom_site_fract_z
Si Si1 0.328489 0.851737 0.730596
Si Si2 0.292310 0.965235 0.094933
Si Si3 0.500000 0.614757 0.750000
Si Si4 0.632793 0.652600 0.262406
Si Si5 0.981750 0.835025 0.402009
Si Si6 0.795053 0.691964 0.900170
O O1 0.472675 0.938422 0.598510
O O2 0.171957 0.834056 0.804829
O O3 0.207315 0.869789 0.897978
O O4 0.470385 0.764628 0.613875
O O5 0.192950 0.945862 0.108644
O O6 0.166095 0.907027 0.254541
O O7 0.277131 0.072114 0.118045
O O8 0.574149 0.674224 0.626783
O O9 0.394923 0.626121 0.453869
O O10 0.678356 0.743851 0.184714
O O11 0.000000 0.638630 0.750000
O O12 0.750000 0.750000 0.000000
#
# Coordination Sequence:
#
# PCOD8146048 Si02
#       6
#     8   8   4   8   8   8
#     4  12  22  41  66  98 134 182 215 273 340 397
#     4  10  24  42  65  94 137 170 226 284 318 406
#     4   8  22  42  60  96 128 176 210 296 302 402
#     4  11  23  43  65  97 136 169 228 277 334 401
#     4  10  22  40  65  96 131 176 225 265 335 397
#     4   9  21  39  65  91 124 173 217 274 329 391
#
# _framework density 21.570907999999999
#
# number of rings (size 3 to 8) (size 9 to 14) (size 15 to 20)
#    1.091    0.727    1.818    1.636    3.818    4.364 
#    6.545    0.000    0.000    0.000    0.000    0.000 
#    0.000    0.000    0.000    0.000    0.000    0.000 
#
# Total GULP energy -272587.219463 kJ/mol
# GULP energy per Si atom -12390.328157 kJ/mol
# Density = 2.152181 g / cm^3
# Si number density = 21.570908 Si / 1000 Ang^3
#
#
#
# Elastic Constant Matrix: (Units=GPa)
#
#
# Indices 1 2 3 4 5 6 
#
# 1 134.1046 19.5893 47.9325 0.0033 -4.4864 -0.0118
# 2 19.5893 62.8527 23.7759 0.0908 5.6489 -0.0736
# 3 47.9325 23.7759 143.7610 0.1166 7.6901 -0.0718
# 4 0.0033 0.0908 0.1166 26.8587 -0.0705 -3.0166
# 5 -4.4864 5.6489 7.6901 -0.0705 19.6510 0.0536
# 6 -0.0118 -0.0736 -0.0718 -3.0166 0.0536 14.8871
#
#
#
# Elastic Compliance Matrix: (Units=1/GPa)
#
#
# Indices 1 2 3 4 5 6 
#
# 1 0.008889 -0.002036 -0.002826 0.000025 0.003721 -0.000025
# 2 -0.002036 0.017730 -0.001998 -0.000054 -0.004780 0.000083
# 3 -0.002826 -0.001998 0.008409 -0.000034 -0.003362 0.000034
# 4 0.000025 -0.000054 -0.000034 0.038100 0.000150 0.007719
# 5 0.003721 -0.004780 -0.003362 0.000150 0.054428 -0.000202
# 6 -0.000025 0.000083 0.000034 0.007719 -0.000202 0.068738
#
#
# Mechanical properties :
#
#
# Convention : Reuss Voigt Hill
#
# Bulk Modulus (GPa) = 46.93002 58.14598 52.53800
# Shear Modulus (GPa) = 23.02923 28.90739 25.96831
#
# Velocity S-wave (km/s) = 3.27097 3.66472 3.47343
# Velocity P-wave (km/s) = 6.00575 6.70233 6.36358
#
# Compressibility (1/GPa) = 0.02130832
#
# Stress axis : x y z
#
# Youngs Moduli (GPa) = 112.50080 56.40091 118.92703
#
# Poissons Ratio (x) = 0.11482 0.33610
# Poissons Ratio (y) = 0.22903 0.23759
# Poissons Ratio (z) = 0.31793 0.11268
#
# Static dielectric constant tensor:
#      x y z
#    x 4.078310 0.000110 -0.279810 
#    y 0.000110 3.361610 0.000150 
#    z -0.279810 0.000150 4.241870 
# 
# 
# High freq. dielectric constant tensor:
#      x y z
#    x 1.854360 0.000000 -0.005680 
#    y 0.000000 1.811860 0.000020 
#    z -0.005680 0.000020 1.850870 
# 
# From -- ./inp_files/280173.got.cif
#   From: 2010.06.25/outbox.cif.g09.slc.cpg/sg15_141_cif.got.tgz:280173.got - 2010.06.28 07:06:18.
