data_PCOD8146735
_publ_section_title
;
Structure prediction by ZEFSAII (Michael W. Deem and Ramdas Pophale) SiO2 
 PCOD8146735
Probable space group: C 2/C
;
_chemical_formula_sum "Si O2"
_cell_formula_units_Z 64
_cell_length_a 9.274013
_cell_length_b 26.949035
_cell_length_c 23.325276
_cell_angle_alpha 90.000000
_cell_angle_beta 30.600375
_cell_angle_gamma 90.000000
_cell_volume 2967.533528
_symmetry_space_group_name_H-M "C 2/C"
_symmetry_group_IT_number 15
_symmetry_cell_setting 'monoclinic'
loop_
_space_group_symop_operation_xyz
x,y,z
-x,y,1/2-z
-x,-y,-z
x,-y,1/2+z
1/2+x,1/2+y,z
1/2-x,1/2+y,1/2-z
1/2-x,1/2-y,-z
1/2+x,1/2-y,1/2+z
loop_
_atom_site_type_symbol
_atom_site_label
_atom_site_fract_x
_atom_site_fract_y
_atom_site_fract_z
Si Si1 0.194275 0.735005 0.736686
Si Si2 0.908345 0.537796 0.716317
Si Si3 0.946792 0.297867 0.434119
Si Si4 0.257626 0.840923 0.696948
Si Si5 0.876744 0.088765 0.853217
Si Si6 0.184760 0.411293 0.014881
Si Si7 0.185764 0.573303 0.238776
Si Si8 0.256371 0.811312 0.052442
O O1 0.144530 0.793037 0.771461
O O2 0.519252 0.724812 0.607196
O O3 0.000000 0.719572 0.750000
O O4 0.125629 0.700434 0.814356
O O5 0.577254 0.548610 0.815530
O O6 0.937700 0.478900 0.696695
O O7 0.000000 0.552157 0.750000
O O8 0.114559 0.566643 0.601820
O O9 0.750000 0.250000 0.500000
O O10 0.790903 0.351274 0.492265
O O11 0.152760 0.290075 0.417141
O O12 0.383372 0.885120 0.690684
O O13 0.479303 0.814907 0.579543
O O14 0.000000 0.865173 0.750000
O O15 0.554213 0.070742 0.949617
O O16 0.876660 0.134209 0.896632
O O17 0.000000 0.106424 0.750000
O O18 0.484772 0.431867 0.890674
O O19 0.000000 0.592185 0.250000
#
# Coordination Sequence:
#
# PCOD8146735 Si02
#       8
#     8   8   8   8   8   8   8   8
#     4  11  23  38  58  91 127 163 212 260 311 381
#     4  10  23  41  64  95 125 158 207 264 318 375
#     4  11  22  40  65  91 127 171 211 257 315 373
#     4  11  24  42  60  88 125 162 214 264 312 379
#     4   9  19  38  62  90 120 157 205 250 304 374
#     4  10  22  42  63  89 125 163 209 254 308 381
#     4  11  26  43  62  91 125 163 207 260 323 383
#     4  11  22  39  63  90 124 165 207 260 313 366
#
# _framework density 21.566731000000001
#
# number of rings (size 3 to 8) (size 9 to 14) (size 15 to 20)
#    0.000    1.500    0.000    6.750    0.000   11.000 
#    0.000    0.000    0.000    0.000    0.000    0.000 
#    0.000    0.000    0.000    0.000    0.000    0.000 
#
# Total GULP energy -396733.199378 kJ/mol
# GULP energy per Si atom -12397.912481 kJ/mol
# Density = 2.151764 g / cm^3
# Si number density = 21.566731 Si / 1000 Ang^3
#
#
#
# Elastic Constant Matrix: (Units=GPa)
#
#
# Indices 1 2 3 4 5 6 
#
# 1 146.7178 58.1301 42.0922 -0.0033 -10.8916 -0.0020
# 2 58.1301 91.0491 14.3670 -0.0005 0.3748 -0.0006
# 3 42.0922 14.3670 87.6923 0.0024 -12.3729 0.0034
# 4 -0.0033 -0.0005 0.0024 29.7736 0.0041 -2.2824
# 5 -10.8916 0.3748 -12.3729 0.0041 30.7806 0.0033
# 6 -0.0020 -0.0006 0.0034 -2.2824 0.0033 36.6569
#
#
#
# Elastic Compliance Matrix: (Units=1/GPa)
#
#
# Indices 1 2 3 4 5 6 
#
# 1 0.010468 -0.006109 -0.003700 0.000001 0.002291 0.000001
# 2 -0.006109 0.014865 0.000176 0.000000 -0.002272 0.000000
# 3 -0.003700 0.000176 0.013745 -0.000002 0.004214 -0.000002
# 4 0.000001 0.000000 -0.000002 0.033748 -0.000005 0.002101
# 5 0.002291 -0.002272 0.004214 -0.000005 0.035020 -0.000004
# 6 0.000001 0.000000 -0.000002 0.002101 -0.000004 0.027411
#
#
# Mechanical properties :
#
#
# Convention : Reuss Voigt Hill
#
# Bulk Modulus (GPa) = 50.47412 61.62643 56.05027
# Shear Modulus (GPa) = 31.03157 33.50023 32.26590
#
# Velocity S-wave (km/s) = 3.79735 3.94551 3.87214
# Velocity P-wave (km/s) = 6.53307 7.02800 6.78505
#
# Compressibility (1/GPa) = 0.01981213
#
# Stress axis : x y z
#
# Youngs Moduli (GPa) = 95.53132 67.27362 72.75176
#
# Poissons Ratio (x) = 0.41095 0.26922
# Poissons Ratio (y) = 0.58357 -0.01282
# Poissons Ratio (z) = 0.35351 -0.01186
#
# Static dielectric constant tensor:
#      x y z
#    x 3.957880 -0.000020 -0.096260 
#    y -0.000020 3.863720 -0.000020 
#    z -0.096260 -0.000020 3.955680 
# 
# 
# High freq. dielectric constant tensor:
#      x y z
#    x 1.849420 0.000000 -0.006500 
#    y 0.000000 1.847010 0.000000 
#    z -0.006500 0.000000 1.849080 
# 
# From -- ./inp_files/266740.got.cif
#   From: 2010.06.25/outbox.cif.g09.slc.cpg/sg15_134_cif.got.tgz:266740.got - 2010.06.28 07:06:18.
