data_PCOD8146200
_publ_section_title
;
Structure prediction by ZEFSAII (Michael W. Deem and Ramdas Pophale) SiO2 
 PCOD8146200
Probable space group: C 2/C
;
_chemical_formula_sum "Si O2"
_cell_formula_units_Z 40
_cell_length_a 17.711830
_cell_length_b 11.182848
_cell_length_c 9.667849
_cell_angle_alpha 90.000000
_cell_angle_beta 49.835242
_cell_angle_gamma 90.000000
_cell_volume 1463.351688
_symmetry_space_group_name_H-M "C 2/C"
_symmetry_group_IT_number 15
_symmetry_cell_setting 'monoclinic'
loop_
_space_group_symop_operation_xyz
x,y,z
-x,y,1/2-z
-x,-y,-z
x,-y,1/2+z
1/2+x,1/2+y,z
1/2-x,1/2+y,1/2-z
1/2-x,1/2-y,-z
1/2+x,1/2-y,1/2+z
loop_
_atom_site_type_symbol
_atom_site_label
_atom_site_fract_x
_atom_site_fract_y
_atom_site_fract_z
Si Si1 0.672657 0.772615 0.892301
Si Si2 0.404423 0.012979 0.446429
Si Si3 0.797906 0.892462 0.404972
Si Si4 0.425243 0.272121 0.460777
Si Si5 0.374513 0.353183 0.788363
O O1 0.671796 0.685271 0.763400
O O2 0.781787 0.787063 0.824818
O O3 0.628603 0.905328 0.912961
O O4 0.603148 0.713614 0.094515
O O5 0.500000 0.969675 0.250000
O O6 0.313397 0.055925 0.455950
O O7 0.430829 0.132863 0.499313
O O8 0.682518 0.687673 0.478675
O O9 0.867946 0.007420 0.328261
O O10 0.500000 0.305114 0.250000
O O11 0.455040 0.338418 0.568602
#
# Coordination Sequence:
#
# PCOD8146200 Si02
#       5
#     8   8   8   8   8
#     4  10  22  40  68  98 136 179 221 278 340 400
#     4  10  23  42  69 102 136 175 227 282 335 402
#     4  11  22  43  73  98 132 184 227 274 342 399
#     4  11  24  42  66 100 137 178 229 279 333 405
#     4  10  22  41  65  97 137 175 226 274 336 405
#
# _framework density 27.334508
#
# number of rings (size 3 to 8) (size 9 to 14) (size 15 to 20)
#    0.000    1.600    2.000    1.800    0.000    4.000 
#    0.000    6.000    0.000    0.000    0.000    0.000 
#    0.000    0.000    0.000    0.000    0.000    0.000 
#
# Total GULP energy -247833.017926 kJ/mol
# GULP energy per Si atom -12391.650896 kJ/mol
# Density = 2.727229 g / cm^3
# Si number density = 27.334508 Si / 1000 Ang^3
#
#
#
# Elastic Constant Matrix: (Units=GPa)
#
#
# Indices 1 2 3 4 5 6 
#
# 1 74.0090 14.8116 32.0579 0.0000 19.4355 0.0000
# 2 14.8116 150.5824 54.1949 0.0000 12.0516 0.0000
# 3 32.0579 54.1949 131.2842 0.0000 21.4789 0.0000
# 4 0.0000 0.0000 0.0000 34.7402 0.0000 2.7921
# 5 19.4355 12.0516 21.4789 0.0000 50.2968 0.0000
# 6 0.0000 0.0000 0.0000 2.7921 0.0000 1.4088
#
#
#
# Elastic Compliance Matrix: (Units=1/GPa)
#
#
# Indices 1 2 3 4 5 6 
#
# 1 0.016162 -0.000077 -0.003113 0.000000 -0.004897 0.000000
# 2 -0.000077 0.007813 -0.003123 0.000000 -0.000508 0.000000
# 3 -0.003113 -0.003123 0.010050 0.000000 -0.002340 0.000000
# 4 0.000000 0.000000 0.000000 0.034239 0.000000 -0.067856
# 5 -0.004897 -0.000508 -0.002340 0.000000 0.022895 0.000000
# 6 0.000000 0.000000 0.000000 -0.067856 0.000000 0.844300
#
#
# Mechanical properties :
#
#
# Convention : Reuss Voigt Hill
#
# Bulk Modulus (GPa) = 46.73608 62.00050 54.36829
# Shear Modulus (GPa) = 5.23440 34.27658 19.75549
#
# Velocity S-wave (km/s) = 1.38532 3.54498 2.69128
# Velocity P-wave (km/s) = 4.43776 6.28389 5.43971
#
# Compressibility (1/GPa) = 0.02139675
#
# Stress axis : x y z
#
# Youngs Moduli (GPa) = 61.87349 127.98754 99.50739
#
# Poissons Ratio (x) = 0.00989 0.30981
# Poissons Ratio (y) = 0.00478 0.31079
# Poissons Ratio (z) = 0.19264 0.39974
#
# Static dielectric constant tensor:
#      x y z
#    x 4.926060 0.000000 -0.173320 
#    y 0.000000 5.102340 0.000000 
#    z -0.173320 0.000000 5.254270 
# 
# 
# High freq. dielectric constant tensor:
#      x y z
#    x 2.084120 0.000000 -0.010260 
#    y 0.000000 2.115190 0.000000 
#    z -0.010260 0.000000 2.111590 
# 
# From -- ./inp_files/126103.got.cif
#   From: 2010.06.25/outbox.cif.g09.slc.cpg/sg15_64_cif.got.tgz:126103.got - 2010.06.28 07:06:18.
