data_PCOD8146105
_publ_section_title
;
Structure prediction by ZEFSAII (Michael W. Deem and Ramdas Pophale) SiO2 
 PCOD8146105
Probable space group: C 2/C
;
_chemical_formula_sum "Si O2"
_cell_formula_units_Z 56
_cell_length_a 22.652936
_cell_length_b 8.422556
_cell_length_c 13.674435
_cell_angle_alpha 90.000000
_cell_angle_beta 103.416027
_cell_angle_gamma 90.000000
_cell_volume 2537.824760
_symmetry_space_group_name_H-M "C 2/C"
_symmetry_group_IT_number 15
_symmetry_cell_setting 'monoclinic'
loop_
_space_group_symop_operation_xyz
x,y,z
-x,y,1/2-z
-x,-y,-z
x,-y,1/2+z
1/2+x,1/2+y,z
1/2-x,1/2+y,1/2-z
1/2-x,1/2-y,-z
1/2+x,1/2-y,1/2+z
loop_
_atom_site_type_symbol
_atom_site_label
_atom_site_fract_x
_atom_site_fract_y
_atom_site_fract_z
Si Si1 0.192701 0.012027 0.654804
Si Si2 0.166953 0.287396 0.513680
Si Si3 0.569611 0.975112 0.035536
Si Si4 0.126828 0.919027 0.825463
Si Si5 0.187551 0.547225 0.391816
Si Si6 0.069813 0.394378 0.253185
Si Si7 0.628762 0.315496 0.463054
O O1 0.188858 0.197489 0.620332
O O2 0.263667 0.961904 0.676865
O O3 0.169263 0.985767 0.755051
O O4 0.152203 0.907328 0.566755
O O5 0.101020 0.363335 0.510681
O O6 0.167878 0.166843 0.422601
O O7 0.209466 0.434179 0.492208
O O8 0.589465 0.942401 0.153052
O O9 0.582336 0.820083 0.975955
O O10 0.500000 0.000000 0.000000
O O11 0.075977 0.796888 0.767141
O O12 0.096440 0.067496 0.871670
O O13 0.119575 0.485225 0.338170
O O14 0.184616 0.728031 0.428560
O O15 0.000000 0.443557 0.250000
#
# Coordination Sequence:
#
# PCOD8146105 Si02
#       7
#     8   8   8   8   8   8   8
#     4  11  21  41  64  95 141 170 214 265 337 388
#     4   9  22  41  61  96 129 173 218 265 325 385
#     4  11  22  45  69  90 130 175 223 269 321 388
#     4  10  22  41  62  95 134 167 214 269 328 380
#     4  10  22  40  66  97 130 175 220 270 319 392
#     4  11  23  45  67  95 129 171 219 274 323 385
#     4  10  22  41  62  98 130 167 220 263 325 390
#
# _framework density 22.066141999999999
#
# number of rings (size 3 to 8) (size 9 to 14) (size 15 to 20)
#    0.000    1.714    1.429    3.429    2.000    2.286 
#   12.857    2.857    0.000    0.000    0.000    0.000 
#    0.000    0.000    0.000    0.000    0.000    0.000 
#
# Total GULP energy -346920.547996 kJ/mol
# GULP energy per Si atom -12390.019571 kJ/mol
# Density = 2.201592 g / cm^3
# Si number density = 22.066142 Si / 1000 Ang^3
#
#
#
# Elastic Constant Matrix: (Units=GPa)
#
#
# Indices 1 2 3 4 5 6 
#
# 1 98.9060 6.4042 25.8637 0.0000 -13.6113 0.0000
# 2 6.4042 98.6771 48.7179 0.0000 -6.6279 0.0000
# 3 25.8637 48.7179 119.1202 0.0000 -23.0457 0.0000
# 4 0.0000 0.0000 0.0000 37.9225 0.0000 -4.1694
# 5 -13.6113 -6.6279 -23.0457 0.0000 28.5452 0.0000
# 6 0.0000 0.0000 0.0000 -4.1694 0.0000 18.1660
#
#
#
# Elastic Compliance Matrix: (Units=1/GPa)
#
#
# Indices 1 2 3 4 5 6 
#
# 1 0.011101 0.000449 -0.001837 0.000000 0.003915 0.000000
# 2 0.000449 0.012769 -0.005576 0.000000 -0.001322 0.000000
# 3 -0.001837 -0.005576 0.012626 0.000000 0.008023 0.000000
# 4 0.000000 0.000000 0.000000 0.027052 0.000000 0.006209
# 5 0.003915 -0.001322 0.008023 0.000000 0.043069 0.000000
# 6 0.000000 0.000000 0.000000 0.006209 0.000000 0.056473
#
#
# Mechanical properties :
#
#
# Convention : Reuss Voigt Hill
#
# Bulk Modulus (GPa) = 44.30720 53.18612 48.74666
# Shear Modulus (GPa) = 27.09454 32.64123 29.86789
#
# Velocity S-wave (km/s) = 3.50791 3.85027 3.68307
# Velocity P-wave (km/s) = 6.04401 6.62733 6.34238
#
# Compressibility (1/GPa) = 0.02256970
#
# Stress axis : x y z
#
# Youngs Moduli (GPa) = 90.08602 78.31588 79.20055
#
# Poissons Ratio (x) = -0.03518 0.14546
# Poissons Ratio (y) = -0.04047 0.44159
# Poissons Ratio (z) = 0.16545 0.43666
#
# Static dielectric constant tensor:
#      x y z
#    x 3.708580 0.000000 -0.862870 
#    y 0.000000 4.566420 0.000000 
#    z -0.862870 0.000000 8.633310 
# 
# 
# High freq. dielectric constant tensor:
#      x y z
#    x 1.842280 0.000000 -0.022160 
#    y 0.000000 1.881780 0.000000 
#    z -0.022160 0.000000 1.877480 
# 
# From -- ./inp_files/166660.got.cif
#   From: 2010.06.25/outbox.cif.g09.slc.cpg/sg15_84_cif.got.tgz:166660.got - 2010.06.28 07:06:18.
