data_PCOD8146752
_publ_section_title
;
Structure prediction by ZEFSAII (Michael W. Deem and Ramdas Pophale) SiO2 
 PCOD8146752
Probable space group: C 2/C
;
_chemical_formula_sum "Si O2"
_cell_formula_units_Z 52
_cell_length_a 10.406227
_cell_length_b 16.851699
_cell_length_c 14.743243
_cell_angle_alpha 90.000000
_cell_angle_beta 112.372680
_cell_angle_gamma 90.000000
_cell_volume 2390.803304
_symmetry_space_group_name_H-M "C 2/C"
_symmetry_group_IT_number 15
_symmetry_cell_setting 'monoclinic'
loop_
_space_group_symop_operation_xyz
x,y,z
-x,y,1/2-z
-x,-y,-z
x,-y,1/2+z
1/2+x,1/2+y,z
1/2-x,1/2+y,1/2-z
1/2-x,1/2-y,-z
1/2+x,1/2-y,1/2+z
loop_
_atom_site_type_symbol
_atom_site_label
_atom_site_fract_x
_atom_site_fract_y
_atom_site_fract_z
Si Si1 0.873906 0.558024 0.970549
Si Si2 0.794348 0.931675 0.638182
Si Si3 0.976086 0.357723 0.842922
Si Si4 0.101460 0.208825 0.445304
Si Si5 0.900299 0.337552 0.302566
Si Si6 0.592933 0.682876 0.646981
Si Si7 0.500000 0.448931 0.250000
O O1 0.748080 0.495846 0.951768
O O2 0.860826 0.599886 0.869075
O O3 0.000000 0.500000 0.000000
O O4 0.892471 0.619381 0.057964
O O5 0.665665 0.890665 0.653374
O O6 0.890362 0.864138 0.621738
O O7 0.872787 0.989890 0.728141
O O8 0.975235 0.263331 0.834838
O O9 0.000000 0.394690 0.750000
O O10 0.250000 0.250000 0.500000
O O11 0.060146 0.175893 0.531970
O O12 0.982189 0.265394 0.373062
O O13 0.756707 0.312049 0.215928
O O14 0.000000 0.373022 0.250000
O O15 0.508228 0.608875 0.665467
#
# Coordination Sequence:
#
# PCOD8146752 Si02
#       7
#     8   8   8   8   8   8   4
#     4  10  22  42  64 101 136 172 230 292 347 394
#     4  11  25  44  69 104 141 180 224 304 348 404
#     4  11  23  44  74  98 134 182 239 280 345 424
#     4  12  23  44  75 104 139 180 243 286 340 425
#     4  12  23  40  73 107 132 187 239 285 346 417
#     4  12  25  45  70 102 141 191 229 289 349 416
#     4  12  28  48  64 102 154 174 228 294 360 408
#
# _framework density 21.750012000000002
#
# number of rings (size 3 to 8) (size 9 to 14) (size 15 to 20)
#    0.000    0.615    6.923    0.923    3.231    4.308 
#    2.769    2.308    0.000    0.000    0.000    0.000 
#    0.000    0.000    0.000    0.000    0.000    0.000 
#
# Total GULP energy -322104.308100 kJ/mol
# GULP energy per Si atom -12388.627235 kJ/mol
# Density = 2.170051 g / cm^3
# Si number density = 21.750012 Si / 1000 Ang^3
#
#
#
# Elastic Constant Matrix: (Units=GPa)
#
#
# Indices 1 2 3 4 5 6 
#
# 1 27.8344 15.4483 4.4893 0.0000 -12.0301 0.0000
# 2 15.4483 123.8247 21.9883 0.0000 -1.6523 0.0000
# 3 4.4893 21.9883 96.8802 0.0000 -21.1133 0.0000
# 4 0.0000 0.0000 0.0000 33.9344 0.0000 6.5870
# 5 -12.0301 -1.6523 -21.1133 0.0000 39.5000 0.0000
# 6 0.0000 0.0000 0.0000 6.5870 0.0000 28.8420
#
#
#
# Elastic Compliance Matrix: (Units=1/GPa)
#
#
# Indices 1 2 3 4 5 6 
#
# 1 0.045208 -0.005882 0.002475 0.000000 0.014846 0.000000
# 2 -0.005882 0.009200 -0.002402 0.000000 -0.002690 0.000000
# 3 0.002475 -0.002402 0.012331 0.000000 0.007245 0.000000
# 4 0.000000 0.000000 0.000000 0.030836 0.000000 -0.007042
# 5 0.014846 -0.002690 0.007245 0.000000 0.033598 0.000000
# 6 0.000000 0.000000 0.000000 -0.007042 0.000000 0.036280
#
#
# Mechanical properties :
#
#
# Convention : Reuss Voigt Hill
#
# Bulk Modulus (GPa) = 18.14100 36.93235 27.53668
# Shear Modulus (GPa) = 25.32361 34.22951 29.77656
#
# Velocity S-wave (km/s) = 3.41589 3.97138 3.70406
# Velocity P-wave (km/s) = 4.89045 6.16818 5.56610
#
# Compressibility (1/GPa) = 0.05512374
#
# Stress axis : x y z
#
# Youngs Moduli (GPa) = 22.11982 108.69161 81.09432
#
# Poissons Ratio (x) = 0.63928 -0.20074
# Poissons Ratio (y) = 0.13010 0.19478
# Poissons Ratio (z) = -0.05476 0.26107
#
# Static dielectric constant tensor:
#      x y z
#    x 4.818180 0.000000 1.302190 
#    y 0.000000 4.273050 0.000000 
#    z 1.302190 0.000000 5.809580 
# 
# 
# High freq. dielectric constant tensor:
#      x y z
#    x 1.840120 0.000000 0.008730 
#    y 0.000000 1.870370 0.000000 
#    z 0.008730 0.000000 1.862030 
# 
# From -- ./inp_files/144346.got.cif
#   From: 2010.06.25/outbox.cif.g09.slc.cpg/sg15_73_cif.got.tgz:144346.got - 2010.06.28 07:06:18.
