data_PCOD8146220
_publ_section_title
;
Structure prediction by ZEFSAII (Michael W. Deem and Ramdas Pophale) SiO2 
 PCOD8146220
Probable space group: C 2/C
;
_chemical_formula_sum "Si O2"
_cell_formula_units_Z 60
_cell_length_a 28.477645
_cell_length_b 18.784677
_cell_length_c 15.627838
_cell_angle_alpha 90.000000
_cell_angle_beta 161.263209
_cell_angle_gamma 90.000000
_cell_volume 2685.411462
_symmetry_space_group_name_H-M "C 2/C"
_symmetry_group_IT_number 15
_symmetry_cell_setting 'monoclinic'
loop_
_space_group_symop_operation_xyz
x,y,z
-x,y,1/2-z
-x,-y,-z
x,-y,1/2+z
1/2+x,1/2+y,z
1/2-x,1/2+y,1/2-z
1/2-x,1/2-y,-z
1/2+x,1/2-y,1/2+z
loop_
_atom_site_type_symbol
_atom_site_label
_atom_site_fract_x
_atom_site_fract_y
_atom_site_fract_z
Si Si1 0.098667 0.627981 0.341509
Si Si2 0.576631 0.386778 0.574838
Si Si3 0.000000 0.172272 0.250000
Si Si4 0.165579 0.125718 0.053665
Si Si5 0.717260 0.392795 0.996406
Si Si6 0.738432 0.550093 0.018387
Si Si7 0.311546 0.736568 0.781547
Si Si8 0.460968 0.220231 0.962631
O O1 0.143916 0.566638 0.352987
O O2 0.247745 0.663425 0.633750
O O3 0.000000 0.598338 0.250000
O O4 0.004382 0.685574 0.127331
O O5 0.689165 0.404688 0.690805
O O6 0.422484 0.427928 0.294872
O O7 0.571073 0.301373 0.570665
O O8 0.648901 0.410810 0.786494
O O9 0.089089 0.121376 0.341617
O O10 0.102211 0.222764 0.482400
O O11 0.180632 0.210953 0.079545
O O12 0.269775 0.093208 0.160350
O O13 0.000000 0.105650 0.750000
O O14 0.829485 0.326443 0.193365
O O15 0.777581 0.470979 0.120003
O O16 0.410138 0.778408 0.883575
#
# Coordination Sequence:
#
# PCOD8146220 Si02
#       8
#     8   8   4   8   8   8   8   8
#     4  12  23  44  72  99 133 181 236 290 345 421
#     4  11  22  43  70  96 132 182 237 286 343 421
#     4  12  26  42  70  98 144 178 226 286 358 410
#     4  10  22  40  69  98 129 173 231 290 337 412
#     4  12  27  43  64 102 145 184 226 290 359 428
#     4  11  24  45  66 102 136 183 235 286 349 425
#     4  12  23  43  69 104 131 173 231 293 351 415
#     4  12  24  43  69  98 141 172 231 299 351 402
#
# _framework density 22.342945
#
# number of rings (size 3 to 8) (size 9 to 14) (size 15 to 20)
#    0.000    0.533    4.000    5.600    4.667    0.533 
#    2.400    0.000    0.000    0.000    0.000    0.000 
#    0.000    0.000    0.000    0.000    0.000    0.000 
#
# Total GULP energy -371704.288897 kJ/mol
# GULP energy per Si atom -12390.142963 kJ/mol
# Density = 2.229209 g / cm^3
# Si number density = 22.342945 Si / 1000 Ang^3
#
#
#
# Elastic Constant Matrix: (Units=GPa)
#
#
# Indices 1 2 3 4 5 6 
#
# 1 182.4390 21.6463 24.5133 0.0000 15.9179 0.0000
# 2 21.6463 91.0906 11.1964 0.0000 18.6165 0.0000
# 3 24.5133 11.1964 61.0665 0.0000 -13.7474 0.0000
# 4 0.0000 0.0000 0.0000 30.4786 0.0000 -1.9510
# 5 15.9179 18.6165 -13.7474 0.0000 64.4203 0.0000
# 6 0.0000 0.0000 0.0000 -1.9510 0.0000 -1.0570
#
#
#
# Elastic Compliance Matrix: (Units=1/GPa)
#
#
# Indices 1 2 3 4 5 6 
#
# 1 0.006100 -0.000728 -0.002738 0.000000 -0.001881 0.000000
# 2 -0.000728 0.012319 -0.002865 0.000000 -0.003991 0.000000
# 3 -0.002738 -0.002865 0.019264 0.000000 0.005616 0.000000
# 4 0.000000 0.000000 0.000000 0.029343 0.000000 -0.054162
# 5 -0.001881 -0.003991 0.005616 0.000000 0.018340 0.000000
# 6 0.000000 0.000000 0.000000 -0.054162 0.000000 -0.846142
#
#
# Mechanical properties :
#
#
# Convention : Reuss Voigt Hill
#
# Bulk Modulus (GPa) = 39.96859 49.92314 44.94587
# Shear Modulus (GPa) = -6.75883 37.25106 15.24612
#
# Velocity S-wave (km/s) = -1.74115 4.08762 2.61505
# Velocity P-wave (km/s) = 3.72631 6.68361 5.41092
#
# Compressibility (1/GPa) = 0.02501964
#
# Stress axis : x y z
#
# Youngs Moduli (GPa) = 163.93979 81.17512 51.90942
#
# Poissons Ratio (x) = 0.05913 0.14215
# Poissons Ratio (y) = 0.11943 0.14871
# Poissons Ratio (z) = 0.44895 0.23255
#
# Static dielectric constant tensor:
#      x y z
#    x 4.759720 0.000000 -0.236560 
#    y 0.000000 3.680140 0.000000 
#    z -0.236560 0.000000 4.083500 
# 
# 
# High freq. dielectric constant tensor:
#      x y z
#    x 1.912800 0.000000 -0.004280 
#    y 0.000000 1.869330 0.000000 
#    z -0.004280 0.000000 1.857370 
# 
# From -- ./inp_files/179147.got.cif
#   From: 2010.06.25/outbox.cif.g09.slc.cpg/sg15_90_cif.got.tgz:179147.got - 2010.06.28 07:06:18.
