data_PCOD8146028
_publ_section_title
;
Structure prediction by ZEFSAII (Michael W. Deem and Ramdas Pophale) SiO2 
 PCOD8146028
Probable space group: C 2/C
;
_chemical_formula_sum "Si O2"
_cell_formula_units_Z 56
_cell_length_a 17.950058
_cell_length_b 18.895135
_cell_length_c 15.954636
_cell_angle_alpha 90.000000
_cell_angle_beta 28.732739
_cell_angle_gamma 90.000000
_cell_volume 2601.352006
_symmetry_space_group_name_H-M "C 2/C"
_symmetry_group_IT_number 15
_symmetry_cell_setting 'monoclinic'
loop_
_space_group_symop_operation_xyz
x,y,z
-x,y,1/2-z
-x,-y,-z
x,-y,1/2+z
1/2+x,1/2+y,z
1/2-x,1/2+y,1/2-z
1/2-x,1/2-y,-z
1/2+x,1/2-y,1/2+z
loop_
_atom_site_type_symbol
_atom_site_label
_atom_site_fract_x
_atom_site_fract_y
_atom_site_fract_z
Si Si1 0.394918 0.821019 0.086142
Si Si2 0.691940 0.464458 0.119122
Si Si3 0.124294 0.015430 0.013882
Si Si4 0.825840 0.521266 0.659353
Si Si5 0.015653 0.839018 0.829964
Si Si6 0.684175 0.782102 0.896187
Si Si7 0.342032 0.185608 0.451180
O O1 0.307803 0.894573 0.183571
O O2 0.298877 0.762995 0.228208
O O3 0.570092 0.827403 0.949409
O O4 0.396377 0.793516 0.990171
O O5 0.722108 0.512600 0.005451
O O6 0.514905 0.461786 0.326950
O O7 0.783130 0.501225 0.106614
O O8 0.736630 0.384050 0.055154
O O9 0.060389 0.092868 0.050122
O O10 0.220885 0.987461 0.837684
O O11 0.000000 0.500000 0.500000
O O12 0.200069 0.833420 0.666986
O O13 0.000000 0.858773 0.750000
O O14 0.920435 0.767334 0.941182
O O15 0.500000 0.166436 0.250000
O O16 0.250000 0.250000 0.500000
#
# Coordination Sequence:
#
# PCOD8146028 Si02
#       7
#     8   8   8   8   8   8   8
#     4  10  22  43  62  98 127 170 218 270 333 399
#     4  10  25  45  66  98 131 175 226 271 331 407
#     4  11  23  45  68  92 137 178 223 273 338 402
#     4  11  25  42  67  97 129 174 224 276 340 397
#     4  11  21  40  65  96 129 173 217 266 330 393
#     4  10  22  40  65  92 134 168 217 273 323 400
#     4  11  25  44  69  98 132 172 221 279 338 402
#
# _framework density 21.527266999999998
#
# number of rings (size 3 to 8) (size 9 to 14) (size 15 to 20)
#    0.000    1.429    2.857    1.714    8.000    0.000 
#    0.000    0.000    0.000    0.000    0.000    0.000 
#    0.000    0.000    0.000    0.000    0.000    0.000 
#
# Total GULP energy -347044.726048 kJ/mol
# GULP energy per Si atom -12394.454502 kJ/mol
# Density = 2.147827 g / cm^3
# Si number density = 21.527267 Si / 1000 Ang^3
#
#
#
# Elastic Constant Matrix: (Units=GPa)
#
#
# Indices 1 2 3 4 5 6 
#
# 1 142.4952 27.6806 44.6591 0.0178 -1.8590 0.0190
# 2 27.6806 70.5732 25.6482 0.0170 -2.9102 -0.0006
# 3 44.6591 25.6482 112.4997 0.0213 -2.0597 -0.0009
# 4 0.0178 0.0170 0.0213 43.8064 -0.0057 2.8262
# 5 -1.8590 -2.9102 -2.0597 -0.0057 30.8526 0.0059
# 6 0.0190 -0.0006 -0.0009 2.8262 0.0059 37.2513
#
#
#
# Elastic Compliance Matrix: (Units=1/GPa)
#
#
# Indices 1 2 3 4 5 6 
#
# 1 0.008331 -0.002248 -0.002793 -0.000001 0.000103 -0.000004
# 2 -0.002248 0.016103 -0.002757 -0.000004 0.001199 0.000001
# 3 -0.002793 -0.002757 0.010631 -0.000003 0.000281 0.000002
# 4 -0.000001 -0.000004 -0.000003 0.022940 0.000004 -0.001740
# 5 0.000103 0.001199 0.000281 0.000004 0.032550 -0.000006
# 6 -0.000004 0.000001 0.000002 -0.001740 -0.000006 0.026977
#
#
# Mechanical properties :
#
#
# Convention : Reuss Voigt Hill
#
# Bulk Modulus (GPa) = 51.36241 57.94935 54.65588
# Shear Modulus (GPa) = 35.81202 37.55407 36.68304
#
# Velocity S-wave (km/s) = 4.08311 4.18124 4.13246
# Velocity P-wave (km/s) = 6.79265 7.09139 6.94363
#
# Compressibility (1/GPa) = 0.01946949
#
# Stress axis : x y z
#
# Youngs Moduli (GPa) = 120.03116 62.10062 94.06301
#
# Poissons Ratio (x) = 0.13963 0.26269
# Poissons Ratio (y) = 0.26989 0.25930
# Poissons Ratio (z) = 0.33521 0.17119
#
# Static dielectric constant tensor:
#      x y z
#    x 4.544470 -0.000060 -0.263160 
#    y -0.000060 4.196760 0.001990 
#    z -0.263160 0.001990 4.623640 
# 
# 
# High freq. dielectric constant tensor:
#      x y z
#    x 1.862130 0.000000 0.000800 
#    y 0.000000 1.834750 0.000000 
#    z 0.000800 0.000000 1.848050 
# 
# From -- ./inp_files/163753.got.cif
#   From: 2010.06.25/outbox.cif.g09.slc.cpg/sg15_82_cif.got.tgz:163753.got - 2010.06.28 07:06:18.
