data_PCOD8146375
_publ_section_title
;
Structure prediction by ZEFSAII (Michael W. Deem and Ramdas Pophale) SiO2 
 PCOD8146375
Probable space group: C 2/C
;
_chemical_formula_sum "Si O2"
_cell_formula_units_Z 64
_cell_length_a 23.727652
_cell_length_b 21.507782
_cell_length_c 18.395171
_cell_angle_alpha 90.000000
_cell_angle_beta 160.290809
_cell_angle_gamma 90.000000
_cell_volume 3165.930561
_symmetry_space_group_name_H-M "C 2/C"
_symmetry_group_IT_number 15
_symmetry_cell_setting 'monoclinic'
loop_
_space_group_symop_operation_xyz
x,y,z
-x,y,1/2-z
-x,-y,-z
x,-y,1/2+z
1/2+x,1/2+y,z
1/2-x,1/2+y,1/2-z
1/2-x,1/2-y,-z
1/2+x,1/2-y,1/2+z
loop_
_atom_site_type_symbol
_atom_site_label
_atom_site_fract_x
_atom_site_fract_y
_atom_site_fract_z
Si Si1 0.366189 0.752060 0.299296
Si Si2 0.848339 0.041756 0.342420
Si Si3 0.521673 0.190944 0.858895
Si Si4 0.487715 0.954267 0.151344
Si Si5 0.625516 0.964780 0.703943
Si Si6 0.429989 0.730726 0.740602
Si Si7 0.583024 0.156237 0.515531
Si Si8 0.569960 0.345016 0.120122
O O1 0.384704 0.770998 0.237872
O O2 0.358852 0.815020 0.337377
O O3 0.533684 0.716539 0.528770
O O4 0.204406 0.708577 0.110841
O O5 0.798808 0.035204 0.368397
O O6 0.915010 0.111047 0.414271
O O7 0.693224 0.028298 0.100869
O O8 0.000000 0.000000 0.500000
O O9 0.500000 0.211525 0.750000
O O10 0.482737 0.118593 0.823081
O O11 0.500000 0.973991 0.250000
O O12 0.633405 0.993725 0.287042
O O13 0.559904 0.895340 0.644037
O O14 0.500000 0.000000 0.500000
O O15 0.500000 0.705655 0.750000
O O16 0.250000 0.750000 0.500000
O O17 0.525301 0.790207 0.889811
O O18 0.430017 0.672609 0.795001
O O19 0.750429 0.125597 0.683938
#
# Coordination Sequence:
#
# PCOD8146375 Si02
#       8
#     8   8   8   8   8   8   8   8
#     4  11  21  37  59  89 124 158 206 246 305 376
#     4  11  23  42  67  92 123 163 222 266 309 380
#     4  11  22  38  61  90 124 162 201 255 312 363
#     4  10  22  43  66  91 127 167 209 265 320 371
#     4  10  22  41  64  90 121 166 215 257 315 383
#     4  11  24  41  60  94 135 167 209 259 319 382
#     4  11  23  38  66  90 123 172 205 254 315 379
#     4  11  22  38  62  90 123 165 205 258 313 369
#
# _framework density 20.215226000000001
#
# number of rings (size 3 to 8) (size 9 to 14) (size 15 to 20)
#    0.000    1.250    3.750    3.375    1.750    0.500 
#    2.250    0.625    0.000    0.000    0.000    0.000 
#    0.000    0.000    0.000    0.000    0.000    0.000 
#
# Total GULP energy -396623.721866 kJ/mol
# GULP energy per Si atom -12394.491308 kJ/mol
# Density = 2.016922 g / cm^3
# Si number density = 20.215226 Si / 1000 Ang^3
#
#
#
# Elastic Constant Matrix: (Units=GPa)
#
#
# Indices 1 2 3 4 5 6 
#
# 1 176.6502 61.4504 42.6606 -0.0002 4.3358 -0.0001
# 2 61.4504 77.8696 14.5397 0.0000 1.4883 0.0000
# 3 42.6606 14.5397 70.7240 -0.0004 3.4789 -0.0003
# 4 -0.0002 0.0000 -0.0004 25.8893 -0.0002 1.0579
# 5 4.3358 1.4883 3.4789 -0.0002 40.6917 -0.0001
# 6 -0.0001 0.0000 -0.0003 1.0579 -0.0001 31.1635
#
#
#
# Elastic Compliance Matrix: (Units=1/GPa)
#
#
# Indices 1 2 3 4 5 6 
#
# 1 0.008788 -0.006179 -0.004013 0.000000 -0.000367 0.000000
# 2 -0.006179 0.017702 0.000088 0.000000 0.000003 0.000000
# 3 -0.004013 0.000088 0.016591 0.000000 -0.000994 0.000000
# 4 0.000000 0.000000 0.000000 0.038680 0.000000 -0.001313
# 5 -0.000367 0.000003 -0.000994 0.000000 0.024699 0.000000
# 6 0.000000 0.000000 0.000000 -0.001313 0.000000 0.032133
#
#
# Mechanical properties :
#
#
# Convention : Reuss Voigt Hill
#
# Bulk Modulus (GPa) = 43.71979 62.50501 53.11240
# Shear Modulus (GPa) = 30.04345 33.32176 31.68261
#
# Velocity S-wave (km/s) = 3.85928 4.06439 3.96316
# Velocity P-wave (km/s) = 6.44460 7.28098 6.87552
#
# Compressibility (1/GPa) = 0.02287294
#
# Stress axis : x y z
#
# Youngs Moduli (GPa) = 113.78516 56.49173 60.27427
#
# Poissons Ratio (x) = 0.34907 0.24187
# Poissons Ratio (y) = 0.70309 -0.00530
# Poissons Ratio (z) = 0.45660 -0.00496
#
# Static dielectric constant tensor:
#      x y z
#    x 4.132400 0.000000 0.034580 
#    y 0.000000 4.115190 0.000000 
#    z 0.034580 0.000000 3.519070 
# 
# 
# High freq. dielectric constant tensor:
#      x y z
#    x 1.807550 0.000000 0.004280 
#    y 0.000000 1.787220 0.000000 
#    z 0.004280 0.000000 1.771880 
# 
# From -- ./inp_files/220318.got.cif
#   From: 2010.06.25/outbox.cif.g09.slc.cpg/sg15_111_cif.got.tgz:220318.got - 2010.06.28 07:06:18.
