data_PCOD8146479
_publ_section_title
;
Structure prediction by ZEFSAII (Michael W. Deem and Ramdas Pophale) SiO2 
 PCOD8146479
Probable space group: C 2/C
;
_chemical_formula_sum "Si O2"
_cell_formula_units_Z 56
_cell_length_a 11.969513
_cell_length_b 8.886866
_cell_length_c 23.685342
_cell_angle_alpha 90.000000
_cell_angle_beta 115.352808
_cell_angle_gamma 90.000000
_cell_volume 2276.792348
_symmetry_space_group_name_H-M "C 2/C"
_symmetry_group_IT_number 15
_symmetry_cell_setting 'monoclinic'
loop_
_space_group_symop_operation_xyz
x,y,z
-x,y,1/2-z
-x,-y,-z
x,-y,1/2+z
1/2+x,1/2+y,z
1/2-x,1/2+y,1/2-z
1/2-x,1/2-y,-z
1/2+x,1/2-y,1/2+z
loop_
_atom_site_type_symbol
_atom_site_label
_atom_site_fract_x
_atom_site_fract_y
_atom_site_fract_z
Si Si1 0.981899 0.307884 0.683427
Si Si2 0.812794 0.189890 0.923658
Si Si3 0.525862 0.574590 0.080062
Si Si4 0.420038 0.475056 0.784744
Si Si5 0.278789 0.802106 0.412516
Si Si6 0.263290 0.948215 0.992050
Si Si7 0.696220 0.922640 0.666333
O O1 0.053387 0.412511 0.654003
O O2 0.000000 0.378436 0.750000
O O3 0.842294 0.293384 0.630541
O O4 0.050724 0.148716 0.699611
O O5 0.844309 0.333898 0.971539
O O6 0.759536 0.267870 0.855544
O O7 0.933655 0.092174 0.932505
O O8 0.711896 0.082019 0.935106
O O9 0.553140 0.609651 0.151417
O O10 0.602497 0.696426 0.060820
O O11 0.381866 0.598258 0.040328
O O12 0.500000 0.409209 0.750000
O O13 0.277012 0.447173 0.739770
O O14 0.275579 0.879319 0.474508
O O15 0.286019 0.936499 0.369987
#
# Coordination Sequence:
#
# PCOD8146479 Si02
#       7
#     8   8   8   8   8   8   8
#     4  11  20  39  59  88 126 163 200 261 310 371
#     4  10  22  41  66  90 127 168 208 254 313 368
#     4  12  23  39  67  95 122 169 210 254 316 371
#     4  11  20  37  63  88 124 160 205 253 306 369
#     4  11  23  39  63  93 123 159 210 260 311 366
#     4  10  22  44  63  91 126 165 209 261 307 365
#     4  11  21  39  64  89 123 168 201 251 318 368
#
# _framework density 24.596005999999999
#
# number of rings (size 3 to 8) (size 9 to 14) (size 15 to 20)
#    0.000    1.143    5.714    2.143    0.000    1.714 
#    0.000    7.143    0.000    0.000    0.000    0.000 
#    0.000    0.000    0.000    0.000    0.000    0.000 
#
# Total GULP energy -346923.043868 kJ/mol
# GULP energy per Si atom -12390.108710 kJ/mol
# Density = 2.454002 g / cm^3
# Si number density = 24.596006 Si / 1000 Ang^3
#
#
#
# Elastic Constant Matrix: (Units=GPa)
#
#
# Indices 1 2 3 4 5 6 
#
# 1 115.1297 45.8424 14.7318 0.0000 -1.6812 0.0000
# 2 45.8424 63.7209 23.9035 0.0000 7.7960 0.0000
# 3 14.7318 23.9035 39.4949 0.0000 -12.6189 0.0000
# 4 0.0000 0.0000 0.0000 1.9009 0.0000 10.4582
# 5 -1.6812 7.7960 -12.6189 0.0000 35.9426 0.0000
# 6 0.0000 0.0000 0.0000 10.4582 0.0000 34.2555
#
#
#
# Elastic Compliance Matrix: (Units=1/GPa)
#
#
# Indices 1 2 3 4 5 6 
#
# 1 0.012618 -0.010707 0.003046 0.000000 0.003982 0.000000
# 2 -0.010707 0.033016 -0.020766 0.000000 -0.014952 0.000000
# 3 0.003046 -0.020766 0.043067 0.000000 0.019767 0.000000
# 4 0.000000 0.000000 0.000000 -0.773993 0.000000 0.236299
# 5 0.003982 -0.014952 0.019767 0.000000 0.038191 0.000000
# 6 0.000000 0.000000 0.000000 0.236299 0.000000 -0.042950
#
#
# Mechanical properties :
#
#
# Convention : Reuss Voigt Hill
#
# Bulk Modulus (GPa) = 31.40010 43.03344 37.21677
# Shear Modulus (GPa) = -8.03108 23.34432 7.65662
#
# Velocity S-wave (km/s) = -1.80895 3.08411 1.76627
# Velocity P-wave (km/s) = 2.90362 5.49694 4.39587
#
# Compressibility (1/GPa) = 0.03184703
#
# Stress axis : x y z
#
# Youngs Moduli (GPa) = 79.25376 30.28854 23.21958
#
# Poissons Ratio (x) = 0.32431 -0.07073
# Poissons Ratio (y) = 0.84861 0.48217
# Poissons Ratio (z) = -0.24143 0.62896
#
# Static dielectric constant tensor:
#      x y z
#    x 4.596180 0.000000 -0.504580 
#    y 0.000000 4.474460 0.000000 
#    z -0.504580 0.000000 5.010850 
# 
# 
# High freq. dielectric constant tensor:
#      x y z
#    x 1.974050 0.000000 -0.030730 
#    y 0.000000 1.969610 0.000000 
#    z -0.030730 0.000000 1.979830 
# 
# From -- ./inp_files/291493.got.cif
#   From: 2010.06.25/outbox.cif.g09.slc.cpg/sg15_146_cif.got.tgz:291493.got - 2010.06.28 07:06:18.
