data_PCOD8146507
_publ_section_title
;
Structure prediction by ZEFSAII (Michael W. Deem and Ramdas Pophale) SiO2 
 PCOD8146507
Probable space group: C 2/C
;
_chemical_formula_sum "Si O2"
_cell_formula_units_Z 40
_cell_length_a 8.984267
_cell_length_b 20.394064
_cell_length_c 11.651197
_cell_angle_alpha 90.000000
_cell_angle_beta 133.145144
_cell_angle_gamma 90.000000
_cell_volume 1557.599863
_symmetry_space_group_name_H-M "C 2/C"
_symmetry_group_IT_number 15
_symmetry_cell_setting 'monoclinic'
loop_
_space_group_symop_operation_xyz
x,y,z
-x,y,1/2-z
-x,-y,-z
x,-y,1/2+z
1/2+x,1/2+y,z
1/2-x,1/2+y,1/2-z
1/2-x,1/2-y,-z
1/2+x,1/2-y,1/2+z
loop_
_atom_site_type_symbol
_atom_site_label
_atom_site_fract_x
_atom_site_fract_y
_atom_site_fract_z
Si Si1 0.890397 0.329270 0.050508
Si Si2 0.330895 0.294107 0.786200
Si Si3 0.500000 0.031929 0.250000
Si Si4 0.500000 0.720721 0.750000
Si Si5 0.837488 0.121234 0.504614
Si Si6 0.226604 0.411388 0.286115
O O1 0.791752 0.363493 0.111607
O O2 0.975187 0.255323 0.119291
O O3 0.081883 0.375827 0.115034
O O4 0.715458 0.326394 0.862116
O O5 0.373496 0.353243 0.894790
O O6 0.119487 0.261399 0.717307
O O7 0.635179 0.076902 0.406524
O O8 0.655889 0.986034 0.263547
O O9 0.325444 0.680202 0.589536
O O10 0.046117 0.082053 0.643350
#
# Coordination Sequence:
#
# PCOD8146507 Si02
#       6
#     8   8   4   4   8   8
#     4  10  22  41  67 101 141 177 219 280 344 410
#     4  12  23  40  68 104 146 177 222 280 351 420
#     4  10  25  46  72  96 136 185 242 282 330 400
#     4  12  25  42  62 104 146 181 220 280 344 424
#     4  12  25  43  71 100 138 186 230 283 347 400
#     4  10  24  48  68  99 141 179 236 284 332 408
#
# _framework density 25.680537000000001
#
# number of rings (size 3 to 8) (size 9 to 14) (size 15 to 20)
#    0.000    1.200    4.000    1.800    2.800    8.000 
#    0.000   13.000    0.000    0.000    0.000    0.000 
#    0.000    0.000    0.000    0.000    0.000    0.000 
#
# Total GULP energy -247871.998317 kJ/mol
# GULP energy per Si atom -12393.599916 kJ/mol
# Density = 2.562209 g / cm^3
# Si number density = 25.680537 Si / 1000 Ang^3
#
#
#
# Elastic Constant Matrix: (Units=GPa)
#
#
# Indices 1 2 3 4 5 6 
#
# 1 63.2031 6.7947 3.4088 0.0000 12.0645 0.0000
# 2 6.7947 98.2116 19.4966 0.0000 2.6558 0.0000
# 3 3.4088 19.4966 116.0166 0.0000 8.3405 0.0000
# 4 0.0000 0.0000 0.0000 20.1122 0.0000 10.9339
# 5 12.0645 2.6558 8.3405 0.0000 42.6034 0.0000
# 6 0.0000 0.0000 0.0000 10.9339 0.0000 25.2881
#
#
#
# Elastic Compliance Matrix: (Units=1/GPa)
#
#
# Indices 1 2 3 4 5 6 
#
# 1 0.016831 -0.001041 0.000019 0.000000 -0.004705 0.000000
# 2 -0.001041 0.010602 -0.001749 0.000000 -0.000024 0.000000
# 3 0.000019 -0.001749 0.009033 0.000000 -0.001665 0.000000
# 4 0.000000 0.000000 0.000000 0.065000 0.000000 -0.028104
# 5 -0.004705 -0.000024 -0.001665 0.000000 0.025132 0.000000
# 6 0.000000 0.000000 0.000000 -0.028104 0.000000 0.051696
#
#
# Mechanical properties :
#
#
# Convention : Reuss Voigt Hill
#
# Bulk Modulus (GPa) = 32.33913 37.42571 34.88242
# Shear Modulus (GPa) = 25.75411 34.11614 29.93512
#
# Velocity S-wave (km/s) = 3.17024 3.64879 3.41790
# Velocity P-wave (km/s) = 5.10105 5.68830 5.40266
#
# Compressibility (1/GPa) = 0.03092229
#
# Stress axis : x y z
#
# Youngs Moduli (GPa) = 59.41410 94.32150 110.71060
#
# Poissons Ratio (x) = 0.09818 -0.00206
# Poissons Ratio (y) = 0.06184 0.19368
# Poissons Ratio (z) = -0.00111 0.16500
#
# Static dielectric constant tensor:
#      x y z
#    x 4.524000 0.000000 0.246420 
#    y 0.000000 4.507110 0.000000 
#    z 0.246420 0.000000 5.057150 
# 
# 
# High freq. dielectric constant tensor:
#      x y z
#    x 2.030120 0.000000 0.018820 
#    y 0.000000 2.003040 0.000000 
#    z 0.018820 0.000000 2.039750 
# 
# From -- ./inp_files/146909.got.cif
#   From: 2010.06.25/outbox.cif.g09.slc.cpg/sg15_74_cif.got.tgz:146909.got - 2010.06.28 07:06:18.
