data_PCOD8146761
_publ_section_title
;
Structure prediction by ZEFSAII (Michael W. Deem and Ramdas Pophale) SiO2 
 PCOD8146761
Probable space group: C 2/C
;
_chemical_formula_sum "Si O2"
_cell_formula_units_Z 44
_cell_length_a 22.206804
_cell_length_b 9.752891
_cell_length_c 21.958338
_cell_angle_alpha 90.000000
_cell_angle_beta 153.376671
_cell_angle_gamma 90.000000
_cell_volume 2131.160942
_symmetry_space_group_name_H-M "C 2/C"
_symmetry_group_IT_number 15
_symmetry_cell_setting 'monoclinic'
loop_
_space_group_symop_operation_xyz
x,y,z
-x,y,1/2-z
-x,-y,-z
x,-y,1/2+z
1/2+x,1/2+y,z
1/2-x,1/2+y,1/2-z
1/2-x,1/2-y,-z
1/2+x,1/2-y,1/2+z
loop_
_atom_site_type_symbol
_atom_site_label
_atom_site_fract_x
_atom_site_fract_y
_atom_site_fract_z
Si Si1 0.803345 0.968327 0.729542
Si Si2 0.625104 0.944844 0.743887
Si Si3 0.500000 0.989656 0.750000
Si Si4 0.597066 0.595891 0.504515
Si Si5 0.611076 0.872148 0.457711
Si Si6 0.679455 0.263764 0.194871
O O1 0.737785 0.944749 0.604461
O O2 0.781459 0.838278 0.753552
O O3 0.742245 0.107660 0.703522
O O4 0.963519 0.989250 0.868072
O O5 0.599717 0.818392 0.675418
O O6 0.582022 0.899354 0.774243
O O7 0.779555 0.990729 0.881824
O O8 0.528046 0.071722 0.636805
O O9 0.392450 0.087364 0.616985
O O10 0.620267 0.708855 0.472850
O O11 0.579243 0.673573 0.553355
#
# Coordination Sequence:
#
# PCOD8146761 Si02
#       6
#     8   8   4   8   8   8
#     4  11  24  37  64  99 128 162 209 257 326 367
#     4  10  22  42  64  87 128 169 210 253 314 374
#     4   8  22  44  62  88 118 182 214 252 300 386
#     4  11  22  39  62 102 126 155 210 272 311 369
#     4   9  21  41  65  85 125 167 213 250 316 374
#     4  11  23  38  65  95 134 162 203 262 319 381
#
# _framework density 20.646023
#
# number of rings (size 3 to 8) (size 9 to 14) (size 15 to 20)
#    1.091    0.727    1.818    2.727    2.545    2.182 
#    0.000    0.909    0.000    0.000    0.000    0.000 
#    0.000    0.000    0.000    0.000    0.000    0.000 
#
# Total GULP energy -272595.651203 kJ/mol
# GULP energy per Si atom -12390.711418 kJ/mol
# Density = 2.059903 g / cm^3
# Si number density = 20.646023 Si / 1000 Ang^3
#
#
#
# Elastic Constant Matrix: (Units=GPa)
#
#
# Indices 1 2 3 4 5 6 
#
# 1 107.1985 18.2920 44.8116 -0.0005 -20.2602 -0.0001
# 2 18.2920 70.0014 21.9190 -0.0021 -5.0454 -0.0007
# 3 44.8116 21.9190 117.6519 -0.0021 1.5946 -0.0008
# 4 -0.0005 -0.0021 -0.0021 23.2593 -0.0009 -2.6708
# 5 -20.2602 -5.0454 1.5946 -0.0009 31.7820 -0.0002
# 6 -0.0001 -0.0007 -0.0008 -2.6708 -0.0002 16.7278
#
#
#
# Elastic Compliance Matrix: (Units=1/GPa)
#
#
# Indices 1 2 3 4 5 6 
#
# 1 0.013196 -0.001306 -0.004897 0.000000 0.008450 0.000000
# 2 -0.001306 0.015509 -0.002416 0.000001 0.001751 0.000001
# 3 -0.004897 -0.002416 0.010870 0.000001 -0.004051 0.000000
# 4 0.000000 0.000001 0.000001 0.043796 0.000002 0.006993
# 5 0.008450 0.001751 -0.004051 0.000002 0.037332 0.000001
# 6 0.000000 0.000001 0.000000 0.006993 0.000001 0.060897
#
#
# Mechanical properties :
#
#
# Convention : Reuss Voigt Hill
#
# Bulk Modulus (GPa) = 44.76829 51.65522 48.21175
# Shear Modulus (GPa) = 24.23844 28.34244 26.29044
#
# Velocity S-wave (km/s) = 3.43009 3.70912 3.57233
# Velocity P-wave (km/s) = 6.11704 6.58918 6.35749
#
# Compressibility (1/GPa) = 0.02233724
#
# Stress axis : x y z
#
# Youngs Moduli (GPa) = 75.78327 64.47751 91.99705
#
# Poissons Ratio (x) = 0.08418 0.45053
# Poissons Ratio (y) = 0.09894 0.22225
# Poissons Ratio (z) = 0.37113 0.15577
#
# Static dielectric constant tensor:
#      x y z
#    x 3.486700 0.000000 -0.224680 
#    y 0.000000 3.656620 0.000000 
#    z -0.224680 0.000000 3.643220 
# 
# 
# High freq. dielectric constant tensor:
#      x y z
#    x 1.783970 0.000000 -0.013350 
#    y 0.000000 1.794240 0.000000 
#    z -0.013350 0.000000 1.806640 
# 
# From -- ./inp_files/281561.got.cif
#   From: 2010.06.25/outbox.cif.g09.slc.cpg/sg15_141_cif.got.tgz:281561.got - 2010.06.28 07:06:18.
