data_PCOD8146593
_publ_section_title
;
Structure prediction by ZEFSAII (Michael W. Deem and Ramdas Pophale) SiO2 
 PCOD8146593
Probable space group: C 2/C
;
_chemical_formula_sum "Si O2"
_cell_formula_units_Z 48
_cell_length_a 27.635663
_cell_length_b 17.439905
_cell_length_c 9.238110
_cell_angle_alpha 90.000000
_cell_angle_beta 147.760184
_cell_angle_gamma 90.000000
_cell_volume 2375.212112
_symmetry_space_group_name_H-M "C 2/C"
_symmetry_group_IT_number 15
_symmetry_cell_setting 'monoclinic'
loop_
_space_group_symop_operation_xyz
x,y,z
-x,y,1/2-z
-x,-y,-z
x,-y,1/2+z
1/2+x,1/2+y,z
1/2-x,1/2+y,1/2-z
1/2-x,1/2-y,-z
1/2+x,1/2-y,1/2+z
loop_
_atom_site_type_symbol
_atom_site_label
_atom_site_fract_x
_atom_site_fract_y
_atom_site_fract_z
Si Si1 0.106266 0.926837 0.679699
Si Si2 0.896553 0.919969 0.159658
Si Si3 0.258114 0.706190 0.374614
Si Si4 0.740729 0.181531 0.868060
Si Si5 0.593071 0.907966 0.414596
Si Si6 0.410177 0.060614 0.931428
O O1 0.134785 0.933948 0.584216
O O2 0.002668 0.902297 0.436990
O O3 0.129178 0.006751 0.811862
O O4 0.163734 0.861702 0.903234
O O5 0.844471 0.848964 0.096305
O O6 0.250000 0.750000 0.500000
O O7 0.282520 0.778858 0.339524
O O8 0.168014 0.658975 0.101820
O O9 0.663350 0.124110 0.720603
O O10 0.750000 0.250000 0.000000
O O11 0.500000 0.875391 0.250000
O O12 0.625766 0.978188 0.601013
O O13 0.573994 0.939451 0.202924
O O14 0.500000 0.081325 0.250000
#
# Coordination Sequence:
#
# PCOD8146593 Si02
#       6
#     8   8   8   8   8   8
#     4  10  22  41  69  90 124 163 209 257 303 377
#     4  10  22  43  65  94 121 164 211 252 311 367
#     4  12  28  41  62  95 132 166 208 262 316 377
#     4  12  24  43  62  93 127 168 207 253 325 376
#     4  11  24  44  66  95 126 167 218 261 313 375
#     4  11  24  42  70  92 126 169 215 263 312 377
#
# _framework density 20.208722000000002
#
# number of rings (size 3 to 8) (size 9 to 14) (size 15 to 20)
#    0.000    1.000    3.333    3.000    7.000    2.667 
#    0.000    0.000    0.000    0.000    0.000    0.000 
#    0.000    0.000    0.000    0.000    0.000    0.000 
#
# Total GULP energy -297551.547716 kJ/mol
# GULP energy per Si atom -12397.981155 kJ/mol
# Density = 2.016273 g / cm^3
# Si number density = 20.208722 Si / 1000 Ang^3
#
#
#
# Elastic Constant Matrix: (Units=GPa)
#
#
# Indices 1 2 3 4 5 6 
#
# 1 119.4676 56.0297 35.9788 0.0000 -13.4396 0.0000
# 2 56.0297 114.8585 49.2260 0.0000 9.3428 0.0000
# 3 35.9788 49.2260 77.4337 0.0000 -1.8156 0.0000
# 4 0.0000 0.0000 0.0000 17.4976 0.0000 -22.7593
# 5 -13.4396 9.3428 -1.8156 0.0000 34.2346 0.0000
# 6 0.0000 0.0000 0.0000 -22.7593 0.0000 22.1805
#
#
#
# Elastic Compliance Matrix: (Units=1/GPa)
#
#
# Indices 1 2 3 4 5 6 
#
# 1 0.012338 -0.005686 -0.001971 0.000000 0.006291 0.000000
# 2 -0.005686 0.015067 -0.007094 0.000000 -0.006720 0.000000
# 3 -0.001971 -0.007094 0.018390 0.000000 0.002138 0.000000
# 4 0.000000 0.000000 0.000000 -0.170775 0.000000 -0.175232
# 5 0.006291 -0.006720 0.002138 0.000000 0.033627 0.000000
# 6 0.000000 0.000000 0.000000 -0.175232 0.000000 -0.134720
#
#
# Mechanical properties :
#
#
# Convention : Reuss Voigt Hill
#
# Bulk Modulus (GPa) = 61.37285 66.02544 63.69914
# Shear Modulus (GPa) = -26.15888 26.15090 -0.00399
#
# Velocity S-wave (km/s) = -3.60173 3.60118 -0.04449
# Velocity P-wave (km/s) = 3.62475 7.07347 5.62018
#
# Compressibility (1/GPa) = 0.01629385
#
# Stress axis : x y z
#
# Youngs Moduli (GPa) = 81.04815 66.36997 54.37764
#
# Poissons Ratio (x) = 0.37738 0.10716
# Poissons Ratio (y) = 0.46083 0.38576
# Poissons Ratio (z) = 0.15972 0.47083
#
# Static dielectric constant tensor:
#      x y z
#    x 3.711740 0.000000 -0.087660 
#    y 0.000000 3.862510 0.000000 
#    z -0.087660 0.000000 3.748810 
# 
# 
# High freq. dielectric constant tensor:
#      x y z
#    x 1.807940 0.000000 -0.002120 
#    y 0.000000 1.795750 0.000000 
#    z -0.002120 0.000000 1.795710 
# 
# From -- ./inp_files/70648.got.cif
#   From: 2010.06.25/outbox.cif.g09.slc.cpg/sg15_36_cif.got.tgz:70648.got - 2010.06.28 07:06:18.
