data_PCOD8146033
_publ_section_title
;
Structure prediction by ZEFSAII (Michael W. Deem and Ramdas Pophale) SiO2 
 PCOD8146033
Probable space group: C 2/C
;
_chemical_formula_sum "Si O2"
_cell_formula_units_Z 32
_cell_length_a 5.001288
_cell_length_b 19.119575
_cell_length_c 14.840652
_cell_angle_alpha 90.000000
_cell_angle_beta 62.111863
_cell_angle_gamma 90.000000
_cell_volume 1254.289498
_symmetry_space_group_name_H-M "C 2/C"
_symmetry_group_IT_number 15
_symmetry_cell_setting 'monoclinic'
loop_
_space_group_symop_operation_xyz
x,y,z
-x,y,1/2-z
-x,-y,-z
x,-y,1/2+z
1/2+x,1/2+y,z
1/2-x,1/2+y,1/2-z
1/2-x,1/2-y,-z
1/2+x,1/2-y,1/2+z
loop_
_atom_site_type_symbol
_atom_site_label
_atom_site_fract_x
_atom_site_fract_y
_atom_site_fract_z
Si Si1 0.107703 0.668780 0.955114
Si Si2 0.848173 0.048689 0.179331
Si Si3 0.278467 0.812686 0.866594
Si Si4 0.740620 0.401142 0.365699
O O1 0.063868 0.746093 0.919388
O O2 0.462429 0.649268 0.886836
O O3 0.888887 0.614926 0.938989
O O4 0.027859 0.668994 0.073941
O O5 0.500000 0.065413 0.250000
O O6 0.952178 0.121671 0.116395
O O7 0.000000 0.032165 0.250000
O O8 0.885662 0.980822 0.110284
O O9 0.500000 0.794311 0.750000
O O10 0.000000 0.392660 0.250000
#
# Coordination Sequence:
#
# PCOD8146033 Si02
#       4
#     8   8   8   8
#     4  11  25  41  68  98 124 174 219 257 324 382
#     4  10  22  40  65  94 128 171 210 259 325 376
#     4  10  24  44  65  95 135 168 213 269 320 382
#     4  11  22  42  66  95 132 167 215 266 311 377
#
# _framework density 25.512454000000002
#
# number of rings (size 3 to 8) (size 9 to 14) (size 15 to 20)
#    0.000    1.500    0.000    5.250    0.000   15.000 
#    0.000    0.000    0.000    0.000    0.000    0.000 
#    0.000    0.000    0.000    0.000    0.000    0.000 
#
# Total GULP energy -198379.850262 kJ/mol
# GULP energy per Si atom -12398.740641 kJ/mol
# Density = 2.545439 g / cm^3
# Si number density = 25.512454 Si / 1000 Ang^3
#
#
#
# Elastic Constant Matrix: (Units=GPa)
#
#
# Indices 1 2 3 4 5 6 
#
# 1 128.9766 44.1350 37.0974 0.0000 30.5184 0.0000
# 2 44.1350 170.5153 64.2908 0.0000 38.0570 0.0000
# 3 37.0974 64.2908 150.2830 0.0000 29.3489 0.0000
# 4 0.0000 0.0000 0.0000 30.3142 0.0000 30.7344
# 5 30.5184 38.0570 29.3489 0.0000 46.2014 0.0000
# 6 0.0000 0.0000 0.0000 30.7344 0.0000 20.9364
#
#
#
# Elastic Compliance Matrix: (Units=1/GPa)
#
#
# Indices 1 2 3 4 5 6 
#
# 1 0.009526 -0.001020 -0.000971 0.000000 -0.004835 0.000000
# 2 -0.001020 0.007987 -0.002297 0.000000 -0.004446 0.000000
# 3 -0.000971 -0.002297 0.008427 0.000000 -0.002820 0.000000
# 4 0.000000 0.000000 0.000000 -0.067551 0.000000 0.099165
# 5 -0.004835 -0.004446 -0.002820 0.000000 0.030292 0.000000
# 6 0.000000 0.000000 0.000000 0.099165 0.000000 -0.097809
#
#
# Mechanical properties :
#
#
# Convention : Reuss Voigt Hill
#
# Bulk Modulus (GPa) = 57.58976 82.31349 69.95163
# Shear Modulus (GPa) = -52.76200 39.77384 -6.49408
#
# Velocity S-wave (km/s) = -4.55256 3.95270 -1.59718
# Velocity P-wave (km/s) = 2.23879 7.29149 4.90682
#
# Compressibility (1/GPa) = 0.01736420
#
# Stress axis : x y z
#
# Youngs Moduli (GPa) = 104.97795 125.20480 118.66662
#
# Poissons Ratio (x) = 0.12777 0.11518
# Poissons Ratio (y) = 0.10713 0.27253
# Poissons Ratio (z) = 0.10190 0.28755
#
# Static dielectric constant tensor:
#      x y z
#    x 4.397370 0.000000 0.068220 
#    y 0.000000 5.147750 0.000000 
#    z 0.068220 0.000000 4.570170 
# 
# 
# High freq. dielectric constant tensor:
#      x y z
#    x 2.012050 0.000000 0.006380 
#    y 0.000000 2.038350 0.000000 
#    z 0.006380 0.000000 2.022340 
# 
# From -- ./inp_files/128291.got.cif
#   From: 2010.06.25/outbox.cif.g09.slc.cpg/sg15_65_cif.got.tgz:128291.got - 2010.06.28 07:06:18.
