data_PCOD8146952
_publ_section_title
;
Structure prediction by ZEFSAII (Michael W. Deem and Ramdas Pophale) SiO2 
 PCOD8146952
Probable space group: C 2/C
;
_chemical_formula_sum "Si O2"
_cell_formula_units_Z 44
_cell_length_a 31.040904
_cell_length_b 8.068559
_cell_length_c 10.143084
_cell_angle_alpha 90.000000
_cell_angle_beta 128.167516
_cell_angle_gamma 90.000000
_cell_volume 1997.273204
_symmetry_space_group_name_H-M "C 2/C"
_symmetry_group_IT_number 15
_symmetry_cell_setting 'monoclinic'
loop_
_space_group_symop_operation_xyz
x,y,z
-x,y,1/2-z
-x,-y,-z
x,-y,1/2+z
1/2+x,1/2+y,z
1/2-x,1/2+y,1/2-z
1/2-x,1/2-y,-z
1/2+x,1/2-y,1/2+z
loop_
_atom_site_type_symbol
_atom_site_label
_atom_site_fract_x
_atom_site_fract_y
_atom_site_fract_z
Si Si1 0.000000 0.602117 0.250000
Si Si2 0.798938 0.967887 0.552196
Si Si3 0.385553 0.946857 0.029026
Si Si4 0.640032 0.420596 0.097202
Si Si5 0.527997 0.579589 0.929487
Si Si6 0.176744 0.595710 0.826743
O O1 0.052002 0.489039 0.315168
O O2 0.015364 0.722271 0.403275
O O3 0.828050 0.996661 0.467225
O O4 0.812772 0.790048 0.640210
O O5 0.734400 0.995873 0.409579
O O6 0.820163 0.099703 0.700956
O O7 0.349136 0.977538 0.089191
O O8 0.384826 0.757258 0.982227
O O9 0.362985 0.064951 0.871575
O O10 0.592656 0.548377 0.049545
O O11 0.500000 0.492887 0.750000
O O12 0.500000 0.500000 0.000000
#
# Coordination Sequence:
#
# PCOD8146952 Si02
#       6
#     4   8   8   8   8   8
#     4  10  26  44  66  90 136 172 206 278 324 378
#     4  10  22  42  67  94 130 171 213 269 322 388
#     4  11  25  41  65  98 131 171 214 267 329 384
#     4  11  23  40  67  97 126 169 221 265 324 391
#     4  10  23  41  66  91 125 171 214 262 316 384
#     4  10  23  43  65  95 132 169 214 267 329 385
#
# _framework density 22.030035999999999
#
# number of rings (size 3 to 8) (size 9 to 14) (size 15 to 20)
#    0.545    1.091    0.000    3.273    3.818    4.364 
#    0.000    0.000    0.000    0.000    0.000    0.000 
#    0.000    0.000    0.000    0.000    0.000    0.000 
#
# Total GULP energy -272836.200397 kJ/mol
# GULP energy per Si atom -12401.645473 kJ/mol
# Density = 2.197989 g / cm^3
# Si number density = 22.030036 Si / 1000 Ang^3
#
#
#
# Elastic Constant Matrix: (Units=GPa)
#
#
# Indices 1 2 3 4 5 6 
#
# 1 182.5485 50.4554 72.0665 0.0000 4.9770 0.0000
# 2 50.4554 62.3093 24.2218 0.0000 1.6278 0.0000
# 3 72.0665 24.2218 103.5207 0.0000 -1.9994 0.0000
# 4 0.0000 0.0000 0.0000 35.1067 0.0000 2.8145
# 5 4.9770 1.6278 -1.9994 0.0000 49.5040 0.0000
# 6 0.0000 0.0000 0.0000 2.8145 0.0000 25.3523
#
#
#
# Elastic Compliance Matrix: (Units=1/GPa)
#
#
# Indices 1 2 3 4 5 6 
#
# 1 0.008935 -0.005265 -0.005006 0.000000 -0.000927 0.000000
# 2 -0.005265 0.020785 -0.001202 0.000000 -0.000203 0.000000
# 3 -0.005006 -0.001202 0.013447 0.000000 0.001086 0.000000
# 4 0.000000 0.000000 0.000000 0.028740 0.000000 -0.003191
# 5 -0.000927 -0.000203 0.001086 0.000000 0.020344 0.000000
# 6 0.000000 0.000000 0.000000 -0.003191 0.000000 0.039798
#
#
# Mechanical properties :
#
#
# Convention : Reuss Voigt Hill
#
# Bulk Modulus (GPa) = 49.45376 71.31842 60.38609
# Shear Modulus (GPa) = 30.91474 35.43491 33.17483
#
# Velocity S-wave (km/s) = 3.75013 4.01494 3.88479
# Velocity P-wave (km/s) = 6.42249 7.34415 6.89873
#
# Compressibility (1/GPa) = 0.02022091
#
# Stress axis : x y z
#
# Youngs Moduli (GPa) = 111.92346 48.11241 74.36547
#
# Poissons Ratio (x) = 0.25330 0.37227
# Poissons Ratio (y) = 0.58924 0.08939
# Poissons Ratio (z) = 0.56029 0.05784
#
# Static dielectric constant tensor:
#      x y z
#    x 3.979330 0.000000 0.071050 
#    y 0.000000 3.740170 0.000000 
#    z 0.071050 0.000000 4.024110 
# 
# 
# High freq. dielectric constant tensor:
#      x y z
#    x 1.876560 0.000000 0.006790 
#    y 0.000000 1.853960 0.000000 
#    z 0.006790 0.000000 1.875660 
# 
# From -- ./inp_files/68670.got.cif
#   From: 2010.06.25/outbox.cif.g09.slc.cpg/sg15_35_cif.got.tgz:68670.got - 2010.06.28 07:06:18.
