data_PCOD8146284
_publ_section_title
;
Structure prediction by ZEFSAII (Michael W. Deem and Ramdas Pophale) SiO2 
 PCOD8146284
Probable space group: C 2/C
;
_chemical_formula_sum "Si O2"
_cell_formula_units_Z 60
_cell_length_a 14.340076
_cell_length_b 32.220389
_cell_length_c 14.284151
_cell_angle_alpha 90.000000
_cell_angle_beta 151.345868
_cell_angle_gamma 90.000000
_cell_volume 3164.786583
_symmetry_space_group_name_H-M "C 2/C"
_symmetry_group_IT_number 15
_symmetry_cell_setting 'monoclinic'
loop_
_space_group_symop_operation_xyz
x,y,z
-x,y,1/2-z
-x,-y,-z
x,-y,1/2+z
1/2+x,1/2+y,z
1/2-x,1/2+y,1/2-z
1/2-x,1/2-y,-z
1/2+x,1/2-y,1/2+z
loop_
_atom_site_type_symbol
_atom_site_label
_atom_site_fract_x
_atom_site_fract_y
_atom_site_fract_z
Si Si1 0.879834 0.458213 0.058161
Si Si2 0.500000 0.099692 0.250000
Si Si3 0.378594 0.436332 0.829935
Si Si4 0.243603 0.977469 0.213908
Si Si5 0.987781 0.710909 0.352169
Si Si6 0.590620 0.303179 0.228819
Si Si7 0.290018 0.457547 0.102223
Si Si8 0.798414 0.142979 0.380677
O O1 0.000000 0.436444 0.250000
O O2 0.032472 0.470580 0.112040
O O3 0.715843 0.432223 0.857709
O O4 0.771906 0.499217 0.002858
O O5 0.615976 0.073883 0.429493
O O6 0.664543 0.126752 0.346353
O O7 0.292177 0.472759 0.821123
O O8 0.335983 0.391429 0.835553
O O9 0.607046 0.449697 0.023306
O O10 0.190868 0.962027 0.270575
O O11 0.179892 0.691312 0.565617
O O12 0.000000 0.708206 0.250000
O O13 0.968602 0.758667 0.366873
O O14 0.813903 0.685096 0.248345
O O15 0.500000 0.306194 0.250000
O O16 0.511514 0.342166 0.100236
O O17 0.500000 0.442387 0.250000
#
# Coordination Sequence:
#
# PCOD8146284 Si02
#       8
#     8   4   8   8   8   8   8   8
#     4  11  23  37  61  78 102 151 196 236 293 350
#     4  12  22  34  48  82 114 144 202 246 264 326
#     4  10  23  37  55  77 111 142 188 236 289 330
#     4  10  22  41  55  77 116 153 185 244 292 336
#     4  11  19  35  52  74 109 151 192 231 274 336
#     4  11  19  33  53  74 106 154 193 225 279 337
#     4  11  23  36  59  82 110 152 200 240 285 337
#     4  12  22  33  52  82 109 149 190 244 277 327
#
# _framework density 18.958625000000001
#
# number of rings (size 3 to 8) (size 9 to 14) (size 15 to 20)
#    0.000    1.067    4.000    4.800    5.600    4.800 
#    0.000    0.000    0.000    0.000    0.000    0.000 
#    0.000    1.067    0.000    0.133    0.000    0.000 
#
# Total GULP energy -371762.325748 kJ/mol
# GULP energy per Si atom -12392.077525 kJ/mol
# Density = 1.891547 g / cm^3
# Si number density = 18.958625 Si / 1000 Ang^3
#
#
#
# Elastic Constant Matrix: (Units=GPa)
#
#
# Indices 1 2 3 4 5 6 
#
# 1 26.8730 17.4660 17.0775 0.0000 -2.6639 0.0000
# 2 17.4660 96.6911 39.9856 0.0000 -14.3044 0.0000
# 3 17.0775 39.9856 138.2762 0.0000 -6.6270 0.0000
# 4 0.0000 0.0000 0.0000 25.2846 0.0000 3.4138
# 5 -2.6639 -14.3044 -6.6270 0.0000 27.8053 0.0000
# 6 0.0000 0.0000 0.0000 3.4138 0.0000 24.8004
#
#
#
# Elastic Compliance Matrix: (Units=1/GPa)
#
#
# Indices 1 2 3 4 5 6 
#
# 1 0.043629 -0.006415 -0.003531 0.000000 0.000038 0.000000
# 2 -0.006415 0.013515 -0.002845 0.000000 0.005660 0.000000
# 3 -0.003531 -0.002845 0.008501 0.000000 0.000224 0.000000
# 4 0.000000 0.000000 0.000000 0.040299 0.000000 -0.005547
# 5 0.000038 0.005660 0.000224 0.000000 0.038933 0.000000
# 6 0.000000 0.000000 0.000000 -0.005547 0.000000 0.041085
#
#
# Mechanical properties :
#
#
# Convention : Reuss Voigt Hill
#
# Bulk Modulus (GPa) = 24.96046 45.65538 35.30792
# Shear Modulus (GPa) = 22.23214 28.06548 25.14881
#
# Velocity S-wave (km/s) = 3.42814 3.85171 3.64608
# Velocity P-wave (km/s) = 5.37251 6.62682 6.03235
#
# Compressibility (1/GPa) = 0.04006337
#
# Stress axis : x y z
#
# Youngs Moduli (GPa) = 22.92032 73.99358 117.62824
#
# Poissons Ratio (x) = 0.47467 0.41540
# Poissons Ratio (y) = 0.14704 0.33460
# Poissons Ratio (z) = 0.08094 0.21048
#
# Static dielectric constant tensor:
#      x y z
#    x 3.064910 0.000000 0.244890 
#    y 0.000000 3.632850 0.000000 
#    z 0.244890 0.000000 3.827760 
# 
# 
# High freq. dielectric constant tensor:
#      x y z
#    x 1.681550 0.000000 0.018900 
#    y 0.000000 1.715800 0.000000 
#    z 0.018900 0.000000 1.770310 
# 
# From -- ./inp_files/157547.got.cif
#   From: 2010.06.25/outbox.cif.g09.slc.cpg/sg15_79_cif.got.tgz:157547.got - 2010.06.28 07:06:18.
