data_PCOD8146651
_publ_section_title
;
Structure prediction by ZEFSAII (Michael W. Deem and Ramdas Pophale) SiO2 
 PCOD8146651
Probable space group: C 2/C
;
_chemical_formula_sum "Si O2"
_cell_formula_units_Z 48
_cell_length_a 12.775623
_cell_length_b 8.303065
_cell_length_c 19.698232
_cell_angle_alpha 90.000000
_cell_angle_beta 80.870881
_cell_angle_gamma 90.000000
_cell_volume 2063.058572
_symmetry_space_group_name_H-M "C 2/C"
_symmetry_group_IT_number 15
_symmetry_cell_setting 'monoclinic'
loop_
_space_group_symop_operation_xyz
x,y,z
-x,y,1/2-z
-x,-y,-z
x,-y,1/2+z
1/2+x,1/2+y,z
1/2-x,1/2+y,1/2-z
1/2-x,1/2-y,-z
1/2+x,1/2-y,1/2+z
loop_
_atom_site_type_symbol
_atom_site_label
_atom_site_fract_x
_atom_site_fract_y
_atom_site_fract_z
Si Si1 0.780823 0.989934 0.695674
Si Si2 0.687604 0.583735 0.575885
Si Si3 0.239857 0.734163 0.594558
Si Si4 0.578718 0.850748 0.006287
Si Si5 0.383552 0.720504 0.783978
Si Si6 0.121711 0.190945 0.438799
O O1 0.727187 0.148019 0.668003
O O2 0.849049 0.052511 0.752242
O O3 0.692338 0.866788 0.731310
O O4 0.854256 0.910685 0.630672
O O5 0.679207 0.402964 0.603566
O O6 0.620807 0.697854 0.633987
O O7 0.810411 0.642969 0.565118
O O8 0.643274 0.590174 0.504653
O O9 0.365198 0.768250 0.565183
O O10 0.180686 0.615772 0.545222
O O11 0.503144 0.723289 0.051534
O O12 0.500000 0.000000 0.000000
O O13 0.500000 0.772199 0.750000
#
# Coordination Sequence:
#
# PCOD8146651 Si02
#       6
#     8   8   8   8   8   8
#     4  11  26  49  68 103 137 181 241 293 341 427
#     4  10  22  44  68 106 137 173 234 289 337 427
#     4  11  24  39  66 101 140 176 231 278 345 420
#     4  11  23  38  65 107 143 177 215 285 362 408
#     4  11  27  49  73  97 141 193 232 288 361 416
#     4  10  22  41  73 101 141 175 225 291 350 404
#
# _framework density 23.266425999999999
#
# number of rings (size 3 to 8) (size 9 to 14) (size 15 to 20)
#    0.000    1.333    1.667    3.000    9.333    1.333 
#    6.000    0.833    0.000    0.000    0.000    0.000 
#    0.000    0.000    0.000    0.000    0.000    0.000 
#
# Total GULP energy -297524.274324 kJ/mol
# GULP energy per Si atom -12396.844764 kJ/mol
# Density = 2.321347 g / cm^3
# Si number density = 23.266426 Si / 1000 Ang^3
#
#
#
# Elastic Constant Matrix: (Units=GPa)
#
#
# Indices 1 2 3 4 5 6 
#
# 1 121.3063 43.3258 52.9925 0.0000 -27.3683 0.0000
# 2 43.3258 103.8879 26.0317 0.0000 -5.6094 0.0000
# 3 52.9925 26.0317 95.3079 0.0000 -15.7645 0.0000
# 4 0.0000 0.0000 0.0000 41.5009 0.0000 6.2232
# 5 -27.3683 -5.6094 -15.7645 0.0000 35.4157 0.0000
# 6 0.0000 0.0000 0.0000 6.2232 0.0000 30.2319
#
#
#
# Elastic Compliance Matrix: (Units=1/GPa)
#
#
# Indices 1 2 3 4 5 6 
#
# 1 0.013676 -0.003975 -0.005262 0.000000 0.007597 0.000000
# 2 -0.003975 0.011494 -0.001227 0.000000 -0.001797 0.000000
# 3 -0.005262 -0.001227 0.014085 0.000000 0.002009 0.000000
# 4 0.000000 0.000000 0.000000 0.024863 0.000000 -0.005118
# 5 0.007597 -0.001797 0.002009 0.000000 0.034716 0.000000
# 6 0.000000 0.000000 0.000000 -0.005118 0.000000 0.034131
#
#
# Mechanical properties :
#
#
# Convention : Reuss Voigt Hill
#
# Bulk Modulus (GPa) = 54.55940 62.80023 58.67981
# Shear Modulus (GPa) = 31.24981 34.63983 32.94482
#
# Velocity S-wave (km/s) = 3.66885 3.86273 3.76703
# Velocity P-wave (km/s) = 6.43801 6.85161 6.64803
#
# Compressibility (1/GPa) = 0.01832865
#
# Stress axis : x y z
#
# Youngs Moduli (GPa) = 73.12263 87.00416 70.99614
#
# Poissons Ratio (x) = 0.34582 0.37356
# Poissons Ratio (y) = 0.29064 0.08708
# Poissons Ratio (z) = 0.38475 0.10671
#
# Static dielectric constant tensor:
#      x y z
#    x 4.099650 0.000000 -0.125940 
#    y 0.000000 4.182580 0.000000 
#    z -0.125940 0.000000 4.140830 
# 
# 
# High freq. dielectric constant tensor:
#      x y z
#    x 1.909770 0.000000 -0.009790 
#    y 0.000000 1.929460 0.000000 
#    z -0.009790 0.000000 1.913780 
# 
# From -- ./inp_files/268015.got.cif
#   From: 2010.06.25/outbox.cif.g09.slc.cpg/sg15_135_cif.got.tgz:268015.got - 2010.06.28 07:06:18.
