data_PCOD8146310
_publ_section_title
;
Structure prediction by ZEFSAII (Michael W. Deem and Ramdas Pophale) SiO2 
 PCOD8146310
Probable space group: C 2/C
;
_chemical_formula_sum "Si O2"
_cell_formula_units_Z 44
_cell_length_a 22.854400
_cell_length_b 12.023906
_cell_length_c 8.026191
_cell_angle_alpha 90.000000
_cell_angle_beta 54.602202
_cell_angle_gamma 90.000000
_cell_volume 1797.887243
_symmetry_space_group_name_H-M "C 2/C"
_symmetry_group_IT_number 15
_symmetry_cell_setting 'monoclinic'
loop_
_space_group_symop_operation_xyz
x,y,z
-x,y,1/2-z
-x,-y,-z
x,-y,1/2+z
1/2+x,1/2+y,z
1/2-x,1/2+y,1/2-z
1/2-x,1/2-y,-z
1/2+x,1/2-y,1/2+z
loop_
_atom_site_type_symbol
_atom_site_label
_atom_site_fract_x
_atom_site_fract_y
_atom_site_fract_z
Si Si1 0.000000 0.936127 0.250000
Si Si2 0.887604 0.349493 0.349648
Si Si3 0.417078 0.621418 0.199470
Si Si4 0.259989 0.592656 0.522477
Si Si5 0.577518 0.933536 0.557216
Si Si6 0.775915 0.360627 0.050949
O O1 0.058481 0.012563 0.243744
O O2 0.959463 0.861366 0.454738
O O3 0.926171 0.229580 0.303483
O O4 0.801559 0.332902 0.466430
O O5 0.905950 0.433154 0.468413
O O6 0.922160 0.411362 0.136926
O O7 0.332913 0.610313 0.298753
O O8 0.238403 0.463080 0.549422
O O9 0.268312 0.624420 0.703617
O O10 0.500000 0.898917 0.750000
O O11 0.638750 0.859860 0.548796
O O12 0.750000 0.250000 0.000000
#
# Coordination Sequence:
#
# PCOD8146310 Si02
#       6
#     4   8   8   8   8   8
#     4  10  26  44  62  96 130 176 232 274 328 410
#     4  10  23  40  67  95 134 170 218 273 348 389
#     4  11  23  44  65  92 130 177 223 276 339 394
#     4  10  22  42  67  98 131 172 231 283 324 412
#     4  10  22  41  61  98 133 169 219 273 324 414
#     4  10  23  42  67 101 137 179 223 278 344 395
#
# _framework density 24.473168999999999
#
# number of rings (size 3 to 8) (size 9 to 14) (size 15 to 20)
#    0.000    1.818    0.000    2.182    2.545   11.636 
#    6.545    0.000    0.000    0.000    0.000    0.000 
#    0.000    0.000    0.000    0.000    0.000    0.000 
#
# Total GULP energy -272778.754957 kJ/mol
# GULP energy per Si atom -12399.034316 kJ/mol
# Density = 2.441747 g / cm^3
# Si number density = 24.473169 Si / 1000 Ang^3
#
#
#
# Elastic Constant Matrix: (Units=GPa)
#
#
# Indices 1 2 3 4 5 6 
#
# 1 60.6032 13.9197 37.2517 0.0000 -23.3336 0.0000
# 2 13.9197 97.1853 14.7250 0.0000 -5.1724 0.0000
# 3 37.2517 14.7250 111.8238 0.0000 -34.4454 0.0000
# 4 0.0000 0.0000 0.0000 37.0036 0.0000 -1.9447
# 5 -23.3336 -5.1724 -34.4454 0.0000 45.6659 0.0000
# 6 0.0000 0.0000 0.0000 -1.9447 0.0000 14.7535
#
#
#
# Elastic Compliance Matrix: (Units=1/GPa)
#
#
# Indices 1 2 3 4 5 6 
#
# 1 0.023058 -0.002130 -0.005010 0.000000 0.007761 0.000000
# 2 -0.002130 0.010697 -0.000861 0.000000 -0.000526 0.000000
# 3 -0.005010 -0.000861 0.012905 0.000000 0.007077 0.000000
# 4 0.000000 0.000000 0.000000 0.027213 0.000000 0.003587
# 5 0.007761 -0.000526 0.007077 0.000000 0.031142 0.000000
# 6 0.000000 0.000000 0.000000 0.003587 0.000000 0.068253
#
#
# Mechanical properties :
#
#
# Convention : Reuss Voigt Hill
#
# Bulk Modulus (GPa) = 32.61883 44.60056 38.60969
# Shear Modulus (GPa) = 25.06387 33.06566 29.06476
#
# Velocity S-wave (km/s) = 3.20369 3.67972 3.44992
# Velocity P-wave (km/s) = 5.20021 6.02641 5.62849
#
# Compressibility (1/GPa) = 0.03065714
#
# Stress axis : x y z
#
# Youngs Moduli (GPa) = 43.36897 93.48238 77.49059
#
# Poissons Ratio (x) = 0.19916 0.38822
# Poissons Ratio (y) = 0.09239 0.06672
# Poissons Ratio (z) = 0.21728 0.08049
#
# Static dielectric constant tensor:
#      x y z
#    x 4.285340 0.000000 -0.116940 
#    y 0.000000 4.431240 0.000000 
#    z -0.116940 0.000000 4.584600 
# 
# 
# High freq. dielectric constant tensor:
#      x y z
#    x 1.960930 0.000000 -0.015220 
#    y 0.000000 1.976340 0.000000 
#    z -0.015220 0.000000 1.979680 
# 
# From -- ./inp_files/65320.got.cif
#   From: 2010.06.25/outbox.cif.g09.slc.cpg/sg15_33_cif.got.tgz:65320.got - 2010.06.28 07:06:18.
