data_PCOD8146151
_publ_section_title
;
Structure prediction by ZEFSAII (Michael W. Deem and Ramdas Pophale) SiO2 
 PCOD8146151
Probable space group: C 2/C
;
_chemical_formula_sum "Si O2"
_cell_formula_units_Z 56
_cell_length_a 12.093856
_cell_length_b 7.494536
_cell_length_c 26.805620
_cell_angle_alpha 90.000000
_cell_angle_beta 65.785005
_cell_angle_gamma 90.000000
_cell_volume 2215.829475
_symmetry_space_group_name_H-M "C 2/C"
_symmetry_group_IT_number 15
_symmetry_cell_setting 'monoclinic'
loop_
_space_group_symop_operation_xyz
x,y,z
-x,y,1/2-z
-x,-y,-z
x,-y,1/2+z
1/2+x,1/2+y,z
1/2-x,1/2+y,1/2-z
1/2-x,1/2-y,-z
1/2+x,1/2-y,1/2+z
loop_
_atom_site_type_symbol
_atom_site_label
_atom_site_fract_x
_atom_site_fract_y
_atom_site_fract_z
Si Si1 0.827386 0.740472 0.697046
Si Si2 0.888351 0.128975 0.697614
Si Si3 0.910454 0.207104 0.081976
Si Si4 0.117093 0.183224 0.913976
Si Si5 0.514174 0.960969 0.689902
Si Si6 0.853866 0.337761 0.416247
Si Si7 0.129436 0.360467 0.512470
O O1 0.699969 0.727021 0.747307
O O2 0.802534 0.767187 0.642248
O O3 0.897005 0.554583 0.687574
O O4 0.899847 0.916506 0.705295
O O5 0.840049 0.162109 0.650798
O O6 0.011287 0.244534 0.683380
O O7 0.033787 0.207133 0.093313
O O8 0.904101 0.013313 0.057571
O O9 0.901539 0.360319 0.041206
O O10 0.227797 0.266929 0.926815
O O11 0.992447 0.291954 0.937796
O O12 0.500000 0.019793 0.750000
O O13 0.626839 0.038340 0.637039
O O14 0.841450 0.447206 0.470174
O O15 0.250000 0.250000 0.500000
#
# Coordination Sequence:
#
# PCOD8146151 Si02
#       7
#     8   8   8   8   8   8   8
#     4  10  22  40  67  99 139 180 232 285 349 415
#     4  11  21  40  69 100 137 183 228 290 350 419
#     4  10  24  43  66 101 139 180 229 286 339 415
#     4  11  24  46  69  98 139 179 232 290 349 413
#     4  11  23  41  67 100 138 183 235 286 353 422
#     4  11  24  45  68  99 135 185 231 286 351 409
#     4  12  24  44  72 100 139 181 233 284 353 421
#
# _framework density 25.272704000000001
#
# number of rings (size 3 to 8) (size 9 to 14) (size 15 to 20)
#    0.000    1.143    4.286    1.714    2.000    1.143 
#    2.571    1.429    0.000    0.000    0.000    0.000 
#    0.000    0.000    0.000    0.000    0.000    0.000 
#
# Total GULP energy -346872.532412 kJ/mol
# GULP energy per Si atom -12388.304729 kJ/mol
# Density = 2.521518 g / cm^3
# Si number density = 25.272704 Si / 1000 Ang^3
#
#
#
# Elastic Constant Matrix: (Units=GPa)
#
#
# Indices 1 2 3 4 5 6 
#
# 1 118.0741 -11.6262 14.0012 0.0000 -0.4225 0.0000
# 2 -11.6262 43.3496 -9.6059 0.0000 -4.8193 0.0000
# 3 14.0012 -9.6059 117.0982 0.0000 5.3504 0.0000
# 4 0.0000 0.0000 0.0000 27.4345 0.0000 6.7668
# 5 -0.4225 -4.8193 5.3504 0.0000 31.5179 0.0000
# 6 0.0000 0.0000 0.0000 6.7668 0.0000 29.2791
#
#
#
# Elastic Compliance Matrix: (Units=1/GPa)
#
#
# Indices 1 2 3 4 5 6 
#
# 1 0.008797 0.002229 -0.000897 0.000000 0.000611 0.000000
# 2 0.002229 0.024404 0.001576 0.000000 0.003494 0.000000
# 3 -0.000897 0.001576 0.008834 0.000000 -0.001271 0.000000
# 4 0.000000 0.000000 0.000000 0.038654 0.000000 -0.008933
# 5 0.000611 0.003494 -0.001271 0.000000 0.032486 0.000000
# 6 0.000000 0.000000 0.000000 -0.008933 0.000000 0.036219
#
#
# Mechanical properties :
#
#
# Convention : Reuss Voigt Hill
#
# Bulk Modulus (GPa) = 20.89866 29.34001 25.11933
# Shear Modulus (GPa) = 31.34222 36.69649 34.01935
#
# Velocity S-wave (km/s) = 3.52541 3.81467 3.67289
# Velocity P-wave (km/s) = 4.98584 5.57107 5.28656
#
# Compressibility (1/GPa) = 0.04784996
#
# Stress axis : x y z
#
# Youngs Moduli (GPa) = 113.67202 40.97763 113.19364
#
# Poissons Ratio (x) = -0.09132 0.10153
# Poissons Ratio (y) = -0.25332 -0.17837
# Poissons Ratio (z) = 0.10196 -0.06457
#
# Static dielectric constant tensor:
#      x y z
#    x 4.377370 0.000000 -0.055090 
#    y 0.000000 4.396920 0.000000 
#    z -0.055090 0.000000 4.995240 
# 
# 
# High freq. dielectric constant tensor:
#      x y z
#    x 1.989110 0.000000 0.000050 
#    y 0.000000 1.995140 0.000000 
#    z 0.000050 0.000000 2.030490 
# 
# From -- ./inp_files/309936.got.cif
#   From: 2010.06.25/outbox.cif.g09.slc.cpg/sg15_155_cif.got.tgz:309936.got - 2010.06.28 07:06:18.
