data_PCOD8146969
_publ_section_title
;
Structure prediction by ZEFSAII (Michael W. Deem and Ramdas Pophale) SiO2 
 PCOD8146969
Probable space group: C 2/C
;
_chemical_formula_sum "Si O2"
_cell_formula_units_Z 44
_cell_length_a 21.443858
_cell_length_b 5.446740
_cell_length_c 17.038148
_cell_angle_alpha 90.000000
_cell_angle_beta 88.209389
_cell_angle_gamma 90.000000
_cell_volume 1989.068929
_symmetry_space_group_name_H-M "C 2/C"
_symmetry_group_IT_number 15
_symmetry_cell_setting 'monoclinic'
loop_
_space_group_symop_operation_xyz
x,y,z
-x,y,1/2-z
-x,-y,-z
x,-y,1/2+z
1/2+x,1/2+y,z
1/2-x,1/2+y,1/2-z
1/2-x,1/2-y,-z
1/2+x,1/2-y,1/2+z
loop_
_atom_site_type_symbol
_atom_site_label
_atom_site_fract_x
_atom_site_fract_y
_atom_site_fract_z
Si Si1 0.003445 0.266471 0.901459
Si Si2 0.596303 0.109988 0.983024
Si Si3 0.272355 0.545142 0.709535
Si Si4 0.274758 0.999364 0.461590
Si Si5 0.500000 0.081147 0.750000
Si Si6 0.905214 0.888366 0.668637
O O1 0.053228 0.389559 0.956657
O O2 0.983325 0.428103 0.827871
O O3 0.033797 0.023190 0.866544
O O4 0.942612 0.208978 0.957213
O O5 0.623495 0.241700 0.904252
O O6 0.651234 0.992766 0.031230
O O7 0.249778 0.813484 0.737673
O O8 0.241943 0.497172 0.627887
O O9 0.348423 0.552188 0.704219
O O10 0.250000 0.750000 0.500000
O O11 0.250000 0.250000 0.500000
O O12 0.435149 0.226831 0.736953
#
# Coordination Sequence:
#
# PCOD8146969 Si02
#       6
#     8   8   8   8   4   8
#     4  10  22  42  67  98 136 175 230 294 352 416
#     4  10  23  41  69 101 129 182 238 288 349 424
#     4  12  29  47  73 108 146 192 240 299 365 430
#     4  12  25  47  74 104 142 195 240 295 355 425
#     4  10  24  38  64  98 132 184 218 286 362 418
#     4  11  23  44  67  95 143 177 235 292 357 422
#
# _framework density 22.120901
#
# number of rings (size 3 to 8) (size 9 to 14) (size 15 to 20)
#    0.000    1.091    1.818    3.273    7.636    1.455 
#    0.000    0.000    0.000    0.000    0.000    0.000 
#    0.000    0.000    0.000    0.000    0.000    0.000 
#
# Total GULP energy -272708.010014 kJ/mol
# GULP energy per Si atom -12395.818637 kJ/mol
# Density = 2.207055 g / cm^3
# Si number density = 22.120901 Si / 1000 Ang^3
#
#
#
# Elastic Constant Matrix: (Units=GPa)
#
#
# Indices 1 2 3 4 5 6 
#
# 1 117.8533 14.0691 46.0046 0.0000 6.3773 0.0000
# 2 14.0691 81.5291 9.6930 0.0000 -1.3420 0.0000
# 3 46.0046 9.6930 95.5787 0.0000 20.5894 0.0000
# 4 0.0000 0.0000 0.0000 28.5093 0.0000 -16.9080
# 5 6.3773 -1.3420 20.5894 0.0000 41.9531 0.0000
# 6 0.0000 0.0000 0.0000 -16.9080 0.0000 19.8755
#
#
#
# Elastic Compliance Matrix: (Units=1/GPa)
#
#
# Indices 1 2 3 4 5 6 
#
# 1 0.010599 -0.001200 -0.005171 0.000000 0.000888 0.000000
# 2 -0.001200 0.012600 -0.000924 0.000000 0.001039 0.000000
# 3 -0.005171 -0.000924 0.014405 0.000000 -0.006313 0.000000
# 4 0.000000 0.000000 0.000000 0.070793 0.000000 0.060224
# 5 0.000888 0.001039 -0.006313 0.000000 0.026833 0.000000
# 6 0.000000 0.000000 0.000000 0.060224 0.000000 0.101546
#
#
# Mechanical properties :
#
#
# Convention : Reuss Voigt Hill
#
# Bulk Modulus (GPa) = 43.45226 48.27716 45.86471
# Shear Modulus (GPa) = 19.30229 33.08055 26.19142
#
# Velocity S-wave (km/s) = 2.95715 3.87129 3.44468
# Velocity P-wave (km/s) = 5.59870 6.46948 6.04977
#
# Compressibility (1/GPa) = 0.02301376
#
# Stress axis : x y z
#
# Youngs Moduli (GPa) = 94.34968 79.36798 69.41862
#
# Poissons Ratio (x) = 0.09521 0.35898
# Poissons Ratio (y) = 0.11318 0.06416
# Poissons Ratio (z) = 0.48791 0.07335
#
# Static dielectric constant tensor:
#      x y z
#    x 4.138240 0.000000 0.054730 
#    y 0.000000 3.885650 0.000000 
#    z 0.054730 0.000000 4.343820 
# 
# 
# High freq. dielectric constant tensor:
#      x y z
#    x 1.880550 0.000000 0.011490 
#    y 0.000000 1.865820 0.000000 
#    z 0.011490 0.000000 1.885130 
# 
# From -- ./inp_files/212889.got.cif
#   From: 2010.06.25/outbox.cif.g09.slc.cpg/sg15_107_cif.got.tgz:212889.got - 2010.06.28 07:06:18.
