data_PCOD8146320
_publ_section_title
;
Structure prediction by ZEFSAII (Michael W. Deem and Ramdas Pophale) SiO2 
 PCOD8146320
Probable space group: C 2/C
;
_chemical_formula_sum "Si O2"
_cell_formula_units_Z 56
_cell_length_a 14.114264
_cell_length_b 15.067925
_cell_length_c 21.812604
_cell_angle_alpha 90.000000
_cell_angle_beta 34.115467
_cell_angle_gamma 90.000000
_cell_volume 2601.810199
_symmetry_space_group_name_H-M "C 2/C"
_symmetry_group_IT_number 15
_symmetry_cell_setting 'monoclinic'
loop_
_space_group_symop_operation_xyz
x,y,z
-x,y,1/2-z
-x,-y,-z
x,-y,1/2+z
1/2+x,1/2+y,z
1/2-x,1/2+y,1/2-z
1/2-x,1/2-y,-z
1/2+x,1/2-y,1/2+z
loop_
_atom_site_type_symbol
_atom_site_label
_atom_site_fract_x
_atom_site_fract_y
_atom_site_fract_z
Si Si1 0.767332 0.983814 0.520902
Si Si2 0.672167 0.844527 0.771636
Si Si3 0.166762 0.320519 0.497664
Si Si4 0.784426 0.661891 0.019368
Si Si5 0.000000 0.590766 0.250000
Si Si6 0.656842 0.179797 0.861987
Si Si7 0.633657 0.514234 0.793437
Si Si8 0.500000 0.587559 0.250000
O O1 0.724503 0.082911 0.524308
O O2 0.968765 0.971508 0.425146
O O3 0.717872 0.918803 0.491653
O O4 0.658757 0.967247 0.640513
O O5 0.562319 0.843710 0.768890
O O6 0.819370 0.772132 0.687446
O O7 0.742463 0.943034 0.742559
O O8 0.537733 0.814067 0.895005
O O9 0.250000 0.250000 0.500000
O O10 0.220110 0.307970 0.398302
O O11 0.642273 0.652398 0.147383
O O12 0.750000 0.750000 0.000000
O O13 0.960793 0.657539 0.960934
O O14 0.768380 0.105851 0.768145
O O15 0.576296 0.477314 0.759206
#
# Coordination Sequence:
#
# PCOD8146320 Si02
#       8
#     8   8   8   8   4   8   8   4
#     4  10  22  41  62  89 124 160 202 250 304 367
#     4  11  24  40  59  91 126 155 202 257 301 361
#     4  11  23  40  64  93 122 156 204 256 309 366
#     4  11  24  41  61  88 124 165 207 246 296 368
#     4  10  22  42  62  84 126 164 192 254 316 350
#     4  12  22  38  67  92 119 164 202 246 311 361
#     4  11  23  40  65  93 121 158 207 253 302 367
#     4  10  22  42  62  86 124 158 198 262 306 346
#
# _framework density 21.523477
#
# number of rings (size 3 to 8) (size 9 to 14) (size 15 to 20)
#    0.000    1.143    0.000    8.571    0.000    4.571 
#    0.000    5.714    0.000    0.000    0.000    0.000 
#    0.000    0.000    0.000    0.000    0.000    0.000 
#
# Total GULP energy -347199.135055 kJ/mol
# GULP energy per Si atom -12399.969109 kJ/mol
# Density = 2.147449 g / cm^3
# Si number density = 21.523477 Si / 1000 Ang^3
#
#
#
# Elastic Constant Matrix: (Units=GPa)
#
#
# Indices 1 2 3 4 5 6 
#
# 1 61.7471 19.6705 19.9865 -0.0002 -12.2177 0.0000
# 2 19.6705 124.1151 44.8407 -0.0006 2.5441 0.0001
# 3 19.9865 44.8407 159.5981 -0.0006 -7.9972 -0.0001
# 4 -0.0002 -0.0006 -0.0006 38.1748 0.0003 -5.6064
# 5 -12.2177 2.5441 -7.9972 0.0003 30.3369 0.0000
# 6 0.0000 0.0001 -0.0001 -5.6064 0.0000 32.5721
#
#
#
# Elastic Compliance Matrix: (Units=1/GPa)
#
#
# Indices 1 2 3 4 5 6 
#
# 1 0.018949 -0.002712 -0.001234 0.000000 0.007534 0.000000
# 2 -0.002712 0.009417 -0.002433 0.000000 -0.002523 0.000000
# 3 -0.001234 -0.002433 0.007184 0.000000 0.001601 0.000000
# 4 0.000000 0.000000 0.000000 0.026875 0.000000 0.004626
# 5 0.007534 -0.002523 0.001601 0.000000 0.036631 0.000000
# 6 0.000000 0.000000 0.000000 0.004626 0.000000 0.031497
#
#
# Mechanical properties :
#
#
# Convention : Reuss Voigt Hill
#
# Bulk Modulus (GPa) = 43.87127 57.16174 50.51651
# Shear Modulus (GPa) = 33.13285 37.61427 35.37356
#
# Velocity S-wave (km/s) = 3.92775 4.18496 4.05839
# Velocity P-wave (km/s) = 6.40288 7.06876 6.74404
#
# Compressibility (1/GPa) = 0.02279396
#
# Stress axis : x y z
#
# Youngs Moduli (GPa) = 52.77333 106.18556 139.19927
#
# Poissons Ratio (x) = 0.28797 0.17171
# Poissons Ratio (y) = 0.14312 0.33864
# Poissons Ratio (z) = 0.06510 0.25832
#
# Static dielectric constant tensor:
#      x y z
#    x 3.641750 0.000000 0.090060 
#    y 0.000000 3.831380 0.000000 
#    z 0.090060 0.000000 3.675120 
# 
# 
# High freq. dielectric constant tensor:
#      x y z
#    x 1.833470 0.000000 -0.008380 
#    y 0.000000 1.849000 0.000000 
#    z -0.008380 0.000000 1.866650 
# 
# From -- ./inp_files/274484.got.cif
#   From: 2010.06.25/outbox.cif.g09.slc.cpg/sg15_138_cif.got.tgz:274484.got - 2010.06.28 07:06:18.
