data_PCOD8146023
_publ_section_title
;
Structure prediction by ZEFSAII (Michael W. Deem and Ramdas Pophale) SiO2 
 PCOD8146023
Probable space group: C 2/C
;
_chemical_formula_sum "Si O2"
_cell_formula_units_Z 52
_cell_length_a 12.158404
_cell_length_b 13.662450
_cell_length_c 20.964306
_cell_angle_alpha 90.000000
_cell_angle_beta 130.818933
_cell_angle_gamma 90.000000
_cell_volume 2635.449951
_symmetry_space_group_name_H-M "C 2/C"
_symmetry_group_IT_number 15
_symmetry_cell_setting 'monoclinic'
loop_
_space_group_symop_operation_xyz
x,y,z
-x,y,1/2-z
-x,-y,-z
x,-y,1/2+z
1/2+x,1/2+y,z
1/2-x,1/2+y,1/2-z
1/2-x,1/2-y,-z
1/2+x,1/2-y,1/2+z
loop_
_atom_site_type_symbol
_atom_site_label
_atom_site_fract_x
_atom_site_fract_y
_atom_site_fract_z
Si Si1 0.083866 0.686891 0.720824
Si Si2 0.159615 0.176358 0.424099
Si Si3 0.732589 0.526193 0.762019
Si Si4 0.179122 0.327825 0.642926
Si Si5 0.500000 0.647263 0.750000
Si Si6 0.907132 0.217616 0.580819
Si Si7 0.010753 0.993095 0.429008
O O1 0.126929 0.596106 0.692755
O O2 0.235119 0.735646 0.796960
O O3 0.000000 0.643997 0.750000
O O4 0.988258 0.770180 0.651731
O O5 0.250000 0.250000 0.500000
O O6 0.263995 0.146573 0.405735
O O7 0.116097 0.079045 0.444835
O O8 0.798896 0.424308 0.808068
O O9 0.626050 0.574522 0.773561
O O10 0.648010 0.504736 0.663864
O O11 0.012969 0.292681 0.583595
O O12 0.439709 0.716748 0.669877
O O13 0.750000 0.250000 0.500000
O O14 0.915023 0.108152 0.559127
O O15 0.000000 0.000000 0.500000
#
# Coordination Sequence:
#
# PCOD8146023 Si02
#       7
#     8   8   8   8   4   8   8
#     4  10  22  40  65  91 125 164 217 262 312 382
#     4  11  24  40  68  96 125 169 219 271 321 384
#     4  11  22  41  66  94 128 174 215 265 321 399
#     4  11  21  43  65  93 124 173 219 261 323 389
#     4  10  22  42  66  92 132 178 214 260 344 386
#     4  11  25  43  64  95 133 171 216 273 327 398
#     4  11  23  40  64  94 132 168 212 269 332 380
#
# _framework density 19.730976999999999
#
# number of rings (size 3 to 8) (size 9 to 14) (size 15 to 20)
#    0.000    1.231    4.615    2.769    3.231    4.923 
#    1.385    2.308    0.000    0.000    0.000    0.000 
#    0.000    0.000    0.000    0.000    0.000    0.000 
#
# Total GULP energy -322380.900253 kJ/mol
# GULP energy per Si atom -12399.265394 kJ/mol
# Density = 1.968607 g / cm^3
# Si number density = 19.730977 Si / 1000 Ang^3
#
#
#
# Elastic Constant Matrix: (Units=GPa)
#
#
# Indices 1 2 3 4 5 6 
#
# 1 145.7897 82.2106 66.7143 0.0000 1.4131 0.0000
# 2 82.2106 135.7859 48.5273 0.0000 -1.9110 0.0000
# 3 66.7143 48.5273 107.1103 0.0000 -4.8514 0.0000
# 4 0.0000 0.0000 0.0000 29.6122 0.0000 -7.2491
# 5 1.4131 -1.9110 -4.8514 0.0000 41.5534 0.0000
# 6 0.0000 0.0000 0.0000 -7.2491 0.0000 17.6353
#
#
#
# Elastic Compliance Matrix: (Units=1/GPa)
#
#
# Indices 1 2 3 4 5 6 
#
# 1 0.012494 -0.005704 -0.005256 0.000000 -0.001301 0.000000
# 2 -0.005704 0.011392 -0.001584 0.000000 0.000533 0.000000
# 3 -0.005256 -0.001584 0.013404 0.000000 0.001671 0.000000
# 4 0.000000 0.000000 0.000000 0.037548 0.000000 0.015435
# 5 -0.001301 0.000533 0.001671 0.000000 0.024329 0.000000
# 6 0.000000 0.000000 0.000000 0.015435 0.000000 0.063049
#
#
# Mechanical properties :
#
#
# Convention : Reuss Voigt Hill
#
# Bulk Modulus (GPa) = 81.96939 87.06558 84.51749
# Shear Modulus (GPa) = 26.12725 30.50908 28.31817
#
# Velocity S-wave (km/s) = 3.64287 3.93651 3.79253
# Velocity P-wave (km/s) = 7.70245 8.05504 7.88071
#
# Compressibility (1/GPa) = 0.01219968
#
# Stress axis : x y z
#
# Youngs Moduli (GPa) = 80.04090 87.78395 74.60689
#
# Poissons Ratio (x) = 0.50071 0.39217
# Poissons Ratio (y) = 0.45655 0.11819
# Poissons Ratio (z) = 0.42073 0.13907
#
# Static dielectric constant tensor:
#      x y z
#    x 3.827150 0.000000 0.196400 
#    y 0.000000 3.644550 0.000000 
#    z 0.196400 0.000000 3.409440 
# 
# 
# High freq. dielectric constant tensor:
#      x y z
#    x 1.776720 0.000000 -0.002370 
#    y 0.000000 1.779180 0.000000 
#    z -0.002370 0.000000 1.765970 
# 
# From -- ./inp_files/237479.got.cif
#   From: 2010.06.25/outbox.cif.g09.slc.cpg/sg15_119_cif.got.tgz:237479.got - 2010.06.28 07:06:18.
