data_PCOD8146635
_publ_section_title
;
Structure prediction by ZEFSAII (Michael W. Deem and Ramdas Pophale) SiO2 
 PCOD8146635
Probable space group: C 2/C
;
_chemical_formula_sum "Si O2"
_cell_formula_units_Z 52
_cell_length_a 16.589720
_cell_length_b 9.778699
_cell_length_c 21.495269
_cell_angle_alpha 90.000000
_cell_angle_beta 43.896486
_cell_angle_gamma 90.000000
_cell_volume 2417.799709
_symmetry_space_group_name_H-M "C 2/C"
_symmetry_group_IT_number 15
_symmetry_cell_setting 'monoclinic'
loop_
_space_group_symop_operation_xyz
x,y,z
-x,y,1/2-z
-x,-y,-z
x,-y,1/2+z
1/2+x,1/2+y,z
1/2-x,1/2+y,1/2-z
1/2-x,1/2-y,-z
1/2+x,1/2-y,1/2+z
loop_
_atom_site_type_symbol
_atom_site_label
_atom_site_fract_x
_atom_site_fract_y
_atom_site_fract_z
Si Si1 0.791063 0.458991 0.794496
Si Si2 0.500000 0.865314 0.750000
Si Si3 0.099734 0.981970 0.993887
Si Si4 0.191064 0.763390 0.748546
Si Si5 0.644598 0.332713 0.085729
Si Si6 0.223176 0.886691 0.596600
Si Si7 0.082530 0.247817 0.074257
O O1 0.712286 0.421983 0.897436
O O2 0.760471 0.609303 0.785070
O O3 0.767765 0.340932 0.757257
O O4 0.923188 0.459425 0.746633
O O5 0.426222 0.769266 0.833961
O O6 0.066440 0.884932 0.070658
O O7 0.130781 0.128697 0.003447
O O8 0.000000 0.000000 0.000000
O O9 0.211548 0.852820 0.675649
O O10 0.056770 0.750128 0.844992
O O11 0.683267 0.458448 0.107812
O O12 0.750000 0.250000 0.000000
O O13 0.136547 0.776974 0.612321
O O14 0.355319 0.877567 0.494239
#
# Coordination Sequence:
#
# PCOD8146635 Si02
#       7
#     8   4   8   8   8   8   8
#     4  12  29  46  73 106 145 192 242 300 369 432
#     4  12  30  48  72 104 146 194 248 302 368 436
#     4  11  22  45  69  98 141 186 236 294 361 427
#     4  12  27  45  72 104 147 185 241 299 360 433
#     4  11  26  44  70 103 147 190 240 298 361 430
#     4  10  24  41  71 105 140 186 243 286 362 435
#     4  10  22  41  71 101 136 187 233 293 352 426
#
# _framework density 21.507158
#
# number of rings (size 3 to 8) (size 9 to 14) (size 15 to 20)
#    0.000    0.923    4.615    0.462   12.923    0.000 
#    0.000    0.769    0.000    0.000    0.000    0.000 
#    0.000    0.000    0.000    0.000    0.000    0.000 
#
# Total GULP energy -322310.072860 kJ/mol
# GULP energy per Si atom -12396.541264 kJ/mol
# Density = 2.145821 g / cm^3
# Si number density = 21.507158 Si / 1000 Ang^3
#
#
#
# Elastic Constant Matrix: (Units=GPa)
#
#
# Indices 1 2 3 4 5 6 
#
# 1 125.8022 32.7599 34.5343 0.0000 8.1598 0.0000
# 2 32.7599 98.5520 26.3033 0.0000 17.3045 0.0001
# 3 34.5343 26.3033 110.4140 0.0000 5.9339 0.0000
# 4 0.0000 0.0000 0.0000 37.1054 0.0000 0.1702
# 5 8.1598 17.3045 5.9339 0.0000 37.2453 0.0000
# 6 0.0000 0.0001 0.0000 0.1702 0.0000 28.5188
#
#
#
# Elastic Compliance Matrix: (Units=1/GPa)
#
#
# Indices 1 2 3 4 5 6 
#
# 1 0.009229 -0.002357 -0.002295 0.000000 -0.000561 0.000000
# 2 -0.002357 0.012305 -0.001931 0.000000 -0.004893 0.000000
# 3 -0.002295 -0.001931 0.010247 0.000000 -0.000233 0.000000
# 4 0.000000 0.000000 0.000000 0.026951 0.000000 -0.000161
# 5 -0.000561 -0.004893 -0.000233 0.000000 0.029282 0.000000
# 6 0.000000 0.000000 0.000000 -0.000161 0.000000 0.035066
#
#
# Mechanical properties :
#
#
# Convention : Reuss Voigt Hill
#
# Bulk Modulus (GPa) = 53.71950 57.99591 55.85770
# Shear Modulus (GPa) = 35.09970 36.65193 35.87581
#
# Velocity S-wave (km/s) = 4.04419 4.13264 4.08865
# Velocity P-wave (km/s) = 6.84390 7.05663 6.95108
#
# Compressibility (1/GPa) = 0.01861522
#
# Stress axis : x y z
#
# Youngs Moduli (GPa) = 108.35260 81.26821 97.58763
#
# Poissons Ratio (x) = 0.19153 0.22396
# Poissons Ratio (y) = 0.25536 0.18847
# Poissons Ratio (z) = 0.24867 0.15695
#
# Static dielectric constant tensor:
#      x y z
#    x 4.134420 0.000000 -0.096630 
#    y 0.000000 3.346340 0.000000 
#    z -0.096630 0.000000 3.953500 
# 
# 
# High freq. dielectric constant tensor:
#      x y z
#    x 1.842370 0.000000 0.009010 
#    y 0.000000 1.844260 0.000000 
#    z 0.009010 0.000000 1.860550 
# 
# From -- ./inp_files/247768.got.cif
#   From: 2010.06.25/outbox.cif.g09.slc.cpg/sg15_124_cif.got.tgz:247768.got - 2010.06.28 07:06:18.
