data_PCOD8146899
_publ_section_title
;
Structure prediction by ZEFSAII (Michael W. Deem and Ramdas Pophale) SiO2 
 PCOD8146899
Probable space group: C 2/C
;
_chemical_formula_sum "Si O2"
_cell_formula_units_Z 64
_cell_length_a 11.927297
_cell_length_b 14.827872
_cell_length_c 16.694657
_cell_angle_alpha 90.000000
_cell_angle_beta 97.821130
_cell_angle_gamma 90.000000
_cell_volume 2925.091983
_symmetry_space_group_name_H-M "C 2/C"
_symmetry_group_IT_number 15
_symmetry_cell_setting 'monoclinic'
loop_
_space_group_symop_operation_xyz
x,y,z
-x,y,1/2-z
-x,-y,-z
x,-y,1/2+z
1/2+x,1/2+y,z
1/2-x,1/2+y,1/2-z
1/2-x,1/2-y,-z
1/2+x,1/2-y,1/2+z
loop_
_atom_site_type_symbol
_atom_site_label
_atom_site_fract_x
_atom_site_fract_y
_atom_site_fract_z
Si Si1 0.573286 0.861637 0.589918
Si Si2 0.568952 0.185571 0.904592
Si Si3 0.928809 0.497111 0.663139
Si Si4 0.987235 0.965120 0.156569
Si Si5 0.338109 0.753608 0.414432
Si Si6 0.329972 0.632705 0.160002
Si Si7 0.812264 0.079706 0.335120
Si Si8 0.595497 0.280690 0.404238
O O1 0.588867 0.826941 0.501019
O O2 0.697308 0.881921 0.634454
O O3 0.506920 0.784041 0.635998
O O4 0.500124 0.953234 0.596307
O O5 0.612836 0.096853 0.864258
O O6 0.434478 0.194212 0.873561
O O7 0.632750 0.273760 0.877470
O O8 0.819798 0.438249 0.672602
O O9 0.000000 0.500372 0.750000
O O10 0.000000 0.934076 0.250000
O O11 0.949450 0.882404 0.097088
O O12 0.114368 0.990367 0.142771
O O13 0.901030 0.048049 0.132178
O O14 0.349691 0.646504 0.408454
O O15 0.363663 0.768854 0.510317
O O16 0.214894 0.784071 0.367237
O O17 0.349497 0.631192 0.257105
#
# Coordination Sequence:
#
# PCOD8146899 Si02
#       8
#     8   8   8   8   8   8   8   8
#     4  11  24  46  64  99 136 172 222 280 329 393
#     4  11  26  43  70  95 133 179 223 268 339 400
#     4  12  26  43  66 101 131 179 221 273 332 397
#     4  10  24  41  65  95 130 175 225 273 331 393
#     4  10  22  42  66  94 130 172 220 271 328 397
#     4  11  24  44  66  96 135 173 220 284 328 393
#     4  11  23  44  64  93 135 168 219 280 329 386
#     4  10  23  41  66  97 129 175 219 268 340 392
#
# _framework density 21.879653000000001
#
# number of rings (size 3 to 8) (size 9 to 14) (size 15 to 20)
#    0.000    1.250    3.750    0.750    5.250    3.000 
#    0.000    0.000    0.000    0.000    0.000    0.000 
#    0.000    0.000    0.000    0.000    0.000    0.000 
#
# Total GULP energy -396554.532567 kJ/mol
# GULP energy per Si atom -12392.329143 kJ/mol
# Density = 2.182985 g / cm^3
# Si number density = 21.879653 Si / 1000 Ang^3
#
#
#
# Elastic Constant Matrix: (Units=GPa)
#
#
# Indices 1 2 3 4 5 6 
#
# 1 114.2078 20.5503 21.4044 0.0000 0.2512 0.0000
# 2 20.5503 110.4120 21.9321 0.0000 -1.7540 0.0000
# 3 21.4044 21.9321 34.1825 0.0000 -4.6244 0.0000
# 4 0.0000 0.0000 0.0000 26.1267 0.0000 0.0779
# 5 0.2512 -1.7540 -4.6244 0.0000 25.7302 0.0000
# 6 0.0000 0.0000 0.0000 0.0779 0.0000 29.4153
#
#
#
# Elastic Compliance Matrix: (Units=1/GPa)
#
#
# Indices 1 2 3 4 5 6 
#
# 1 0.010005 -0.000693 -0.005986 0.000000 -0.001221 0.000000
# 2 -0.000693 0.010434 -0.006318 0.000000 -0.000417 0.000000
# 3 -0.005986 -0.006318 0.037928 0.000000 0.006445 0.000000
# 4 0.000000 0.000000 0.000000 0.038275 0.000000 -0.000101
# 5 -0.001221 -0.000417 0.006445 0.000000 0.040007 0.000000
# 6 0.000000 0.000000 0.000000 -0.000101 0.000000 0.033996
#
#
# Mechanical properties :
#
#
# Convention : Reuss Voigt Hill
#
# Bulk Modulus (GPa) = 30.88736 42.95289 36.92013
# Shear Modulus (GPa) = 24.10460 29.24880 26.67670
#
# Velocity S-wave (km/s) = 3.32277 3.66020 3.49556
# Velocity P-wave (km/s) = 5.37296 6.12673 5.76218
#
# Compressibility (1/GPa) = 0.03237570
#
# Stress axis : x y z
#
# Youngs Moduli (GPa) = 99.94900 95.83900 26.36561
#
# Poissons Ratio (x) = 0.06638 0.15782
# Poissons Ratio (y) = 0.06922 0.16657
# Poissons Ratio (z) = 0.59827 0.60547
#
# Static dielectric constant tensor:
#      x y z
#    x 4.447040 0.000000 -0.091120 
#    y 0.000000 3.903470 0.000000 
#    z -0.091120 0.000000 3.691670 
# 
# 
# High freq. dielectric constant tensor:
#      x y z
#    x 1.883710 0.000000 -0.003010 
#    y 0.000000 1.859400 0.000000 
#    z -0.003010 0.000000 1.837040 
# 
# From -- ./inp_files/198351.got.cif
#   From: 2010.06.25/outbox.cif.g09.slc.cpg/sg15_100_cif.got.tgz:198351.got - 2010.06.28 07:06:18.
