data_PCOD8146150
_publ_section_title
;
Structure prediction by ZEFSAII (Michael W. Deem and Ramdas Pophale) SiO2 
 PCOD8146150
Probable space group: C 2/C
;
_chemical_formula_sum "Si O2"
_cell_formula_units_Z 48
_cell_length_a 26.784270
_cell_length_b 17.639541
_cell_length_c 12.991690
_cell_angle_alpha 90.000000
_cell_angle_beta 159.603928
_cell_angle_gamma 90.000000
_cell_volume 2139.169674
_symmetry_space_group_name_H-M "C 2/C"
_symmetry_group_IT_number 15
_symmetry_cell_setting 'monoclinic'
loop_
_space_group_symop_operation_xyz
x,y,z
-x,y,1/2-z
-x,-y,-z
x,-y,1/2+z
1/2+x,1/2+y,z
1/2-x,1/2+y,1/2-z
1/2-x,1/2-y,-z
1/2+x,1/2-y,1/2+z
loop_
_atom_site_type_symbol
_atom_site_label
_atom_site_fract_x
_atom_site_fract_y
_atom_site_fract_z
Si Si1 0.166235 0.909210 0.600192
Si Si2 0.133605 0.785559 0.700449
Si Si3 0.617849 0.316966 0.151633
Si Si4 0.155205 0.650777 0.235919
Si Si5 0.732392 0.926479 0.189352
Si Si6 0.532748 0.874329 0.958499
O O1 0.203014 0.843184 0.752362
O O2 0.264755 0.901566 0.689946
O O3 0.210688 0.990562 0.729831
O O4 0.000000 0.905955 0.250000
O O5 0.050094 0.717595 0.479981
O O6 0.025748 0.835235 0.562119
O O7 0.250000 0.750000 0.000000
O O8 0.751211 0.332083 0.483226
O O9 0.613895 0.230461 0.103278
O O10 0.636591 0.370276 0.087580
O O11 0.011283 0.610275 0.006029
O O12 0.683313 0.914409 0.214742
O O13 0.591791 0.905496 0.854358
#
# Coordination Sequence:
#
# PCOD8146150 Si02
#       6
#     8   8   8   8   8   8
#     4  12  25  41  65 100 137 171 226 285 342 400
#     4  11  24  43  68 100 129 181 233 280 328 407
#     4   9  18  39  66  94 126 172 228 272 339 395
#     4   9  18  38  70  94 119 179 226 278 325 406
#     4  10  22  40  67  99 133 178 215 279 347 404
#     4   9  21  45  67  90 132 177 225 271 338 403
#
# _framework density 22.438611999999999
#
# number of rings (size 3 to 8) (size 9 to 14) (size 15 to 20)
#    0.000    2.000    1.667    2.000    2.333    2.667 
#   18.000    3.333    0.000    0.000    0.000    0.000 
#    0.000    0.000    0.000    0.000    0.000    0.000 
#
# Total GULP energy -297365.467210 kJ/mol
# GULP energy per Si atom -12390.227800 kJ/mol
# Density = 2.238754 g / cm^3
# Si number density = 22.438612 Si / 1000 Ang^3
#
#
#
# Elastic Constant Matrix: (Units=GPa)
#
#
# Indices 1 2 3 4 5 6 
#
# 1 142.2069 64.6350 38.4118 0.0000 36.8532 0.0000
# 2 64.6350 119.6320 40.4322 0.0000 5.3066 0.0000
# 3 38.4118 40.4322 44.0947 0.0000 -1.7640 0.0000
# 4 0.0000 0.0000 0.0000 30.3186 0.0000 11.7585
# 5 36.8532 5.3066 -1.7640 0.0000 29.5587 0.0000
# 6 0.0000 0.0000 0.0000 11.7585 0.0000 23.9034
#
#
#
# Elastic Compliance Matrix: (Units=1/GPa)
#
#
# Indices 1 2 3 4 5 6 
#
# 1 0.018648 -0.004700 -0.012862 0.000000 -0.023174 0.000000
# 2 -0.004700 0.013541 -0.008204 0.000000 0.002940 0.000000
# 3 -0.012862 -0.008204 0.042206 0.000000 0.020027 0.000000
# 4 0.000000 0.000000 0.000000 0.040759 0.000000 -0.020050
# 5 -0.023174 0.002940 0.020027 0.000000 0.063391 0.000000
# 6 0.000000 0.000000 0.000000 -0.020050 0.000000 0.051698
#
#
# Mechanical properties :
#
#
# Convention : Reuss Voigt Hill
#
# Bulk Modulus (GPa) = 43.73874 65.87682 54.80778
# Shear Modulus (GPa) = 17.27737 27.58646 22.43191
#
# Velocity S-wave (km/s) = 2.77787 3.51011 3.16524
# Velocity P-wave (km/s) = 5.46111 6.77128 6.15118
#
# Compressibility (1/GPa) = 0.02286303
#
# Stress axis : x y z
#
# Youngs Moduli (GPa) = 53.62508 73.85115 23.69318
#
# Poissons Ratio (x) = 0.34713 0.30474
# Poissons Ratio (y) = 0.25206 0.19438
# Poissons Ratio (z) = 0.68971 0.60587
#
# Static dielectric constant tensor:
#      x y z
#    x 4.738940 0.000000 0.580020 
#    y 0.000000 3.990930 0.000000 
#    z 0.580020 0.000000 3.932530 
# 
# 
# High freq. dielectric constant tensor:
#      x y z
#    x 1.895460 0.000000 0.037780 
#    y 0.000000 1.870180 0.000000 
#    z 0.037780 0.000000 1.859020 
# 
# From -- ./inp_files/182519.got.cif
#   From: 2010.06.25/outbox.cif.g09.slc.cpg/sg15_92_cif.got.tgz:182519.got - 2010.06.28 07:06:18.
