data_PCOD8146191
_publ_section_title
;
Structure prediction by ZEFSAII (Michael W. Deem and Ramdas Pophale) SiO2 
 PCOD8146191
Probable space group: C 2/C
;
_chemical_formula_sum "Si O2"
_cell_formula_units_Z 44
_cell_length_a 5.197312
_cell_length_b 18.103145
_cell_length_c 22.318626
_cell_angle_alpha 90.000000
_cell_angle_beta 107.001097
_cell_angle_gamma 90.000000
_cell_volume 2008.140277
_symmetry_space_group_name_H-M "C 2/C"
_symmetry_group_IT_number 15
_symmetry_cell_setting 'monoclinic'
loop_
_space_group_symop_operation_xyz
x,y,z
-x,y,1/2-z
-x,-y,-z
x,-y,1/2+z
1/2+x,1/2+y,z
1/2-x,1/2+y,1/2-z
1/2-x,1/2-y,-z
1/2+x,1/2-y,1/2+z
loop_
_atom_site_type_symbol
_atom_site_label
_atom_site_fract_x
_atom_site_fract_y
_atom_site_fract_z
Si Si1 0.354565 0.177201 0.117738
Si Si2 0.500000 0.439996 0.250000
Si Si3 0.778190 0.880292 0.565347
Si Si4 0.591565 0.032809 0.155351
Si Si5 0.139501 0.597663 0.923456
Si Si6 0.948730 0.159373 0.635811
O O1 0.518470 0.169661 0.065995
O O2 0.449372 0.109106 0.167625
O O3 0.425240 0.254916 0.153521
O O4 0.038186 0.172173 0.083530
O O5 0.243646 0.492437 0.220068
O O6 0.431257 0.387627 0.301097
O O7 0.802944 0.947064 0.615779
O O8 0.735851 0.915784 0.497542
O O9 0.360873 0.980546 0.111218
O O10 0.346170 0.652878 0.905318
O O11 0.842157 0.630986 0.902923
#
# Coordination Sequence:
#
# PCOD8146191 Si02
#       6
#     8   4   8   8   8   8
#     4  10  23  41  63  99 130 161 216 258 328 382
#     4  10  24  50  64  88 126 174 218 268 310 382
#     4  10  22  40  68  97 131 165 211 265 323 385
#     4   9  24  42  66  95 126 172 217 261 320 378
#     4  11  23  40  69  94 135 166 214 259 321 393
#     4  11  25  43  63  99 125 174 214 263 326 381
#
# _framework density 21.910819
#
# number of rings (size 3 to 8) (size 9 to 14) (size 15 to 20)
#    1.091    0.727    0.000    2.727    5.091    8.000 
#    3.273    0.000    0.000    0.000    0.000    0.000 
#    0.000    0.000    0.000    0.000    0.000    0.000 
#
# Total GULP energy -272690.359621 kJ/mol
# GULP energy per Si atom -12395.016346 kJ/mol
# Density = 2.186095 g / cm^3
# Si number density = 21.910819 Si / 1000 Ang^3
#
#
#
# Elastic Constant Matrix: (Units=GPa)
#
#
# Indices 1 2 3 4 5 6 
#
# 1 131.9991 24.4396 28.1307 0.0000 6.6266 0.0000
# 2 24.4396 146.4785 39.9178 0.0000 16.4225 0.0000
# 3 28.1307 39.9178 83.4273 0.0000 16.5698 0.0000
# 4 0.0000 0.0000 0.0000 16.2550 0.0000 -0.3916
# 5 6.6266 16.4225 16.5698 0.0000 17.1080 0.0000
# 6 0.0000 0.0000 0.0000 -0.3916 0.0000 24.2743
#
#
#
# Elastic Compliance Matrix: (Units=1/GPa)
#
#
# Indices 1 2 3 4 5 6 
#
# 1 0.008226 -0.000696 -0.002403 0.000000 -0.000191 0.000000
# 2 -0.000696 0.008245 -0.002714 0.000000 -0.005016 0.000000
# 3 -0.002403 -0.002714 0.016583 0.000000 -0.012525 0.000000
# 4 0.000000 0.000000 0.000000 0.061543 0.000000 0.000993
# 5 -0.000191 -0.005016 -0.012525 0.000000 0.075473 0.000000
# 6 0.000000 0.000000 0.000000 0.000993 0.000000 0.041212
#
#
# Mechanical properties :
#
#
# Convention : Reuss Voigt Hill
#
# Bulk Modulus (GPa) = 46.66728 60.76457 53.71593
# Shear Modulus (GPa) = 21.73430 29.48860 25.61145
#
# Velocity S-wave (km/s) = 3.15293 3.67256 3.42262
# Velocity P-wave (km/s) = 5.88214 6.76583 6.33940
#
# Compressibility (1/GPa) = 0.02142829
#
# Stress axis : x y z
#
# Youngs Moduli (GPa) = 121.56020 121.28349 60.30314
#
# Poissons Ratio (x) = 0.08446 0.14489
# Poissons Ratio (y) = 0.08465 0.16366
# Poissons Ratio (z) = 0.29208 0.32916
#
# Static dielectric constant tensor:
#      x y z
#    x 3.845850 0.000000 0.000070 
#    y 0.000000 4.014950 0.000000 
#    z 0.000070 0.000000 3.665440 
# 
# 
# High freq. dielectric constant tensor:
#      x y z
#    x 1.865980 0.000000 0.002010 
#    y 0.000000 1.867180 0.000000 
#    z 0.002010 0.000000 1.835170 
# 
# From -- ./inp_files/227056.got.cif
#   From: 2010.06.25/outbox.cif.g09.slc.cpg/sg15_114_cif.got.tgz:227056.got - 2010.06.28 07:06:18.
