data_PCOD8146101
_publ_section_title
;
Structure prediction by ZEFSAII (Michael W. Deem and Ramdas Pophale) SiO2 
 PCOD8146101
Probable space group: C 2/C
;
_chemical_formula_sum "Si O2"
_cell_formula_units_Z 48
_cell_length_a 9.054117
_cell_length_b 27.493883
_cell_length_c 13.988271
_cell_angle_alpha 90.000000
_cell_angle_beta 136.595727
_cell_angle_gamma 90.000000
_cell_volume 2392.723539
_symmetry_space_group_name_H-M "C 2/C"
_symmetry_group_IT_number 15
_symmetry_cell_setting 'monoclinic'
loop_
_space_group_symop_operation_xyz
x,y,z
-x,y,1/2-z
-x,-y,-z
x,-y,1/2+z
1/2+x,1/2+y,z
1/2-x,1/2+y,1/2-z
1/2-x,1/2-y,-z
1/2+x,1/2-y,1/2+z
loop_
_atom_site_type_symbol
_atom_site_label
_atom_site_fract_x
_atom_site_fract_y
_atom_site_fract_z
Si Si1 0.000000 0.556230 0.750000
Si Si2 0.922544 0.719529 0.019250
Si Si3 0.369410 0.381375 0.348427
Si Si4 0.500000 0.444659 0.250000
Si Si5 0.673741 0.776413 0.246017
Si Si6 0.363520 0.122862 0.095066
Si Si7 0.620206 0.981227 0.966360
O O1 0.794612 0.590848 0.660864
O O2 0.927872 0.521581 0.632437
O O3 0.882884 0.662594 0.020250
O O4 0.162824 0.732008 0.164653
O O5 0.750000 0.750000 0.000000
O O6 0.921306 0.729674 0.904967
O O7 0.342513 0.408301 0.233433
O O8 0.309865 0.325439 0.313738
O O9 0.612423 0.385068 0.503255
O O10 0.627972 0.477774 0.386094
O O11 0.500000 0.775034 0.250000
O O12 0.500000 0.141080 0.250000
O O13 0.462984 0.071715 0.106354
O O14 0.500000 0.000000 0.000000
#
# Coordination Sequence:
#
# PCOD8146101 Si02
#       7
#     4   8   8   4   8   8   8
#     4  12  24  42  70  99 135 180 224 274 346 402
#     4  12  25  43  74  99 133 179 231 273 338 411
#     4  11  23  40  70  98 132 179 228 269 337 403
#     4  10  22  40  66  95 133 174 232 270 326 398
#     4  12  25  45  68 102 141 176 218 286 346 402
#     4  11  24  43  68 101 137 174 234 281 330 403
#     4  11  23  41  66  97 136 177 222 279 335 393
#
# _framework density 20.060822999999999
#
# number of rings (size 3 to 8) (size 9 to 14) (size 15 to 20)
#    0.000    0.667    5.000    4.000    0.000    4.000 
#    0.000    0.000    1.833    0.000    0.000    0.000 
#    0.000    0.000    0.000    0.000    0.000    0.000 
#
# Total GULP energy -297490.162949 kJ/mol
# GULP energy per Si atom -12395.423456 kJ/mol
# Density = 2.001516 g / cm^3
# Si number density = 20.060823 Si / 1000 Ang^3
#
#
#
# Elastic Constant Matrix: (Units=GPa)
#
#
# Indices 1 2 3 4 5 6 
#
# 1 123.1717 33.5745 41.3631 0.0000 -1.8125 0.0000
# 2 33.5745 98.3481 29.0553 0.0000 8.8575 0.0000
# 3 41.3631 29.0553 126.1704 0.0000 -4.3386 0.0000
# 4 0.0000 0.0000 0.0000 -98.1994 0.0000 67.0856
# 5 -1.8125 8.8575 -4.3386 0.0000 37.4233 0.0000
# 6 0.0000 0.0000 0.0000 67.0856 0.0000 -4.8698
#
#
#
# Elastic Compliance Matrix: (Units=1/GPa)
#
#
# Indices 1 2 3 4 5 6 
#
# 1 0.009703 -0.002632 -0.002548 0.000000 0.000797 0.000000
# 2 -0.002632 0.011943 -0.001997 0.000000 -0.003186 0.000000
# 3 -0.002548 -0.001997 0.009270 0.000000 0.001424 0.000000
# 4 0.000000 0.000000 0.000000 0.001211 0.000000 0.016679
# 5 0.000797 -0.003186 0.001424 0.000000 0.027679 0.000000
# 6 0.000000 0.000000 0.000000 0.016679 0.000000 0.024414
#
#
# Mechanical properties :
#
#
# Convention : Reuss Voigt Hill
#
# Bulk Modulus (GPa) = 60.37358 61.74176 61.05767
# Shear Modulus (GPa) = 48.03320 3.11730 25.57525
#
# Velocity S-wave (km/s) = 4.89855 1.24792 3.57443
# Velocity P-wave (km/s) = 7.88384 5.73764 6.89476
#
# Compressibility (1/GPa) = 0.01656354
#
# Stress axis : x y z
#
# Youngs Moduli (GPa) = 103.05677 83.72861 107.87632
#
# Poissons Ratio (x) = 0.22035 0.27483
# Poissons Ratio (y) = 0.27122 0.21545
# Poissons Ratio (z) = 0.26255 0.16722
#
# Static dielectric constant tensor:
#      x y z
#    x 3.751020 0.000000 0.015090 
#    y 0.000000 3.745660 0.000000 
#    z 0.015090 0.000000 3.687400 
# 
# 
# High freq. dielectric constant tensor:
#      x y z
#    x 1.780120 0.000000 -0.004710 
#    y 0.000000 1.796910 0.000000 
#    z -0.004710 0.000000 1.791240 
# 
# From -- ./inp_files/139092.got.cif
#   From: 2010.06.25/outbox.cif.g09.slc.cpg/sg15_70_cif.got.tgz:139092.got - 2010.06.28 07:06:18.
