data_PCOD8146850
_publ_section_title
;
Structure prediction by ZEFSAII (Michael W. Deem and Ramdas Pophale) SiO2 
 PCOD8146850
Probable space group: C 2/C
;
_chemical_formula_sum "Si O2"
_cell_formula_units_Z 40
_cell_length_a 16.669560
_cell_length_b 9.290301
_cell_length_c 11.200401
_cell_angle_alpha 90.000000
_cell_angle_beta 86.322146
_cell_angle_gamma 90.000000
_cell_volume 1730.980342
_symmetry_space_group_name_H-M "C 2/C"
_symmetry_group_IT_number 15
_symmetry_cell_setting 'monoclinic'
loop_
_space_group_symop_operation_xyz
x,y,z
-x,y,1/2-z
-x,-y,-z
x,-y,1/2+z
1/2+x,1/2+y,z
1/2-x,1/2+y,1/2-z
1/2-x,1/2-y,-z
1/2+x,1/2-y,1/2+z
loop_
_atom_site_type_symbol
_atom_site_label
_atom_site_fract_x
_atom_site_fract_y
_atom_site_fract_z
Si Si1 0.618351 0.432961 0.428434
Si Si2 0.198336 0.333958 0.903507
Si Si3 0.756002 0.151686 0.148666
Si Si4 0.365427 0.131212 0.529434
Si Si5 0.003253 0.821861 0.882672
O O1 0.640990 0.290095 0.351516
O O2 0.699414 0.528633 0.436855
O O3 0.583339 0.369678 0.557588
O O4 0.554048 0.530592 0.367195
O O5 0.252209 0.392120 0.788371
O O6 0.139155 0.458650 0.957375
O O7 0.250000 0.250000 0.000000
O O8 0.807079 0.298262 0.134665
O O9 0.667684 0.171704 0.099269
O O10 0.454492 0.199564 0.537882
O O11 0.000000 0.756540 0.750000
#
# Coordination Sequence:
#
# PCOD8146850 Si02
#       5
#     8   8   8   8   8
#     4  10  23  41  66  99 129 185 223 270 348 408
#     4  12  24  38  69 104 134 175 225 292 348 393
#     4  10  22  42  65  97 141 172 232 285 334 414
#     4  10  23  40  65 101 133 176 228 286 342 393
#     4  10  24  44  69  95 139 185 226 274 340 427
#
# _framework density 23.108293
#
# number of rings (size 3 to 8) (size 9 to 14) (size 15 to 20)
#    0.000    1.600    2.000    1.200    5.600    7.200 
#    0.000    1.000    0.000    0.000    0.000    0.000 
#    0.000    0.000    0.000    0.000    0.000    0.000 
#
# Total GULP energy -247763.139209 kJ/mol
# GULP energy per Si atom -12388.156960 kJ/mol
# Density = 2.305570 g / cm^3
# Si number density = 23.108293 Si / 1000 Ang^3
#
#
#
# Elastic Constant Matrix: (Units=GPa)
#
#
# Indices 1 2 3 4 5 6 
#
# 1 87.2923 37.2762 46.5842 0.0000 2.2027 0.0000
# 2 37.2762 152.0405 17.2687 0.0000 -1.1592 0.0000
# 3 46.5842 17.2687 123.8915 0.0000 -1.7964 0.0000
# 4 0.0000 0.0000 0.0000 20.6018 0.0000 -5.9610
# 5 2.2027 -1.1592 -1.7964 0.0000 22.3716 0.0000
# 6 0.0000 0.0000 0.0000 -5.9610 0.0000 36.4981
#
#
#
# Elastic Compliance Matrix: (Units=1/GPa)
#
#
# Indices 1 2 3 4 5 6 
#
# 1 0.015867 -0.003277 -0.005541 0.000000 -0.002177 0.000000
# 2 -0.003277 0.007362 0.000217 0.000000 0.000722 0.000000
# 3 -0.005541 0.000217 0.010145 0.000000 0.001371 0.000000
# 4 0.000000 0.000000 0.000000 0.050947 0.000000 0.008321
# 5 -0.002177 0.000722 0.001371 0.000000 0.045061 0.000000
# 6 0.000000 0.000000 0.000000 0.008321 0.000000 0.028758
#
#
# Mechanical properties :
#
#
# Convention : Reuss Voigt Hill
#
# Bulk Modulus (GPa) = 61.84232 62.83138 62.33685
# Shear Modulus (GPa) = 27.66509 33.36731 30.51620
#
# Velocity S-wave (km/s) = 3.46380 3.80406 3.63791
# Velocity P-wave (km/s) = 6.54349 6.82228 6.68434
#
# Compressibility (1/GPa) = 0.01617016
#
# Stress axis : x y z
#
# Youngs Moduli (GPa) = 63.02296 135.83948 98.57373
#
# Poissons Ratio (x) = 0.44521 0.54619
# Poissons Ratio (y) = 0.20656 -0.02136
# Poissons Ratio (z) = 0.34921 -0.02944
#
# Static dielectric constant tensor:
#      x y z
#    x 4.208040 0.000000 -0.196950 
#    y 0.000000 4.492970 0.000000 
#    z -0.196950 0.000000 3.746640 
# 
# 
# High freq. dielectric constant tensor:
#      x y z
#    x 1.900540 0.000000 -0.004400 
#    y 0.000000 1.928930 0.000000 
#    z -0.004400 0.000000 1.885040 
# 
# From -- ./inp_files/109648.got.cif
#   From: 2010.06.25/outbox.cif.g09.slc.cpg/sg15_55_cif.got.tgz:109648.got - 2010.06.28 07:06:18.
