data_PCOD8146299
_publ_section_title
;
Structure prediction by ZEFSAII (Michael W. Deem and Ramdas Pophale) SiO2 
 PCOD8146299
Probable space group: C 2/C
;
_chemical_formula_sum "Si O2"
_cell_formula_units_Z 40
_cell_length_a 29.996920
_cell_length_b 5.404625
_cell_length_c 12.064194
_cell_angle_alpha 90.000000
_cell_angle_beta 60.504896
_cell_angle_gamma 90.000000
_cell_volume 1702.387074
_symmetry_space_group_name_H-M "C 2/C"
_symmetry_group_IT_number 15
_symmetry_cell_setting 'monoclinic'
loop_
_space_group_symop_operation_xyz
x,y,z
-x,y,1/2-z
-x,-y,-z
x,-y,1/2+z
1/2+x,1/2+y,z
1/2-x,1/2+y,1/2-z
1/2-x,1/2-y,-z
1/2+x,1/2-y,1/2+z
loop_
_atom_site_type_symbol
_atom_site_label
_atom_site_fract_x
_atom_site_fract_y
_atom_site_fract_z
Si Si1 0.306511 0.561656 0.757964
Si Si2 0.038482 0.051900 0.122436
Si Si3 0.122784 0.237213 0.645522
Si Si4 0.536363 0.195460 0.402504
Si Si5 0.688650 0.939607 0.380458
O O1 0.335050 0.576761 0.840471
O O2 0.321976 0.303485 0.681217
O O3 0.246157 0.566081 0.856516
O O4 0.322209 0.803618 0.668147
O O5 0.000000 0.219769 0.250000
O O6 0.089579 0.962189 0.119521
O O7 0.058099 0.159297 0.982408
O O8 0.997915 0.838376 0.143138
O O9 0.086684 0.395959 0.774089
O O10 0.149747 0.432676 0.531503
O O11 0.500000 0.000000 0.500000
#
# Coordination Sequence:
#
# PCOD8146299 Si02
#       5
#     8   8   8   8   8
#     4  10  23  44  68 100 138 173 222 279 329 406
#     4   9  21  41  60  87 125 168 217 271 327 385
#     4  11  22  40  67  95 129 178 224 274 337 400
#     4  10  22  41  61  89 127 169 217 274 325 394
#     4  10  23  44  67  99 139 175 219 275 339 397
#
# _framework density 23.496421999999999
#
# number of rings (size 3 to 8) (size 9 to 14) (size 15 to 20)
#    0.000    2.000    0.000    1.800    2.800    4.000 
#   14.400    6.000    0.000    0.000    0.000    0.000 
#    0.000    0.000    0.000    0.000    0.000    0.000 
#
# Total GULP energy -247811.824202 kJ/mol
# GULP energy per Si atom -12390.591210 kJ/mol
# Density = 2.344294 g / cm^3
# Si number density = 23.496422 Si / 1000 Ang^3
#
#
#
# Elastic Constant Matrix: (Units=GPa)
#
#
# Indices 1 2 3 4 5 6 
#
# 1 139.3959 20.3711 47.6707 0.0000 22.6931 0.0000
# 2 20.3711 85.3809 23.8092 0.0000 -3.2085 0.0000
# 3 47.6707 23.8092 150.7290 0.0000 -20.2059 0.0000
# 4 0.0000 0.0000 0.0000 82.1729 0.0000 72.1486
# 5 22.6931 -3.2085 -20.2059 0.0000 46.2437 0.0000
# 6 0.0000 0.0000 0.0000 72.1486 0.0000 100.6333
#
#
#
# Elastic Compliance Matrix: (Units=1/GPa)
#
#
# Indices 1 2 3 4 5 6 
#
# 1 0.009721 -0.001531 -0.003703 0.000000 -0.006495 0.000000
# 2 -0.001531 0.012493 -0.001352 0.000000 0.001027 0.000000
# 3 -0.003703 -0.001352 0.008764 0.000000 0.005553 0.000000
# 4 0.000000 0.000000 0.000000 0.032845 0.000000 -0.023548
# 5 -0.006495 0.001027 0.005553 0.000000 0.027309 0.000000
# 6 0.000000 0.000000 0.000000 -0.023548 0.000000 0.026820
#
#
# Mechanical properties :
#
#
# Convention : Reuss Voigt Hill
#
# Bulk Modulus (GPa) = 56.15951 62.13421 59.14686
# Shear Modulus (GPa) = 36.48076 64.72030 50.60053
#
# Velocity S-wave (km/s) = 3.94459 5.25400 4.64566
# Velocity P-wave (km/s) = 6.68578 7.95661 7.34871
#
# Compressibility (1/GPa) = 0.01780642
#
# Stress axis : x y z
#
# Youngs Moduli (GPa) = 102.86623 80.04522 114.10888
#
# Poissons Ratio (x) = 0.12253 0.42259
# Poissons Ratio (y) = 0.15746 0.15422
# Poissons Ratio (z) = 0.38096 0.10818
#
# Static dielectric constant tensor:
#      x y z
#    x 4.400560 0.000000 -0.164270 
#    y 0.000000 4.315410 0.000000 
#    z -0.164270 0.000000 2.903470 
# 
# 
# High freq. dielectric constant tensor:
#      x y z
#    x 1.952610 0.000000 -0.001900 
#    y 0.000000 1.895810 0.000000 
#    z -0.001900 0.000000 1.953200 
# 
# From -- ./inp_files/120704.got.cif
#   From: 2010.06.25/outbox.cif.g09.slc.cpg/sg15_61_cif.got.tgz:120704.got - 2010.06.28 07:06:18.
