data_PCOD8146248
_publ_section_title
;
Structure prediction by ZEFSAII (Michael W. Deem and Ramdas Pophale) SiO2 
 PCOD8146248
Probable space group: C 2/C
;
_chemical_formula_sum "Si O2"
_cell_formula_units_Z 52
_cell_length_a 22.217603
_cell_length_b 8.648401
_cell_length_c 14.470592
_cell_angle_alpha 90.000000
_cell_angle_beta 58.293650
_cell_angle_gamma 90.000000
_cell_volume 2365.498846
_symmetry_space_group_name_H-M "C 2/C"
_symmetry_group_IT_number 15
_symmetry_cell_setting 'monoclinic'
loop_
_space_group_symop_operation_xyz
x,y,z
-x,y,1/2-z
-x,-y,-z
x,-y,1/2+z
1/2+x,1/2+y,z
1/2-x,1/2+y,1/2-z
1/2-x,1/2-y,-z
1/2+x,1/2-y,1/2+z
loop_
_atom_site_type_symbol
_atom_site_label
_atom_site_fract_x
_atom_site_fract_y
_atom_site_fract_z
Si Si1 0.453860 0.144393 0.127933
Si Si2 0.000000 0.198396 0.250000
Si Si3 0.801834 0.879537 0.754913
Si Si4 0.947259 0.989278 0.128190
Si Si5 0.189668 0.515782 0.714442
Si Si6 0.927640 0.583244 0.942031
Si Si7 0.271640 0.919763 0.512215
O O1 0.445521 0.317585 0.171877
O O2 0.392007 0.034957 0.216400
O O3 0.528564 0.076637 0.104457
O O4 0.453629 0.158445 0.016818
O O5 0.059746 0.304119 0.154951
O O6 0.035595 0.098814 0.300462
O O7 0.808325 0.695423 0.760126
O O8 0.788641 0.966231 0.864714
O O9 0.870576 0.956510 0.653047
O O10 0.734777 0.908221 0.744506
O O11 0.000000 0.000000 0.000000
O O12 0.221750 0.480746 0.586381
O O13 0.844020 0.560166 0.012092
O O14 0.250000 0.750000 0.500000
#
# Coordination Sequence:
#
# PCOD8146248 Si02
#       7
#     8   4   8   8   8   8   8
#     4  11  24  44  71 102 137 189 237 296 352 428
#     4  12  24  44  70 102 138 182 230 294 362 426
#     4  11  24  42  67  99 138 182 234 287 356 426
#     4  12  27  44  68 103 142 185 239 300 361 423
#     4  11  23  44  71 101 137 184 233 288 359 428
#     4  11  22  42  74  99 138 184 241 286 355 427
#     4  10  22  40  70  98 132 183 226 281 348 423
#
# _framework density 21.982678
#
# number of rings (size 3 to 8) (size 9 to 14) (size 15 to 20)
#    0.000    0.923    3.077    4.615    4.308    3.077 
#    0.000    3.077    0.000    0.000    0.000    0.000 
#    0.000    0.000    0.000    0.000    0.000    0.000 
#
# Total GULP energy -322349.783035 kJ/mol
# GULP energy per Si atom -12398.068578 kJ/mol
# Density = 2.193264 g / cm^3
# Si number density = 21.982678 Si / 1000 Ang^3
#
#
#
# Elastic Constant Matrix: (Units=GPa)
#
#
# Indices 1 2 3 4 5 6 
#
# 1 98.1609 37.7329 29.7812 0.0000 -13.8320 0.0000
# 2 37.7329 115.5966 36.2483 0.0000 -4.8733 0.0000
# 3 29.7812 36.2483 145.6531 0.0000 -5.2350 0.0000
# 4 0.0000 0.0000 0.0000 28.1598 0.0000 4.1977
# 5 -13.8320 -4.8733 -5.2350 0.0000 40.1655 0.0000
# 6 0.0000 0.0000 0.0000 4.1977 0.0000 37.0542
#
#
#
# Elastic Compliance Matrix: (Units=1/GPa)
#
#
# Indices 1 2 3 4 5 6 
#
# 1 0.012503 -0.003434 -0.001569 0.000000 0.003684 0.000000
# 2 -0.003434 0.010354 -0.001881 0.000000 -0.000171 0.000000
# 3 -0.001569 -0.001881 0.007663 0.000000 0.000230 0.000000
# 4 0.000000 0.000000 0.000000 0.036122 0.000000 -0.004092
# 5 0.003684 -0.000171 0.000230 0.000000 0.026175 0.000000
# 6 0.000000 0.000000 0.000000 -0.004092 0.000000 0.027451
#
#
# Mechanical properties :
#
#
# Convention : Reuss Voigt Hill
#
# Bulk Modulus (GPa) = 59.69537 62.99283 61.34410
# Shear Modulus (GPa) = 35.81173 38.11912 36.96542
#
# Velocity S-wave (km/s) = 4.04058 4.16871 4.10514
# Velocity P-wave (km/s) = 6.99878 7.20339 7.10182
#
# Compressibility (1/GPa) = 0.01675172
#
# Stress axis : x y z
#
# Youngs Moduli (GPa) = 79.98362 96.57957 130.49910
#
# Poissons Ratio (x) = 0.33162 0.20481
# Poissons Ratio (y) = 0.27463 0.24546
# Poissons Ratio (z) = 0.12553 0.18166
#
# Static dielectric constant tensor:
#      x y z
#    x 3.994170 0.000000 -0.022190 
#    y 0.000000 3.845600 0.000000 
#    z -0.022190 0.000000 4.561800 
# 
# 
# High freq. dielectric constant tensor:
#      x y z
#    x 1.866110 0.000000 -0.002900 
#    y 0.000000 1.850640 0.000000 
#    z -0.002900 0.000000 1.885000 
# 
# From -- ./inp_files/171728.got.cif
#   From: 2010.06.25/outbox.cif.g09.slc.cpg/sg15_86_cif.got.tgz:171728.got - 2010.06.28 07:06:18.
