data_PCOD8146038
_publ_section_title
;
Structure prediction by ZEFSAII (Michael W. Deem and Ramdas Pophale) SiO2 
 PCOD8146038
Probable space group: C 2/C
;
_chemical_formula_sum "Si O2"
_cell_formula_units_Z 64
_cell_length_a 33.937700
_cell_length_b 14.405716
_cell_length_c 9.277636
_cell_angle_alpha 90.000000
_cell_angle_beta 42.508846
_cell_angle_gamma 90.000000
_cell_volume 3064.863188
_symmetry_space_group_name_H-M "C 2/C"
_symmetry_group_IT_number 15
_symmetry_cell_setting 'monoclinic'
loop_
_space_group_symop_operation_xyz
x,y,z
-x,y,1/2-z
-x,-y,-z
x,-y,1/2+z
1/2+x,1/2+y,z
1/2-x,1/2+y,1/2-z
1/2-x,1/2-y,-z
1/2+x,1/2-y,1/2+z
loop_
_atom_site_type_symbol
_atom_site_label
_atom_site_fract_x
_atom_site_fract_y
_atom_site_fract_z
Si Si1 0.720698 0.397494 0.411323
Si Si2 0.124680 0.761370 0.730282
Si Si3 0.065988 0.095540 0.600381
Si Si4 0.064726 0.690569 0.606867
Si Si5 0.335164 0.539065 0.726901
Si Si6 0.042487 0.483960 0.751598
Si Si7 0.648011 0.146428 0.927700
Si Si8 0.381095 0.699961 0.791576
O O1 0.690036 0.297418 0.517278
O O2 0.698992 0.461069 0.597667
O O3 0.704286 0.435403 0.300643
O O4 0.790043 0.402101 0.234311
O O5 0.090731 0.741509 0.675050
O O6 0.130702 0.667894 0.808531
O O7 0.086977 0.837268 0.916578
O O8 0.070211 0.144158 0.746880
O O9 0.000000 0.066335 0.750000
O O10 0.102964 0.000028 0.497480
O O11 0.067877 0.579955 0.619600
O O12 0.097550 0.721050 0.374554
O O13 0.000000 0.725530 0.750000
O O14 0.341738 0.627598 0.811892
O O15 0.097257 0.417035 0.636216
O O16 0.000000 0.435158 0.750000
O O17 0.000000 0.500000 0.000000
O O18 0.656422 0.243633 0.989521
#
# Coordination Sequence:
#
# PCOD8146038 Si02
#       8
#     8   8   8   8   8   8   8   8
#     4  11  24  45  66  95 131 176 218 271 326 391
#     4  10  22  42  64  95 132 171 221 272 320 388
#     4  10  22  40  65  94 133 180 216 261 332 392
#     4  11  22  38  66  98 132 170 215 272 330 386
#     4  11  23  43  65  93 136 172 215 275 323 382
#     4  11  24  43  65  95 132 165 212 273 331 392
#     4  11  25  44  68  93 127 178 223 261 337 394
#     4  11  23  41  63  97 128 165 226 270 320 384
#
# _framework density 20.881844999999998
#
# number of rings (size 3 to 8) (size 9 to 14) (size 15 to 20)
#    0.000    1.250    2.500    3.375    0.000    7.500 
#    2.250    0.000    0.000    0.000    0.000    0.000 
#    0.000    0.000    0.000    0.000    0.000    0.000 
#
# Total GULP energy -396752.938998 kJ/mol
# GULP energy per Si atom -12398.529344 kJ/mol
# Density = 2.083432 g / cm^3
# Si number density = 20.881845 Si / 1000 Ang^3
#
#
#
# Elastic Constant Matrix: (Units=GPa)
#
#
# Indices 1 2 3 4 5 6 
#
# 1 123.3110 37.5982 75.5876 0.0000 -2.5495 0.0000
# 2 37.5982 87.7523 42.2652 0.0000 -6.3533 0.0000
# 3 75.5876 42.2652 98.3916 0.0000 -7.7790 0.0000
# 4 0.0000 0.0000 0.0000 35.7943 0.0000 6.2680
# 5 -2.5495 -6.3533 -7.7790 0.0000 46.5834 0.0000
# 6 0.0000 0.0000 0.0000 6.2680 0.0000 32.9544
#
#
#
# Elastic Compliance Matrix: (Units=1/GPa)
#
#
# Indices 1 2 3 4 5 6 
#
# 1 0.015486 -0.001195 -0.011481 0.000000 -0.001233 0.000000
# 2 -0.001195 0.014501 -0.005229 0.000000 0.001039 0.000000
# 3 -0.011481 -0.005229 0.021407 0.000000 0.002233 0.000000
# 4 0.000000 0.000000 0.000000 0.028900 0.000000 -0.005497
# 5 -0.001233 0.001039 0.002233 0.000000 0.021914 0.000000
# 6 0.000000 0.000000 0.000000 -0.005497 0.000000 0.031391
#
#
# Mechanical properties :
#
#
# Convention : Reuss Voigt Hill
#
# Bulk Modulus (GPa) = 64.16926 68.92856 66.54891
# Shear Modulus (GPa) = 28.63622 33.33333 30.98477
#
# Velocity S-wave (km/s) = 3.70719 3.99969 3.85621
# Velocity P-wave (km/s) = 7.00862 7.37635 7.19483
#
# Compressibility (1/GPa) = 0.01558379
#
# Stress axis : x y z
#
# Youngs Moduli (GPa) = 64.57373 68.95854 46.71434
#
# Poissons Ratio (x) = 0.08237 0.53634
# Poissons Ratio (y) = 0.07714 0.24429
# Poissons Ratio (z) = 0.74139 0.36061
#
# Static dielectric constant tensor:
#      x y z
#    x 3.903480 0.000000 0.205750 
#    y 0.000000 3.811840 0.000000 
#    z 0.205750 0.000000 3.782010 
# 
# 
# High freq. dielectric constant tensor:
#      x y z
#    x 1.829580 0.000000 0.017960 
#    y 0.000000 1.816790 0.000000 
#    z 0.017960 0.000000 1.816730 
# 
# From -- ./inp_files/70115.got.cif
#   From: 2010.06.25/outbox.cif.g09.slc.cpg/sg15_36_cif.got.tgz:70115.got - 2010.06.28 07:06:18.
