data_PCOD8146102
_publ_section_title
;
Structure prediction by ZEFSAII (Michael W. Deem and Ramdas Pophale) SiO2 
 PCOD8146102
Probable space group: C 2/C
;
_chemical_formula_sum "Si O2"
_cell_formula_units_Z 60
_cell_length_a 16.075257
_cell_length_b 23.390610
_cell_length_c 7.408518
_cell_angle_alpha 90.000000
_cell_angle_beta 78.714147
_cell_angle_gamma 90.000000
_cell_volume 2731.810736
_symmetry_space_group_name_H-M "C 2/C"
_symmetry_group_IT_number 15
_symmetry_cell_setting 'monoclinic'
loop_
_space_group_symop_operation_xyz
x,y,z
-x,y,1/2-z
-x,-y,-z
x,-y,1/2+z
1/2+x,1/2+y,z
1/2-x,1/2+y,1/2-z
1/2-x,1/2-y,-z
1/2+x,1/2-y,1/2+z
loop_
_atom_site_type_symbol
_atom_site_label
_atom_site_fract_x
_atom_site_fract_y
_atom_site_fract_z
Si Si1 0.429958 0.275872 0.031571
Si Si2 0.624107 0.723999 0.564005
Si Si3 0.611400 0.848503 0.540976
Si Si4 0.757774 0.556228 0.620361
Si Si5 0.657015 0.609651 0.372636
Si Si6 0.500000 0.636426 0.250000
Si Si7 0.571467 0.150841 0.477370
Si Si8 0.779976 0.429931 0.514302
O O1 0.366898 0.289619 0.225252
O O2 0.525289 0.273337 0.061906
O O3 0.404504 0.214118 0.957577
O O4 0.427945 0.324921 0.880328
O O5 0.658489 0.786868 0.490789
O O6 0.671842 0.674447 0.434839
O O7 0.675074 0.899062 0.480312
O O8 0.529403 0.859143 0.445560
O O9 0.584009 0.850210 0.758870
O O10 0.675262 0.564639 0.527016
O O11 0.796986 0.493253 0.582728
O O12 0.734762 0.567190 0.838456
O O13 0.558106 0.598477 0.359310
O O14 0.718755 0.602704 0.176895
O O15 0.630214 0.102954 0.546247
#
# Coordination Sequence:
#
# PCOD8146102 Si02
#       8
#     8   8   8   8   8   4   8   8
#     4   8  16  34  60  93 131 165 197 260 310 373
#     4   8  17  35  62  92 130 166 202 255 320 372
#     4   9  18  38  65  96 130 173 209 256 308 377
#     4  12  25  44  66  86 131 168 209 273 319 360
#     4  11  24  44  65  93 126 165 211 269 320 384
#     4  10  22  40  66  96 128 162 214 262 324 390
#     4   9  18  37  64  94 132 171 216 244 306 380
#     4  12  25  44  65  91 125 173 211 264 318 371
#
# _framework density 21.963455
#
# number of rings (size 3 to 8) (size 9 to 14) (size 15 to 20)
#    0.000    2.133    2.667    1.600    1.867    4.800 
#    0.000    2.000    0.000    0.000    0.000    0.000 
#    0.000    0.000    0.000    0.000    0.000    0.000 
#
# Total GULP energy -371832.380422 kJ/mol
# GULP energy per Si atom -12394.412681 kJ/mol
# Density = 2.191347 g / cm^3
# Si number density = 21.963455 Si / 1000 Ang^3
#
#
#
# Elastic Constant Matrix: (Units=GPa)
#
#
# Indices 1 2 3 4 5 6 
#
# 1 53.8710 32.7672 29.2243 0.0000 15.9383 0.0000
# 2 32.7672 117.5244 36.2210 0.0000 -9.0166 0.0000
# 3 29.2243 36.2210 89.8191 0.0000 5.4269 0.0000
# 4 0.0000 0.0000 0.0000 23.7320 0.0000 5.9183
# 5 15.9383 -9.0166 5.4269 0.0000 32.3894 0.0000
# 6 0.0000 0.0000 0.0000 5.9183 0.0000 13.0597
#
#
#
# Elastic Compliance Matrix: (Units=1/GPa)
#
#
# Indices 1 2 3 4 5 6 
#
# 1 0.031945 -0.008369 -0.005989 0.000000 -0.017046 0.000000
# 2 -0.008369 0.012293 -0.002718 0.000000 0.007996 0.000000
# 3 -0.005989 -0.002718 0.014189 0.000000 -0.000187 0.000000
# 4 0.000000 0.000000 0.000000 0.047506 0.000000 -0.021528
# 5 -0.017046 0.007996 -0.000187 0.000000 0.041519 0.000000
# 6 0.000000 0.000000 0.000000 -0.021528 0.000000 0.086328
#
#
# Mechanical properties :
#
#
# Convention : Reuss Voigt Hill
#
# Bulk Modulus (GPa) = 41.19152 50.84884 46.02018
# Shear Modulus (GPa) = 18.11433 24.70301 21.40867
#
# Velocity S-wave (km/s) = 2.87496 3.35734 3.12547
# Velocity P-wave (km/s) = 5.46039 6.18311 5.83295
#
# Compressibility (1/GPa) = 0.02427684
#
# Stress axis : x y z
#
# Youngs Moduli (GPa) = 31.30336 81.34623 70.47491
#
# Poissons Ratio (x) = 0.68076 0.42210
# Poissons Ratio (y) = 0.26197 0.19152
# Poissons Ratio (z) = 0.18749 0.22107
#
# Static dielectric constant tensor:
#      x y z
#    x 4.046090 0.000000 0.083140 
#    y 0.000000 4.257430 0.000000 
#    z 0.083140 0.000000 4.598510 
# 
# 
# High freq. dielectric constant tensor:
#      x y z
#    x 1.840810 0.000000 0.012650 
#    y 0.000000 1.854060 0.000000 
#    z 0.012650 0.000000 1.870050 
# 
# From -- ./inp_files/50200.got.cif
#   From: 2010.06.25/outbox.cif.g09.slc.cpg/sg15_26_cif.got.tgz:50200.got - 2010.06.28 07:06:18.
