data_PCOD8146506
_publ_section_title
;
Structure prediction by ZEFSAII (Michael W. Deem and Ramdas Pophale) SiO2 
 PCOD8146506
Probable space group: C 2/C
;
_chemical_formula_sum "Si O2"
_cell_formula_units_Z 44
_cell_length_a 5.188400
_cell_length_b 17.753337
_cell_length_c 22.996758
_cell_angle_alpha 90.000000
_cell_angle_beta 69.509506
_cell_angle_gamma 90.000000
_cell_volume 1984.241926
_symmetry_space_group_name_H-M "C 2/C"
_symmetry_group_IT_number 15
_symmetry_cell_setting 'monoclinic'
loop_
_space_group_symop_operation_xyz
x,y,z
-x,y,1/2-z
-x,-y,-z
x,-y,1/2+z
1/2+x,1/2+y,z
1/2-x,1/2+y,1/2-z
1/2-x,1/2-y,-z
1/2+x,1/2-y,1/2+z
loop_
_atom_site_type_symbol
_atom_site_label
_atom_site_fract_x
_atom_site_fract_y
_atom_site_fract_z
Si Si1 0.572838 0.771568 0.367278
Si Si2 0.000000 0.662541 0.750000
Si Si3 0.583170 0.987155 0.896339
Si Si4 0.428053 0.606221 0.087698
Si Si5 0.486296 0.603986 0.840592
Si Si6 0.701299 0.389094 0.448931
O O1 0.493473 0.784128 0.306489
O O2 0.603472 0.684003 0.376139
O O3 0.343197 0.807963 0.427872
O O4 0.861913 0.812235 0.356041
O O5 0.267024 0.607903 0.725830
O O6 0.357008 0.938247 0.878876
O O7 0.794485 0.933473 0.912788
O O8 0.421013 0.046256 0.951528
O O9 0.758860 0.041832 0.838521
O O10 0.462900 0.619549 0.015635
O O11 0.582551 0.579211 0.897479
#
# Coordination Sequence:
#
# PCOD8146506 Si02
#       6
#     8   4   8   8   8   8
#     4  10  24  41  69  95 131 174 229 271 331 389
#     4  10  22  46  74  84 124 176 238 278 326 382
#     4  11  24  41  66 101 139 177 213 263 334 400
#     4  12  25  39  68 103 147 167 210 277 334 394
#     4  10  22  43  70  95 125 178 231 265 326 403
#     4  10  22  41  67 101 136 183 215 256 328 410
#
# _framework density 22.174717000000001
#
# number of rings (size 3 to 8) (size 9 to 14) (size 15 to 20)
#    0.000    1.455    1.818    2.182   10.182    0.727 
#    0.000    0.000   16.000    0.000    0.000    0.000 
#    0.000    0.000    0.000    0.000    0.000    0.000 
#
# Total GULP energy -272686.598336 kJ/mol
# GULP energy per Si atom -12394.845379 kJ/mol
# Density = 2.212425 g / cm^3
# Si number density = 22.174717 Si / 1000 Ang^3
#
#
#
# Elastic Constant Matrix: (Units=GPa)
#
#
# Indices 1 2 3 4 5 6 
#
# 1 128.6067 66.2026 37.2383 0.0000 -23.5469 0.0000
# 2 66.2026 155.6565 62.6473 0.0000 -14.8635 0.0000
# 3 37.2383 62.6473 93.4297 0.0000 -20.6895 0.0000
# 4 0.0000 0.0000 0.0000 14.4593 0.0000 2.4426
# 5 -23.5469 -14.8635 -20.6895 0.0000 30.5705 0.0000
# 6 0.0000 0.0000 0.0000 2.4426 0.0000 38.6341
#
#
#
# Elastic Compliance Matrix: (Units=1/GPa)
#
#
# Indices 1 2 3 4 5 6 
#
# 1 0.011085 -0.003966 -0.000347 0.000000 0.006375 0.000000
# 2 -0.003966 0.010221 -0.005703 0.000000 -0.001945 0.000000
# 3 -0.000347 -0.005703 0.016459 0.000000 0.008099 0.000000
# 4 0.000000 0.000000 0.000000 0.069906 0.000000 -0.004420
# 5 0.006375 -0.001945 0.008099 0.000000 0.042157 0.000000
# 6 0.000000 0.000000 0.000000 -0.004420 0.000000 0.026163
#
#
# Mechanical properties :
#
#
# Convention : Reuss Voigt Hill
#
# Bulk Modulus (GPa) = 56.39514 78.87438 67.63476
# Shear Modulus (GPa) = 24.76032 30.83975 27.80004
#
# Velocity S-wave (km/s) = 3.34518 3.73334 3.54458
# Velocity P-wave (km/s) = 6.35671 7.36413 6.87889
#
# Compressibility (1/GPa) = 0.01773202
#
# Stress axis : x y z
#
# Youngs Moduli (GPa) = 90.21197 97.83786 60.75571
#
# Poissons Ratio (x) = 0.38804 0.02108
# Poissons Ratio (y) = 0.35780 0.34652
# Poissons Ratio (z) = 0.03130 0.55802
#
# Static dielectric constant tensor:
#      x y z
#    x 4.251490 0.000000 -0.256220 
#    y 0.000000 3.875460 0.000000 
#    z -0.256220 0.000000 3.781100 
# 
# 
# High freq. dielectric constant tensor:
#      x y z
#    x 1.890060 0.000000 -0.015130 
#    y 0.000000 1.865990 0.000000 
#    z -0.015130 0.000000 1.848390 
# 
# From -- ./inp_files/226934.got.cif
#   From: 2010.06.25/outbox.cif.g09.slc.cpg/sg15_114_cif.got.tgz:226934.got - 2010.06.28 07:06:18.
