data_PCOD8146202
_publ_section_title
;
Structure prediction by ZEFSAII (Michael W. Deem and Ramdas Pophale) SiO2 
 PCOD8146202
Probable space group: C 2/C
;
_chemical_formula_sum "Si O2"
_cell_formula_units_Z 44
_cell_length_a 13.726762
_cell_length_b 11.306038
_cell_length_c 25.289278
_cell_angle_alpha 90.000000
_cell_angle_beta 32.637603
_cell_angle_gamma 90.000000
_cell_volume 2116.724680
_symmetry_space_group_name_H-M "C 2/C"
_symmetry_group_IT_number 15
_symmetry_cell_setting 'monoclinic'
loop_
_space_group_symop_operation_xyz
x,y,z
-x,y,1/2-z
-x,-y,-z
x,-y,1/2+z
1/2+x,1/2+y,z
1/2-x,1/2+y,1/2-z
1/2-x,1/2-y,-z
1/2+x,1/2-y,1/2+z
loop_
_atom_site_type_symbol
_atom_site_label
_atom_site_fract_x
_atom_site_fract_y
_atom_site_fract_z
Si Si1 0.967158 0.223000 0.605250
Si Si2 0.500000 0.192260 0.250000
Si Si3 0.293642 0.620522 0.341507
Si Si4 0.263232 0.368741 0.299495
Si Si5 0.689087 0.093821 0.067346
Si Si6 0.152197 0.637054 0.522340
O O1 0.817024 0.271628 0.633807
O O2 0.878185 0.149752 0.693766
O O3 0.105949 0.133908 0.513179
O O4 0.092213 0.331575 0.565855
O O5 0.334483 0.277816 0.310718
O O6 0.564028 0.103617 0.175663
O O7 0.500000 0.662375 0.250000
O O8 0.280133 0.503002 0.312026
O O9 0.219581 0.595262 0.433929
O O10 0.058489 0.335189 0.382574
O O11 0.697021 0.960427 0.045155
O O12 0.250000 0.750000 0.500000
#
# Coordination Sequence:
#
# PCOD8146202 Si02
#       6
#     8   4   8   8   8   8
#     4  10  22  40  68  99 128 169 217 271 321 389
#     4  10  22  42  68  94 128 176 220 274 330 394
#     4  12  23  41  68  98 132 172 215 272 329 388
#     4  11  22  40  66  99 131 168 223 264 329 393
#     4  10  22  42  67  94 130 170 221 267 323 389
#     4  12  26  44  64  98 136 170 220 274 329 389
#
# _framework density 20.786832
#
# number of rings (size 3 to 8) (size 9 to 14) (size 15 to 20)
#    0.000    1.091    2.727    3.818    5.091    0.000 
#    4.909    1.818    0.000    0.000    0.000    0.000 
#    0.000    0.000    0.000    0.000    0.000    0.000 
#
# Total GULP energy -272865.919483 kJ/mol
# GULP energy per Si atom -12402.996340 kJ/mol
# Density = 2.073952 g / cm^3
# Si number density = 20.786832 Si / 1000 Ang^3
#
#
#
# Elastic Constant Matrix: (Units=GPa)
#
#
# Indices 1 2 3 4 5 6 
#
# 1 111.1110 69.2417 42.6203 0.0001 -23.9080 0.0001
# 2 69.2417 137.9722 55.4796 0.0004 -9.9310 -0.0001
# 3 42.6203 55.4796 99.5846 0.0022 -24.8903 0.0004
# 4 0.0001 0.0004 0.0022 9.3447 0.0001 15.0275
# 5 -23.9080 -9.9310 -24.8903 0.0001 45.0111 -0.0003
# 6 0.0001 -0.0001 0.0004 15.0275 -0.0003 8.3939
#
#
#
# Elastic Compliance Matrix: (Units=1/GPa)
#
#
# Indices 1 2 3 4 5 6 
#
# 1 0.014756 -0.006480 -0.001280 0.000000 0.005700 0.000000
# 2 -0.006480 0.012221 -0.004898 0.000000 -0.003454 0.000001
# 3 -0.001280 -0.004898 0.014944 0.000001 0.006503 -0.000003
# 4 0.000000 0.000000 0.000001 -0.056951 0.000002 0.101959
# 5 0.005700 -0.003454 0.006503 0.000002 0.028078 -0.000002
# 6 0.000000 0.000001 -0.000003 0.101959 -0.000002 -0.063402
#
#
# Mechanical properties :
#
#
# Convention : Reuss Voigt Hill
#
# Bulk Modulus (GPa) = 60.23067 75.92789 68.07928
# Shear Modulus (GPa) = -256.38701 24.63834 -115.87433
#
# Velocity S-wave (km/s) = -11.11795 3.44653 -7.47430
# Velocity P-wave (km/s) = 11.65219 7.24185 6.45481
#
# Compressibility (1/GPa) = 0.01660284
#
# Stress axis : x y z
#
# Youngs Moduli (GPa) = 67.76957 81.82664 66.91640
#
# Poissons Ratio (x) = 0.53025 0.08568
# Poissons Ratio (y) = 0.43916 0.32779
# Poissons Ratio (z) = 0.08678 0.40082
#
# Static dielectric constant tensor:
#      x y z
#    x 3.845930 0.000000 -0.147230 
#    y 0.000000 3.655070 0.000000 
#    z -0.147230 0.000000 4.027790 
# 
# 
# High freq. dielectric constant tensor:
#      x y z
#    x 1.814740 0.000000 -0.007990 
#    y 0.000000 1.806450 0.000000 
#    z -0.007990 0.000000 1.834730 
# 
# From -- ./inp_files/295865.got.cif
#   From: 2010.06.25/outbox.cif.g09.slc.cpg/sg15_148_cif.got.tgz:295865.got - 2010.06.28 07:06:18.
