data_PCOD8146041
_publ_section_title
;
Structure prediction by ZEFSAII (Michael W. Deem and Ramdas Pophale) SiO2 
 PCOD8146041
Probable space group: C 2/C
;
_chemical_formula_sum "Si O2"
_cell_formula_units_Z 40
_cell_length_a 27.404637
_cell_length_b 10.437469
_cell_length_c 11.457713
_cell_angle_alpha 90.000000
_cell_angle_beta 31.176660
_cell_angle_gamma 90.000000
_cell_volume 1696.591714
_symmetry_space_group_name_H-M "C 2/C"
_symmetry_group_IT_number 15
_symmetry_cell_setting 'monoclinic'
loop_
_space_group_symop_operation_xyz
x,y,z
-x,y,1/2-z
-x,-y,-z
x,-y,1/2+z
1/2+x,1/2+y,z
1/2-x,1/2+y,1/2-z
1/2-x,1/2-y,-z
1/2+x,1/2-y,1/2+z
loop_
_atom_site_type_symbol
_atom_site_label
_atom_site_fract_x
_atom_site_fract_y
_atom_site_fract_z
Si Si1 0.743100 0.335858 0.197010
Si Si2 0.255108 0.112680 0.137804
Si Si3 0.613622 0.754034 0.779798
Si Si4 0.600376 0.027935 0.851102
Si Si5 0.556859 0.717233 0.521913
O O1 0.711022 0.240868 0.364995
O O2 0.759923 0.482058 0.207266
O O3 0.662993 0.351902 0.259505
O O4 0.836715 0.274215 0.947737
O O5 0.147701 0.130062 0.313610
O O6 0.324918 0.094626 0.887628
O O7 0.506664 0.714073 0.966914
O O8 0.630934 0.884044 0.822987
O O9 0.588818 0.132697 0.978591
O O10 0.500000 0.000000 0.000000
O O11 0.500000 0.666030 0.750000
#
# Coordination Sequence:
#
# PCOD8146041 Si02
#       5
#     8   8   8   8   8
#     4  10  22  40  65  95 130 175 218 273 335 398
#     4  11  23  41  66  99 129 178 221 277 335 395
#     4   9  20  40  62  92 131 173 216 277 335 392
#     4   9  21  39  65  96 127 174 224 267 325 399
#     4  11  21  39  63  96 131 177 219 279 336 396
#
# _framework density 23.57668
#
# number of rings (size 3 to 8) (size 9 to 14) (size 15 to 20)
#    0.000    2.000    2.000    0.600    2.800    0.800 
#    3.600    7.000    0.000    0.000    0.000    0.000 
#    0.000    0.000    0.000    0.000    0.000    0.000 
#
# Total GULP energy -247781.917525 kJ/mol
# GULP energy per Si atom -12389.095876 kJ/mol
# Density = 2.352302 g / cm^3
# Si number density = 23.576680 Si / 1000 Ang^3
#
#
#
# Elastic Constant Matrix: (Units=GPa)
#
#
# Indices 1 2 3 4 5 6 
#
# 1 51.4834 22.0264 31.5965 0.0000 -21.0834 0.0000
# 2 22.0264 92.8148 20.9970 0.0000 0.0588 0.0000
# 3 31.5965 20.9970 118.4764 0.0000 -26.7497 0.0000
# 4 0.0000 0.0000 0.0000 37.7271 0.0000 1.2686
# 5 -21.0834 0.0588 -26.7497 0.0000 31.0537 0.0000
# 6 0.0000 0.0000 0.0000 1.2686 0.0000 39.3310
#
#
#
# Elastic Compliance Matrix: (Units=1/GPa)
#
#
# Indices 1 2 3 4 5 6 
#
# 1 0.032114 -0.006958 -0.002987 0.000000 0.019244 0.000000
# 2 -0.006958 0.012849 -0.001854 0.000000 -0.006345 0.000000
# 3 -0.002987 -0.001854 0.011308 0.000000 0.007716 0.000000
# 4 0.000000 0.000000 0.000000 0.026535 0.000000 -0.000856
# 5 0.019244 -0.006345 0.007716 0.000000 0.051927 0.000000
# 6 0.000000 0.000000 0.000000 -0.000856 0.000000 0.025453
#
#
# Mechanical properties :
#
#
# Convention : Reuss Voigt Hill
#
# Bulk Modulus (GPa) = 30.60562 45.77939 38.19251
# Shear Modulus (GPa) = 25.68402 34.16600 29.92501
#
# Velocity S-wave (km/s) = 3.30416 3.81089 3.56654
# Velocity P-wave (km/s) = 5.25034 6.23083 5.76148
#
# Compressibility (1/GPa) = 0.03267374
#
# Stress axis : x y z
#
# Youngs Moduli (GPa) = 31.13889 77.82810 88.43442
#
# Poissons Ratio (x) = 0.54151 0.26411
# Poissons Ratio (y) = 0.21666 0.16398
# Poissons Ratio (z) = 0.09300 0.14431
#
# Static dielectric constant tensor:
#      x y z
#    x 3.919860 0.000000 -0.374430 
#    y 0.000000 4.917610 0.000000 
#    z -0.374430 0.000000 4.123800 
# 
# 
# High freq. dielectric constant tensor:
#      x y z
#    x 1.923310 0.000000 -0.029950 
#    y 0.000000 1.935930 0.000000 
#    z -0.029950 0.000000 1.921610 
# 
# From -- ./inp_files/126370.got.cif
#   From: 2010.06.25/outbox.cif.g09.slc.cpg/sg15_64_cif.got.tgz:126370.got - 2010.06.28 07:06:18.
