data_PCOD8146536
_publ_section_title
;
Structure prediction by ZEFSAII (Michael W. Deem and Ramdas Pophale) SiO2 
 PCOD8146536
Probable space group: C 2/C
;
_chemical_formula_sum "Si O2"
_cell_formula_units_Z 40
_cell_length_a 22.444142
_cell_length_b 11.085150
_cell_length_c 13.192063
_cell_angle_alpha 90.000000
_cell_angle_beta 32.408328
_cell_angle_gamma 90.000000
_cell_volume 1759.062132
_symmetry_space_group_name_H-M "C 2/C"
_symmetry_group_IT_number 15
_symmetry_cell_setting 'monoclinic'
loop_
_space_group_symop_operation_xyz
x,y,z
-x,y,1/2-z
-x,-y,-z
x,-y,1/2+z
1/2+x,1/2+y,z
1/2-x,1/2+y,1/2-z
1/2-x,1/2-y,-z
1/2+x,1/2-y,1/2+z
loop_
_atom_site_type_symbol
_atom_site_label
_atom_site_fract_x
_atom_site_fract_y
_atom_site_fract_z
Si Si1 0.889886 0.015346 0.592972
Si Si2 0.136235 0.319618 0.644972
Si Si3 0.196777 0.805812 0.439574
Si Si4 0.780023 0.561474 0.005499
Si Si5 0.406915 0.255327 0.514977
O O1 0.884137 0.133653 0.528411
O O2 0.787894 0.019285 0.816827
O O3 0.880869 0.896670 0.535655
O O4 0.000000 0.000000 0.500000
O O5 0.250000 0.250000 0.500000
O O6 0.140956 0.463499 0.662700
O O7 0.109084 0.312220 0.566212
O O8 0.037555 0.264288 0.857299
O O9 0.155413 0.670448 0.528542
O O10 0.195505 0.884271 0.543662
O O11 0.325100 0.798801 0.217646
#
# Coordination Sequence:
#
# PCOD8146536 Si02
#       5
#     8   8   8   8   8
#     4  11  22  41  67  94 132 178 231 280 345 410
#     4  11  21  40  66  96 132 173 231 277 338 411
#     4  10  22  43  64  94 140 171 230 286 341 420
#     4  10  22  41  67  95 133 180 220 285 348 405
#     4  10  23  38  63  98 127 174 225 276 339 405
#
# _framework density 22.739391000000001
#
# number of rings (size 3 to 8) (size 9 to 14) (size 15 to 20)
#    0.000    1.600    2.000    2.400    0.000    3.200 
#    0.000   12.000    0.000    0.000    0.000    0.000 
#    0.000    0.000    0.000    0.000    0.000    0.000 
#
# Total GULP energy -247876.088095 kJ/mol
# GULP energy per Si atom -12393.804405 kJ/mol
# Density = 2.268763 g / cm^3
# Si number density = 22.739391 Si / 1000 Ang^3
#
#
#
# Elastic Constant Matrix: (Units=GPa)
#
#
# Indices 1 2 3 4 5 6 
#
# 1 98.1062 45.7770 13.9936 0.0000 -4.8506 0.0000
# 2 45.7770 140.6254 38.1383 0.0000 -5.1342 0.0000
# 3 13.9936 38.1383 68.8323 0.0000 -14.3179 0.0000
# 4 0.0000 0.0000 0.0000 31.2380 0.0000 3.8302
# 5 -4.8506 -5.1342 -14.3179 0.0000 35.5011 0.0000
# 6 0.0000 0.0000 0.0000 3.8302 0.0000 41.6537
#
#
#
# Elastic Compliance Matrix: (Units=1/GPa)
#
#
# Indices 1 2 3 4 5 6 
#
# 1 0.012061 -0.003862 -0.000093 0.000000 0.001052 0.000000
# 2 -0.003862 0.009622 -0.004767 0.000000 -0.001059 0.000000
# 3 -0.000093 -0.004767 0.018603 0.000000 0.006801 0.000000
# 4 0.000000 0.000000 0.000000 0.032377 0.000000 -0.002977
# 5 0.001052 -0.001059 0.006801 0.000000 0.030901 0.000000
# 6 0.000000 0.000000 0.000000 -0.002977 0.000000 0.024281
#
#
# Mechanical properties :
#
#
# Convention : Reuss Voigt Hill
#
# Bulk Modulus (GPa) = 43.77978 55.93130 49.85554
# Shear Modulus (GPa) = 32.70040 35.65557 34.17799
#
# Velocity S-wave (km/s) = 3.79628 3.96411 3.88110
# Velocity P-wave (km/s) = 6.20566 6.75294 6.48508
#
# Compressibility (1/GPa) = 0.02284160
#
# Stress axis : x y z
#
# Youngs Moduli (GPa) = 82.91524 103.92381 53.75600
#
# Poissons Ratio (x) = 0.40139 0.00500
# Poissons Ratio (y) = 0.32025 0.25623
# Poissons Ratio (z) = 0.00772 0.49535
#
# Static dielectric constant tensor:
#      x y z
#    x 4.667320 0.000000 -0.607220 
#    y 0.000000 4.427740 0.000000 
#    z -0.607220 0.000000 4.726040 
# 
# 
# High freq. dielectric constant tensor:
#      x y z
#    x 1.877560 0.000000 0.009200 
#    y 0.000000 1.912150 0.000000 
#    z 0.009200 0.000000 1.888790 
# 
# From -- ./inp_files/95120.got.cif
#   From: 2010.06.25/outbox.cif.g09.slc.cpg/sg15_48_cif.got.tgz:95120.got - 2010.06.28 07:06:18.
