data_PCOD8146422
_publ_section_title
;
Structure prediction by ZEFSAII (Michael W. Deem and Ramdas Pophale) SiO2 
 PCOD8146422
Probable space group: C 2/C
;
_chemical_formula_sum "Si O2"
_cell_formula_units_Z 52
_cell_length_a 15.698929
_cell_length_b 15.144879
_cell_length_c 12.061884
_cell_angle_alpha 90.000000
_cell_angle_beta 39.796170
_cell_angle_gamma 90.000000
_cell_volume 1835.568273
_symmetry_space_group_name_H-M "C 2/C"
_symmetry_group_IT_number 15
_symmetry_cell_setting 'monoclinic'
loop_
_space_group_symop_operation_xyz
x,y,z
-x,y,1/2-z
-x,-y,-z
x,-y,1/2+z
1/2+x,1/2+y,z
1/2-x,1/2+y,1/2-z
1/2-x,1/2-y,-z
1/2+x,1/2-y,1/2+z
loop_
_atom_site_type_symbol
_atom_site_label
_atom_site_fract_x
_atom_site_fract_y
_atom_site_fract_z
Si Si1 0.418797 0.712501 0.212474
Si Si2 0.741415 0.949747 0.627857
Si Si3 0.000000 0.500000 0.750000
Si Si4 0.418796 0.712501 0.949932
Si Si5 0.241415 0.550253 0.389313
Si Si6 0.796849 0.851211 0.072373
Si Si7 0.296849 0.648789 0.833929
O O1 0.425774 0.699874 0.074226
O O2 0.330308 0.630536 0.350417
O O3 0.341920 0.802942 0.318240
O O4 0.427101 0.704942 0.395746
O O5 0.589049 0.937616 0.741127
O O6 0.830308 0.869464 0.488967
O O7 0.749244 0.944101 0.750756
O O8 0.789501 0.046966 0.536202
O O9 0.089050 0.562384 0.580774
O O10 0.341920 0.802942 0.997919
O O11 0.572899 0.704942 0.749947
O O12 0.289500 0.453035 0.384796
O O13 0.817119 0.856418 0.182882
#
# Coordination Sequence:
#
# PCOD8146422 Si02
#       7
#     8   8   4   8   8   8   8
#     4   9  18  34  62  96 126 163 209 253 309 376
#     4  10  22  41  65  89 128 169 204 258 316 366
#     4  12  26  40  62  98 124 162 220 264 300 382
#     4   9  18  34  62  96 126 163 209 253 309 376
#     4  10  22  41  65  89 128 169 204 258 316 366
#     4   9  18  34  62  96 126 163 209 253 309 376
#     4   9  18  34  62  96 126 163 209 253 309 376
#
# _framework density 28.3291
#
# number of rings (size 3 to 8) (size 9 to 14) (size 15 to 20)
#    0.000    2.462    0.000    1.385    4.308    3.692 
#    0.000    4.615    0.000    0.000    0.000    0.000 
#    0.000    0.000    0.000    0.000    0.000    0.000 
#
# Total GULP energy -322558.597724 kJ/mol
# GULP energy per Si atom -12406.099912 kJ/mol
# Density = 2.826462 g / cm^3
# Si number density = 28.329100 Si / 1000 Ang^3
#
#
#
# Elastic Constant Matrix: (Units=GPa)
#
#
# Indices 1 2 3 4 5 6 
#
# 1 154.8856 73.9167 41.2302 0.0000 -34.0780 0.0000
# 2 73.9167 188.6420 83.3837 0.0000 -16.7697 0.0000
# 3 41.2302 83.3837 189.0962 0.0000 -26.5225 0.0000
# 4 0.0000 0.0000 0.0000 46.6661 0.0000 6.1330
# 5 -34.0780 -16.7697 -26.5225 0.0000 53.0636 0.0000
# 6 0.0000 0.0000 0.0000 6.1330 0.0000 50.1286
#
#
#
# Elastic Compliance Matrix: (Units=1/GPa)
#
#
# Indices 1 2 3 4 5 6 
#
# 1 0.008990 -0.003138 0.000101 0.000000 0.004833 0.000000
# 2 -0.003138 0.007702 -0.002854 0.000000 -0.001007 0.000000
# 3 0.000101 -0.002854 0.006890 0.000000 0.002607 0.000000
# 4 0.000000 0.000000 0.000000 0.021779 0.000000 -0.002665
# 5 0.004833 -0.001007 0.002607 0.000000 0.022934 0.000000
# 6 0.000000 0.000000 0.000000 -0.002665 0.000000 0.020275
#
#
# Mechanical properties :
#
#
# Convention : Reuss Voigt Hill
#
# Bulk Modulus (GPa) = 84.72773 103.29833 94.01303
# Shear Modulus (GPa) = 47.94583 52.24454 50.09519
#
# Velocity S-wave (km/s) = 4.11841 4.29907 4.20971
# Velocity P-wave (km/s) = 7.25179 7.82212 7.54235
#
# Compressibility (1/GPa) = 0.01180251
#
# Stress axis : x y z
#
# Youngs Moduli (GPa) = 111.23278 129.83076 145.13377
#
# Poissons Ratio (x) = 0.40739 -0.01470
# Poissons Ratio (y) = 0.34903 0.41414
# Poissons Ratio (z) = -0.01126 0.37048
#
# Static dielectric constant tensor:
#      x y z
#    x 5.973980 0.000000 0.511530 
#    y 0.000000 5.129880 0.000000 
#    z 0.511530 0.000000 5.685190 
# 
# 
# High freq. dielectric constant tensor:
#      x y z
#    x 2.223500 0.000000 0.059820 
#    y 0.000000 2.141180 0.000000 
#    z 0.059820 0.000000 2.189740 
# 
# From -- ./inp_files/162482.got.cif
#   From: 2010.06.25/outbox.cif.g09.slc.cpg/sg15_82_cif.got.tgz:162482.got - 2010.06.28 07:06:18.
