data_PCOD8146019
_publ_section_title
;
Structure prediction by ZEFSAII (Michael W. Deem and Ramdas Pophale) SiO2 
 PCOD8146019
Probable space group: C 2/C
;
_chemical_formula_sum "Si O2"
_cell_formula_units_Z 40
_cell_length_a 18.402003
_cell_length_b 8.641738
_cell_length_c 11.784719
_cell_angle_alpha 90.000000
_cell_angle_beta 76.908304
_cell_angle_gamma 90.000000
_cell_volume 1825.359066
_symmetry_space_group_name_H-M "C 2/C"
_symmetry_group_IT_number 15
_symmetry_cell_setting 'monoclinic'
loop_
_space_group_symop_operation_xyz
x,y,z
-x,y,1/2-z
-x,-y,-z
x,-y,1/2+z
1/2+x,1/2+y,z
1/2-x,1/2+y,1/2-z
1/2-x,1/2-y,-z
1/2+x,1/2-y,1/2+z
loop_
_atom_site_type_symbol
_atom_site_label
_atom_site_fract_x
_atom_site_fract_y
_atom_site_fract_z
Si Si1 0.612569 0.556700 0.472668
Si Si2 0.817951 0.273004 0.892154
Si Si3 0.642148 0.116960 0.576544
Si Si4 0.491341 0.324699 0.876115
Si Si5 0.714769 0.703425 0.855044
O O1 0.626234 0.637723 0.588752
O O2 0.556132 0.419185 0.516620
O O3 0.574853 0.683261 0.400431
O O4 0.685296 0.472378 0.391822
O O5 0.857320 0.435597 0.900692
O O6 0.794234 0.247631 0.772029
O O7 0.750000 0.250000 0.000000
O O8 0.555096 0.164843 0.624317
O O9 0.671722 0.163440 0.440873
O O10 0.697206 0.205051 0.645741
O O11 0.500000 0.404029 0.750000
#
# Coordination Sequence:
#
# PCOD8146019 Si02
#       5
#     8   8   8   8   8
#     4  10  22  42  63  95 124 175 217 258 329 396
#     4  12  25  37  68  98 126 167 214 273 326 380
#     4  10  24  41  63  98 127 172 214 273 325 373
#     4  10  22  40  65  87 131 174 212 259 324 397
#     4  10  23  43  64  94 137 162 223 272 314 392
#
# _framework density 21.913497
#
# number of rings (size 3 to 8) (size 9 to 14) (size 15 to 20)
#    0.000    1.600    2.000    1.200    5.600    0.800 
#    0.000    5.000    0.000    0.000    0.000    0.000 
#    0.000    0.000    0.000    0.000    0.000    0.000 
#
# Total GULP energy -247829.815425 kJ/mol
# GULP energy per Si atom -12391.490771 kJ/mol
# Density = 2.186362 g / cm^3
# Si number density = 21.913497 Si / 1000 Ang^3
#
#
#
# Elastic Constant Matrix: (Units=GPa)
#
#
# Indices 1 2 3 4 5 6 
#
# 1 68.5732 23.4391 36.6554 0.0000 12.5974 0.0000
# 2 23.4391 106.1746 39.4587 0.0000 9.1955 0.0000
# 3 36.6554 39.4587 161.8083 0.0000 31.9171 0.0000
# 4 0.0000 0.0000 0.0000 24.3996 0.0000 10.6751
# 5 12.5974 9.1955 31.9171 0.0000 31.9286 0.0000
# 6 0.0000 0.0000 0.0000 10.6751 0.0000 28.8576
#
#
#
# Elastic Compliance Matrix: (Units=1/GPa)
#
#
# Indices 1 2 3 4 5 6 
#
# 1 0.017527 -0.002581 -0.002645 0.000000 -0.003528 0.000000
# 2 -0.002581 0.010745 -0.002026 0.000000 -0.000052 0.000000
# 3 -0.002645 -0.002026 0.008660 0.000000 -0.007030 0.000000
# 4 0.000000 0.000000 0.000000 0.048898 0.000000 -0.018089
# 5 -0.003528 -0.000052 -0.007030 0.000000 0.039754 0.000000
# 6 0.000000 0.000000 0.000000 -0.018089 0.000000 0.041344
#
#
# Mechanical properties :
#
#
# Convention : Reuss Voigt Hill
#
# Bulk Modulus (GPa) = 44.58432 59.51805 52.05119
# Shear Modulus (GPa) = 26.46781 32.83736 29.65259
#
# Velocity S-wave (km/s) = 3.47916 3.87525 3.68253
# Velocity P-wave (km/s) = 6.04393 6.87334 6.47194
#
# Compressibility (1/GPa) = 0.02242941
#
# Stress axis : x y z
#
# Youngs Moduli (GPa) = 57.05428 93.06295 115.47293
#
# Poissons Ratio (x) = 0.24016 0.30547
# Poissons Ratio (y) = 0.14724 0.23390
# Poissons Ratio (z) = 0.15093 0.18851
#
# Static dielectric constant tensor:
#      x y z
#    x 4.664130 0.000000 0.605880 
#    y 0.000000 3.930490 0.000000 
#    z 0.605880 0.000000 4.489330 
# 
# 
# High freq. dielectric constant tensor:
#      x y z
#    x 1.868670 0.000000 0.012040 
#    y 0.000000 1.846370 0.000000 
#    z 0.012040 0.000000 1.862590 
# 
# From -- ./inp_files/102685.got.cif
#   From: 2010.06.25/outbox.cif.g09.slc.cpg/sg15_52_cif.got.tgz:102685.got - 2010.06.28 07:06:18.
