data_PCOD8146120
_publ_section_title
;
Structure prediction by ZEFSAII (Michael W. Deem and Ramdas Pophale) SiO2 
 PCOD8146120
Probable space group: C 2/C
;
_chemical_formula_sum "Si O2"
_cell_formula_units_Z 60
_cell_length_a 9.426923
_cell_length_b 21.437282
_cell_length_c 28.016725
_cell_angle_alpha 90.000000
_cell_angle_beta 150.665547
_cell_angle_gamma 90.000000
_cell_volume 2773.770182
_symmetry_space_group_name_H-M "C 2/C"
_symmetry_group_IT_number 15
_symmetry_cell_setting 'monoclinic'
loop_
_space_group_symop_operation_xyz
x,y,z
-x,y,1/2-z
-x,-y,-z
x,-y,1/2+z
1/2+x,1/2+y,z
1/2-x,1/2+y,1/2-z
1/2-x,1/2-y,-z
1/2+x,1/2-y,1/2+z
loop_
_atom_site_type_symbol
_atom_site_label
_atom_site_fract_x
_atom_site_fract_y
_atom_site_fract_z
Si Si1 0.046196 0.832635 0.709664
Si Si2 0.638015 0.419124 0.476985
Si Si3 0.029543 0.923237 0.176353
Si Si4 0.777883 0.964318 0.644478
Si Si5 0.500000 0.674244 0.750000
Si Si6 0.517529 0.724568 0.105825
Si Si7 0.907969 0.503335 0.669541
Si Si8 0.817634 0.362637 0.618255
O O1 0.900328 0.794173 0.624046
O O2 0.385001 0.825447 0.798008
O O3 0.000000 0.806797 0.750000
O O4 0.915910 0.901140 0.664835
O O5 0.517643 0.395258 0.390657
O O6 0.410572 0.468808 0.430639
O O7 0.650507 0.360139 0.517804
O O8 0.952127 0.452652 0.566300
O O9 0.963291 0.867449 0.192440
O O10 0.350826 0.950207 0.281920
O O11 0.791826 0.979462 0.110188
O O12 0.000000 0.988920 0.750000
O O13 0.774735 0.717641 0.826293
O O14 0.648024 0.665778 0.113862
O O15 0.250000 0.750000 0.000000
O O16 0.898272 0.435445 0.643999
O O17 0.000000 0.492102 0.750000
#
# Coordination Sequence:
#
# PCOD8146120 Si02
#       8
#     8   8   8   8   4   8   8   8
#     4  11  22  46  77 101 133 181 247 294 345 406
#     4  11  24  38  64 111 136 179 232 288 358 425
#     4  11  24  42  67  99 152 182 221 287 370 429
#     4  11  20  40  69 103 142 177 229 295 358 410
#     4  12  28  48  66  98 144 192 226 286 360 426
#     4  12  30  50  72 103 138 195 246 291 347 414
#     4  10  22  40  67 103 142 185 221 286 362 418
#     4  12  22  45  74 100 143 182 246 292 339 421
#
# _framework density 21.631207
#
# number of rings (size 3 to 8) (size 9 to 14) (size 15 to 20)
#    0.000    0.800    6.000    1.600    5.600    1.067 
#    2.400    1.333    0.000    0.000    0.000    0.000 
#    0.000    0.000    0.000    0.000    0.000    0.000 
#
# Total GULP energy -371799.769413 kJ/mol
# GULP energy per Si atom -12393.325647 kJ/mol
# Density = 2.158197 g / cm^3
# Si number density = 21.631207 Si / 1000 Ang^3
#
#
#
# Elastic Constant Matrix: (Units=GPa)
#
#
# Indices 1 2 3 4 5 6 
#
# 1 123.4955 47.9892 32.5328 0.0056 -15.6051 -0.0017
# 2 47.9892 76.4228 28.4140 0.0090 -17.6387 0.0007
# 3 32.5328 28.4140 93.5641 0.0275 1.3435 -0.0030
# 4 0.0056 0.0090 0.0275 27.6884 0.0064 -3.1681
# 5 -15.6051 -17.6387 1.3435 0.0064 47.0588 -0.0024
# 6 -0.0017 0.0007 -0.0030 -3.1681 -0.0024 31.6535
#
#
#
# Elastic Compliance Matrix: (Units=1/GPa)
#
#
# Indices 1 2 3 4 5 6 
#
# 1 0.011120 -0.005835 -0.002117 0.000001 0.001561 0.000001
# 2 -0.005835 0.019491 -0.003969 -0.000003 0.005484 -0.000001
# 3 -0.002117 -0.003969 0.012666 -0.000010 -0.002551 0.000000
# 4 0.000001 -0.000003 -0.000010 0.036535 -0.000005 0.003657
# 5 0.001561 0.005484 -0.002551 -0.000005 0.023896 0.000001
# 6 0.000001 -0.000001 0.000000 0.003657 0.000001 0.031958
#
#
# Mechanical properties :
#
#
# Convention : Reuss Voigt Hill
#
# Bulk Modulus (GPa) = 51.45498 56.81717 54.13608
# Shear Modulus (GPa) = 30.12325 33.58324 31.85324
#
# Velocity S-wave (km/s) = 3.73578 3.94450 3.84156
# Velocity P-wave (km/s) = 6.51514 6.86067 6.69014
#
# Compressibility (1/GPa) = 0.01943446
#
# Stress axis : x y z
#
# Youngs Moduli (GPa) = 89.92901 51.30653 78.95320
#
# Poissons Ratio (x) = 0.29940 0.16712
# Poissons Ratio (y) = 0.52478 0.31334
# Poissons Ratio (z) = 0.19035 0.20362
#
# Static dielectric constant tensor:
#      x y z
#    x 4.401370 -0.000040 -0.080550 
#    y -0.000040 3.683690 -0.000050 
#    z -0.080550 -0.000050 4.231650 
# 
# 
# High freq. dielectric constant tensor:
#      x y z
#    x 1.866640 0.000000 -0.008940 
#    y 0.000000 1.820900 0.000000 
#    z -0.008940 0.000000 1.861880 
# 
# From -- ./inp_files/290272.got.cif
#   From: 2010.06.25/outbox.cif.g09.slc.cpg/sg15_146_cif.got.tgz:290272.got - 2010.06.28 07:06:18.
