data_PCOD8146942
_publ_section_title
;
Structure prediction by ZEFSAII (Michael W. Deem and Ramdas Pophale) SiO2 
 PCOD8146942
Probable space group: C 2/C
;
_chemical_formula_sum "Si O2"
_cell_formula_units_Z 64
_cell_length_a 25.416875
_cell_length_b 9.677471
_cell_length_c 11.478151
_cell_angle_alpha 90.000000
_cell_angle_beta 92.920273
_cell_angle_gamma 90.000000
_cell_volume 2819.626744
_symmetry_space_group_name_H-M "C 2/C"
_symmetry_group_IT_number 15
_symmetry_cell_setting 'monoclinic'
loop_
_space_group_symop_operation_xyz
x,y,z
-x,y,1/2-z
-x,-y,-z
x,-y,1/2+z
1/2+x,1/2+y,z
1/2-x,1/2+y,1/2-z
1/2-x,1/2-y,-z
1/2+x,1/2-y,1/2+z
loop_
_atom_site_type_symbol
_atom_site_label
_atom_site_fract_x
_atom_site_fract_y
_atom_site_fract_z
Si Si1 0.011994 0.412846 0.120556
Si Si2 0.090653 0.271348 0.422217
Si Si3 0.871387 0.918972 0.383665
Si Si4 0.786806 0.277054 0.235323
Si Si5 0.716820 0.455022 0.959358
Si Si6 0.109900 0.779976 0.667956
Si Si7 0.675123 0.712150 0.832942
Si Si8 0.675139 0.004395 0.925024
O O1 0.070057 0.341364 0.121404
O O2 0.000000 0.483826 0.250000
O O3 0.970597 0.290815 0.109372
O O4 0.000000 0.500000 0.000000
O O5 0.091637 0.165550 0.527142
O O6 0.113137 0.205548 0.307965
O O7 0.123342 0.410643 0.459074
O O8 0.870119 0.839184 0.260669
O O9 0.810028 0.916364 0.419746
O O10 0.900374 0.068051 0.383692
O O11 0.828372 0.257196 0.347803
O O12 0.729764 0.251802 0.278684
O O13 0.797707 0.430643 0.187310
O O14 0.793544 0.170385 0.128866
O O15 0.683403 0.588928 0.922865
O O16 0.778956 0.489933 0.972087
O O17 0.655076 0.849046 0.897311
#
# Coordination Sequence:
#
# PCOD8146942 Si02
#       8
#     8   8   8   8   8   8   8   8
#     4  10  24  47  74 101 137 177 229 295 357 409
#     4  10  23  42  66  92 130 172 217 284 352 404
#     4  12  21  40  64  89 130 175 217 274 334 414
#     4  11  20  40  60  86 131 179 222 268 342 411
#     4  12  22  40  57  89 133 172 222 271 332 407
#     4  10  22  42  67  91 126 177 222 276 349 411
#     4  12  24  35  59  95 130 176 227 269 327 414
#     4  11  22  37  59  90 131 176 221 275 341 407
#
# _framework density 22.698039999999999
#
# number of rings (size 3 to 8) (size 9 to 14) (size 15 to 20)
#    0.000    1.000    5.000    3.000    0.000    5.500 
#    0.000    1.250    0.000    0.000    0.000    0.000 
#    0.000    0.000    0.000    0.000    0.000    0.000 
#
# Total GULP energy -396450.506549 kJ/mol
# GULP energy per Si atom -12389.078330 kJ/mol
# Density = 2.264638 g / cm^3
# Si number density = 22.698040 Si / 1000 Ang^3
#
#
#
# Elastic Constant Matrix: (Units=GPa)
#
#
# Indices 1 2 3 4 5 6 
#
# 1 57.8378 7.9553 23.3133 0.0000 18.7739 0.0000
# 2 7.9553 82.0591 34.4741 0.0000 8.6725 0.0000
# 3 23.3133 34.4741 94.7159 0.0000 25.0717 0.0000
# 4 0.0000 0.0000 0.0000 34.0988 0.0000 12.0050
# 5 18.7739 8.6725 25.0717 0.0000 31.0932 0.0000
# 6 0.0000 0.0000 0.0000 12.0050 0.0000 18.2740
#
#
#
# Elastic Compliance Matrix: (Units=1/GPa)
#
#
# Indices 1 2 3 4 5 6 
#
# 1 0.021928 0.000094 -0.002441 0.000000 -0.011298 0.000000
# 2 0.000094 0.014388 -0.005318 0.000000 0.000218 0.000000
# 3 -0.002441 -0.005318 0.015652 0.000000 -0.009664 0.000000
# 4 0.000000 0.000000 0.000000 0.038150 0.000000 -0.025063
# 5 -0.011298 0.000218 -0.009664 0.000000 0.046715 0.000000
# 6 0.000000 0.000000 0.000000 -0.025063 0.000000 0.071188
#
#
# Mechanical properties :
#
#
# Convention : Reuss Voigt Hill
#
# Bulk Modulus (GPa) = 27.29356 40.67760 33.98558
# Shear Modulus (GPa) = 21.22568 27.95121 24.58844
#
# Velocity S-wave (km/s) = 3.06131 3.51299 3.29490
# Velocity P-wave (km/s) = 4.95442 5.86642 5.42960
#
# Compressibility (1/GPa) = 0.03663868
#
# Stress axis : x y z
#
# Youngs Moduli (GPa) = 45.60385 69.50110 63.88827
#
# Poissons Ratio (x) = -0.00651 0.15594
# Poissons Ratio (y) = -0.00427 0.33974
# Poissons Ratio (z) = 0.11131 0.36959
#
# Static dielectric constant tensor:
#      x y z
#    x 4.118990 0.000000 0.063300 
#    y 0.000000 4.183530 0.000000 
#    z 0.063300 0.000000 4.283540 
# 
# 
# High freq. dielectric constant tensor:
#      x y z
#    x 1.878580 0.000000 0.015470 
#    y 0.000000 1.891380 0.000000 
#    z 0.015470 0.000000 1.900110 
# 
# From -- ./inp_files/125934.got.cif
#   From: 2010.06.25/outbox.cif.g09.slc.cpg/sg15_63_cif.got.tgz:125934.got - 2010.06.28 07:06:18.
