data_PCOD8146348
_publ_section_title
;
Structure prediction by ZEFSAII (Michael W. Deem and Ramdas Pophale) SiO2 
 PCOD8146348
Probable space group: C 2/C
;
_chemical_formula_sum "Si O2"
_cell_formula_units_Z 44
_cell_length_a 16.031008
_cell_length_b 6.309630
_cell_length_c 22.191022
_cell_angle_alpha 90.000000
_cell_angle_beta 74.737790
_cell_angle_gamma 90.000000
_cell_volume 2165.451063
_symmetry_space_group_name_H-M "C 2/C"
_symmetry_group_IT_number 15
_symmetry_cell_setting 'monoclinic'
loop_
_space_group_symop_operation_xyz
x,y,z
-x,y,1/2-z
-x,-y,-z
x,-y,1/2+z
1/2+x,1/2+y,z
1/2-x,1/2+y,1/2-z
1/2-x,1/2-y,-z
1/2+x,1/2-y,1/2+z
loop_
_atom_site_type_symbol
_atom_site_label
_atom_site_fract_x
_atom_site_fract_y
_atom_site_fract_z
Si Si1 0.749024 0.324214 0.085187
Si Si2 0.000000 0.260741 0.250000
Si Si3 0.115316 0.121246 0.705103
Si Si4 0.810108 0.936788 0.010332
Si Si5 0.581147 0.104575 0.452596
Si Si6 0.961990 0.641069 0.177052
O O1 0.711526 0.367653 0.159063
O O2 0.838772 0.445386 0.059143
O O3 0.765635 0.073491 0.072503
O O4 0.678040 0.406002 0.049218
O O5 0.026483 0.399830 0.302901
O O6 0.083854 0.120231 0.217928
O O7 0.113185 0.241683 0.769822
O O8 0.051921 0.239212 0.670666
O O9 0.898079 0.828690 0.018108
O O10 0.750000 0.750000 0.000000
O O11 0.561044 0.153864 0.387686
O O12 0.500000 0.000000 0.500000
#
# Coordination Sequence:
#
# PCOD8146348 Si02
#       6
#     8   4   8   8   8   8
#     4  10  22  41  63  90 117 169 204 248 316 367
#     4   8  18  38  64  88 116 164 198 250 310 366
#     4   9  20  39  65  86 117 163 209 245 301 382
#     4   9  22  40  60  89 121 158 204 246 303 369
#     4  11  25  39  59  95 128 161 202 265 308 364
#     4   9  21  38  58  92 122 154 202 255 304 363
#
# _framework density 20.319091
#
# number of rings (size 3 to 8) (size 9 to 14) (size 15 to 20)
#    0.000    2.909    0.000    0.000   10.182    8.000 
#    6.545    0.000    0.000    0.000    0.000    0.000 
#    0.000    0.000    0.000    0.000    0.000    0.000 
#
# Total GULP energy -272680.895476 kJ/mol
# GULP energy per Si atom -12394.586158 kJ/mol
# Density = 2.027284 g / cm^3
# Si number density = 20.319091 Si / 1000 Ang^3
#
#
#
# Elastic Constant Matrix: (Units=GPa)
#
#
# Indices 1 2 3 4 5 6 
#
# 1 85.1668 47.8029 68.0896 0.0000 -4.8977 0.0001
# 2 47.8029 135.2464 42.6709 -0.0003 -1.3601 0.0001
# 3 68.0896 42.6709 138.3783 -0.0001 -2.2564 0.0000
# 4 0.0000 -0.0003 -0.0001 22.0159 -0.0001 2.2910
# 5 -4.8977 -1.3601 -2.2564 -0.0001 49.5705 0.0000
# 6 0.0001 0.0001 0.0000 2.2910 0.0000 29.4011
#
#
#
# Elastic Compliance Matrix: (Units=1/GPa)
#
#
# Indices 1 2 3 4 5 6 
#
# 1 0.021973 -0.004816 -0.009301 0.000000 0.001616 0.000000
# 2 -0.004816 0.009247 -0.000486 0.000000 -0.000244 0.000000
# 3 -0.009301 -0.000486 0.011946 0.000000 -0.000388 0.000000
# 4 0.000000 0.000000 0.000000 0.045793 0.000000 -0.003568
# 5 0.001616 -0.000244 -0.000388 0.000000 0.020309 0.000000
# 6 0.000000 0.000000 0.000000 -0.003568 0.000000 0.034290
#
#
# Mechanical properties :
#
#
# Convention : Reuss Voigt Hill
#
# Bulk Modulus (GPa) = 71.62217 75.10204 73.36211
# Shear Modulus (GPa) = 28.18214 33.54604 30.86409
#
# Velocity S-wave (km/s) = 3.72826 4.06761 3.90162
# Velocity P-wave (km/s) = 7.33883 7.68779 7.51534
#
# Compressibility (1/GPa) = 0.01396216
#
# Stress axis : x y z
#
# Youngs Moduli (GPa) = 45.50946 108.14474 83.70663
#
# Poissons Ratio (x) = 0.52081 0.77853
# Poissons Ratio (y) = 0.21917 0.04066
# Poissons Ratio (z) = 0.42327 0.05253
#
# Static dielectric constant tensor:
#      x y z
#    x 3.562730 0.000000 0.110150 
#    y 0.000000 4.026590 0.000000 
#    z 0.110150 0.000000 3.711520 
# 
# 
# High freq. dielectric constant tensor:
#      x y z
#    x 1.768040 0.000000 0.002070 
#    y 0.000000 1.809830 0.000000 
#    z 0.002070 0.000000 1.792440 
# 
# From -- ./inp_files/271888.got.cif
#   From: 2010.06.25/outbox.cif.g09.slc.cpg/sg15_136_cif.got.tgz:271888.got - 2010.06.28 07:06:18.
