data_PCOD8146184
_publ_section_title
;
Structure prediction by ZEFSAII (Michael W. Deem and Ramdas Pophale) SiO2 
 PCOD8146184
Probable space group: C 2/C
;
_chemical_formula_sum "Si O2"
_cell_formula_units_Z 48
_cell_length_a 8.538245
_cell_length_b 27.976124
_cell_length_c 14.009525
_cell_angle_alpha 90.000000
_cell_angle_beta 137.147590
_cell_angle_gamma 90.000000
_cell_volume 2275.936399
_symmetry_space_group_name_H-M "C 2/C"
_symmetry_group_IT_number 15
_symmetry_cell_setting 'monoclinic'
loop_
_space_group_symop_operation_xyz
x,y,z
-x,y,1/2-z
-x,-y,-z
x,-y,1/2+z
1/2+x,1/2+y,z
1/2-x,1/2+y,1/2-z
1/2-x,1/2-y,-z
1/2+x,1/2-y,1/2+z
loop_
_atom_site_type_symbol
_atom_site_label
_atom_site_fract_x
_atom_site_fract_y
_atom_site_fract_z
Si Si1 0.490845 0.756389 0.358414
Si Si2 0.301864 0.832543 0.737875
Si Si3 0.571993 0.592388 0.388123
Si Si4 0.887828 0.486327 0.096365
Si Si5 0.241522 0.559017 0.608519
Si Si6 0.500821 0.846805 0.026169
O O1 0.500000 0.754458 0.250000
O O2 0.348543 0.714584 0.346819
O O3 0.395731 0.806801 0.356734
O O4 0.750000 0.750000 0.500000
O O5 0.500000 0.838362 0.750000
O O6 0.146627 0.880753 0.663470
O O7 0.416409 0.823218 0.891094
O O8 0.500000 0.573970 0.250000
O O9 0.657678 0.547436 0.490829
O O10 0.781212 0.629387 0.478240
O O11 0.000000 0.492415 0.250000
O O12 0.080537 0.463905 0.115881
O O13 0.819459 0.538131 0.023589
O O14 0.500000 0.546305 0.750000
O O15 0.202103 0.615743 0.591314
#
# Coordination Sequence:
#
# PCOD8146184 Si02
#       6
#     8   8   8   8   8   8
#     4  12  22  44  71  94 128 179 224 261 325 407
#     4  11  23  39  63  98 137 173 217 274 331 380
#     4   9  18  39  65  91 128 180 221 264 322 398
#     4  10  22  40  68  96 127 175 222 265 331 399
#     4  10  23  43  63  95 134 167 219 279 323 381
#     4  10  22  41  64  91 130 176 219 264 329 397
#
# _framework density 21.090219000000001
#
# number of rings (size 3 to 8) (size 9 to 14) (size 15 to 20)
#    0.000    1.667    3.333    1.000    0.000    8.000 
#    3.000    0.000    0.000    0.000    0.000    0.000 
#    0.000    0.000    0.000    0.000    0.000    0.000 
#
# Total GULP energy -297552.179584 kJ/mol
# GULP energy per Si atom -12398.007483 kJ/mol
# Density = 2.104222 g / cm^3
# Si number density = 21.090219 Si / 1000 Ang^3
#
#
#
# Elastic Constant Matrix: (Units=GPa)
#
#
# Indices 1 2 3 4 5 6 
#
# 1 103.9293 59.2978 49.2173 0.0000 2.7755 0.0000
# 2 59.2978 122.5499 53.7293 0.0000 -1.1187 0.0000
# 3 49.2173 53.7293 128.8032 0.0000 -5.7481 0.0000
# 4 0.0000 0.0000 0.0000 14.5852 0.0000 -18.8031
# 5 2.7755 -1.1187 -5.7481 0.0000 30.0581 0.0000
# 6 0.0000 0.0000 0.0000 -18.8031 0.0000 30.6255
#
#
#
# Elastic Compliance Matrix: (Units=1/GPa)
#
#
# Indices 1 2 3 4 5 6 
#
# 1 0.014401 -0.005547 -0.003285 0.000000 -0.002164 0.000000
# 2 -0.005547 0.012129 -0.002922 0.000000 0.000405 0.000000
# 3 -0.003285 -0.002922 0.010335 0.000000 0.002171 0.000000
# 4 0.000000 0.000000 0.000000 0.328874 0.000000 0.201918
# 5 -0.002164 0.000405 0.002171 0.000000 0.033899 0.000000
# 6 0.000000 0.000000 0.000000 0.201918 0.000000 0.156624
#
#
# Mechanical properties :
#
#
# Convention : Reuss Voigt Hill
#
# Bulk Modulus (GPa) = 74.87468 75.53014 75.20241
# Shear Modulus (GPa) = 8.55840 27.92296 18.24068
#
# Velocity S-wave (km/s) = 2.01663 3.64260 2.94409
# Velocity P-wave (km/s) = 6.40325 7.31997 6.87690
#
# Compressibility (1/GPa) = 0.01335565
#
# Stress axis : x y z
#
# Youngs Moduli (GPa) = 69.44160 82.44865 96.76137
#
# Poissons Ratio (x) = 0.45738 0.31788
# Poissons Ratio (y) = 0.38522 0.28270
# Poissons Ratio (z) = 0.22813 0.24088
#
# Static dielectric constant tensor:
#      x y z
#    x 2.810380 0.000000 0.663390 
#    y 0.000000 2.320310 0.000000 
#    z 0.663390 0.000000 3.628130 
# 
# 
# High freq. dielectric constant tensor:
#      x y z
#    x 1.811800 0.000000 0.006680 
#    y 0.000000 1.833430 0.000000 
#    z 0.006680 0.000000 1.830480 
# 
# From -- ./inp_files/138997.got.cif
#   From: 2010.06.25/outbox.cif.g09.slc.cpg/sg15_70_cif.got.tgz:138997.got - 2010.06.28 07:06:18.
