data_PCOD8146905
_publ_section_title
;
Structure prediction by ZEFSAII (Michael W. Deem and Ramdas Pophale) SiO2 
 PCOD8146905
Probable space group: C 2/C
;
_chemical_formula_sum "Si O2"
_cell_formula_units_Z 60
_cell_length_a 17.230658
_cell_length_b 9.189504
_cell_length_c 18.514465
_cell_angle_alpha 90.000000
_cell_angle_beta 90.804859
_cell_angle_gamma 90.000000
_cell_volume 2931.313374
_symmetry_space_group_name_H-M "C 2/C"
_symmetry_group_IT_number 15
_symmetry_cell_setting 'monoclinic'
loop_
_space_group_symop_operation_xyz
x,y,z
-x,y,1/2-z
-x,-y,-z
x,-y,1/2+z
1/2+x,1/2+y,z
1/2-x,1/2+y,1/2-z
1/2-x,1/2-y,-z
1/2+x,1/2-y,1/2+z
loop_
_atom_site_type_symbol
_atom_site_label
_atom_site_fract_x
_atom_site_fract_y
_atom_site_fract_z
Si Si1 0.281056 0.405440 0.024029
Si Si2 0.551984 0.477825 0.430810
Si Si3 0.226707 0.429415 0.654813
Si Si4 0.272466 0.403337 0.384961
Si Si5 0.870351 0.454801 0.217734
Si Si6 0.000000 0.353058 0.750000
Si Si7 0.430175 0.409066 0.315562
Si Si8 0.107621 0.127625 0.300441
O O1 0.371774 0.387855 0.045572
O O2 0.230443 0.450695 0.092206
O O3 0.250000 0.250000 0.000000
O O4 0.269969 0.533040 0.965174
O O5 0.500000 0.500000 0.500000
O O6 0.498891 0.392417 0.374191
O O7 0.579176 0.621428 0.385000
O O8 0.219257 0.271094 0.617174
O O9 0.157621 0.478709 0.706251
O O10 0.304611 0.431346 0.703324
O O11 0.196093 0.462921 0.343670
O O12 0.350177 0.462790 0.349104
O O13 0.947984 0.544662 0.196021
O O14 0.897743 0.289797 0.229801
O O15 0.067721 0.254251 0.715158
O O16 0.444781 0.523228 0.250422
#
# Coordination Sequence:
#
# PCOD8146905 Si02
#       8
#     8   8   8   8   8   4   8   8
#     4  11  26  41  65  94 130 175 230 277 327 406
#     4  11  23  41  64  95 130 174 224 270 339 399
#     4  10  22  42  66  95 129 174 219 275 334 403
#     4  11  23  43  66  92 133 177 214 272 340 399
#     4  11  25  41  68 102 133 167 228 282 338 397
#     4  12  26  40  66 102 136 164 222 290 338 394
#     4  12  22  40  67  93 128 175 214 274 336 397
#     4  10  23  41  68  96 129 175 222 276 331 407
#
# _framework density 20.468641000000002
#
# number of rings (size 3 to 8) (size 9 to 14) (size 15 to 20)
#    0.000    1.067    5.333    0.400    5.600    0.000 
#    0.000    0.000    0.000    2.400    0.000    0.000 
#    0.000    0.000    0.000    0.000    0.000    0.000 
#
# Total GULP energy -371673.258459 kJ/mol
# GULP energy per Si atom -12389.108615 kJ/mol
# Density = 2.042205 g / cm^3
# Si number density = 20.468641 Si / 1000 Ang^3
#
#
#
# Elastic Constant Matrix: (Units=GPa)
#
#
# Indices 1 2 3 4 5 6 
#
# 1 105.2968 46.4020 34.8699 0.0000 15.5550 0.0000
# 2 46.4020 132.5907 52.5367 0.0000 14.4194 0.0000
# 3 34.8699 52.5367 95.0259 0.0000 6.8179 0.0000
# 4 0.0000 0.0000 0.0000 29.5276 0.0000 2.1272
# 5 15.5550 14.4194 6.8179 0.0000 41.1112 0.0000
# 6 0.0000 0.0000 0.0000 2.1272 0.0000 34.1020
#
#
#
# Elastic Compliance Matrix: (Units=1/GPa)
#
#
# Indices 1 2 3 4 5 6 
#
# 1 0.012087 -0.002843 -0.002638 0.000000 -0.003139 0.000000
# 2 -0.002843 0.010594 -0.004680 0.000000 -0.001864 0.000000
# 3 -0.002638 -0.004680 0.014057 0.000000 0.000308 0.000000
# 4 0.000000 0.000000 0.000000 0.034019 0.000000 -0.002122
# 5 -0.003139 -0.001864 0.000308 0.000000 0.026114 0.000000
# 6 0.000000 0.000000 0.000000 -0.002122 0.000000 0.029456
#
#
# Mechanical properties :
#
#
# Convention : Reuss Voigt Hill
#
# Bulk Modulus (GPa) = 60.92017 66.72561 63.82289
# Shear Modulus (GPa) = 32.86804 34.22182 33.54493
#
# Velocity S-wave (km/s) = 4.01156 4.09334 4.05266
# Velocity P-wave (km/s) = 7.16129 7.41689 7.29021
#
# Compressibility (1/GPa) = 0.01641492
#
# Stress axis : x y z
#
# Youngs Moduli (GPa) = 82.73124 94.39135 71.13965
#
# Poissons Ratio (x) = 0.26840 0.18768
# Poissons Ratio (y) = 0.23524 0.33294
# Poissons Ratio (z) = 0.21826 0.44176
#
# Static dielectric constant tensor:
#      x y z
#    x 4.094730 0.000000 -0.147370 
#    y 0.000000 3.558090 0.000000 
#    z -0.147370 0.000000 4.482980 
# 
# 
# High freq. dielectric constant tensor:
#      x y z
#    x 1.824880 0.000000 0.003820 
#    y 0.000000 1.789180 0.000000 
#    z 0.003820 0.000000 1.792830 
# 
# From -- ./inp_files/209591.got.cif
#   From: 2010.06.25/outbox.cif.g09.slc.cpg/sg15_105_cif.got.tgz:209591.got - 2010.06.28 07:06:18.
