data_PCOD8146606
_publ_section_title
;
Structure prediction by ZEFSAII (Michael W. Deem and Ramdas Pophale) SiO2 
 PCOD8146606
Probable space group: C 2/C
;
_chemical_formula_sum "Si O2"
_cell_formula_units_Z 52
_cell_length_a 23.975301
_cell_length_b 5.337327
_cell_length_c 20.678083
_cell_angle_alpha 90.000000
_cell_angle_beta 116.064144
_cell_angle_gamma 90.000000
_cell_volume 2376.954490
_symmetry_space_group_name_H-M "C 2/C"
_symmetry_group_IT_number 15
_symmetry_cell_setting 'monoclinic'
loop_
_space_group_symop_operation_xyz
x,y,z
-x,y,1/2-z
-x,-y,-z
x,-y,1/2+z
1/2+x,1/2+y,z
1/2-x,1/2+y,1/2-z
1/2-x,1/2-y,-z
1/2+x,1/2-y,1/2+z
loop_
_atom_site_type_symbol
_atom_site_label
_atom_site_fract_x
_atom_site_fract_y
_atom_site_fract_z
Si Si1 0.816032 0.622610 0.041932
Si Si2 0.711618 0.865281 0.228474
Si Si3 0.424689 0.482230 0.125634
Si Si4 0.934691 0.920760 0.492637
Si Si5 0.373368 0.870365 0.190778
Si Si6 0.500000 0.827070 0.750000
Si Si7 0.865107 0.440720 0.436071
O O1 0.870776 0.818317 0.068788
O O2 0.823022 0.468776 0.112222
O O3 0.750000 0.750000 0.000000
O O4 0.827810 0.466550 0.981841
O O5 0.742415 0.594385 0.231652
O O6 0.660599 0.835687 0.258802
O O7 0.681506 0.948538 0.146698
O O8 0.397956 0.608934 0.176329
O O9 0.486409 0.333558 0.178637
O O10 0.442649 0.652510 0.073334
O O11 0.914687 0.662320 0.447704
O O12 0.890849 0.158770 0.455323
O O13 0.000000 0.000000 0.500000
O O14 0.436419 0.027007 0.232592
#
# Coordination Sequence:
#
# PCOD8146606 Si02
#       7
#     8   8   8   8   8   4   8
#     4  10  22  41  69  96 133 179 233 293 344 415
#     4  12  29  48  71 103 149 190 241 293 364 432
#     4  10  23  42  65 102 132 180 238 286 356 422
#     4  11  24  43  71  98 141 179 232 290 352 427
#     4  11  24  44  70 102 139 186 238 296 359 428
#     4  10  24  40  68 100 138 180 234 294 360 420
#     4  11  24  45  66 105 134 184 236 282 354 420
#
# _framework density 21.876732000000001
#
# number of rings (size 3 to 8) (size 9 to 14) (size 15 to 20)
#    0.000    1.231    1.538    2.769    8.615    4.308 
#    0.000    0.000    0.000    0.000    0.000    0.000 
#    0.000    0.000    0.000    0.000    0.000    0.000 
#
# Total GULP energy -322114.512255 kJ/mol
# GULP energy per Si atom -12389.019702 kJ/mol
# Density = 2.182694 g / cm^3
# Si number density = 21.876732 Si / 1000 Ang^3
#
#
#
# Elastic Constant Matrix: (Units=GPa)
#
#
# Indices 1 2 3 4 5 6 
#
# 1 87.8160 -0.2063 46.7581 0.0011 -17.8485 0.0003
# 2 -0.2063 69.3504 18.7358 0.0036 -18.3778 0.0018
# 3 46.7581 18.7358 129.4059 0.0011 0.1518 0.0001
# 4 0.0011 0.0036 0.0011 21.1253 0.0010 -16.6266
# 5 -17.8485 -18.3778 0.1518 0.0010 24.9583 0.0002
# 6 0.0003 0.0018 0.0001 -16.6266 0.0002 2.3484
#
#
#
# Elastic Compliance Matrix: (Units=1/GPa)
#
#
# Indices 1 2 3 4 5 6 
#
# 1 0.019838 0.007541 -0.008283 0.000002 0.019790 0.000006
# 2 0.007541 0.021709 -0.005893 0.000004 0.021414 0.000011
# 3 -0.008283 -0.005893 0.011586 -0.000001 -0.010333 -0.000003
# 4 0.000002 0.000004 -0.000001 -0.010353 0.000006 -0.073298
# 5 0.019790 0.021414 -0.010333 0.000006 0.070050 0.000016
# 6 0.000006 0.000011 -0.000003 -0.073298 0.000016 -0.093130
#
#
# Mechanical properties :
#
#
# Convention : Reuss Voigt Hill
#
# Bulk Modulus (GPa) = 25.08636 46.34973 35.71804
# Shear Modulus (GPa) = 108.09479 24.43871 66.26675
#
# Velocity S-wave (km/s) = 7.03691 3.34594 5.50969
# Velocity P-wave (km/s) = 8.80433 6.01331 7.53910
#
# Compressibility (1/GPa) = 0.03986230
#
# Stress axis : x y z
#
# Youngs Moduli (GPa) = 50.40902 46.06476 86.31239
#
# Poissons Ratio (x) = -0.34737 0.71492
# Poissons Ratio (y) = -0.38014 0.50863
# Poissons Ratio (z) = 0.41754 0.27146
#
# Static dielectric constant tensor:
#      x y z
#    x 4.069140 0.000000 -0.194820 
#    y 0.000000 4.262900 0.000000 
#    z -0.194820 0.000000 4.447130 
# 
# 
# High freq. dielectric constant tensor:
#      x y z
#    x 1.856250 0.000000 0.000200 
#    y 0.000000 1.860190 0.000000 
#    z 0.000200 0.000000 1.882360 
# 
# From -- ./inp_files/254290.got.cif
#   From: 2010.06.25/outbox.cif.g09.slc.cpg/sg15_128_cif.got.tgz:254290.got - 2010.06.28 07:06:18.
