data_PCOD8146661
_publ_section_title
;
Structure prediction by ZEFSAII (Michael W. Deem and Ramdas Pophale) SiO2 
 PCOD8146661
Probable space group: C 2/C
;
_chemical_formula_sum "Si O2"
_cell_formula_units_Z 32
_cell_length_a 15.700772
_cell_length_b 15.444498
_cell_length_c 12.992700
_cell_angle_alpha 90.000000
_cell_angle_beta 156.317852
_cell_angle_gamma 90.000000
_cell_volume 1265.480498
_symmetry_space_group_name_H-M "C 2/C"
_symmetry_group_IT_number 15
_symmetry_cell_setting 'monoclinic'
loop_
_space_group_symop_operation_xyz
x,y,z
-x,y,1/2-z
-x,-y,-z
x,-y,1/2+z
1/2+x,1/2+y,z
1/2-x,1/2+y,1/2-z
1/2-x,1/2-y,-z
1/2+x,1/2-y,1/2+z
loop_
_atom_site_type_symbol
_atom_site_label
_atom_site_fract_x
_atom_site_fract_y
_atom_site_fract_z
Si Si1 0.272400 0.857550 0.220947
Si Si2 0.500000 0.581059 0.250000
Si Si3 0.806554 0.316617 0.743346
Si Si4 0.602761 0.429242 0.223584
Si Si5 0.500000 0.830253 0.750000
O O1 0.250543 0.761441 0.244434
O O2 0.524238 0.876670 0.506857
O O3 0.142706 0.929396 0.144337
O O4 0.182919 0.859547 0.005300
O O5 0.596862 0.524090 0.265772
O O6 0.614317 0.377274 0.494588
O O7 0.915526 0.276496 0.757581
O O8 0.807410 0.387473 0.500379
#
# Coordination Sequence:
#
# PCOD8146661 Si02
#       5
#     8   4   8   8   4
#     4  11  26  44  72 100 138 175 235 275 337 398
#     4  12  26  49  66 101 144 182 214 284 348 403
#     4  11  22  45  71 105 132 179 229 286 324 405
#     4  11  23  48  70 103 137 179 227 279 340 404
#     4  10  22  41  76  99 134 174 236 276 340 383
#
# _framework density 25.286836000000001
#
# number of rings (size 3 to 8) (size 9 to 14) (size 15 to 20)
#    0.000    1.000    5.000    0.750    0.000    7.000 
#    4.500    0.000    0.000    0.000    0.000    0.000 
#    0.000    0.000    0.000    0.000    0.000    0.000 
#
# Total GULP energy -198210.508068 kJ/mol
# GULP energy per Si atom -12388.156754 kJ/mol
# Density = 2.522928 g / cm^3
# Si number density = 25.286836 Si / 1000 Ang^3
#
#
#
# Elastic Constant Matrix: (Units=GPa)
#
#
# Indices 1 2 3 4 5 6 
#
# 1 78.2984 34.9167 72.6480 0.0005 -21.7456 -0.0002
# 2 34.9167 53.5048 33.3470 0.0002 -14.3558 -0.0001
# 3 72.6480 33.3470 230.6140 0.0015 -28.9447 -0.0006
# 4 0.0005 0.0002 0.0015 -309.8292 0.0007 138.5422
# 5 -21.7456 -14.3558 -28.9447 0.0007 50.6098 -0.0003
# 6 -0.0002 -0.0001 -0.0006 138.5422 -0.0003 -55.5955
#
#
#
# Elastic Compliance Matrix: (Units=1/GPa)
#
#
# Indices 1 2 3 4 5 6 
#
# 1 0.023862 -0.011129 -0.005405 0.000000 0.004005 0.000000
# 2 -0.011129 0.026704 -0.000006 0.000000 0.002790 0.000000
# 3 -0.005405 -0.000006 0.006193 0.000000 0.001218 0.000000
# 4 0.000000 0.000000 0.000000 0.028238 0.000000 0.070368
# 5 0.004005 0.002790 0.001218 0.000000 0.022968 0.000000
# 6 0.000000 0.000000 0.000000 0.070368 0.000000 0.157367
#
#
# Mechanical properties :
#
#
# Convention : Reuss Voigt Hill
#
# Bulk Modulus (GPa) = 42.22949 71.58230 56.90590
# Shear Modulus (GPa) = 16.32369 -48.19594 -15.93613
#
# Velocity S-wave (km/s) = 2.54351 -4.37048 -2.51313
# Velocity P-wave (km/s) = 5.03610 1.70337 3.75924
#
# Compressibility (1/GPa) = 0.02368013
#
# Stress axis : x y z
#
# Youngs Moduli (GPa) = 41.90838 37.44703 161.48356
#
# Poissons Ratio (x) = 0.41673 0.87282
# Poissons Ratio (y) = 0.46638 0.00090
# Poissons Ratio (z) = 0.22652 0.00021
#
# Static dielectric constant tensor:
#      x y z
#    x 4.886830 0.000000 -0.004930 
#    y 0.000000 4.084990 0.000000 
#    z -0.004930 0.000000 5.538730 
# 
# 
# High freq. dielectric constant tensor:
#      x y z
#    x 1.994800 0.000000 -0.012360 
#    y 0.000000 1.974010 0.000000 
#    z -0.012360 0.000000 2.059750 
# 
# From -- ./inp_files/163153.got.cif
#   From: 2010.06.25/outbox.cif.g09.slc.cpg/sg15_82_cif.got.tgz:163153.got - 2010.06.28 07:06:18.
