data_PCOD8146767
_publ_section_title
;
Structure prediction by ZEFSAII (Michael W. Deem and Ramdas Pophale) SiO2 
 PCOD8146767
Probable space group: C 2/C
;
_chemical_formula_sum "Si O2"
_cell_formula_units_Z 60
_cell_length_a 7.634727
_cell_length_b 12.875705
_cell_length_c 28.311715
_cell_angle_alpha 90.000000
_cell_angle_beta 97.234160
_cell_angle_gamma 90.000000
_cell_volume 2760.958027
_symmetry_space_group_name_H-M "C 2/C"
_symmetry_group_IT_number 15
_symmetry_cell_setting 'monoclinic'
loop_
_space_group_symop_operation_xyz
x,y,z
-x,y,1/2-z
-x,-y,-z
x,-y,1/2+z
1/2+x,1/2+y,z
1/2-x,1/2+y,1/2-z
1/2-x,1/2-y,-z
1/2+x,1/2-y,1/2+z
loop_
_atom_site_type_symbol
_atom_site_label
_atom_site_fract_x
_atom_site_fract_y
_atom_site_fract_z
Si Si1 0.648617 0.494361 0.723132
Si Si2 0.811440 0.610137 0.049772
Si Si3 0.691847 0.333315 0.647132
Si Si4 0.165350 0.626766 0.942884
Si Si5 0.994971 0.225368 0.505045
Si Si6 0.988484 0.217044 0.803419
Si Si7 0.000000 0.589014 0.750000
Si Si8 0.144713 0.284353 0.342067
O O1 0.500000 0.435685 0.750000
O O2 0.726782 0.424612 0.684887
O O3 0.546873 0.593882 0.698107
O O4 0.824468 0.524778 0.758565
O O5 0.725043 0.619550 0.097595
O O6 0.880112 0.492537 0.045701
O O7 0.666976 0.645157 0.005748
O O8 0.970815 0.692131 0.047463
O O9 0.486942 0.303116 0.643463
O O10 0.828175 0.240076 0.663578
O O11 0.188636 0.639416 0.887363
O O12 0.015710 0.705174 0.957781
O O13 0.340926 0.653740 0.977515
O O14 0.823591 0.267630 0.826692
O O15 0.000000 0.260185 0.750000
O O16 0.955445 0.655720 0.702718
#
# Coordination Sequence:
#
# PCOD8146767 Si02
#       8
#     8   8   8   8   8   8   4   8
#     4  10  23  40  62  92 126 169 222 263 321 392
#     4  11  22  41  65  96 127 167 213 267 325 389
#     4  12  24  38  65  95 129 171 218 266 326 389
#     4  11  22  43  67  93 132 168 213 271 327 389
#     4  10  23  42  67  95 128 168 215 266 332 388
#     4  10  23  42  60  88 129 171 214 270 320 378
#     4  10  22  42  64  88 130 172 210 272 322 378
#     4  11  22  41  66  94 130 173 216 271 326 384
#
# _framework density 21.731586
#
# number of rings (size 3 to 8) (size 9 to 14) (size 15 to 20)
#    0.000    1.333    1.333    5.600    3.733    0.000 
#    0.000    4.000    0.000    0.000    0.000    0.000 
#    0.000    0.000    0.000    0.000    0.000    0.000 
#
# Total GULP energy -371902.825115 kJ/mol
# GULP energy per Si atom -12396.760837 kJ/mol
# Density = 2.168212 g / cm^3
# Si number density = 21.731586 Si / 1000 Ang^3
#
#
#
# Elastic Constant Matrix: (Units=GPa)
#
#
# Indices 1 2 3 4 5 6 
#
# 1 99.4600 16.7092 9.5058 0.0000 -16.4248 0.0000
# 2 16.7092 70.8952 22.4448 0.0000 4.4609 0.0000
# 3 9.5058 22.4448 93.0875 0.0000 -16.2818 0.0000
# 4 0.0000 0.0000 0.0000 20.8638 0.0000 -5.0008
# 5 -16.4248 4.4609 -16.2818 0.0000 34.7937 0.0000
# 6 0.0000 0.0000 0.0000 -5.0008 0.0000 22.8352
#
#
#
# Elastic Compliance Matrix: (Units=1/GPa)
#
#
# Indices 1 2 3 4 5 6 
#
# 1 0.011577 -0.003346 0.000714 0.000000 0.006228 0.000000
# 2 -0.003346 0.016770 -0.004742 0.000000 -0.005949 0.000000
# 3 0.000714 -0.004742 0.013046 0.000000 0.007050 0.000000
# 4 0.000000 0.000000 0.000000 0.050585 0.000000 0.011078
# 5 0.006228 -0.005949 0.007050 0.000000 0.035743 0.000000
# 6 0.000000 0.000000 0.000000 0.011078 0.000000 0.046218
#
#
# Mechanical properties :
#
#
# Convention : Reuss Voigt Hill
#
# Bulk Modulus (GPa) = 37.53268 40.08467 38.80868
# Shear Modulus (GPa) = 25.30763 30.01742 27.66253
#
# Velocity S-wave (km/s) = 3.41626 3.72059 3.57167
# Velocity P-wave (km/s) = 5.73320 6.07803 5.90813
#
# Compressibility (1/GPa) = 0.02664345
#
# Stress axis : x y z
#
# Youngs Moduli (GPa) = 86.37987 59.63128 76.65067
#
# Poissons Ratio (x) = 0.19955 -0.05473
# Poissons Ratio (y) = 0.28907 0.36349
# Poissons Ratio (z) = -0.06168 0.28278
#
# Static dielectric constant tensor:
#      x y z
#    x 4.356640 0.000000 -0.291160 
#    y 0.000000 3.754950 0.000000 
#    z -0.291160 0.000000 3.907890 
# 
# 
# High freq. dielectric constant tensor:
#      x y z
#    x 1.867030 0.000000 -0.014490 
#    y 0.000000 1.839750 0.000000 
#    z -0.014490 0.000000 1.850790 
# 
# From -- ./inp_files/307190.got.cif
#   From: 2010.06.25/outbox.cif.g09.slc.cpg/sg15_154_cif.got.tgz:307190.got - 2010.06.28 07:06:18.
