data_PCOD8146854
_publ_section_title
;
Structure prediction by ZEFSAII (Michael W. Deem and Ramdas Pophale) SiO2 
 PCOD8146854
Probable space group: C 2/C
;
_chemical_formula_sum "Si O2"
_cell_formula_units_Z 48
_cell_length_a 11.752721
_cell_length_b 8.012878
_cell_length_c 22.161500
_cell_angle_alpha 90.000000
_cell_angle_beta 62.269190
_cell_angle_gamma 90.000000
_cell_volume 1847.310127
_symmetry_space_group_name_H-M "C 2/C"
_symmetry_group_IT_number 15
_symmetry_cell_setting 'monoclinic'
loop_
_space_group_symop_operation_xyz
x,y,z
-x,y,1/2-z
-x,-y,-z
x,-y,1/2+z
1/2+x,1/2+y,z
1/2-x,1/2+y,1/2-z
1/2-x,1/2-y,-z
1/2+x,1/2-y,1/2+z
loop_
_atom_site_type_symbol
_atom_site_label
_atom_site_fract_x
_atom_site_fract_y
_atom_site_fract_z
Si Si1 0.869820 0.613864 0.749955
Si Si2 0.539133 0.195719 0.560751
Si Si3 0.295955 0.654664 0.158538
Si Si4 0.576180 0.873938 0.865018
Si Si5 0.246602 0.813907 0.583781
Si Si6 0.171116 0.821308 0.075853
O O1 0.758710 0.534054 0.820731
O O2 0.804503 0.746352 0.720750
O O3 0.000000 0.686810 0.750000
O O4 0.917617 0.447443 0.703073
O O5 0.440024 0.348552 0.595377
O O6 0.617789 0.232158 0.480880
O O7 0.637370 0.178819 0.594299
O O8 0.464066 0.020162 0.577321
O O9 0.210200 0.752405 0.131480
O O10 0.721388 0.820029 0.852427
O O11 0.479348 0.720235 0.893968
O O12 0.189061 0.981919 0.569924
O O13 0.250000 0.750000 0.000000
#
# Coordination Sequence:
#
# PCOD8146854 Si02
#       6
#     8   8   8   8   8   8
#     4  11  24  45  67  94 134 180 224 281 332 397
#     4  10  22  42  65  98 137 171 220 270 332 398
#     4  11  25  46  68 100 135 176 230 276 332 398
#     4  11  22  42  66  91 136 175 221 277 333 391
#     4  11  22  42  66  99 136 177 215 273 340 398
#     4  12  22  40  72 100 134 174 217 278 339 398
#
# _framework density 25.983726000000001
#
# number of rings (size 3 to 8) (size 9 to 14) (size 15 to 20)
#    0.000    1.000    6.667    1.500    0.000    4.000 
#    3.000    2.500    0.000    0.000    0.000    0.000 
#    0.000    0.000    0.000    0.000    0.000    0.000 
#
# Total GULP energy -297476.480957 kJ/mol
# GULP energy per Si atom -12394.853373 kJ/mol
# Density = 2.592459 g / cm^3
# Si number density = 25.983726 Si / 1000 Ang^3
#
#
#
# Elastic Constant Matrix: (Units=GPa)
#
#
# Indices 1 2 3 4 5 6 
#
# 1 139.2879 13.2105 -15.5419 0.0000 26.3037 0.0000
# 2 13.2105 67.7951 2.4069 0.0000 2.6943 0.0000
# 3 -15.5419 2.4069 35.2744 0.0000 21.9727 0.0000
# 4 0.0000 0.0000 0.0000 19.7691 0.0000 19.0752
# 5 26.3037 2.6943 21.9727 0.0000 46.5101 0.0000
# 6 0.0000 0.0000 0.0000 19.0752 0.0000 18.9615
#
#
#
# Elastic Compliance Matrix: (Units=1/GPa)
#
#
# Indices 1 2 3 4 5 6 
#
# 1 0.011049 -0.002119 0.012511 0.000000 -0.012037 0.000000
# 2 -0.002119 0.015202 -0.003073 0.000000 0.001770 0.000000
# 3 0.012511 -0.003073 0.054366 0.000000 -0.032582 0.000000
# 4 0.000000 0.000000 0.000000 1.725369 0.000000 -1.735712
# 5 -0.012037 0.001770 -0.032582 0.000000 0.043598 0.000000
# 6 0.000000 0.000000 0.000000 -1.735712 0.000000 1.798855
#
#
# Mechanical properties :
#
#
# Convention : Reuss Voigt Hill
#
# Bulk Modulus (GPa) = 10.49818 26.94540 18.72179
# Shear Modulus (GPa) = 1.36405 33.20027 17.28216
#
# Velocity S-wave (km/s) = 0.72533 3.57842 2.58178
# Velocity P-wave (km/s) = 2.17957 5.24081 4.01351
#
# Compressibility (1/GPa) = 0.09525463
#
# Stress axis : x y z
#
# Youngs Moduli (GPa) = 90.50354 65.78085 18.39374
#
# Poissons Ratio (x) = 0.13938 -0.23012
# Poissons Ratio (y) = 0.19177 0.05653
# Poissons Ratio (z) = -1.13225 0.20215
#
# Static dielectric constant tensor:
#      x y z
#    x 5.075080 0.000000 -0.087750 
#    y 0.000000 4.451310 0.000000 
#    z -0.087750 0.000000 4.753070 
# 
# 
# High freq. dielectric constant tensor:
#      x y z
#    x 2.060430 0.000000 0.004160 
#    y 0.000000 2.027740 0.000000 
#    z 0.004160 0.000000 2.044580 
# 
# From -- ./inp_files/267808.got.cif
#   From: 2010.06.25/outbox.cif.g09.slc.cpg/sg15_134_cif.got.tgz:267808.got - 2010.06.28 07:06:18.
