data_PCOD8146410
_publ_section_title
;
Structure prediction by ZEFSAII (Michael W. Deem and Ramdas Pophale) SiO2 
 PCOD8146410
Probable space group: C 2/C
;
_chemical_formula_sum "Si O2"
_cell_formula_units_Z 64
_cell_length_a 14.594942
_cell_length_b 15.866854
_cell_length_c 18.241833
_cell_angle_alpha 90.000000
_cell_angle_beta 136.358815
_cell_angle_gamma 90.000000
_cell_volume 2915.404485
_symmetry_space_group_name_H-M "C 2/C"
_symmetry_group_IT_number 15
_symmetry_cell_setting 'monoclinic'
loop_
_space_group_symop_operation_xyz
x,y,z
-x,y,1/2-z
-x,-y,-z
x,-y,1/2+z
1/2+x,1/2+y,z
1/2-x,1/2+y,1/2-z
1/2-x,1/2-y,-z
1/2+x,1/2-y,1/2+z
loop_
_atom_site_type_symbol
_atom_site_label
_atom_site_fract_x
_atom_site_fract_y
_atom_site_fract_z
Si Si1 0.178969 0.063055 0.963929
Si Si2 0.411169 0.656692 0.272358
Si Si3 0.041638 0.463167 0.121273
Si Si4 0.037950 0.187800 0.686316
Si Si5 0.922439 0.072826 0.000052
Si Si6 0.714322 0.972715 0.599969
Si Si7 0.960406 0.367931 0.643980
Si Si8 0.733775 0.831869 0.283531
O O1 0.046240 0.115636 0.903577
O O2 0.187767 0.980625 0.020044
O O3 0.176881 0.029240 0.879090
O O4 0.302914 0.123378 0.048149
O O5 0.500000 0.657238 0.250000
O O6 0.488402 0.625073 0.389639
O O7 0.287793 0.594353 0.192030
O O8 0.343307 0.746567 0.243709
O O9 0.126647 0.462739 0.096238
O O10 0.117754 0.401462 0.220274
O O11 0.039900 0.557870 0.150741
O O12 0.890974 0.430548 0.018746
O O13 0.999408 0.278789 0.630368
O O14 0.000000 0.184571 0.750000
O O15 0.192316 0.173015 0.753477
O O16 0.847512 0.143001 0.908051
O O17 0.000000 0.000000 0.000000
O O18 0.000000 0.367514 0.750000
#
# Coordination Sequence:
#
# PCOD8146410 Si02
#       8
#     8   8   8   8   8   8   8   8
#     4  11  22  41  72  96 133 183 230 291 349 428
#     4  12  28  47  73 102 149 193 242 302 353 430
#     4  10  22  42  69 100 138 189 235 294 349 434
#     4  11  24  42  67 106 140 183 235 295 371 426
#     4  12  26  47  74 105 141 187 241 296 358 429
#     4  10  22  42  70  98 134 186 239 284 360 424
#     4  10  22  41  64  99 137 177 226 291 354 418
#     4  12  27  45  71 106 146 189 244 296 363 428
#
# _framework density 21.952356999999999
#
# number of rings (size 3 to 8) (size 9 to 14) (size 15 to 20)
#    0.000    1.000    2.500    3.375    3.500    5.000 
#    2.250    0.000    0.000    0.000    0.000    0.000 
#    0.000    0.000    0.000    0.000    0.000    0.000 
#
# Total GULP energy -396610.209752 kJ/mol
# GULP energy per Si atom -12394.069055 kJ/mol
# Density = 2.190239 g / cm^3
# Si number density = 21.952357 Si / 1000 Ang^3
#
#
#
# Elastic Constant Matrix: (Units=GPa)
#
#
# Indices 1 2 3 4 5 6 
#
# 1 77.1717 27.1359 32.3342 0.0000 3.3277 0.0000
# 2 27.1359 125.0291 72.9433 0.0000 8.0617 0.0000
# 3 32.3342 72.9433 126.5497 0.0000 6.0553 0.0000
# 4 0.0000 0.0000 0.0000 31.7605 0.0000 10.5489
# 5 3.3277 8.0617 6.0553 0.0000 32.8047 0.0000
# 6 0.0000 0.0000 0.0000 10.5489 0.0000 39.7178
#
#
#
# Elastic Compliance Matrix: (Units=1/GPa)
#
#
# Indices 1 2 3 4 5 6 
#
# 1 0.014709 -0.001473 -0.002880 0.000000 -0.000598 0.000000
# 2 -0.001473 0.012292 -0.006630 0.000000 -0.001648 0.000000
# 3 -0.002880 -0.006630 0.012478 0.000000 -0.000382 0.000000
# 4 0.000000 0.000000 0.000000 0.034532 0.000000 -0.009172
# 5 -0.000598 -0.001648 -0.000382 0.000000 0.031019 0.000000
# 6 0.000000 0.000000 0.000000 -0.009172 0.000000 0.027614
#
#
# Mechanical properties :
#
#
# Convention : Reuss Voigt Hill
#
# Bulk Modulus (GPa) = 57.10533 65.95302 61.52917
# Shear Modulus (GPa) = 31.16279 33.94575 32.55427
#
# Velocity S-wave (km/s) = 3.77180 3.93662 3.85509
# Velocity P-wave (km/s) = 6.71106 7.12541 6.92134
#
# Compressibility (1/GPa) = 0.01751150
#
# Stress axis : x y z
#
# Youngs Moduli (GPa) = 67.98638 81.35314 80.14296
#
# Poissons Ratio (x) = 0.11986 0.23084
# Poissons Ratio (y) = 0.10017 0.53134
# Poissons Ratio (z) = 0.19582 0.53936
#
# Static dielectric constant tensor:
#      x y z
#    x 4.040960 0.000000 0.016010 
#    y 0.000000 4.278410 0.000000 
#    z 0.016010 0.000000 3.989670 
# 
# 
# High freq. dielectric constant tensor:
#      x y z
#    x 1.876430 0.000000 0.005110 
#    y 0.000000 1.867290 0.000000 
#    z 0.005110 0.000000 1.860980 
# 
# From -- ./inp_files/206463.got.cif
#   From: 2010.06.25/outbox.cif.g09.slc.cpg/sg15_104_cif.got.tgz:206463.got - 2010.06.28 07:06:18.
