data_PCOD8146450
_publ_section_title
;
Structure prediction by ZEFSAII (Michael W. Deem and Ramdas Pophale) SiO2 
 PCOD8146450
Probable space group: C 2/C
;
_chemical_formula_sum "Si O2"
_cell_formula_units_Z 56
_cell_length_a 19.389420
_cell_length_b 10.645385
_cell_length_c 13.088788
_cell_angle_alpha 90.000000
_cell_angle_beta 66.352678
_cell_angle_gamma 90.000000
_cell_volume 2474.777479
_symmetry_space_group_name_H-M "C 2/C"
_symmetry_group_IT_number 15
_symmetry_cell_setting 'monoclinic'
loop_
_space_group_symop_operation_xyz
x,y,z
-x,y,1/2-z
-x,-y,-z
x,-y,1/2+z
1/2+x,1/2+y,z
1/2-x,1/2+y,1/2-z
1/2-x,1/2-y,-z
1/2+x,1/2-y,1/2+z
loop_
_atom_site_type_symbol
_atom_site_label
_atom_site_fract_x
_atom_site_fract_y
_atom_site_fract_z
Si Si1 0.546070 0.834594 0.811373
Si Si2 0.421933 0.897404 0.245598
Si Si3 0.214380 0.768925 0.672334
Si Si4 0.752419 0.029537 0.935959
Si Si5 0.332920 0.613651 0.089119
Si Si6 0.906576 0.641539 0.519646
Si Si7 0.840806 0.129047 0.689727
O O1 0.500000 0.762346 0.750000
O O2 0.596438 0.735533 0.839747
O O3 0.593295 0.951647 0.734192
O O4 0.483785 0.900863 0.920451
O O5 0.500000 0.855793 0.250000
O O6 0.355940 0.810394 0.331548
O O7 0.423292 0.866278 0.127273
O O8 0.209729 0.817513 0.792355
O O9 0.282333 0.671317 0.637853
O O10 0.232073 0.880995 0.583523
O O11 0.663746 0.054326 0.970930
O O12 0.802435 0.102741 0.822034
O O13 0.773834 0.074920 0.036415
O O14 0.390761 0.711411 0.003029
O O15 0.376060 0.496284 0.116924
#
# Coordination Sequence:
#
# PCOD8146450 Si02
#       7
#     8   8   8   8   8   8   8
#     4  11  25  39  67  98 131 175 217 279 341 393
#     4  10  22  41  65  94 131 171 214 273 338 393
#     4  10  23  40  65  97 129 172 226 277 329 391
#     4  11  22  41  69  94 131 174 228 274 329 400
#     4  10  23  38  65  95 128 180 221 274 329 391
#     4  11  22  42  64  98 130 173 223 271 333 400
#     4  11  23  41  64  96 135 168 226 278 324 406
#
# _framework density 22.628298000000001
#
# number of rings (size 3 to 8) (size 9 to 14) (size 15 to 20)
#    0.000    1.429    2.857    2.571    4.000    3.429 
#    0.000    9.286    0.000    0.000    0.000    0.000 
#    0.000    0.000    0.000    0.000    0.000    0.000 
#
# Total GULP energy -347041.192122 kJ/mol
# GULP energy per Si atom -12394.328290 kJ/mol
# Density = 2.257680 g / cm^3
# Si number density = 22.628298 Si / 1000 Ang^3
#
#
#
# Elastic Constant Matrix: (Units=GPa)
#
#
# Indices 1 2 3 4 5 6 
#
# 1 146.7296 61.6908 9.8107 0.0000 -0.6066 0.0000
# 2 61.6908 146.8176 6.1094 0.0000 -15.2880 0.0000
# 3 9.8107 6.1094 22.7455 0.0000 -9.7532 0.0000
# 4 0.0000 0.0000 0.0000 16.5984 0.0000 -6.1550
# 5 -0.6066 -15.2880 -9.7532 0.0000 35.6267 0.0000
# 6 0.0000 0.0000 0.0000 -6.1550 0.0000 -27.2451
#
#
#
# Elastic Compliance Matrix: (Units=1/GPa)
#
#
# Indices 1 2 3 4 5 6 
#
# 1 0.008624 -0.003725 -0.003786 0.000000 -0.002488 0.000000
# 2 -0.003725 0.008748 0.000951 0.000000 0.003951 0.000000
# 3 -0.003786 0.000951 0.051540 0.000000 0.014453 0.000000
# 4 0.000000 0.000000 0.000000 0.055590 0.000000 -0.012558
# 5 -0.002488 0.003951 0.014453 0.000000 0.033679 0.000000
# 6 0.000000 0.000000 0.000000 -0.012558 0.000000 -0.033867
#
#
# Mechanical properties :
#
#
# Convention : Reuss Voigt Hill
#
# Bulk Modulus (GPa) = 17.92378 52.39051 35.15714
# Shear Modulus (GPa) = 32.04456 20.90811 26.47634
#
# Velocity S-wave (km/s) = 3.76723 3.04300 3.42432
# Velocity P-wave (km/s) = 5.18275 5.96233 5.58615
#
# Compressibility (1/GPa) = 0.05579180
#
# Stress axis : x y z
#
# Youngs Moduli (GPa) = 115.94950 114.30682 19.40246
#
# Poissons Ratio (x) = 0.42584 0.07346
# Poissons Ratio (y) = 0.43196 -0.01846
# Poissons Ratio (z) = 0.43902 -0.10874
#
# Static dielectric constant tensor:
#      x y z
#    x 4.165030 0.000000 -0.023660 
#    y 0.000000 4.562170 0.000000 
#    z -0.023660 0.000000 4.047010 
# 
# 
# High freq. dielectric constant tensor:
#      x y z
#    x 1.889140 0.000000 0.019340 
#    y 0.000000 1.904760 0.000000 
#    z 0.019340 0.000000 1.885410 
# 
# From -- ./inp_files/161244.got.cif
#   From: 2010.06.25/outbox.cif.g09.slc.cpg/sg15_81_cif.got.tgz:161244.got - 2010.06.28 07:06:18.
