data_PCOD8146679
_publ_section_title
;
Structure prediction by ZEFSAII (Michael W. Deem and Ramdas Pophale) SiO2 
 PCOD8146679
Probable space group: C 2/C
;
_chemical_formula_sum "Si O2"
_cell_formula_units_Z 48
_cell_length_a 7.684642
_cell_length_b 12.446908
_cell_length_c 23.836024
_cell_angle_alpha 90.000000
_cell_angle_beta 72.090580
_cell_angle_gamma 90.000000
_cell_volume 2169.440504
_symmetry_space_group_name_H-M "C 2/C"
_symmetry_group_IT_number 15
_symmetry_cell_setting 'monoclinic'
loop_
_space_group_symop_operation_xyz
x,y,z
-x,y,1/2-z
-x,-y,-z
x,-y,1/2+z
1/2+x,1/2+y,z
1/2-x,1/2+y,1/2-z
1/2-x,1/2-y,-z
1/2+x,1/2-y,1/2+z
loop_
_atom_site_type_symbol
_atom_site_label
_atom_site_fract_x
_atom_site_fract_y
_atom_site_fract_z
Si Si1 0.000000 0.461458 0.750000
Si Si2 0.037827 0.748302 0.464518
Si Si3 0.000000 0.031133 0.750000
Si Si4 0.752651 0.624089 0.565590
Si Si5 0.874209 0.888326 0.942446
Si Si6 0.881808 0.865846 0.679882
Si Si7 0.357628 0.127362 0.684548
O O1 0.173941 0.387117 0.719689
O O2 0.008181 0.535364 0.805311
O O3 0.095408 0.849451 0.497218
O O4 0.221411 0.686843 0.426294
O O5 0.919945 0.663381 0.511398
O O6 0.920840 0.794108 0.423495
O O7 0.828258 0.108496 0.762642
O O8 0.017268 0.952049 0.694859
O O9 0.694711 0.509187 0.548079
O O10 0.820772 0.617650 0.622330
O O11 0.069662 0.877205 0.890873
O O12 0.931446 0.744735 0.693399
#
# Coordination Sequence:
#
# PCOD8146679 Si02
#       7
#     4   8   4   8   8   8   8
#     4  10  26  42  64  90 128 166 214 266 316 382
#     4  10  24  42  62  94 130 166 208 264 316 374
#     4  10  22  42  60  86 124 154 214 258 312 370
#     4  11  22  42  64  92 127 166 210 258 317 377
#     4  11  22  42  64  92 127 166 210 258 317 377
#     4  11  22  42  63  91 122 166 207 261 317 376
#     4  11  22  42  63  91 122 166 207 261 317 376
#
# _framework density 22.125520999999999
#
# number of rings (size 3 to 8) (size 9 to 14) (size 15 to 20)
#    0.000    1.333    3.333    2.000    0.000    2.667 
#    6.000    0.000    0.000    0.000    0.000    0.000 
#    0.000    0.000    0.000    0.000    0.000    0.000 
#
# Total GULP energy -297515.628185 kJ/mol
# GULP energy per Si atom -12396.484508 kJ/mol
# Density = 2.207516 g / cm^3
# Si number density = 22.125521 Si / 1000 Ang^3
#
#
#
# Elastic Constant Matrix: (Units=GPa)
#
#
# Indices 1 2 3 4 5 6 
#
# 1 75.1599 15.8039 23.1715 0.0000 -3.6464 0.0000
# 2 15.8039 113.2984 31.3222 0.0000 -8.0249 0.0000
# 3 23.1715 31.3222 76.6309 0.0000 -1.1557 0.0000
# 4 0.0000 0.0000 0.0000 12.9112 0.0000 2.2075
# 5 -3.6464 -8.0249 -1.1557 0.0000 26.3263 0.0000
# 6 0.0000 0.0000 0.0000 2.2075 0.0000 7.7786
#
#
#
# Elastic Compliance Matrix: (Units=1/GPa)
#
#
# Indices 1 2 3 4 5 6 
#
# 1 0.014827 -0.000812 -0.004127 0.000000 0.001625 0.000000
# 2 -0.000812 0.010215 -0.003887 0.000000 0.002831 0.000000
# 3 -0.004127 -0.003887 0.015870 0.000000 -0.001060 0.000000
# 4 0.000000 0.000000 0.000000 0.081401 0.000000 -0.023101
# 5 0.001625 0.002831 -0.001060 0.000000 0.039026 0.000000
# 6 0.000000 0.000000 0.000000 -0.023101 0.000000 0.135114
#
#
# Mechanical properties :
#
#
# Convention : Reuss Voigt Hill
#
# Bulk Modulus (GPa) = 42.99254 45.07606 44.03430
# Shear Modulus (GPa) = 15.53478 22.38934 18.96206
#
# Velocity S-wave (km/s) = 2.65263 3.18453 2.93067
# Velocity P-wave (km/s) = 5.37171 5.82569 5.60330
#
# Compressibility (1/GPa) = 0.02325985
#
# Stress axis : x y z
#
# Youngs Moduli (GPa) = 67.44519 97.89927 63.01139
#
# Poissons Ratio (x) = 0.07951 0.26004
# Poissons Ratio (y) = 0.05478 0.24492
# Poissons Ratio (z) = 0.27833 0.38052
#
# Static dielectric constant tensor:
#      x y z
#    x 4.138910 0.000000 0.040970 
#    y 0.000000 4.203610 0.000000 
#    z 0.040970 0.000000 3.761730 
# 
# 
# High freq. dielectric constant tensor:
#      x y z
#    x 1.870800 0.000000 -0.002560 
#    y 0.000000 1.888580 0.000000 
#    z -0.002560 0.000000 1.853510 
# 
# From -- ./inp_files/263520.got.cif
#   From: 2010.06.25/outbox.cif.g09.slc.cpg/sg15_132_cif.got.tgz:263520.got - 2010.06.28 07:06:18.
