data_PCOD8146458
_publ_section_title
;
Structure prediction by ZEFSAII (Michael W. Deem and Ramdas Pophale) SiO2 
 PCOD8146458
Probable space group: C 2/C
;
_chemical_formula_sum "Si O2"
_cell_formula_units_Z 48
_cell_length_a 11.328490
_cell_length_b 28.953381
_cell_length_c 8.986417
_cell_angle_alpha 90.000000
_cell_angle_beta 53.660161
_cell_angle_gamma 90.000000
_cell_volume 2374.281951
_symmetry_space_group_name_H-M "C 2/C"
_symmetry_group_IT_number 15
_symmetry_cell_setting 'monoclinic'
loop_
_space_group_symop_operation_xyz
x,y,z
-x,y,1/2-z
-x,-y,-z
x,-y,1/2+z
1/2+x,1/2+y,z
1/2-x,1/2+y,1/2-z
1/2-x,1/2-y,-z
1/2+x,1/2-y,1/2+z
loop_
_atom_site_type_symbol
_atom_site_label
_atom_site_fract_x
_atom_site_fract_y
_atom_site_fract_z
Si Si1 0.113659 0.512018 0.291302
Si Si2 0.366347 0.320409 0.548374
Si Si3 0.694619 0.336810 0.236914
Si Si4 0.836585 0.084615 0.225970
Si Si5 0.846004 0.260054 0.288005
Si Si6 0.838900 0.070840 0.566449
O O1 0.200031 0.558764 0.257071
O O2 0.235666 0.472717 0.174034
O O3 0.000000 0.522668 0.250000
O O4 0.000000 0.500000 0.500000
O O5 0.538473 0.314644 0.391865
O O6 0.278638 0.329523 0.459699
O O7 0.335487 0.362985 0.677760
O O8 0.313836 0.275221 0.675950
O O9 0.818684 0.310586 0.238544
O O10 0.698950 0.390705 0.280583
O O11 0.811451 0.088233 0.420724
O O12 0.986718 0.059043 0.059141
O O13 0.750000 0.250000 0.500000
O O14 0.000000 0.256636 0.250000
#
# Coordination Sequence:
#
# PCOD8146458 Si02
#       6
#     8   8   8   8   8   8
#     4  12  25  43  62  93 135 165 204 263 322 374
#     4  10  22  41  66  92 127 165 213 266 306 369
#     4  10  22  41  65  96 126 163 215 261 310 368
#     4  10  22  42  67  91 120 170 219 254 311 378
#     4  12  23  41  66  94 130 169 209 255 315 378
#     4  10  22  42  68  91 123 169 216 257 307 384
#
# _framework density 20.216638
#
# number of rings (size 3 to 8) (size 9 to 14) (size 15 to 20)
#    0.000    1.333    3.333    2.000    4.667    0.667 
#    3.000    0.000    0.000    0.000    0.000    0.000 
#    0.000    0.000    0.000    0.000    0.000    0.000 
#
# Total GULP energy -297428.915004 kJ/mol
# GULP energy per Si atom -12392.871458 kJ/mol
# Density = 2.017062 g / cm^3
# Si number density = 20.216638 Si / 1000 Ang^3
#
#
#
# Elastic Constant Matrix: (Units=GPa)
#
#
# Indices 1 2 3 4 5 6 
#
# 1 122.4829 33.2653 38.8942 0.0000 10.6889 0.0000
# 2 33.2653 49.3889 13.8146 0.0000 -2.0314 0.0000
# 3 38.8942 13.8146 95.4407 0.0000 9.9761 0.0000
# 4 0.0000 0.0000 0.0000 19.6982 0.0000 11.9184
# 5 10.6889 -2.0314 9.9761 0.0000 35.5419 0.0000
# 6 0.0000 0.0000 0.0000 11.9184 0.0000 35.1608
#
#
#
# Elastic Compliance Matrix: (Units=1/GPa)
#
#
# Indices 1 2 3 4 5 6 
#
# 1 0.011321 -0.006812 -0.003329 0.000000 -0.002860 0.000000
# 2 -0.006812 0.025357 -0.001298 0.000000 0.003862 0.000000
# 3 -0.003329 -0.001298 0.012286 0.000000 -0.002522 0.000000
# 4 0.000000 0.000000 0.000000 0.063864 0.000000 -0.021648
# 5 -0.002860 0.003862 -0.002522 0.000000 0.029924 0.000000
# 6 0.000000 0.000000 0.000000 -0.021648 0.000000 0.035779
#
#
# Mechanical properties :
#
#
# Convention : Reuss Voigt Hill
#
# Bulk Modulus (GPa) = 38.33325 48.80674 43.56999
# Shear Modulus (GPa) = 23.79777 30.16942 26.98359
#
# Velocity S-wave (km/s) = 3.43467 3.86723 3.65735
# Velocity P-wave (km/s) = 5.89336 6.64341 6.27959
#
# Compressibility (1/GPa) = 0.02608701
#
# Stress axis : x y z
#
# Youngs Moduli (GPa) = 88.33168 39.43633 81.39549
#
# Poissons Ratio (x) = 0.26863 0.27094
# Poissons Ratio (y) = 0.60168 0.10566
# Poissons Ratio (z) = 0.29403 0.05119
#
# Static dielectric constant tensor:
#      x y z
#    x 3.820020 0.000000 0.070380 
#    y 0.000000 3.559650 0.000000 
#    z 0.070380 0.000000 3.850990 
# 
# 
# High freq. dielectric constant tensor:
#      x y z
#    x 1.796200 0.000000 0.011750 
#    y 0.000000 1.784320 0.000000 
#    z 0.011750 0.000000 1.803860 
# 
# From -- ./inp_files/33372.got.cif
#   From: 2010.06.25/outbox.cif.g09.slc.cpg/sg15_17_cif.got.tgz:33372.got - 2010.06.28 07:06:18.
