data_PCOD8146818
_publ_section_title
;
Structure prediction by ZEFSAII (Michael W. Deem and Ramdas Pophale) SiO2 
 PCOD8146818
Probable space group: C 2/C
;
_chemical_formula_sum "Si O2"
_cell_formula_units_Z 64
_cell_length_a 15.868532
_cell_length_b 7.633559
_cell_length_c 25.735155
_cell_angle_alpha 90.000000
_cell_angle_beta 101.608603
_cell_angle_gamma 90.000000
_cell_volume 3053.620199
_symmetry_space_group_name_H-M "C 2/C"
_symmetry_group_IT_number 15
_symmetry_cell_setting 'monoclinic'
loop_
_space_group_symop_operation_xyz
x,y,z
-x,y,1/2-z
-x,-y,-z
x,-y,1/2+z
1/2+x,1/2+y,z
1/2-x,1/2+y,1/2-z
1/2-x,1/2-y,-z
1/2+x,1/2-y,1/2+z
loop_
_atom_site_type_symbol
_atom_site_label
_atom_site_fract_x
_atom_site_fract_y
_atom_site_fract_z
Si Si1 0.527076 0.523752 0.444511
Si Si2 0.291089 0.421895 0.556629
Si Si3 0.719019 0.966881 0.439625
Si Si4 0.851292 0.089541 0.374122
Si Si5 0.408691 0.311890 0.224527
Si Si6 0.940460 0.321227 0.614940
Si Si7 0.249595 0.572689 0.656390
Si Si8 0.123968 0.286113 0.669751
O O1 0.500000 0.500000 0.500000
O O2 0.613713 0.636440 0.451717
O O3 0.449583 0.620032 0.404750
O O4 0.562083 0.345245 0.423050
O O5 0.257922 0.233690 0.572077
O O6 0.234231 0.499948 0.502731
O O7 0.286505 0.567407 0.601833
O O8 0.788812 0.073228 0.415528
O O9 0.621045 0.026147 0.414697
O O10 0.813332 0.261182 0.340025
O O11 0.856203 0.919907 0.337533
O O12 0.500000 0.408181 0.250000
O O13 0.411381 0.208289 0.170770
O O14 0.328290 0.441098 0.207176
O O15 0.389105 0.182866 0.270203
O O16 0.041896 0.366939 0.629110
O O17 0.203755 0.390868 0.659098
#
# Coordination Sequence:
#
# PCOD8146818 Si02
#       8
#     8   8   8   8   8   8   8   8
#     4  11  22  38  61  95 129 167 214 264 310 386
#     4  11  24  40  61  96 134 170 216 262 324 386
#     4  11  22  40  64  92 131 176 209 267 320 384
#     4  11  23  40  64  95 130 165 215 263 317 380
#     4  10  22  43  67  91 127 169 212 271 329 374
#     4  10  22  42  65  87 129 173 211 265 328 378
#     4  12  24  42  69  93 125 177 211 263 330 386
#     4  10  25  44  62  96 131 159 221 276 312 387
#
# _framework density 20.958729999999999
#
# number of rings (size 3 to 8) (size 9 to 14) (size 15 to 20)
#    0.000    1.250    5.000    0.000    5.250    1.000 
#    0.000    1.250    0.000    3.000    0.000    0.000 
#    0.000    0.000    0.000    0.000    0.000    0.000 
#
# Total GULP energy -396483.127829 kJ/mol
# GULP energy per Si atom -12390.097745 kJ/mol
# Density = 2.091103 g / cm^3
# Si number density = 20.958730 Si / 1000 Ang^3
#
#
#
# Elastic Constant Matrix: (Units=GPa)
#
#
# Indices 1 2 3 4 5 6 
#
# 1 129.3526 33.2037 54.4951 0.0000 22.0728 0.0000
# 2 33.2037 58.6087 36.1502 0.0000 10.2244 0.0000
# 3 54.4951 36.1502 122.3270 0.0000 16.0889 0.0000
# 4 0.0000 0.0000 0.0000 19.7941 0.0000 1.6688
# 5 22.0728 10.2244 16.0889 0.0000 44.1254 0.0000
# 6 0.0000 0.0000 0.0000 1.6688 0.0000 29.3053
#
#
#
# Elastic Compliance Matrix: (Units=1/GPa)
#
#
# Indices 1 2 3 4 5 6 
#
# 1 0.010535 -0.003382 -0.003260 0.000000 -0.003298 0.000000
# 2 -0.003382 0.022266 -0.004850 0.000000 -0.001699 0.000000
# 3 -0.003260 -0.004850 0.011237 0.000000 -0.001343 0.000000
# 4 0.000000 0.000000 0.000000 0.050764 0.000000 -0.002891
# 5 -0.003298 -0.001699 -0.001343 0.000000 0.025195 0.000000
# 6 0.000000 0.000000 0.000000 -0.002891 0.000000 0.034288
#
#
# Mechanical properties :
#
#
# Convention : Reuss Voigt Hill
#
# Bulk Modulus (GPa) = 47.49722 61.99848 54.74785
# Shear Modulus (GPa) = 27.13136 31.07423 29.10279
#
# Velocity S-wave (km/s) = 3.60184 3.85468 3.73040
# Velocity P-wave (km/s) = 6.32528 7.03256 6.68827
#
# Compressibility (1/GPa) = 0.02105386
#
# Stress axis : x y z
#
# Youngs Moduli (GPa) = 94.92019 44.91065 88.99228
#
# Poissons Ratio (x) = 0.15191 0.29011
# Poissons Ratio (y) = 0.32106 0.43160
# Poissons Ratio (z) = 0.30944 0.21781
#
# Static dielectric constant tensor:
#      x y z
#    x 4.218370 0.000000 0.167540 
#    y 0.000000 3.489530 0.000000 
#    z 0.167540 0.000000 3.952960 
# 
# 
# High freq. dielectric constant tensor:
#      x y z
#    x 1.845020 0.000000 0.005590 
#    y 0.000000 1.785680 0.000000 
#    z 0.005590 0.000000 1.826150 
# 
# From -- ./inp_files/295182.got.cif
#   From: 2010.06.25/outbox.cif.g09.slc.cpg/sg15_148_cif.got.tgz:295182.got - 2010.06.28 07:06:18.
