data_PCOD8146550
_publ_section_title
;
Structure prediction by ZEFSAII (Michael W. Deem and Ramdas Pophale) SiO2 
 PCOD8146550
Probable space group: C 2/C
;
_chemical_formula_sum "Si O2"
_cell_formula_units_Z 56
_cell_length_a 12.624495
_cell_length_b 13.940159
_cell_length_c 15.250401
_cell_angle_alpha 90.000000
_cell_angle_beta 95.552045
_cell_angle_gamma 90.000000
_cell_volume 2671.288637
_symmetry_space_group_name_H-M "C 2/C"
_symmetry_group_IT_number 15
_symmetry_cell_setting 'monoclinic'
loop_
_space_group_symop_operation_xyz
x,y,z
-x,y,1/2-z
-x,-y,-z
x,-y,1/2+z
1/2+x,1/2+y,z
1/2-x,1/2+y,1/2-z
1/2-x,1/2-y,-z
1/2+x,1/2-y,1/2+z
loop_
_atom_site_type_symbol
_atom_site_label
_atom_site_fract_x
_atom_site_fract_y
_atom_site_fract_z
Si Si1 0.715910 0.388706 0.336477
Si Si2 0.541445 0.891831 0.509394
Si Si3 0.051762 0.309413 0.168131
Si Si4 0.997862 0.120231 0.406620
Si Si5 0.775289 0.058430 0.030327
Si Si6 0.866902 0.938549 0.353750
Si Si7 0.969260 0.208275 0.587566
O O1 0.825882 0.334932 0.330993
O O2 0.728385 0.457712 0.420238
O O3 0.687881 0.447701 0.245643
O O4 0.627168 0.309153 0.352610
O O5 0.523511 0.845527 0.414497
O O6 0.666049 0.886694 0.542472
O O7 0.481033 0.823650 0.575230
O O8 0.500000 0.000000 0.500000
O O9 0.000000 0.355671 0.250000
O O10 0.040404 0.194106 0.170531
O O11 0.125763 0.121157 0.427357
O O12 0.944963 0.152070 0.494639
O O13 0.961972 0.015119 0.373404
O O14 0.782876 0.043308 0.925471
O O15 0.921075 0.833714 0.363679
#
# Coordination Sequence:
#
# PCOD8146550 Si02
#       7
#     8   8   8   8   8   8   8
#     4  12  23  41  71  96 139 180 227 283 341 396
#     4  11  24  44  67  93 139 181 216 278 345 405
#     4  11  26  42  62 100 137 174 230 282 337 414
#     4  10  22  41  69  96 135 170 232 285 332 398
#     4  11  22  42  72  96 131 188 223 271 351 400
#     4  11  22  41  68 106 136 173 231 292 327 403
#     4  10  22  41  67  99 129 171 232 276 334 404
#
# _framework density 20.963664000000001
#
# number of rings (size 3 to 8) (size 9 to 14) (size 15 to 20)
#    0.000    1.143    4.286    2.143    2.000    9.714 
#    0.000    1.429    0.000    0.000    0.000    0.000 
#    0.000    0.000    0.000    0.000    0.000    0.000 
#
# Total GULP energy -347172.331319 kJ/mol
# GULP energy per Si atom -12399.011833 kJ/mol
# Density = 2.091595 g / cm^3
# Si number density = 20.963664 Si / 1000 Ang^3
#
#
#
# Elastic Constant Matrix: (Units=GPa)
#
#
# Indices 1 2 3 4 5 6 
#
# 1 139.9529 48.3131 54.7889 0.0000 -8.9679 0.0000
# 2 48.3131 120.1819 38.4361 0.0000 -4.0639 0.0000
# 3 54.7889 38.4361 104.9789 0.0000 -11.0490 0.0000
# 4 0.0000 0.0000 0.0000 17.8038 0.0000 3.3344
# 5 -8.9679 -4.0639 -11.0490 0.0000 33.4448 0.0000
# 6 0.0000 0.0000 0.0000 3.3344 0.0000 32.5637
#
#
#
# Elastic Compliance Matrix: (Units=1/GPa)
#
#
# Indices 1 2 3 4 5 6 
#
# 1 0.009660 -0.002572 -0.003999 0.000000 0.000956 0.000000
# 2 -0.002572 0.010109 -0.002385 0.000000 -0.000249 0.000000
# 3 -0.003999 -0.002385 0.012788 0.000000 0.002862 0.000000
# 4 0.000000 0.000000 0.000000 0.057266 0.000000 -0.005864
# 5 0.000956 -0.000249 0.002862 0.000000 0.031072 0.000000
# 6 0.000000 0.000000 0.000000 -0.005864 0.000000 0.031309
#
#
# Mechanical properties :
#
#
# Convention : Reuss Voigt Hill
#
# Bulk Modulus (GPa) = 68.28826 72.02111 70.15469
# Shear Modulus (GPa) = 28.57178 31.66751 30.11965
#
# Velocity S-wave (km/s) = 3.69578 3.89085 3.79457
# Velocity P-wave (km/s) = 7.13141 7.39018 7.26195
#
# Compressibility (1/GPa) = 0.01464381
#
# Stress axis : x y z
#
# Youngs Moduli (GPa) = 103.51903 98.92142 78.20137
#
# Poissons Ratio (x) = 0.25442 0.31275
# Poissons Ratio (y) = 0.26625 0.18652
# Poissons Ratio (z) = 0.41400 0.23594
#
# Static dielectric constant tensor:
#      x y z
#    x 3.785320 0.000000 -0.148240 
#    y 0.000000 4.533350 0.000000 
#    z -0.148240 0.000000 4.315980 
# 
# 
# High freq. dielectric constant tensor:
#      x y z
#    x 1.821000 0.000000 -0.000190 
#    y 0.000000 1.812490 0.000000 
#    z -0.000190 0.000000 1.821640 
# 
# From -- ./inp_files/144254.got.cif
#   From: 2010.06.25/outbox.cif.g09.slc.cpg/sg15_73_cif.got.tgz:144254.got - 2010.06.28 07:06:18.
