data_PCOD8146833
_publ_section_title
;
Structure prediction by ZEFSAII (Michael W. Deem and Ramdas Pophale) SiO2 
 PCOD8146833
Probable space group: C 2/C
;
_chemical_formula_sum "Si O2"
_cell_formula_units_Z 52
_cell_length_a 10.185681
_cell_length_b 11.656808
_cell_length_c 23.056104
_cell_angle_alpha 90.000000
_cell_angle_beta 128.482458
_cell_angle_gamma 90.000000
_cell_volume 2142.918919
_symmetry_space_group_name_H-M "C 2/C"
_symmetry_group_IT_number 15
_symmetry_cell_setting 'monoclinic'
loop_
_space_group_symop_operation_xyz
x,y,z
-x,y,1/2-z
-x,-y,-z
x,-y,1/2+z
1/2+x,1/2+y,z
1/2-x,1/2+y,1/2-z
1/2-x,1/2-y,-z
1/2+x,1/2-y,1/2+z
loop_
_atom_site_type_symbol
_atom_site_label
_atom_site_fract_x
_atom_site_fract_y
_atom_site_fract_z
Si Si1 0.552077 0.832049 0.503682
Si Si2 0.641416 0.765553 0.159114
Si Si3 0.124762 0.985899 0.689673
Si Si4 0.500000 0.366887 0.250000
Si Si5 0.173664 0.536758 0.473581
Si Si6 0.529748 0.599897 0.553705
Si Si7 0.022089 0.471538 0.188800
O O1 0.405114 0.804947 0.418130
O O2 0.481607 0.902170 0.538602
O O3 0.615366 0.710575 0.547187
O O4 0.693948 0.909498 0.509717
O O5 0.574562 0.638794 0.153544
O O6 0.842271 0.782608 0.217124
O O7 0.540094 0.837370 0.179414
O O8 0.981953 0.047614 0.689492
O O9 0.293500 0.976088 0.774903
O O10 0.154016 0.064241 0.639910
O O11 0.339870 0.614728 0.526699
O O12 0.124406 0.525733 0.391584
O O13 0.500000 0.500000 0.500000
O O14 0.000000 0.498277 0.250000
#
# Coordination Sequence:
#
# PCOD8146833 Si02
#       7
#     8   8   8   4   8   8   8
#     4  10  22  43  66  93 126 165 223 266 320 384
#     4  10  22  42  65  93 128 169 215 270 321 384
#     4  11  24  42  65  98 129 169 216 266 328 385
#     4  10  24  42  64  92 132 170 216 264 322 388
#     4  10  23  42  68  94 125 174 215 269 323 382
#     4  12  23  40  64  98 129 163 214 270 323 382
#     4  10  23  42  62  96 130 166 216 262 326 390
#
# _framework density 24.265965999999999
#
# number of rings (size 3 to 8) (size 9 to 14) (size 15 to 20)
#    0.000    1.538    1.538    2.308    2.154    4.308 
#    2.769    0.000    0.000    0.000    0.000    0.000 
#    0.000    0.000    0.000    0.000    0.000    0.000 
#
# Total GULP energy -322202.532203 kJ/mol
# GULP energy per Si atom -12392.405085 kJ/mol
# Density = 2.421074 g / cm^3
# Si number density = 24.265966 Si / 1000 Ang^3
#
#
#
# Elastic Constant Matrix: (Units=GPa)
#
#
# Indices 1 2 3 4 5 6 
#
# 1 46.9187 5.2820 5.1830 0.0000 -16.7032 0.0000
# 2 5.2820 105.7430 21.6242 0.0000 -20.8603 0.0000
# 3 5.1830 21.6242 86.6812 0.0000 -15.1006 0.0000
# 4 0.0000 0.0000 0.0000 31.2979 0.0000 -9.7248
# 5 -16.7032 -20.8603 -15.1006 0.0000 47.3740 0.0000
# 6 0.0000 0.0000 0.0000 -9.7248 0.0000 26.7449
#
#
#
# Elastic Compliance Matrix: (Units=1/GPa)
#
#
# Indices 1 2 3 4 5 6 
#
# 1 0.024399 0.000532 -0.000055 0.000000 0.008820 0.000000
# 2 0.000532 0.010671 -0.001951 0.000000 0.004264 0.000000
# 3 -0.000055 -0.001951 0.012572 0.000000 0.003129 0.000000
# 4 0.000000 0.000000 0.000000 0.036021 0.000000 0.013098
# 5 0.008820 0.004264 0.003129 0.000000 0.027093 0.000000
# 6 0.000000 0.000000 0.000000 0.013098 0.000000 0.042153
#
#
# Mechanical properties :
#
#
# Convention : Reuss Voigt Hill
#
# Bulk Modulus (GPa) = 22.37445 33.72462 28.04953
# Shear Modulus (GPa) = 29.28191 34.90027 32.09109
#
# Velocity S-wave (km/s) = 3.47754 3.79653 3.64053
# Velocity P-wave (km/s) = 5.03636 5.75728 5.40884
#
# Compressibility (1/GPa) = 0.04469385
#
# Stress axis : x y z
#
# Youngs Moduli (GPa) = 40.98461 93.71628 79.54463
#
# Poissons Ratio (x) = -0.04989 0.00440
# Poissons Ratio (y) = -0.02182 0.15518
# Poissons Ratio (z) = 0.00227 0.18283
#
# Static dielectric constant tensor:
#      x y z
#    x 5.126250 0.000000 0.077110 
#    y 0.000000 4.546010 0.000000 
#    z 0.077110 0.000000 4.419520 
# 
# 
# High freq. dielectric constant tensor:
#      x y z
#    x 1.961740 0.000000 -0.012960 
#    y 0.000000 1.955970 0.000000 
#    z -0.012960 0.000000 1.965200 
# 
# From -- ./inp_files/237699.got.cif
#   From: 2010.06.25/outbox.cif.g09.slc.cpg/sg15_119_cif.got.tgz:237699.got - 2010.06.28 07:06:18.
