data_PCOD8146870
_publ_section_title
;
Structure prediction by ZEFSAII (Michael W. Deem and Ramdas Pophale) SiO2 
 PCOD8146870
Probable space group: C 2/C
;
_chemical_formula_sum "Si O2"
_cell_formula_units_Z 24
_cell_length_a 4.698211
_cell_length_b 15.192825
_cell_length_c 14.104657
_cell_angle_alpha 90.000000
_cell_angle_beta 92.331432
_cell_angle_gamma 90.000000
_cell_volume 1005.944306
_symmetry_space_group_name_H-M "C 2/C"
_symmetry_group_IT_number 15
_symmetry_cell_setting 'monoclinic'
loop_
_space_group_symop_operation_xyz
x,y,z
-x,y,1/2-z
-x,-y,-z
x,-y,1/2+z
1/2+x,1/2+y,z
1/2-x,1/2+y,1/2-z
1/2-x,1/2-y,-z
1/2+x,1/2-y,1/2+z
loop_
_atom_site_type_symbol
_atom_site_label
_atom_site_fract_x
_atom_site_fract_y
_atom_site_fract_z
Si Si1 0.294732 0.434009 0.103446
Si Si2 0.000000 0.795558 0.250000
Si Si3 0.500000 0.678976 0.250000
Si Si4 0.802766 0.445554 0.605057
O O1 0.312357 0.351731 0.173769
O O2 0.615084 0.466664 0.094626
O O3 0.108523 0.516019 0.144776
O O4 0.164781 0.404068 0.000154
O O5 0.757883 0.736559 0.299367
O O6 0.340390 0.624139 0.328348
#
# Coordination Sequence:
#
# PCOD8146870 Si02
#       4
#     8   4   4   8
#     4  10  22  42  66  89 121 170 219 258 304 375
#     4  12  25  38  61  98 134 164 202 266 331 374
#     4  12  25  38  61  98 134 164 202 266 331 374
#     4  10  22  42  66  89 121 170 219 258 304 375
#
# _framework density 23.858180000000001
#
# number of rings (size 3 to 8) (size 9 to 14) (size 15 to 20)
#    0.000    1.333    0.000    5.000    0.000    5.333 
#    0.000    0.000    0.000    0.000    0.000    0.000 
#    0.000    0.000    0.000    0.000    0.000    0.000 
#
# Total GULP energy -148740.637515 kJ/mol
# GULP energy per Si atom -12395.053126 kJ/mol
# Density = 2.380388 g / cm^3
# Si number density = 23.858180 Si / 1000 Ang^3
#
#
#
# Elastic Constant Matrix: (Units=GPa)
#
#
# Indices 1 2 3 4 5 6 
#
# 1 135.0190 51.2848 47.6938 0.0000 -9.3197 0.0000
# 2 51.2848 113.4151 76.9942 0.0000 -8.4591 0.0000
# 3 47.6938 76.9942 115.5343 0.0000 -16.3374 0.0000
# 4 0.0000 0.0000 0.0000 1.8910 0.0000 -4.0195
# 5 -9.3197 -8.4591 -16.3374 0.0000 32.3124 0.0000
# 6 0.0000 0.0000 0.0000 -4.0195 0.0000 58.9012
#
#
#
# Elastic Compliance Matrix: (Units=1/GPa)
#
#
# Indices 1 2 3 4 5 6 
#
# 1 0.009188 -0.002925 -0.001699 0.000000 0.001026 0.000000
# 2 -0.002925 0.017084 -0.010409 0.000000 -0.001634 0.000000
# 3 -0.001699 -0.010409 0.017058 0.000000 0.005410 0.000000
# 4 0.000000 0.000000 0.000000 0.618564 0.000000 0.042212
# 5 0.001026 -0.001634 0.005410 0.000000 0.033551 0.000000
# 6 0.000000 0.000000 0.000000 0.042212 0.000000 0.019858
#
#
# Mechanical properties :
#
#
# Convention : Reuss Voigt Hill
#
# Bulk Modulus (GPa) = 75.38276 79.54602 77.46439
# Shear Modulus (GPa) = 6.66852 31.15396 18.91124
#
# Velocity S-wave (km/s) = 1.67366 3.61750 2.81846
# Velocity P-wave (km/s) = 5.94976 7.13176 6.56741
#
# Compressibility (1/GPa) = 0.01326563
#
# Stress axis : x y z
#
# Youngs Moduli (GPa) = 108.83471 58.53344 58.62267
#
# Poissons Ratio (x) = 0.17122 0.09958
# Poissons Ratio (y) = 0.31836 0.61019
# Poissons Ratio (z) = 0.18487 0.60926
#
# Static dielectric constant tensor:
#      x y z
#    x 4.849580 0.000000 0.003990 
#    y 0.000000 4.194180 0.000000 
#    z 0.003990 0.000000 4.174620 
# 
# 
# High freq. dielectric constant tensor:
#      x y z
#    x 1.978240 0.000000 -0.005360 
#    y 0.000000 1.928690 0.000000 
#    z -0.005360 0.000000 1.930000 
# 
# From -- ./inp_files/127763.got.cif
#   From: 2010.06.25/outbox.cif.g09.slc.cpg/sg15_64_cif.got.tgz:127763.got - 2010.06.28 07:06:18.
