data_PCOD8146643
_publ_section_title
;
Structure prediction by ZEFSAII (Michael W. Deem and Ramdas Pophale) SiO2 
 PCOD8146643
Probable space group: C 2/C
;
_chemical_formula_sum "Si O2"
_cell_formula_units_Z 52
_cell_length_a 15.685555
_cell_length_b 8.815914
_cell_length_c 18.325881
_cell_angle_alpha 90.000000
_cell_angle_beta 104.759978
_cell_angle_gamma 90.000000
_cell_volume 2450.525822
_symmetry_space_group_name_H-M "C 2/C"
_symmetry_group_IT_number 15
_symmetry_cell_setting 'monoclinic'
loop_
_space_group_symop_operation_xyz
x,y,z
-x,y,1/2-z
-x,-y,-z
x,-y,1/2+z
1/2+x,1/2+y,z
1/2-x,1/2+y,1/2-z
1/2-x,1/2-y,-z
1/2+x,1/2-y,1/2+z
loop_
_atom_site_type_symbol
_atom_site_label
_atom_site_fract_x
_atom_site_fract_y
_atom_site_fract_z
Si Si1 0.243398 0.545617 0.824542
Si Si2 0.155955 0.340403 0.697309
Si Si3 0.062124 0.696765 0.830488
Si Si4 0.620128 0.614718 0.056456
Si Si5 0.455235 0.506377 0.605315
Si Si6 0.000000 0.784445 0.250000
Si Si7 0.057795 0.442588 0.078598
O O1 0.233321 0.437488 0.751951
O O2 0.310833 0.676584 0.818198
O O3 0.150203 0.614727 0.825375
O O4 0.283490 0.445519 0.899218
O O5 0.125251 0.425994 0.617153
O O6 0.077196 0.324599 0.738513
O O7 0.000000 0.745523 0.750000
O O8 0.007940 0.583370 0.869012
O O9 0.088827 0.848480 0.879923
O O10 0.550232 0.523068 0.090196
O O11 0.612980 0.793650 0.069576
O O12 0.608011 0.584101 0.968060
O O13 0.463596 0.615118 0.675997
O O14 0.000000 0.500000 0.000000
#
# Coordination Sequence:
#
# PCOD8146643 Si02
#       7
#     8   8   8   8   8   4   8
#     4  12  26  43  66 102 141 178 227 289 337 403
#     4  12  26  41  68 101 137 177 228 282 342 403
#     4  11  23  44  70  98 141 182 227 276 350 404
#     4  10  23  46  67 100 139 175 225 279 338 407
#     4  10  22  41  72 100 129 180 224 276 340 408
#     4  12  22  42  70 102 130 174 238 270 340 408
#     4  11  24  47  73  98 135 187 226 276 348 409
#
# _framework density 21.219937000000002
#
# number of rings (size 3 to 8) (size 9 to 14) (size 15 to 20)
#    0.000    0.923    3.846    2.769    8.615    0.615 
#    0.000    1.538    0.000    0.000    0.000    0.000 
#    0.000    0.000    0.000    0.000    0.000    0.000 
#
# Total GULP energy -322555.734721 kJ/mol
# GULP energy per Si atom -12405.989797 kJ/mol
# Density = 2.117164 g / cm^3
# Si number density = 21.219937 Si / 1000 Ang^3
#
#
#
# Elastic Constant Matrix: (Units=GPa)
#
#
# Indices 1 2 3 4 5 6 
#
# 1 64.1759 39.8855 34.4348 0.0000 10.5914 0.0000
# 2 39.8855 123.8447 67.5583 0.0000 13.3572 0.0000
# 3 34.4348 67.5583 177.5546 0.0000 16.8185 0.0000
# 4 0.0000 0.0000 0.0000 40.0335 0.0000 13.6463
# 5 10.5914 13.3572 16.8185 0.0000 32.6855 0.0000
# 6 0.0000 0.0000 0.0000 13.6463 0.0000 23.0981
#
#
#
# Elastic Compliance Matrix: (Units=1/GPa)
#
#
# Indices 1 2 3 4 5 6 
#
# 1 0.020315 -0.005289 -0.001586 0.000000 -0.003606 0.000000
# 2 -0.005289 0.011731 -0.003307 0.000000 -0.001378 0.000000
# 3 -0.001586 -0.003307 0.007381 0.000000 -0.001933 0.000000
# 4 0.000000 0.000000 0.000000 0.031278 0.000000 -0.018479
# 5 -0.003606 -0.001378 -0.001933 0.000000 0.033321 0.000000
# 6 0.000000 0.000000 0.000000 -0.018479 0.000000 0.054211
#
#
# Mechanical properties :
#
#
# Convention : Reuss Voigt Hill
#
# Bulk Modulus (GPa) = 52.45737 72.14803 62.30270
# Shear Modulus (GPa) = 27.03362 34.07651 30.55507
#
# Velocity S-wave (km/s) = 3.57315 4.01168 3.79875
# Velocity P-wave (km/s) = 6.46511 7.45198 6.97602
#
# Compressibility (1/GPa) = 0.01906310
#
# Stress axis : x y z
#
# Youngs Moduli (GPa) = 49.22432 85.24674 135.48117
#
# Poissons Ratio (x) = 0.45084 0.21489
# Poissons Ratio (y) = 0.26033 0.44806
# Poissons Ratio (z) = 0.07807 0.28193
#
# Static dielectric constant tensor:
#      x y z
#    x 3.658680 0.000000 0.028280 
#    y 0.000000 4.058130 0.000000 
#    z 0.028280 0.000000 3.918110 
# 
# 
# High freq. dielectric constant tensor:
#      x y z
#    x 1.811920 0.000000 0.003950 
#    y 0.000000 1.852760 0.000000 
#    z 0.003950 0.000000 1.845810 
# 
# From -- ./inp_files/209698.got.cif
#   From: 2010.06.25/outbox.cif.g09.slc.cpg/sg15_105_cif.got.tgz:209698.got - 2010.06.28 07:06:18.
