data_PCOD8146079
_publ_section_title
;
Structure prediction by ZEFSAII (Michael W. Deem and Ramdas Pophale) SiO2 
 PCOD8146079
Probable space group: C 2/C
;
_chemical_formula_sum "Si O2"
_cell_formula_units_Z 36
_cell_length_a 21.719275
_cell_length_b 9.442306
_cell_length_c 14.643328
_cell_angle_alpha 90.000000
_cell_angle_beta 146.276217
_cell_angle_gamma 90.000000
_cell_volume 1667.264867
_symmetry_space_group_name_H-M "C 2/C"
_symmetry_group_IT_number 15
_symmetry_cell_setting 'monoclinic'
loop_
_space_group_symop_operation_xyz
x,y,z
-x,y,1/2-z
-x,-y,-z
x,-y,1/2+z
1/2+x,1/2+y,z
1/2-x,1/2+y,1/2-z
1/2-x,1/2-y,-z
1/2+x,1/2-y,1/2+z
loop_
_atom_site_type_symbol
_atom_site_label
_atom_site_fract_x
_atom_site_fract_y
_atom_site_fract_z
Si Si1 0.722674 0.094841 0.077151
Si Si2 0.256685 0.408410 0.417632
Si Si3 0.605794 0.090788 0.111334
Si Si4 0.000000 0.984314 0.250000
Si Si5 0.074708 0.100370 0.651925
O O1 0.773960 0.252062 0.156970
O O2 0.620060 0.083227 0.019672
O O3 0.805443 0.969032 0.202481
O O4 0.689637 0.075323 0.930418
O O5 0.214289 0.527737 0.295758
O O6 0.390443 0.419588 0.596707
O O7 0.584128 0.248167 0.117959
O O8 0.500000 0.000000 0.000000
O O9 0.025155 0.885899 0.193320
O O10 0.000000 0.000000 0.500000
#
# Coordination Sequence:
#
# PCOD8146079 Si02
#       5
#     8   8   8   4   8
#     4  10  22  41  64  88 123 163 206 253 302 361
#     4  10  23  42  65  92 121 161 208 252 304 363
#     4  12  25  39  63  94 126 163 204 253 305 365
#     4  10  22  40  66  92 124 160 200 256 310 362
#     4  11  23  40  64  91 125 165 203 252 308 363
#
# _framework density 21.592251000000001
#
# number of rings (size 3 to 8) (size 9 to 14) (size 15 to 20)
#    0.000    1.333    0.000    5.333    0.000   11.556 
#    0.000    0.000    0.000    1.333    0.000    0.000 
#    0.000    0.000    0.000    0.000    0.000    0.000 
#
# Total GULP energy -223156.134696 kJ/mol
# GULP energy per Si atom -12397.563039 kJ/mol
# Density = 2.154311 g / cm^3
# Si number density = 21.592251 Si / 1000 Ang^3
#
#
#
# Elastic Constant Matrix: (Units=GPa)
#
#
# Indices 1 2 3 4 5 6 
#
# 1 208.0172 49.7614 33.8559 0.0000 -9.1951 0.0000
# 2 49.7614 133.1949 33.0259 0.0000 9.1123 0.0000
# 3 33.8559 33.0259 72.0726 0.0000 7.0304 0.0000
# 4 0.0000 0.0000 0.0000 33.2790 0.0000 -1.6951
# 5 -9.1951 9.1123 7.0304 0.0000 24.1754 0.0000
# 6 0.0000 0.0000 0.0000 -1.6951 0.0000 28.1402
#
#
#
# Elastic Compliance Matrix: (Units=1/GPa)
#
#
# Indices 1 2 3 4 5 6 
#
# 1 0.005764 -0.001848 -0.002205 0.000000 0.003530 0.000000
# 2 -0.001848 0.009170 -0.003014 0.000000 -0.003283 0.000000
# 3 -0.002205 -0.003014 0.016738 0.000000 -0.004570 0.000000
# 4 0.000000 0.000000 0.000000 0.030141 0.000000 0.001816
# 5 0.003530 -0.003283 -0.004570 0.000000 0.045274 0.000000
# 6 0.000000 0.000000 0.000000 0.001816 0.000000 0.035646
#
#
# Mechanical properties :
#
#
# Convention : Reuss Voigt Hill
#
# Bulk Modulus (GPa) = 57.01952 71.84123 64.43037
# Shear Modulus (GPa) = 30.72893 36.89502 33.81198
#
# Velocity S-wave (km/s) = 3.77655 4.13815 3.96148
# Velocity P-wave (km/s) = 6.74398 7.49509 7.12943
#
# Compressibility (1/GPa) = 0.01753786
#
# Stress axis : x y z
#
# Youngs Moduli (GPa) = 173.47803 109.04947 59.74598
#
# Poissons Ratio (x) = 0.20156 0.13175
# Poissons Ratio (y) = 0.32064 0.18005
# Poissons Ratio (z) = 0.38256 0.32863
#
# Static dielectric constant tensor:
#      x y z
#    x 4.398030 0.000000 -0.255270 
#    y 0.000000 2.653080 0.000000 
#    z -0.255270 0.000000 3.801300 
# 
# 
# High freq. dielectric constant tensor:
#      x y z
#    x 1.876410 0.000000 -0.010890 
#    y 0.000000 1.847700 0.000000 
#    z -0.010890 0.000000 1.831890 
# 
# From -- ./inp_files/102896.got.cif
#   From: 2010.06.25/outbox.cif.g09.slc.cpg/sg15_52_cif.got.tgz:102896.got - 2010.06.28 07:06:18.
