data_PCOD8146988
_publ_section_title
;
Structure prediction by ZEFSAII (Michael W. Deem and Ramdas Pophale) SiO2 
 PCOD8146988
Probable space group: C 2/C
;
_chemical_formula_sum "Si O2"
_cell_formula_units_Z 36
_cell_length_a 10.868833
_cell_length_b 31.299667
_cell_length_c 13.378512
_cell_angle_alpha 90.000000
_cell_angle_beta 159.233463
_cell_angle_gamma 90.000000
_cell_volume 1613.694502
_symmetry_space_group_name_H-M "C 2/C"
_symmetry_group_IT_number 15
_symmetry_cell_setting 'monoclinic'
loop_
_space_group_symop_operation_xyz
x,y,z
-x,y,1/2-z
-x,-y,-z
x,-y,1/2+z
1/2+x,1/2+y,z
1/2-x,1/2+y,1/2-z
1/2-x,1/2-y,-z
1/2+x,1/2-y,1/2+z
loop_
_atom_site_type_symbol
_atom_site_label
_atom_site_fract_x
_atom_site_fract_y
_atom_site_fract_z
Si Si1 0.821088 0.721069 0.282545
Si Si2 0.409944 0.593251 0.466864
Si Si3 0.105711 0.849895 0.939377
Si Si4 0.000000 0.335258 0.750000
Si Si5 0.676347 0.962143 0.072668
O O1 0.648270 0.689544 0.230830
O O2 0.017719 0.759300 0.484629
O O3 0.080923 0.694391 0.407770
O O4 0.555972 0.609184 0.472442
O O5 0.323280 0.634427 0.469287
O O6 0.710771 0.570108 0.755299
O O7 0.086479 0.561539 0.202493
O O8 0.000000 0.866239 0.750000
O O9 0.500000 0.833821 0.250000
O O10 0.000000 0.977972 0.250000
O O11 0.500000 0.000000 0.000000
#
# Coordination Sequence:
#
# PCOD8146988 Si02
#       5
#     8   8   8   4   8
#     4  11  24  39  62  96 132 174 223 279 336 387
#     4  11  24  44  69  95 129 174 220 275 328 396
#     4  11  24  42  65  95 131 179 231 272 330 394
#     4  10  22  42  68  92 128 172 226 278 328 388
#     4  12  25  44  69 102 136 173 214 274 346 406
#
# _framework density 22.309056000000002
#
# number of rings (size 3 to 8) (size 9 to 14) (size 15 to 20)
#    0.000    0.889    2.222    4.000    0.000   12.444 
#    0.000    0.000    0.000    0.000    0.000    0.000 
#    0.000    0.000    0.000    0.000    0.000    0.000 
#
# Total GULP energy -223254.246422 kJ/mol
# GULP energy per Si atom -12403.013690 kJ/mol
# Density = 2.225828 g / cm^3
# Si number density = 22.309056 Si / 1000 Ang^3
#
#
#
# Elastic Constant Matrix: (Units=GPa)
#
#
# Indices 1 2 3 4 5 6 
#
# 1 147.4673 46.3922 27.6401 0.0002 5.3876 -0.0003
# 2 46.3922 91.1955 15.4620 0.0000 4.8466 -0.0003
# 3 27.6401 15.4620 76.9736 -0.0016 -8.5513 -0.0025
# 4 0.0002 0.0000 -0.0016 27.0714 -0.0008 -5.3029
# 5 5.3876 4.8466 -8.5513 -0.0008 33.6685 -0.0009
# 6 -0.0003 -0.0003 -0.0025 -5.3029 -0.0009 17.6994
#
#
#
# Elastic Compliance Matrix: (Units=1/GPa)
#
#
# Indices 1 2 3 4 5 6 
#
# 1 0.008496 -0.003833 -0.002440 0.000000 -0.001427 0.000000
# 2 -0.003833 0.013253 -0.001471 0.000000 -0.001668 0.000000
# 3 -0.002440 -0.001471 0.014643 0.000002 0.004321 0.000003
# 4 0.000000 0.000000 0.000002 0.039242 0.000002 0.011757
# 5 -0.001427 -0.001668 0.004321 0.000002 0.031267 0.000003
# 6 0.000000 0.000000 0.000003 0.011757 0.000003 0.060022
#
#
# Mechanical properties :
#
#
# Convention : Reuss Voigt Hill
#
# Bulk Modulus (GPa) = 47.83422 54.95835 51.39629
# Shear Modulus (GPa) = 26.40192 30.76399 28.58295
#
# Velocity S-wave (km/s) = 3.44388 3.71751 3.58331
# Velocity P-wave (km/s) = 6.10753 6.56620 6.34101
#
# Compressibility (1/GPa) = 0.02090553
#
# Stress axis : x y z
#
# Youngs Moduli (GPa) = 117.69809 75.45288 68.29150
#
# Poissons Ratio (x) = 0.28919 0.16660
# Poissons Ratio (y) = 0.45110 0.10048
# Poissons Ratio (z) = 0.28714 0.11101
#
# Static dielectric constant tensor:
#      x y z
#    x 4.554330 -0.000010 0.203390 
#    y -0.000010 4.068730 0.000000 
#    z 0.203390 0.000000 3.901530 
# 
# 
# High freq. dielectric constant tensor:
#      x y z
#    x 1.899960 0.000000 -0.002000 
#    y 0.000000 1.880350 0.000000 
#    z -0.002000 0.000000 1.872880 
# 
# From -- ./inp_files/9205.got.cif
#   From: 2010.06.25/outbox.cif.g09.slc.cpg/sg15_5_cif.got.tgz:9205.got - 2010.06.28 07:06:18.
