data_PCOD8146431
_publ_section_title
;
Structure prediction by ZEFSAII (Michael W. Deem and Ramdas Pophale) SiO2 
 PCOD8146431
Probable space group: C 2/C
;
_chemical_formula_sum "Si O2"
_cell_formula_units_Z 32
_cell_length_a 11.102640
_cell_length_b 30.485786
_cell_length_c 5.031542
_cell_angle_alpha 90.000000
_cell_angle_beta 114.698360
_cell_angle_gamma 90.000000
_cell_volume 1547.245810
_symmetry_space_group_name_H-M "C 2/C"
_symmetry_group_IT_number 15
_symmetry_cell_setting 'monoclinic'
loop_
_space_group_symop_operation_xyz
x,y,z
-x,y,1/2-z
-x,-y,-z
x,-y,1/2+z
1/2+x,1/2+y,z
1/2-x,1/2+y,1/2-z
1/2-x,1/2-y,-z
1/2+x,1/2-y,1/2+z
loop_
_atom_site_type_symbol
_atom_site_label
_atom_site_fract_x
_atom_site_fract_y
_atom_site_fract_z
Si Si1 0.274577 0.779913 0.777937
Si Si2 0.291153 0.102930 0.914003
Si Si3 0.000000 0.326215 0.750000
Si Si4 0.000000 0.469011 0.750000
Si Si5 0.145504 0.128909 0.267614
O O1 0.250000 0.750000 0.500000
O O2 0.426987 0.796599 0.904672
O O3 0.175051 0.820395 0.733140
O O4 0.250000 0.750000 0.000000
O O5 0.242212 0.103769 0.564950
O O6 0.385727 0.145257 0.009241
O O7 0.370462 0.060296 0.080835
O O8 0.166610 0.105590 0.001851
O O9 0.000000 0.500000 0.500000
O O10 0.000000 0.123684 0.250000
#
# Coordination Sequence:
#
# PCOD8146431 Si02
#       5
#     8   8   4   4   8
#     4  11  24  36  56  83 116 160 208 277 317 348
#     4  10  22  41  65  91 121 166 202 251 316 380
#     4   9  22  40  58  80 120 156 208 254 316 370
#     4  11  22  40  72 106 130 148 196 264 316 376
#     4  11  23  40  62  86 122 170 222 247 305 388
#
# _framework density 20.681910999999999
#
# number of rings (size 3 to 8) (size 9 to 14) (size 15 to 20)
#    0.000    1.500    0.000    5.250    3.500   12.000 
#    0.000    0.000    0.000   15.000    0.000    0.000 
#    0.000    0.000    0.000    0.000    0.000    0.000 
#
# Total GULP energy -198234.966556 kJ/mol
# GULP energy per Si atom -12389.685410 kJ/mol
# Density = 2.063484 g / cm^3
# Si number density = 20.681911 Si / 1000 Ang^3
#
#
#
# Elastic Constant Matrix: (Units=GPa)
#
#
# Indices 1 2 3 4 5 6 
#
# 1 143.9406 51.0149 22.8161 0.0000 -6.4774 0.0000
# 2 51.0149 119.5884 40.3798 0.0000 -11.7222 0.0000
# 3 22.8161 40.3798 105.4149 0.0000 -23.4008 0.0000
# 4 0.0000 0.0000 0.0000 30.5615 0.0000 -14.0917
# 5 -6.4774 -11.7222 -23.4008 0.0000 38.0550 0.0000
# 6 0.0000 0.0000 0.0000 -14.0917 0.0000 23.4003
#
#
#
# Elastic Compliance Matrix: (Units=1/GPa)
#
#
# Indices 1 2 3 4 5 6 
#
# 1 0.008208 -0.003331 -0.000484 0.000000 0.000073 0.000000
# 2 -0.003331 0.010977 -0.003311 0.000000 0.000778 0.000000
# 3 -0.000484 -0.003311 0.012293 0.000000 0.006457 0.000000
# 4 0.000000 0.000000 0.000000 0.045299 0.000000 0.027279
# 5 0.000073 0.000778 0.006457 0.000000 0.030500 0.000000
# 6 0.000000 0.000000 0.000000 0.027279 0.000000 0.059162
#
#
# Mechanical properties :
#
#
# Convention : Reuss Voigt Hill
#
# Bulk Modulus (GPa) = 58.05408 66.37394 62.21401
# Shear Modulus (GPa) = 26.81922 35.38556 31.10239
#
# Velocity S-wave (km/s) = 3.60494 4.14084 3.88215
# Velocity P-wave (km/s) = 6.74229 7.41785 7.08812
#
# Compressibility (1/GPa) = 0.01722532
#
# Stress axis : x y z
#
# Youngs Moduli (GPa) = 121.83516 91.09839 81.34804
#
# Poissons Ratio (x) = 0.30341 0.03941
# Poissons Ratio (y) = 0.40578 0.26936
# Poissons Ratio (z) = 0.05902 0.30165
#
# Static dielectric constant tensor:
#      x y z
#    x 4.203040 0.000000 -0.147570 
#    y 0.000000 -1.049180 0.000000 
#    z -0.147570 0.000000 3.613700 
# 
# 
# High freq. dielectric constant tensor:
#      x y z
#    x 1.825990 0.000000 -0.019060 
#    y 0.000000 1.800100 0.000000 
#    z -0.019060 0.000000 1.808030 
# 
# From -- ./inp_files/4789.got.cif
#   From: 2010.06.25/outbox.cif.g09.slc.cpg/sg15_3_cif.got.tgz:4789.got - 2010.06.28 07:06:18.
