data_PCOD8146134
_publ_section_title
;
Structure prediction by ZEFSAII (Michael W. Deem and Ramdas Pophale) SiO2 
 PCOD8146134
Probable space group: C 2/C
;
_chemical_formula_sum "Si O2"
_cell_formula_units_Z 52
_cell_length_a 16.630022
_cell_length_b 13.579002
_cell_length_c 10.891717
_cell_angle_alpha 90.000000
_cell_angle_beta 111.714304
_cell_angle_gamma 90.000000
_cell_volume 2285.028111
_symmetry_space_group_name_H-M "C 2/C"
_symmetry_group_IT_number 15
_symmetry_cell_setting 'monoclinic'
loop_
_space_group_symop_operation_xyz
x,y,z
-x,y,1/2-z
-x,-y,-z
x,-y,1/2+z
1/2+x,1/2+y,z
1/2-x,1/2+y,1/2-z
1/2-x,1/2-y,-z
1/2+x,1/2-y,1/2+z
loop_
_atom_site_type_symbol
_atom_site_label
_atom_site_fract_x
_atom_site_fract_y
_atom_site_fract_z
Si Si1 0.463908 0.390682 0.605072
Si Si2 0.033589 0.886332 0.395487
Si Si3 0.847709 0.333465 0.814246
Si Si4 0.234581 0.860690 0.528533
Si Si5 0.000000 0.415324 0.750000
Si Si6 0.153546 0.528602 0.953585
Si Si7 0.283583 0.666419 0.931512
O O1 0.500000 0.338107 0.750000
O O2 0.497068 0.334576 0.499484
O O3 0.501238 0.501497 0.624975
O O4 0.360313 0.389894 0.546307
O O5 0.135542 0.885478 0.461380
O O6 0.000000 0.835144 0.250000
O O7 0.771061 0.377448 0.687036
O O8 0.940237 0.342116 0.797334
O O9 0.821023 0.218986 0.828906
O O10 0.857195 0.397166 0.941192
O O11 0.250000 0.750000 0.500000
O O12 0.288952 0.934527 0.472090
O O13 0.940316 0.490132 0.639144
O O14 0.205481 0.586797 0.871923
O O15 0.250000 0.750000 0.000000
#
# Coordination Sequence:
#
# PCOD8146134 Si02
#       7
#     8   8   8   8   4   8   8
#     4  10  22  40  67  95 128 173 224 277 337 412
#     4  10  23  41  65  95 132 174 219 275 348 408
#     4  10  24  42  69  98 139 176 230 285 348 412
#     4  11  25  41  66 101 130 179 225 282 353 416
#     4  10  22  44  70 104 132 188 228 288 352 418
#     4  10  22  45  71  95 137 177 235 284 344 411
#     4  10  22  42  66  97 132 176 221 284 336 401
#
# _framework density 22.756830999999998
#
# number of rings (size 3 to 8) (size 9 to 14) (size 15 to 20)
#    0.000    1.846    1.538    0.462    6.462    6.154 
#    6.923    0.000    0.000    0.000    0.000    0.000 
#    0.000    0.000    0.000    0.000    0.000    0.000 
#
# Total GULP energy -322156.318940 kJ/mol
# GULP energy per Si atom -12390.627652 kJ/mol
# Density = 2.270504 g / cm^3
# Si number density = 22.756831 Si / 1000 Ang^3
#
#
#
# Elastic Constant Matrix: (Units=GPa)
#
#
# Indices 1 2 3 4 5 6 
#
# 1 138.0240 31.7133 75.6691 0.0000 9.3942 0.0000
# 2 31.7133 88.1553 13.0843 0.0000 -11.6944 0.0000
# 3 75.6691 13.0843 136.5148 0.0000 -3.5795 0.0000
# 4 0.0000 0.0000 0.0000 19.4673 0.0000 -7.0441
# 5 9.3942 -11.6944 -3.5795 0.0000 43.7333 0.0000
# 6 0.0000 0.0000 0.0000 -7.0441 0.0000 32.4052
#
#
#
# Elastic Compliance Matrix: (Units=1/GPa)
#
#
# Indices 1 2 3 4 5 6 
#
# 1 0.011882 -0.003881 -0.006322 0.000000 -0.004108 0.000000
# 2 -0.003881 0.013180 0.001005 0.000000 0.004440 0.000000
# 3 -0.006322 0.001005 0.010799 0.000000 0.002511 0.000000
# 4 0.000000 0.000000 0.000000 0.055754 0.000000 0.012119
# 5 -0.004108 0.004440 0.002511 0.000000 0.025141 0.000000
# 6 0.000000 0.000000 0.000000 0.012119 0.000000 0.033494
#
#
# Mechanical properties :
#
#
# Convention : Reuss Voigt Hill
#
# Bulk Modulus (GPa) = 57.26132 67.06972 62.16552
# Shear Modulus (GPa) = 28.65851 35.26966 31.96409
#
# Velocity S-wave (km/s) = 3.55256 3.94108 3.75186
# Velocity P-wave (km/s) = 6.48417 7.08843 6.79302
#
# Compressibility (1/GPa) = 0.01746380
#
# Stress axis : x y z
#
# Youngs Moduli (GPa) = 84.15801 75.87370 92.60098
#
# Poissons Ratio (x) = 0.29448 0.58543
# Poissons Ratio (y) = 0.32663 -0.09302
# Poissons Ratio (z) = 0.53205 -0.07622
#
# Static dielectric constant tensor:
#      x y z
#    x 4.311110 0.000000 -0.191270 
#    y 0.000000 4.301480 0.000000 
#    z -0.191270 0.000000 4.164650 
# 
# 
# High freq. dielectric constant tensor:
#      x y z
#    x 1.908280 0.000000 0.003440 
#    y 0.000000 1.895590 0.000000 
#    z 0.003440 0.000000 1.886320 
# 
# From -- ./inp_files/97130.got.cif
#   From: 2010.06.25/outbox.cif.g09.slc.cpg/sg15_49_cif.got.tgz:97130.got - 2010.06.28 07:06:18.
