data_PCOD8146545
_publ_section_title
;
Structure prediction by ZEFSAII (Michael W. Deem and Ramdas Pophale) SiO2 
 PCOD8146545
Probable space group: C 2/C
;
_chemical_formula_sum "Si O2"
_cell_formula_units_Z 48
_cell_length_a 11.391900
_cell_length_b 9.643683
_cell_length_c 24.502593
_cell_angle_alpha 90.000000
_cell_angle_beta 119.076366
_cell_angle_gamma 90.000000
_cell_volume 2352.605088
_symmetry_space_group_name_H-M "C 2/C"
_symmetry_group_IT_number 15
_symmetry_cell_setting 'monoclinic'
loop_
_space_group_symop_operation_xyz
x,y,z
-x,y,1/2-z
-x,-y,-z
x,-y,1/2+z
1/2+x,1/2+y,z
1/2-x,1/2+y,1/2-z
1/2-x,1/2-y,-z
1/2+x,1/2-y,1/2+z
loop_
_atom_site_type_symbol
_atom_site_label
_atom_site_fract_x
_atom_site_fract_y
_atom_site_fract_z
Si Si1 0.869766 0.772859 0.068491
Si Si2 0.000000 0.075878 0.750000
Si Si3 0.192840 0.697350 0.321644
Si Si4 0.130751 0.949794 0.879980
Si Si5 0.026926 0.696599 0.644988
Si Si6 0.500000 0.044125 0.750000
Si Si7 0.557704 0.954742 0.570639
O O1 0.830770 0.719376 0.119514
O O2 0.002425 0.695736 0.076107
O O3 0.894982 0.938170 0.077851
O O4 0.750000 0.750000 0.000000
O O5 0.127253 0.178317 0.771337
O O6 0.024060 0.979017 0.807496
O O7 0.349129 0.704376 0.343237
O O8 0.131172 0.549826 0.290859
O O9 0.282139 0.956098 0.892150
O O10 0.102669 0.794624 0.894202
O O11 0.004995 0.565521 0.601833
O O12 0.037065 0.644212 0.708859
O O13 0.500000 0.000000 0.500000
#
# Coordination Sequence:
#
# PCOD8146545 Si02
#       7
#     8   4   8   8   8   4   8
#     4  11  21  46  73  96 135 183 226 279 352 405
#     4   9  19  42  60  94 134 174 218 262 344 394
#     4  10  22  41  67  97 137 181 222 276 341 411
#     4  11  25  42  67 104 133 182 226 283 339 409
#     4  12  25  42  67 104 135 174 236 280 342 407
#     4  11  25  40  64 100 140 184 220 282 340 418
#     4  12  24  47  72  96 142 181 226 291 339 403
#
# _framework density 20.402915
#
# number of rings (size 3 to 8) (size 9 to 14) (size 15 to 20)
#    0.000    1.000    6.667    0.500    2.333    3.333 
#    0.000    1.667    0.000    0.000    0.000    0.000 
#    0.000    0.000    0.000    0.000    0.000    0.000 
#
# Total GULP energy -297613.741454 kJ/mol
# GULP energy per Si atom -12400.572561 kJ/mol
# Density = 2.035648 g / cm^3
# Si number density = 20.402915 Si / 1000 Ang^3
#
#
#
# Elastic Constant Matrix: (Units=GPa)
#
#
# Indices 1 2 3 4 5 6 
#
# 1 72.4066 47.0179 36.5582 0.0000 -10.0190 0.0000
# 2 47.0179 116.3199 25.2474 0.0000 -1.7931 0.0000
# 3 36.5582 25.2474 110.4610 0.0000 1.5359 0.0000
# 4 0.0000 0.0000 0.0000 17.5170 0.0000 -1.1391
# 5 -10.0190 -1.7931 1.5359 0.0000 29.1072 0.0000
# 6 0.0000 0.0000 0.0000 -1.1391 0.0000 43.0633
#
#
#
# Elastic Compliance Matrix: (Units=1/GPa)
#
#
# Indices 1 2 3 4 5 6 
#
# 1 0.022991 -0.007891 -0.005913 0.000000 0.007740 0.000000
# 2 -0.007891 0.011767 -0.000050 0.000000 -0.001988 0.000000
# 3 -0.005913 -0.000050 0.011058 0.000000 -0.002622 0.000000
# 4 0.000000 0.000000 0.000000 0.057186 0.000000 0.001513
# 5 0.007740 -0.001988 -0.002622 0.000000 0.037036 0.000000
# 6 0.000000 0.000000 0.000000 0.001513 0.000000 0.023262
#
#
# Mechanical properties :
#
#
# Convention : Reuss Voigt Hill
#
# Bulk Modulus (GPa) = 55.22548 57.42605 56.32577
# Shear Modulus (GPa) = 25.37510 30.62844 28.00177
#
# Velocity S-wave (km/s) = 3.53044 3.87871 3.70866
# Velocity P-wave (km/s) = 6.61399 6.94739 6.78274
#
# Compressibility (1/GPa) = 0.01810758
#
# Stress axis : x y z
#
# Youngs Moduli (GPa) = 43.49468 84.98553 90.43219
#
# Poissons Ratio (x) = 0.67058 0.53476
# Poissons Ratio (y) = 0.34320 0.00455
# Poissons Ratio (z) = 0.25720 0.00428
#
# Static dielectric constant tensor:
#      x y z
#    x 3.637530 0.000000 0.096550 
#    y 0.000000 3.965470 0.000000 
#    z 0.096550 0.000000 3.738390 
# 
# 
# High freq. dielectric constant tensor:
#      x y z
#    x 1.788980 0.000000 0.003540 
#    y 0.000000 1.808470 0.000000 
#    z 0.003540 0.000000 1.802500 
# 
# From -- ./inp_files/267765.got.cif
#   From: 2010.06.25/outbox.cif.g09.slc.cpg/sg15_134_cif.got.tgz:267765.got - 2010.06.28 07:06:18.
