data_PCOD8146586
_publ_section_title
;
Structure prediction by ZEFSAII (Michael W. Deem and Ramdas Pophale) SiO2 
 PCOD8146586
Probable space group: C 2/C
;
_chemical_formula_sum "Si O2"
_cell_formula_units_Z 36
_cell_length_a 20.651931
_cell_length_b 9.069501
_cell_length_c 8.844375
_cell_angle_alpha 90.000000
_cell_angle_beta 72.477835
_cell_angle_gamma 90.000000
_cell_volume 1579.711210
_symmetry_space_group_name_H-M "C 2/C"
_symmetry_group_IT_number 15
_symmetry_cell_setting 'monoclinic'
loop_
_space_group_symop_operation_xyz
x,y,z
-x,y,1/2-z
-x,-y,-z
x,-y,1/2+z
1/2+x,1/2+y,z
1/2-x,1/2+y,1/2-z
1/2-x,1/2-y,-z
1/2+x,1/2-y,1/2+z
loop_
_atom_site_type_symbol
_atom_site_label
_atom_site_fract_x
_atom_site_fract_y
_atom_site_fract_z
Si Si1 0.074934 0.674188 0.972292
Si Si2 0.721446 0.736707 0.352647
Si Si3 0.500000 0.966316 0.250000
Si Si4 0.070658 0.970479 0.138755
Si Si5 0.335994 0.416372 0.153179
O O1 0.155402 0.658980 0.888907
O O2 0.038396 0.636718 0.841599
O O3 0.053661 0.568201 0.124197
O O4 0.055114 0.843110 0.026395
O O5 0.750000 0.750000 0.500000
O O6 0.702317 0.571991 0.320840
O O7 0.778894 0.790148 0.193759
O O8 0.116683 0.896866 0.234354
O O9 0.000000 0.035919 0.250000
O O10 0.114686 0.100014 0.027671
#
# Coordination Sequence:
#
# PCOD8146586 Si02
#       5
#     8   8   4   8   8
#     4  10  22  41  68  99 144 174 235 285 344 409
#     4  11  24  46  69 103 142 179 232 288 348 415
#     4  10  22  42  68 104 130 196 226 280 356 406
#     4  11  23  46  67 102 139 182 232 293 342 421
#     4  11  24  45  74 100 137 188 230 287 353 406
#
# _framework density 22.788975000000001
#
# number of rings (size 3 to 8) (size 9 to 14) (size 15 to 20)
#    0.000    1.333    5.556    0.667    3.111    0.889 
#   16.000    0.000    0.000    0.000    0.000    0.000 
#    0.000    0.000    0.000    0.000    0.000    0.000 
#
# Total GULP energy -223214.626353 kJ/mol
# GULP energy per Si atom -12400.812575 kJ/mol
# Density = 2.273711 g / cm^3
# Si number density = 22.788975 Si / 1000 Ang^3
#
#
#
# Elastic Constant Matrix: (Units=GPa)
#
#
# Indices 1 2 3 4 5 6 
#
# 1 130.8799 38.4866 62.4458 0.0000 -29.8123 0.0000
# 2 38.4866 61.4486 25.3129 0.0000 -15.9584 0.0000
# 3 62.4458 25.3129 118.1658 0.0000 -35.6135 0.0000
# 4 0.0000 0.0000 0.0000 29.1233 0.0000 3.2256
# 5 -29.8123 -15.9584 -35.6135 0.0000 56.9765 0.0000
# 6 0.0000 0.0000 0.0000 3.2256 0.0000 35.2399
#
#
#
# Elastic Compliance Matrix: (Units=1/GPa)
#
#
# Indices 1 2 3 4 5 6 
#
# 1 0.011702 -0.004964 -0.004552 0.000000 0.001887 0.000000
# 2 -0.004964 0.020446 -0.001002 0.000000 0.002503 0.000000
# 3 -0.004552 -0.001002 0.012667 0.000000 0.005255 0.000000
# 4 0.000000 0.000000 0.000000 0.034688 0.000000 -0.003175
# 5 0.001887 0.002503 0.005255 0.000000 0.022524 0.000000
# 6 0.000000 0.000000 0.000000 -0.003175 0.000000 0.028668
#
#
# Mechanical properties :
#
#
# Convention : Reuss Voigt Hill
#
# Bulk Modulus (GPa) = 42.05525 62.55388 52.30457
# Shear Modulus (GPa) = 31.31720 36.55121 33.93421
#
# Velocity S-wave (km/s) = 3.71108 4.00922 3.86302
# Velocity P-wave (km/s) = 6.07100 6.99575 6.54972
#
# Compressibility (1/GPa) = 0.02377824
#
# Stress axis : x y z
#
# Youngs Moduli (GPa) = 85.45529 48.91012 78.94779
#
# Poissons Ratio (x) = 0.24279 0.35936
# Poissons Ratio (y) = 0.42420 0.07912
# Poissons Ratio (z) = 0.38898 0.04902
#
# Static dielectric constant tensor:
#      x y z
#    x 4.959990 0.000000 -0.517120 
#    y 0.000000 3.922150 0.000000 
#    z -0.517120 0.000000 4.548930 
# 
# 
# High freq. dielectric constant tensor:
#      x y z
#    x 1.918910 0.000000 -0.005950 
#    y 0.000000 1.874100 0.000000 
#    z -0.005950 0.000000 1.911990 
# 
# From -- ./inp_files/53880.got.cif
#   From: 2010.06.25/outbox.cif.g09.slc.cpg/sg15_27_cif.got.tgz:53880.got - 2010.06.28 07:06:18.
