data_PCOD8146158
_publ_section_title
;
Structure prediction by ZEFSAII (Michael W. Deem and Ramdas Pophale) SiO2 
 PCOD8146158
Probable space group: C 2/C
;
_chemical_formula_sum "Si O2"
_cell_formula_units_Z 40
_cell_length_a 15.595351
_cell_length_b 8.402668
_cell_length_c 12.182078
_cell_angle_alpha 90.000000
_cell_angle_beta 102.981805
_cell_angle_gamma 90.000000
_cell_volume 1555.569732
_symmetry_space_group_name_H-M "C 2/C"
_symmetry_group_IT_number 15
_symmetry_cell_setting 'monoclinic'
loop_
_space_group_symop_operation_xyz
x,y,z
-x,y,1/2-z
-x,-y,-z
x,-y,1/2+z
1/2+x,1/2+y,z
1/2-x,1/2+y,1/2-z
1/2-x,1/2-y,-z
1/2+x,1/2-y,1/2+z
loop_
_atom_site_type_symbol
_atom_site_label
_atom_site_fract_x
_atom_site_fract_y
_atom_site_fract_z
Si Si1 0.557643 0.347656 0.977438
Si Si2 0.926349 0.327815 0.803479
Si Si3 0.744216 0.503886 0.506330
Si Si4 0.260893 0.228901 0.831354
Si Si5 0.891907 0.655603 0.693070
O O1 0.533721 0.264750 0.851138
O O2 0.500000 0.500000 0.000000
O O3 0.547850 0.209364 0.064275
O O4 0.660996 0.380857 0.987891
O O5 0.834129 0.249659 0.748298
O O6 0.932369 0.516380 0.780578
O O7 0.000000 0.241280 0.750000
O O8 0.714251 0.352709 0.568237
O O9 0.764841 0.448102 0.386841
O O10 0.831868 0.579524 0.580112
O O11 0.330933 0.258669 0.755542
#
# Coordination Sequence:
#
# PCOD8146158 Si02
#       5
#     8   8   8   8   8
#     4  12  26  43  72 108 147 186 246 310 365 433
#     4  11  25  44  66 102 147 190 240 299 374 438
#     4  10  22  40  68 101 139 185 245 293 353 432
#     4  10  22  41  67 101 139 188 238 299 357 426
#     4  11  24  42  72  97 143 194 242 300 359 440
#
# _framework density 25.714051000000001
#
# number of rings (size 3 to 8) (size 9 to 14) (size 15 to 20)
#    0.000    1.200    2.000    3.000    5.600    4.000 
#    0.000    0.000    0.000    0.000    0.000    0.000 
#    0.000    0.000    0.000    0.000    0.000    0.000 
#
# Total GULP energy -247882.296618 kJ/mol
# GULP energy per Si atom -12394.114831 kJ/mol
# Density = 2.565552 g / cm^3
# Si number density = 25.714051 Si / 1000 Ang^3
#
#
#
# Elastic Constant Matrix: (Units=GPa)
#
#
# Indices 1 2 3 4 5 6 
#
# 1 110.5420 23.5324 36.1917 0.0000 -37.4366 0.0000
# 2 23.5324 125.8536 66.8418 0.0000 -21.0752 0.0000
# 3 36.1917 66.8418 156.4792 0.0000 -48.7495 0.0000
# 4 0.0000 0.0000 0.0000 38.1862 0.0000 -7.3876
# 5 -37.4366 -21.0752 -48.7495 0.0000 44.8042 0.0000
# 6 0.0000 0.0000 0.0000 -7.3876 0.0000 31.1456
#
#
#
# Elastic Compliance Matrix: (Units=1/GPa)
#
#
# Indices 1 2 3 4 5 6 
#
# 1 0.012750 -0.001029 0.000997 0.000000 0.011254 0.000000
# 2 -0.001029 0.010361 -0.004443 0.000000 -0.000821 0.000000
# 3 0.000997 -0.004443 0.011598 0.000000 0.011362 0.000000
# 4 0.000000 0.000000 0.000000 0.027447 0.000000 0.006510
# 5 0.011254 -0.000821 0.011362 0.000000 0.043699 0.000000
# 6 0.000000 0.000000 0.000000 0.006510 0.000000 0.033652
#
#
# Mechanical properties :
#
#
# Convention : Reuss Voigt Hill
#
# Bulk Modulus (GPa) = 38.82358 71.77851 55.30104
# Shear Modulus (GPa) = 31.83835 40.58111 36.20973
#
# Velocity S-wave (km/s) = 3.52258 3.97693 3.75663
# Velocity P-wave (km/s) = 5.62812 7.00447 6.35368
#
# Compressibility (1/GPa) = 0.02575754
#
# Stress axis : x y z
#
# Youngs Moduli (GPa) = 78.42857 96.51967 86.22338
#
# Poissons Ratio (x) = 0.09930 -0.08593
# Poissons Ratio (y) = 0.08069 0.38313
# Poissons Ratio (z) = -0.07816 0.42888
#
# Static dielectric constant tensor:
#      x y z
#    x 4.887420 0.000000 -0.276220 
#    y 0.000000 4.926920 0.000000 
#    z -0.276220 0.000000 4.899900 
# 
# 
# High freq. dielectric constant tensor:
#      x y z
#    x 2.035240 0.000000 -0.013710 
#    y 0.000000 2.028030 0.000000 
#    z -0.013710 0.000000 2.046720 
# 
# From -- ./inp_files/102780.got.cif
#   From: 2010.06.25/outbox.cif.g09.slc.cpg/sg15_52_cif.got.tgz:102780.got - 2010.06.28 07:06:18.
