data_PCOD8146917
_publ_section_title
;
Structure prediction by ZEFSAII (Michael W. Deem and Ramdas Pophale) SiO2 
 PCOD8146917
Probable space group: C 2/C
;
_chemical_formula_sum "Si O2"
_cell_formula_units_Z 48
_cell_length_a 19.373562
_cell_length_b 17.003379
_cell_length_c 14.863416
_cell_angle_alpha 90.000000
_cell_angle_beta 26.834797
_cell_angle_gamma 90.000000
_cell_volume 2210.261728
_symmetry_space_group_name_H-M "C 2/C"
_symmetry_group_IT_number 15
_symmetry_cell_setting 'monoclinic'
loop_
_space_group_symop_operation_xyz
x,y,z
-x,y,1/2-z
-x,-y,-z
x,-y,1/2+z
1/2+x,1/2+y,z
1/2-x,1/2+y,1/2-z
1/2-x,1/2-y,-z
1/2+x,1/2-y,1/2+z
loop_
_atom_site_type_symbol
_atom_site_label
_atom_site_fract_x
_atom_site_fract_y
_atom_site_fract_z
Si Si1 0.969320 0.345515 0.537775
Si Si2 0.594050 0.327838 0.395687
Si Si3 0.746763 0.076476 0.648539
Si Si4 0.117824 0.642382 0.047325
Si Si5 0.811372 0.927152 0.696104
Si Si6 0.326241 0.970923 0.457144
O O1 0.002322 0.252543 0.487314
O O2 0.790955 0.359372 0.729389
O O3 0.068473 0.398199 0.353874
O O4 0.016247 0.379943 0.579659
O O5 0.658812 0.349259 0.420201
O O6 0.486427 0.398775 0.485908
O O7 0.730180 0.313251 0.164163
O O8 0.777302 0.052876 0.509815
O O9 0.785543 0.007108 0.672575
O O10 0.169142 0.565030 0.041490
O O11 0.000000 0.691374 0.250000
O O12 0.765732 0.935054 0.852997
O O13 0.500000 0.937909 0.250000
#
# Coordination Sequence:
#
# PCOD8146917 Si02
#       6
#     8   8   8   8   8   8
#     4  11  22  43  67  92 138 187 216 273 348 410
#     4  11  25  42  63 101 140 178 218 283 354 396
#     4  11  23  42  66  97 133 177 231 278 337 403
#     4  10  22  42  66  96 134 172 226 281 340 406
#     4  12  21  41  69  95 131 176 235 280 329 400
#     4  11  21  38  68 100 122 171 236 278 324 396
#
# _framework density 21.716884
#
# number of rings (size 3 to 8) (size 9 to 14) (size 15 to 20)
#    0.000    1.000    5.000    5.000    0.000    1.333 
#    0.000    9.167    0.000    0.000    0.000    0.000 
#    0.000    0.000    0.000    0.000    0.000    0.000 
#
# Total GULP energy -297440.724763 kJ/mol
# GULP energy per Si atom -12393.363532 kJ/mol
# Density = 2.166746 g / cm^3
# Si number density = 21.716884 Si / 1000 Ang^3
#
#
#
# Elastic Constant Matrix: (Units=GPa)
#
#
# Indices 1 2 3 4 5 6 
#
# 1 113.2944 33.6000 42.7834 -0.0046 8.5763 0.0033
# 2 33.6000 82.3971 20.7891 -0.0027 4.1134 0.0025
# 3 42.7834 20.7891 92.5196 -0.0027 -1.4839 0.0027
# 4 -0.0046 -0.0027 -0.0027 28.3878 0.0015 -11.5436
# 5 8.5763 4.1134 -1.4839 0.0015 37.1151 -0.0009
# 6 0.0033 0.0025 0.0027 -11.5436 -0.0009 21.6396
#
#
#
# Elastic Compliance Matrix: (Units=1/GPa)
#
#
# Indices 1 2 3 4 5 6 
#
# 1 0.011846 -0.003511 -0.004730 0.000001 -0.002537 0.000000
# 2 -0.003511 0.013995 -0.001534 0.000000 -0.000801 -0.000001
# 3 -0.004730 -0.001534 0.013369 0.000000 0.001797 -0.000001
# 4 0.000001 0.000000 0.000000 0.044985 -0.000002 0.023997
# 5 -0.002537 -0.000801 0.001797 -0.000002 0.027690 0.000001
# 6 0.000000 -0.000001 -0.000001 0.023997 0.000001 0.059013
#
#
# Mechanical properties :
#
#
# Convention : Reuss Voigt Hill
#
# Bulk Modulus (GPa) = 50.86148 53.61734 52.23941
# Shear Modulus (GPa) = 25.38070 30.16440 27.77255
#
# Velocity S-wave (km/s) = 3.42235 3.73095 3.57998
# Velocity P-wave (km/s) = 6.25202 6.58049 6.41835
#
# Compressibility (1/GPa) = 0.01966124
#
# Stress axis : x y z
#
# Youngs Moduli (GPa) = 84.41789 71.45436 74.79876
#
# Poissons Ratio (x) = 0.25084 0.35378
# Poissons Ratio (y) = 0.29635 0.11475
# Poissons Ratio (z) = 0.39927 0.10962
#
# Static dielectric constant tensor:
#      x y z
#    x 3.963080 0.000000 -0.030670 
#    y 0.000000 3.662080 0.000000 
#    z -0.030670 0.000000 4.075770 
# 
# 
# High freq. dielectric constant tensor:
#      x y z
#    x 1.859930 0.000000 -0.009650 
#    y 0.000000 1.833750 0.000000 
#    z -0.009650 0.000000 1.849300 
# 
# From -- ./inp_files/70646.got.cif
#   From: 2010.06.25/outbox.cif.g09.slc.cpg/sg15_36_cif.got.tgz:70646.got - 2010.06.28 07:06:18.
