data_PCOD8146590
_publ_section_title
;
Structure prediction by ZEFSAII (Michael W. Deem and Ramdas Pophale) SiO2 
 PCOD8146590
Probable space group: C 2/C
;
_chemical_formula_sum "Si O2"
_cell_formula_units_Z 56
_cell_length_a 18.352462
_cell_length_b 8.033562
_cell_length_c 17.742331
_cell_angle_alpha 90.000000
_cell_angle_beta 102.500091
_cell_angle_gamma 90.000000
_cell_volume 2553.844914
_symmetry_space_group_name_H-M "C 2/C"
_symmetry_group_IT_number 15
_symmetry_cell_setting 'monoclinic'
loop_
_space_group_symop_operation_xyz
x,y,z
-x,y,1/2-z
-x,-y,-z
x,-y,1/2+z
1/2+x,1/2+y,z
1/2-x,1/2+y,1/2-z
1/2-x,1/2-y,-z
1/2+x,1/2-y,1/2+z
loop_
_atom_site_type_symbol
_atom_site_label
_atom_site_fract_x
_atom_site_fract_y
_atom_site_fract_z
Si Si1 0.718316 0.182867 0.250773
Si Si2 0.791622 0.651761 0.901860
Si Si3 0.302511 0.135467 0.658692
Si Si4 0.086541 0.398247 0.626076
Si Si5 0.526343 0.856293 0.335912
Si Si6 0.452212 0.653786 0.016839
Si Si7 0.798132 0.006714 0.485249
O O1 0.734336 0.312918 0.321063
O O2 0.782111 0.194246 0.198845
O O3 0.637287 0.215595 0.193224
O O4 0.720636 0.999178 0.284004
O O5 0.865076 0.555134 0.891772
O O6 0.818433 0.823629 0.946031
O O7 0.747264 0.538424 0.949708
O O8 0.386063 0.109188 0.650063
O O9 0.250364 0.119950 0.574821
O O10 0.054396 0.291302 0.550038
O O11 0.016471 0.470334 0.657507
O O12 0.500000 0.779658 0.250000
O O13 0.508848 0.730878 0.400413
O O14 0.500000 0.500000 0.000000
O O15 0.372116 0.589305 0.025344
#
# Coordination Sequence:
#
# PCOD8146590 Si02
#       7
#     8   8   8   8   8   8   8
#     4  11  21  40  69 103 137 175 233 287 354 409
#     4  10  22  41  69 101 137 182 228 296 352 413
#     4  11  23  42  73 102 137 183 232 296 346 421
#     4  12  24  46  70  98 145 187 231 289 360 428
#     4  12  26  47  70 104 145 189 237 289 361 427
#     4  12  28  46  70 101 144 193 236 293 363 428
#     4  10  23  43  67 103 135 173 243 289 341 423
#
# _framework density 21.927720000000001
#
# number of rings (size 3 to 8) (size 9 to 14) (size 15 to 20)
#    0.000    0.857    4.286    2.143    2.000    5.714 
#    2.571    0.000    0.000    0.000    0.000    0.000 
#    0.000    0.000    0.000    0.000    0.000    0.000 
#
# Total GULP energy -347198.415171 kJ/mol
# GULP energy per Si atom -12399.943399 kJ/mol
# Density = 2.187781 g / cm^3
# Si number density = 21.927720 Si / 1000 Ang^3
#
#
#
# Elastic Constant Matrix: (Units=GPa)
#
#
# Indices 1 2 3 4 5 6 
#
# 1 114.9319 36.6322 22.3121 0.0000 -4.2802 0.0000
# 2 36.6322 70.1280 48.4012 0.0000 -3.7376 0.0000
# 3 22.3121 48.4012 158.6141 0.0000 0.1047 0.0000
# 4 0.0000 0.0000 0.0000 37.8259 0.0000 3.4802
# 5 -4.2802 -3.7376 0.1047 0.0000 32.9774 0.0000
# 6 0.0000 0.0000 0.0000 3.4802 0.0000 42.5906
#
#
#
# Elastic Compliance Matrix: (Units=1/GPa)
#
#
# Indices 1 2 3 4 5 6 
#
# 1 0.010464 -0.005588 0.000233 0.000000 0.000724 0.000000
# 2 -0.005588 0.021190 -0.005681 0.000000 0.001694 0.000000
# 3 0.000233 -0.005681 0.008006 0.000000 -0.000639 0.000000
# 4 0.000000 0.000000 0.000000 0.026637 0.000000 -0.002177
# 5 0.000724 0.001694 -0.000639 0.000000 0.030612 0.000000
# 6 0.000000 0.000000 0.000000 -0.002177 0.000000 0.023657
#
#
# Mechanical properties :
#
#
# Convention : Reuss Voigt Hill
#
# Bulk Modulus (GPa) = 56.86068 62.04053 59.45061
# Shear Modulus (GPa) = 33.66994 38.43402 36.05198
#
# Velocity S-wave (km/s) = 3.92279 4.19114 4.05918
# Velocity P-wave (km/s) = 6.81946 7.19552 7.01001
#
# Compressibility (1/GPa) = 0.01758684
#
# Stress axis : x y z
#
# Youngs Moduli (GPa) = 95.56949 47.19235 124.90777
#
# Poissons Ratio (x) = 0.26370 -0.02907
# Poissons Ratio (y) = 0.53403 0.70962
# Poissons Ratio (z) = -0.02224 0.26811
#
# Static dielectric constant tensor:
#      x y z
#    x 4.003760 0.000000 -0.007890 
#    y 0.000000 4.074220 0.000000 
#    z -0.007890 0.000000 4.388850 
# 
# 
# High freq. dielectric constant tensor:
#      x y z
#    x 1.859460 0.000000 -0.006190 
#    y 0.000000 1.857180 0.000000 
#    z -0.006190 0.000000 1.887750 
# 
# From -- ./inp_files/209627.got.cif
#   From: 2010.06.25/outbox.cif.g09.slc.cpg/sg15_105_cif.got.tgz:209627.got - 2010.06.28 07:06:18.
