data_PCOD8146304
_publ_section_title
;
Structure prediction by ZEFSAII (Michael W. Deem and Ramdas Pophale) SiO2 
 PCOD8146304
Probable space group: C 2/C
;
_chemical_formula_sum "Si O2"
_cell_formula_units_Z 40
_cell_length_a 6.556587
_cell_length_b 13.471948
_cell_length_c 22.694441
_cell_angle_alpha 90.000000
_cell_angle_beta 80.003332
_cell_angle_gamma 90.000000
_cell_volume 1974.165816
_symmetry_space_group_name_H-M "C 2/C"
_symmetry_group_IT_number 15
_symmetry_cell_setting 'monoclinic'
loop_
_space_group_symop_operation_xyz
x,y,z
-x,y,1/2-z
-x,-y,-z
x,-y,1/2+z
1/2+x,1/2+y,z
1/2-x,1/2+y,1/2-z
1/2-x,1/2-y,-z
1/2+x,1/2-y,1/2+z
loop_
_atom_site_type_symbol
_atom_site_label
_atom_site_fract_x
_atom_site_fract_y
_atom_site_fract_z
Si Si1 0.582266 0.853630 0.108269
Si Si2 0.374665 0.149698 0.496495
Si Si3 0.650219 0.475507 0.918667
Si Si4 0.769799 0.136733 0.395428
Si Si5 0.994755 0.466903 0.681405
O O1 0.604814 0.738500 0.122263
O O2 0.808850 0.904990 0.084182
O O3 0.474561 0.914684 0.167590
O O4 0.432456 0.874071 0.060552
O O5 0.250000 0.250000 0.500000
O O6 0.225972 0.063370 0.478834
O O7 0.583662 0.159538 0.448587
O O8 0.415481 0.445525 0.918600
O O9 0.795067 0.426100 0.860135
O O10 0.697192 0.094200 0.336233
O O11 0.000000 0.447247 0.750000
#
# Coordination Sequence:
#
# PCOD8146304 Si02
#       5
#     8   8   8   8   8
#     4  10  22  41  61  94 122 165 203 245 323 368
#     4  11  21  38  62  94 134 158 199 257 310 384
#     4   9  22  39  60  91 122 161 204 247 311 369
#     4  11  22  41  63  90 125 165 202 257 313 372
#     4   9  23  46  58  87 125 153 215 265 293 365
#
# _framework density 20.261724000000001
#
# number of rings (size 3 to 8) (size 9 to 14) (size 15 to 20)
#    1.200    0.800    2.000    1.200    0.000    3.200 
#    3.600    0.000    0.000    0.000    0.000    0.000 
#    0.000    0.000    0.000    0.000    0.000    0.000 
#
# Total GULP energy -247828.251344 kJ/mol
# GULP energy per Si atom -12391.412567 kJ/mol
# Density = 2.021561 g / cm^3
# Si number density = 20.261724 Si / 1000 Ang^3
#
#
#
# Elastic Constant Matrix: (Units=GPa)
#
#
# Indices 1 2 3 4 5 6 
#
# 1 103.8042 24.9136 40.4603 0.0000 25.2517 0.0000
# 2 24.9136 72.9291 12.2533 0.0000 18.8841 0.0000
# 3 40.4603 12.2533 95.9078 0.0000 30.1883 0.0000
# 4 0.0000 0.0000 0.0000 21.1142 0.0000 4.3256
# 5 25.2517 18.8841 30.1883 0.0000 25.6347 0.0000
# 6 0.0000 0.0000 0.0000 4.3256 0.0000 37.4911
#
#
#
# Elastic Compliance Matrix: (Units=1/GPa)
#
#
# Indices 1 2 3 4 5 6 
#
# 1 0.013178 -0.001857 -0.002648 0.000000 -0.008494 0.000000
# 2 -0.001857 0.017694 0.003257 0.000000 -0.015040 0.000000
# 3 -0.002648 0.003257 0.017577 0.000000 -0.020490 0.000000
# 4 0.000000 0.000000 0.000000 0.048508 0.000000 -0.005597
# 5 -0.008494 -0.015040 -0.020490 0.000000 0.082586 0.000000
# 6 0.000000 0.000000 0.000000 -0.005597 0.000000 0.027319
#
#
# Mechanical properties :
#
#
# Convention : Reuss Voigt Hill
#
# Bulk Modulus (GPa) = 21.76204 47.54395 34.65300
# Shear Modulus (GPa) = 22.25424 29.84895 26.05159
#
# Velocity S-wave (km/s) = 3.31771 3.84235 3.58963
# Velocity P-wave (km/s) = 5.04382 6.57273 5.85836
#
# Compressibility (1/GPa) = 0.04595157
#
# Stress axis : x y z
#
# Youngs Moduli (GPa) = 75.88507 56.51727 56.89116
#
# Poissons Ratio (x) = 0.10497 0.15067
# Poissons Ratio (y) = 0.14095 -0.18530
# Poissons Ratio (z) = 0.20098 -0.18409
#
# Static dielectric constant tensor:
#      x y z
#    x 3.678530 0.000000 0.136280 
#    y 0.000000 3.639430 0.000000 
#    z 0.136280 0.000000 3.334780 
# 
# 
# High freq. dielectric constant tensor:
#      x y z
#    x 1.793080 0.000000 0.013230 
#    y 0.000000 1.792100 0.000000 
#    z 0.013230 0.000000 1.764210 
# 
# From -- ./inp_files/260107.got.cif
#   From: 2010.06.25/outbox.cif.g09.slc.cpg/sg15_131_cif.got.tgz:260107.got - 2010.06.28 07:06:18.
