data_PCOD8146263
_publ_section_title
;
Structure prediction by ZEFSAII (Michael W. Deem and Ramdas Pophale) SiO2 
 PCOD8146263
Probable space group: C 2/C
;
_chemical_formula_sum "Si O2"
_cell_formula_units_Z 52
_cell_length_a 14.593895
_cell_length_b 18.821340
_cell_length_c 14.333235
_cell_angle_alpha 90.000000
_cell_angle_beta 37.702134
_cell_angle_gamma 90.000000
_cell_volume 2407.701103
_symmetry_space_group_name_H-M "C 2/C"
_symmetry_group_IT_number 15
_symmetry_cell_setting 'monoclinic'
loop_
_space_group_symop_operation_xyz
x,y,z
-x,y,1/2-z
-x,-y,-z
x,-y,1/2+z
1/2+x,1/2+y,z
1/2-x,1/2+y,1/2-z
1/2-x,1/2-y,-z
1/2+x,1/2-y,1/2+z
loop_
_atom_site_type_symbol
_atom_site_label
_atom_site_fract_x
_atom_site_fract_y
_atom_site_fract_z
Si Si1 0.000000 0.999953 0.750000
Si Si2 0.775685 0.835350 0.653193
Si Si3 0.279585 0.082938 0.486053
Si Si4 0.838653 0.354065 0.265170
Si Si5 0.500000 0.260146 0.750000
Si Si6 0.059561 0.306496 0.516932
Si Si7 0.000000 0.470089 0.250000
Si Si8 0.971683 0.122988 0.418085
O O1 0.136468 0.053946 0.656796
O O2 0.031461 0.951661 0.634041
O O3 0.755322 0.895842 0.592353
O O4 0.877111 0.772870 0.528936
O O5 0.865283 0.870150 0.667113
O O6 0.617642 0.805573 0.818452
O O7 0.350681 0.150772 0.477756
O O8 0.393599 0.018203 0.398220
O O9 0.869747 0.287959 0.309419
O O10 0.912778 0.339942 0.106143
O O11 0.661460 0.371166 0.398457
O O12 0.911130 0.424410 0.247225
O O13 0.569042 0.311520 0.616519
#
# Coordination Sequence:
#
# PCOD8146263 Si02
#       8
#     4   8   8   8   4   8   4   8
#     4  11  28  45  73 104 139 192 224 290 349 412
#     4  12  27  46  73 103 139 184 237 290 344 408
#     4  12  27  50  69  98 146 186 237 281 344 419
#     4  11  24  42  73 103 140 179 233 285 348 414
#     4  10  22  40  72  96 146 176 224 282 346 400
#     4  12  27  46  73 104 136 188 234 291 345 405
#     4  11  24  49  69 100 141 188 228 282 351 416
#     4  11  24  44  69 106 142 175 236 284 349 411
#
# _framework density 21.597366000000001
#
# number of rings (size 3 to 8) (size 9 to 14) (size 15 to 20)
#    0.000    0.615    4.615    1.846    6.462    3.692 
#    0.000    0.000    0.000    0.000    0.000    0.000 
#    0.000    0.000    0.000    0.000    0.000    0.000 
#
# Total GULP energy -322470.744642 kJ/mol
# GULP energy per Si atom -12402.720948 kJ/mol
# Density = 2.154821 g / cm^3
# Si number density = 21.597366 Si / 1000 Ang^3
#
#
#
# Elastic Constant Matrix: (Units=GPa)
#
#
# Indices 1 2 3 4 5 6 
#
# 1 91.1628 20.7563 34.2211 -0.0005 -6.1990 -0.0004
# 2 20.7563 76.2683 29.1352 -0.0008 -4.6487 0.0004
# 3 34.2211 29.1352 129.7761 -0.0017 -26.5835 0.0002
# 4 -0.0005 -0.0008 -0.0017 31.4152 0.0004 -2.1857
# 5 -6.1990 -4.6487 -26.5835 0.0004 41.5477 0.0008
# 6 -0.0004 0.0004 0.0002 -2.1857 0.0008 22.3449
#
#
#
# Elastic Compliance Matrix: (Units=1/GPa)
#
#
# Indices 1 2 3 4 5 6 
#
# 1 0.012550 -0.002349 -0.002822 0.000000 -0.000196 0.000000
# 2 -0.002349 0.014791 -0.002801 0.000000 -0.000488 0.000000
# 3 -0.002822 -0.002801 0.010275 0.000000 0.005840 0.000000
# 4 0.000000 0.000000 0.000000 0.032050 0.000000 0.003135
# 5 -0.000196 -0.000488 0.005840 0.000000 0.027721 -0.000001
# 6 0.000000 0.000000 0.000000 0.003135 -0.000001 0.045060
#
#
# Mechanical properties :
#
#
# Convention : Reuss Voigt Hill
#
# Bulk Modulus (GPa) = 46.14428 51.71474 48.92951
# Shear Modulus (GPa) = 30.19025 33.26786 31.72906
#
# Velocity S-wave (km/s) = 3.74286 3.92901 3.83706
# Velocity P-wave (km/s) = 6.33173 6.67680 6.50655
#
# Compressibility (1/GPa) = 0.02167116
#
# Stress axis : x y z
#
# Youngs Moduli (GPa) = 79.67893 67.60730 97.32527
#
# Poissons Ratio (x) = 0.15884 0.27467
# Poissons Ratio (y) = 0.18720 0.27262
# Poissons Ratio (z) = 0.22487 0.18937
#
# Static dielectric constant tensor:
#      x y z
#    x 3.733890 0.000000 -0.036970 
#    y 0.000000 4.039900 0.000000 
#    z -0.036970 0.000000 3.954100 
# 
# 
# High freq. dielectric constant tensor:
#      x y z
#    x 1.848820 0.000000 -0.010710 
#    y 0.000000 1.861540 0.000000 
#    z -0.010710 0.000000 1.854760 
# 
# From -- ./inp_files/155465.got.cif
#   From: 2010.06.25/outbox.cif.g09.slc.cpg/sg15_78_cif.got.tgz:155465.got - 2010.06.28 07:06:18.
