data_PCOD8146913
_publ_section_title
;
Structure prediction by ZEFSAII (Michael W. Deem and Ramdas Pophale) SiO2 
 PCOD8146913
Probable space group: C 2/C
;
_chemical_formula_sum "Si O2"
_cell_formula_units_Z 60
_cell_length_a 20.786708
_cell_length_b 9.236237
_cell_length_c 23.848732
_cell_angle_alpha 90.000000
_cell_angle_beta 36.569545
_cell_angle_gamma 90.000000
_cell_volume 2728.005003
_symmetry_space_group_name_H-M "C 2/C"
_symmetry_group_IT_number 15
_symmetry_cell_setting 'monoclinic'
loop_
_space_group_symop_operation_xyz
x,y,z
-x,y,1/2-z
-x,-y,-z
x,-y,1/2+z
1/2+x,1/2+y,z
1/2-x,1/2+y,1/2-z
1/2-x,1/2-y,-z
1/2+x,1/2-y,1/2+z
loop_
_atom_site_type_symbol
_atom_site_label
_atom_site_fract_x
_atom_site_fract_y
_atom_site_fract_z
Si Si1 0.799235 0.544177 0.406137
Si Si2 0.928975 0.167670 0.915532
Si Si3 0.000000 0.257741 0.750000
Si Si4 0.216413 0.529576 0.355214
Si Si5 0.905616 0.020181 0.139375
Si Si6 0.263899 0.633804 0.653988
Si Si7 0.921810 0.357539 0.130168
Si Si8 0.879125 0.482407 0.969237
O O1 0.699280 0.645254 0.493282
O O2 0.761086 0.416555 0.391647
O O3 0.839303 0.470692 0.435720
O O4 0.894821 0.640923 0.312486
O O5 0.977715 0.152784 0.818648
O O6 0.947468 0.333873 0.920378
O O7 0.983416 0.056525 0.920605
O O8 0.324284 0.484471 0.247301
O O9 0.200413 0.701149 0.366658
O O10 0.113837 0.451513 0.398437
O O11 0.220800 0.473500 0.416590
O O12 0.920393 0.188347 0.117214
O O13 0.862725 0.956894 0.110857
O O14 0.155476 0.603518 0.764227
O O15 0.043503 0.392292 0.061868
#
# Coordination Sequence:
#
# PCOD8146913 Si02
#       8
#     8   8   4   8   8   8   8   8
#     4  11  25  41  69  99 129 175 216 267 321 388
#     4  11  25  41  67 101 127 173 220 264 326 384
#     4  10  22  44  68  94 136 172 214 272 320 396
#     4  10  23  41  67  94 130 172 214 270 328 387
#     4  10  24  42  67  95 129 171 217 273 323 377
#     4  10  22  43  65  95 131 171 220 261 328 384
#     4  10  22  42  66  96 124 175 216 268 328 380
#     4  11  23  42  64  94 131 166 220 261 331 384
#
# _framework density 21.994095999999999
#
# number of rings (size 3 to 8) (size 9 to 14) (size 15 to 20)
#    0.000    1.600    0.000    4.400    7.467    4.267 
#    0.000    0.000    0.000    0.000    0.000    0.000 
#    0.000    0.000    0.000    0.000    0.000    0.000 
#
# Total GULP energy -372057.499686 kJ/mol
# GULP energy per Si atom -12401.916656 kJ/mol
# Density = 2.194404 g / cm^3
# Si number density = 21.994096 Si / 1000 Ang^3
#
#
#
# Elastic Constant Matrix: (Units=GPa)
#
#
# Indices 1 2 3 4 5 6 
#
# 1 133.1023 59.6507 41.4102 0.0000 5.3732 -0.0001
# 2 59.6507 95.4146 21.1187 -0.0001 5.0347 0.0001
# 3 41.4102 21.1187 95.3172 0.0000 5.5658 -0.0002
# 4 0.0000 -0.0001 0.0000 24.6314 -0.0001 1.8224
# 5 5.3732 5.0347 5.5658 -0.0001 42.4114 -0.0003
# 6 -0.0001 0.0001 -0.0002 1.8224 -0.0003 32.7920
#
#
#
# Elastic Compliance Matrix: (Units=1/GPa)
#
#
# Indices 1 2 3 4 5 6 
#
# 1 0.011492 -0.006383 -0.003565 0.000000 -0.000230 0.000000
# 2 -0.006383 0.014609 -0.000413 0.000000 -0.000871 0.000000
# 3 -0.003565 -0.000413 0.012196 0.000000 -0.001100 0.000000
# 4 0.000000 0.000000 0.000000 0.040766 0.000000 -0.002266
# 5 -0.000230 -0.000871 -0.001100 0.000000 0.023856 0.000000
# 6 0.000000 0.000000 0.000000 -0.002266 0.000000 0.030621
#
#
# Mechanical properties :
#
#
# Convention : Reuss Voigt Hill
#
# Bulk Modulus (GPa) = 56.90033 63.13258 60.01646
# Shear Modulus (GPa) = 31.22668 33.41061 32.31865
#
# Velocity S-wave (km/s) = 3.77208 3.90176 3.83746
# Velocity P-wave (km/s) = 6.70062 7.00463 6.85431
#
# Compressibility (1/GPa) = 0.01757459
#
# Stress axis : x y z
#
# Youngs Moduli (GPa) = 87.01554 68.45280 81.99601
#
# Poissons Ratio (x) = 0.43696 0.29231
# Poissons Ratio (y) = 0.55546 0.03383
# Poissons Ratio (z) = 0.31021 0.02824
#
# Static dielectric constant tensor:
#      x y z
#    x 3.884180 0.000000 0.129290 
#    y 0.000000 3.692970 0.000000 
#    z 0.129290 0.000000 4.224930 
# 
# 
# High freq. dielectric constant tensor:
#      x y z
#    x 1.861060 0.000000 0.005750 
#    y 0.000000 1.856130 0.000000 
#    z 0.005750 0.000000 1.885540 
# 
# From -- ./inp_files/279680.got.cif
#   From: 2010.06.25/outbox.cif.g09.slc.cpg/sg15_140_cif.got.tgz:279680.got - 2010.06.28 07:06:18.
