data_PCOD8146943
_publ_section_title
;
Structure prediction by ZEFSAII (Michael W. Deem and Ramdas Pophale) SiO2 
 PCOD8146943
Probable space group: C 2/C
;
_chemical_formula_sum "Si O2"
_cell_formula_units_Z 40
_cell_length_a 31.046460
_cell_length_b 10.519931
_cell_length_c 12.928134
_cell_angle_alpha 90.000000
_cell_angle_beta 153.491383
_cell_angle_gamma 90.000000
_cell_volume 1884.600231
_symmetry_space_group_name_H-M "C 2/C"
_symmetry_group_IT_number 15
_symmetry_cell_setting 'monoclinic'
loop_
_space_group_symop_operation_xyz
x,y,z
-x,y,1/2-z
-x,-y,-z
x,-y,1/2+z
1/2+x,1/2+y,z
1/2-x,1/2+y,1/2-z
1/2-x,1/2-y,-z
1/2+x,1/2-y,1/2+z
loop_
_atom_site_type_symbol
_atom_site_label
_atom_site_fract_x
_atom_site_fract_y
_atom_site_fract_z
Si Si1 0.767188 0.114531 0.904755
Si Si2 0.906469 0.419406 0.620776
Si Si3 0.660020 0.130271 0.869302
Si Si4 0.518917 0.440425 0.677622
Si Si5 0.504103 0.294475 0.068223
O O1 0.691139 0.078537 0.653857
O O2 0.733763 0.064976 0.946793
O O3 0.784638 0.267069 0.940730
O O4 0.867099 0.043774 0.096901
O O5 0.899213 0.532131 0.688575
O O6 0.912208 0.285849 0.695370
O O7 0.000000 0.441066 0.750000
O O8 0.587738 0.203010 0.635914
O O9 0.500000 0.383660 0.750000
O O10 0.468125 0.343530 0.487601
O O11 0.474758 0.581826 0.572577
#
# Coordination Sequence:
#
# PCOD8146943 Si02
#       5
#     8   8   8   8   8
#     4  10  24  42  65  94 126 177 207 273 318 387
#     4  12  24  40  70  97 133 172 215 263 329 385
#     4  10  23  44  63  94 133 164 221 263 325 381
#     4  10  23  43  69  94 129 172 223 264 320 387
#     4  10  22  42  67  92 128 175 211 267 325 382
#
# _framework density 21.224661999999999
#
# number of rings (size 3 to 8) (size 9 to 14) (size 15 to 20)
#    0.000    1.600    2.000    1.200    2.800    8.000 
#    0.000    2.000    0.000    0.000    0.000    0.000 
#    0.000    0.000    0.000    0.000    0.000    0.000 
#
# Total GULP energy -247951.997240 kJ/mol
# GULP energy per Si atom -12397.599862 kJ/mol
# Density = 2.117635 g / cm^3
# Si number density = 21.224662 Si / 1000 Ang^3
#
#
#
# Elastic Constant Matrix: (Units=GPa)
#
#
# Indices 1 2 3 4 5 6 
#
# 1 147.8932 51.7676 31.0933 0.0000 0.4859 0.0000
# 2 51.7676 84.4023 20.7208 0.0000 4.2534 0.0000
# 3 31.0933 20.7208 91.6400 0.0000 -3.3593 0.0000
# 4 0.0000 0.0000 0.0000 37.3684 0.0000 -6.9948
# 5 0.4859 4.2534 -3.3593 0.0000 24.4245 0.0000
# 6 0.0000 0.0000 0.0000 -6.9948 0.0000 24.6923
#
#
#
# Elastic Compliance Matrix: (Units=1/GPa)
#
#
# Indices 1 2 3 4 5 6 
#
# 1 0.008914 -0.005030 -0.001871 0.000000 0.000441 0.000000
# 2 -0.005030 0.015548 -0.001914 0.000000 -0.002871 0.000000
# 3 -0.001871 -0.001914 0.012054 0.000000 0.002028 0.000000
# 4 0.000000 0.000000 0.000000 0.028259 0.000000 0.008005
# 5 0.000441 -0.002871 0.002028 0.000000 0.041713 0.000000
# 6 0.000000 0.000000 0.000000 0.008005 0.000000 0.042766
#
#
# Mechanical properties :
#
#
# Convention : Reuss Voigt Hill
#
# Bulk Modulus (GPa) = 52.95024 59.01102 55.98063
# Shear Modulus (GPa) = 28.87157 31.98728 30.42943
#
# Velocity S-wave (km/s) = 3.69220 3.88633 3.79051
# Velocity P-wave (km/s) = 6.57101 6.92831 6.75202
#
# Compressibility (1/GPa) = 0.01888565
#
# Stress axis : x y z
#
# Youngs Moduli (GPa) = 112.17817 64.31702 82.95847
#
# Poissons Ratio (x) = 0.32355 0.15522
# Poissons Ratio (y) = 0.56431 0.15878
# Poissons Ratio (z) = 0.20989 0.12310
#
# Static dielectric constant tensor:
#      x y z
#    x 3.787650 0.000000 -0.154330 
#    y 0.000000 3.780600 0.000000 
#    z -0.154330 0.000000 3.920550 
# 
# 
# High freq. dielectric constant tensor:
#      x y z
#    x 1.830850 0.000000 -0.015410 
#    y 0.000000 1.820920 0.000000 
#    z -0.015410 0.000000 1.836730 
# 
# From -- ./inp_files/122363.got.cif
#   From: 2010.06.25/outbox.cif.g09.slc.cpg/sg15_62_cif.got.tgz:122363.got - 2010.06.28 07:06:18.
