data_PCOD8146469
_publ_section_title
;
Structure prediction by ZEFSAII (Michael W. Deem and Ramdas Pophale) SiO2 
 PCOD8146469
Probable space group: C 2/C
;
_chemical_formula_sum "Si O2"
_cell_formula_units_Z 56
_cell_length_a 25.870995
_cell_length_b 10.724435
_cell_length_c 27.897931
_cell_angle_alpha 90.000000
_cell_angle_beta 20.851495
_cell_angle_gamma 90.000000
_cell_volume 2755.147704
_symmetry_space_group_name_H-M "C 2/C"
_symmetry_group_IT_number 15
_symmetry_cell_setting 'monoclinic'
loop_
_space_group_symop_operation_xyz
x,y,z
-x,y,1/2-z
-x,-y,-z
x,-y,1/2+z
1/2+x,1/2+y,z
1/2-x,1/2+y,1/2-z
1/2-x,1/2-y,-z
1/2+x,1/2-y,1/2+z
loop_
_atom_site_type_symbol
_atom_site_label
_atom_site_fract_x
_atom_site_fract_y
_atom_site_fract_z
Si Si1 0.153829 0.473943 0.982778
Si Si2 0.267075 0.630930 0.709379
Si Si3 0.661143 0.357304 0.244817
Si Si4 0.892419 0.011720 0.458119
Si Si5 0.025683 0.767152 0.547821
Si Si6 0.657625 0.632328 0.096619
Si Si7 0.655449 0.933565 0.735864
O O1 0.217675 0.576705 0.892003
O O2 0.268566 0.441468 0.924158
O O3 0.119101 0.351176 0.982659
O O4 0.010930 0.532227 0.130772
O O5 0.317599 0.601126 0.718922
O O6 0.141013 0.734426 0.817769
O O7 0.406755 0.678978 0.559392
O O8 0.208890 0.502083 0.737689
O O9 0.499941 0.394655 0.368269
O O10 0.680320 0.211065 0.222210
O O11 0.856328 0.034433 0.434220
O O12 0.971091 0.132819 0.412151
O O13 0.742897 0.982802 0.614400
O O14 0.500000 0.680654 0.250000
O O15 0.750000 0.750000 0.000000
#
# Coordination Sequence:
#
# PCOD8146469 Si02
#       7
#     8   8   8   8   8   8   8
#     4  11  24  44  69  99 137 168 228 282 336 400
#     4  10  25  38  66  94 135 177 230 266 340 391
#     4  12  25  43  65  95 142 182 220 274 325 414
#     4  11  24  44  69  99 137 168 228 282 336 400
#     4  10  22  41  66 100 128 169 220 284 336 392
#     4  12  26  44  75 105 132 174 219 286 348 388
#     4  10  26  43  63  99 135 185 220 276 329 407
#
# _framework density 20.325589999999998
#
# number of rings (size 3 to 8) (size 9 to 14) (size 15 to 20)
#    0.000    1.143    2.857    1.714   10.000    2.286 
#    0.000    4.286    0.000    0.000    0.000    0.000 
#    0.000    0.000    0.000    0.000    0.000    0.000 
#
# Total GULP energy -347420.192435 kJ/mol
# GULP energy per Si atom -12407.864016 kJ/mol
# Density = 2.027933 g / cm^3
# Si number density = 20.325590 Si / 1000 Ang^3
#
#
#
# Elastic Constant Matrix: (Units=GPa)
#
#
# Indices 1 2 3 4 5 6 
#
# 1 93.3621 13.6619 2.6694 0.0099 9.3020 0.0015
# 2 13.6619 98.3933 2.7069 0.0422 8.8588 0.0083
# 3 2.6694 2.7069 68.7532 0.0679 14.5416 -0.0061
# 4 0.0099 0.0422 0.0679 37.4821 -0.0020 2.8285
# 5 9.3020 8.8588 14.5416 -0.0020 25.0100 0.0003
# 6 0.0015 0.0083 -0.0061 2.8285 0.0003 15.9697
#
#
#
# Elastic Compliance Matrix: (Units=1/GPa)
#
#
# Indices 1 2 3 4 5 6 
#
# 1 0.011277 -0.001215 0.000463 -0.000003 -0.004033 0.000000
# 2 -0.001215 0.010640 0.000376 -0.000012 -0.003535 -0.000003
# 3 0.000463 0.000376 0.016621 -0.000032 -0.009969 0.000012
# 4 -0.000003 -0.000012 -0.000032 0.027041 0.000026 -0.004789
# 5 -0.004033 -0.003535 -0.009969 0.000026 0.048533 -0.000007
# 6 0.000000 -0.000003 0.000012 -0.004789 -0.000007 0.063467
#
#
# Mechanical properties :
#
#
# Convention : Reuss Voigt Hill
#
# Bulk Modulus (GPa) = 26.46543 33.17614 29.82079
# Shear Modulus (GPa) = 26.18809 31.79039 28.98924
#
# Velocity S-wave (km/s) = 3.59336 3.95911 3.78066
# Velocity P-wave (km/s) = 5.50140 6.10386 5.81044
#
# Compressibility (1/GPa) = 0.03778514
#
# Stress axis : x y z
#
# Youngs Moduli (GPa) = 88.67261 93.98474 60.16650
#
# Poissons Ratio (x) = 0.11424 -0.02786
# Poissons Ratio (y) = 0.10778 -0.02262
# Poissons Ratio (z) = -0.04106 -0.03534
#
# Static dielectric constant tensor:
#      x y z
#    x 3.678310 0.000000 0.015140 
#    y 0.000000 3.691460 0.000040 
#    z 0.015140 0.000040 3.883900 
# 
# 
# High freq. dielectric constant tensor:
#      x y z
#    x 1.791480 0.000000 0.003080 
#    y 0.000000 1.798010 0.000000 
#    z 0.003080 0.000000 1.815160 
# 
# From -- ./inp_files/319518.got.cif
#   From: 2010.06.25/outbox.cif.g09.slc.cpg/sg15_160_cif.got.tgz:319518.got - 2010.06.28 07:06:18.
