data_PCOD8146692
_publ_section_title
;
Structure prediction by ZEFSAII (Michael W. Deem and Ramdas Pophale) SiO2 
 PCOD8146692
Probable space group: C 2/C
;
_chemical_formula_sum "Si O2"
_cell_formula_units_Z 52
_cell_length_a 14.898340
_cell_length_b 14.827023
_cell_length_c 12.110387
_cell_angle_alpha 90.000000
_cell_angle_beta 69.940780
_cell_angle_gamma 90.000000
_cell_volume 2512.881673
_symmetry_space_group_name_H-M "C 2/C"
_symmetry_group_IT_number 15
_symmetry_cell_setting 'monoclinic'
loop_
_space_group_symop_operation_xyz
x,y,z
-x,y,1/2-z
-x,-y,-z
x,-y,1/2+z
1/2+x,1/2+y,z
1/2-x,1/2+y,1/2-z
1/2-x,1/2-y,-z
1/2+x,1/2-y,1/2+z
loop_
_atom_site_type_symbol
_atom_site_label
_atom_site_fract_x
_atom_site_fract_y
_atom_site_fract_z
Si Si1 0.373052 0.279429 0.687928
Si Si2 0.515784 0.604487 0.978834
Si Si3 0.855224 0.785429 0.946009
Si Si4 0.005926 0.370657 0.076634
Si Si5 0.694333 0.204708 0.123593
Si Si6 0.000000 0.188815 0.750000
Si Si7 0.063948 0.442411 0.624879
O O1 0.434023 0.341134 0.579563
O O2 0.383336 0.311876 0.809339
O O3 0.410567 0.174972 0.670210
O O4 0.261716 0.287938 0.702234
O O5 0.619824 0.628425 0.987984
O O6 0.500000 0.500000 0.000000
O O7 0.515384 0.626093 0.849672
O O8 0.917579 0.706418 0.971685
O O9 0.750000 0.750000 0.000000
O O10 0.056564 0.448704 0.128427
O O11 0.979683 0.406917 0.969032
O O12 0.593974 0.252159 0.189337
O O13 0.670073 0.099811 0.100552
O O14 0.750000 0.250000 0.000000
O O15 0.000000 0.403789 0.750000
#
# Coordination Sequence:
#
# PCOD8146692 Si02
#       7
#     8   8   8   8   8   4   8
#     4  11  23  43  70  92 138 179 226 277 345 411
#     4  11  25  43  68  99 133 182 231 287 340 409
#     4  11  24  43  66  93 134 179 228 274 344 412
#     4  10  22  42  61  96 129 175 216 279 340 390
#     4  12  22  42  67 104 132 180 224 275 347 406
#     4  12  24  44  72  94 144 176 226 282 350 416
#     4  11  22  37  68  94 133 166 222 277 329 402
#
# _framework density 20.693373999999999
#
# number of rings (size 3 to 8) (size 9 to 14) (size 15 to 20)
#    0.000    0.923    3.846    4.615    4.308    1.231 
#    0.000    1.538    0.000    0.000    0.000    0.000 
#    0.000    0.000    0.000    0.000    0.000    0.000 
#
# Total GULP energy -322240.893303 kJ/mol
# GULP energy per Si atom -12393.880512 kJ/mol
# Density = 2.064627 g / cm^3
# Si number density = 20.693374 Si / 1000 Ang^3
#
#
#
# Elastic Constant Matrix: (Units=GPa)
#
#
# Indices 1 2 3 4 5 6 
#
# 1 141.9498 70.7203 29.5467 0.0000 -2.2388 0.0000
# 2 70.7203 147.2584 43.7762 0.0000 6.8674 0.0000
# 3 29.5467 43.7762 120.0132 0.0000 7.3450 0.0000
# 4 0.0000 0.0000 0.0000 60.0323 0.0000 12.1937
# 5 -2.2388 6.8674 7.3450 0.0000 37.4686 0.0000
# 6 0.0000 0.0000 0.0000 12.1937 0.0000 41.8245
#
#
#
# Elastic Compliance Matrix: (Units=1/GPa)
#
#
# Indices 1 2 3 4 5 6 
#
# 1 0.009403 -0.004342 -0.000824 0.000000 0.001519 0.000000
# 2 -0.004342 0.009649 -0.002355 0.000000 -0.001566 0.000000
# 3 -0.000824 -0.002355 0.009485 0.000000 -0.001477 0.000000
# 4 0.000000 0.000000 0.000000 0.017706 0.000000 -0.005162
# 5 0.001519 -0.001566 -0.001477 0.000000 0.027356 0.000000
# 6 0.000000 0.000000 0.000000 -0.005162 0.000000 0.025414
#
#
# Mechanical properties :
#
#
# Convention : Reuss Voigt Hill
#
# Bulk Modulus (GPa) = 74.09997 77.47862 75.78930
# Shear Modulus (GPa) = 42.17480 45.54362 43.85921
#
# Velocity S-wave (km/s) = 4.51941 4.69644 4.60878
# Velocity P-wave (km/s) = 7.94479 8.18116 8.06384
#
# Compressibility (1/GPa) = 0.01349528
#
# Stress axis : x y z
#
# Youngs Moduli (GPa) = 106.34486 103.63827 105.43301
#
# Poissons Ratio (x) = 0.44997 0.08691
# Poissons Ratio (y) = 0.46172 0.24827
# Poissons Ratio (z) = 0.08767 0.24405
#
# Static dielectric constant tensor:
#      x y z
#    x 4.234310 0.000000 0.242710 
#    y 0.000000 3.922350 0.000000 
#    z 0.242710 0.000000 3.990330 
# 
# 
# High freq. dielectric constant tensor:
#      x y z
#    x 1.814900 0.000000 0.015490 
#    y 0.000000 1.803850 0.000000 
#    z 0.015490 0.000000 1.822130 
# 
# From -- ./inp_files/96934.got.cif
#   From: 2010.06.25/outbox.cif.g09.slc.cpg/sg15_49_cif.got.tgz:96934.got - 2010.06.28 07:06:18.
