data_PCOD8146718
_publ_section_title
;
Structure prediction by ZEFSAII (Michael W. Deem and Ramdas Pophale) SiO2 
 PCOD8146718
Probable space group: C 2/C
;
_chemical_formula_sum "Si O2"
_cell_formula_units_Z 60
_cell_length_a 11.179659
_cell_length_b 8.827212
_cell_length_c 28.050240
_cell_angle_alpha 90.000000
_cell_angle_beta 97.773890
_cell_angle_gamma 90.000000
_cell_volume 2742.703712
_symmetry_space_group_name_H-M "C 2/C"
_symmetry_group_IT_number 15
_symmetry_cell_setting 'monoclinic'
loop_
_space_group_symop_operation_xyz
x,y,z
-x,y,1/2-z
-x,-y,-z
x,-y,1/2+z
1/2+x,1/2+y,z
1/2-x,1/2+y,1/2-z
1/2-x,1/2-y,-z
1/2+x,1/2-y,1/2+z
loop_
_atom_site_type_symbol
_atom_site_label
_atom_site_fract_x
_atom_site_fract_y
_atom_site_fract_z
Si Si1 0.291691 0.593674 0.219937
Si Si2 0.937371 0.835848 0.999175
Si Si3 0.834012 0.181438 0.859615
Si Si4 0.101481 0.157356 0.838269
Si Si5 0.847519 0.479379 0.696576
Si Si6 0.167395 0.683038 0.036991
Si Si7 0.000000 0.298792 0.250000
Si Si8 0.261529 0.847316 0.434880
O O1 0.210623 0.686338 0.178050
O O2 0.380332 0.475955 0.198481
O O3 0.205684 0.510402 0.252657
O O4 0.381650 0.699485 0.255811
O O5 0.857370 0.790294 0.948414
O O6 0.857218 0.820513 0.041213
O O7 0.033811 0.704051 0.010329
O O8 0.000000 0.000000 0.000000
O O9 0.811341 0.226582 0.912889
O O10 0.974184 0.139155 0.858606
O O11 0.753329 0.031354 0.846785
O O12 0.100367 0.315705 0.811079
O O13 0.218805 0.151906 0.878359
O O14 0.961451 0.595804 0.702612
O O15 0.182876 0.506285 0.046391
O O16 0.250000 0.750000 0.000000
#
# Coordination Sequence:
#
# PCOD8146718 Si02
#       8
#     8   8   8   8   8   8   4   8
#     4  11  23  44  67  97 134 176 224 277 346 407
#     4  11  24  45  71  96 136 176 230 282 343 415
#     4  11  25  43  67  99 139 176 230 282 344 414
#     4  12  24  42  70  98 137 176 227 280 343 409
#     4  11  25  42  67  99 132 176 224 280 339 410
#     4  12  24  46  70 100 140 185 228 292 351 409
#     4  10  22  42  62  94 130 170 216 268 330 404
#     4  11  25  43  68 102 133 183 227 283 351 412
#
# _framework density 21.876223
#
# number of rings (size 3 to 8) (size 9 to 14) (size 15 to 20)
#    0.000    0.800    4.000    3.600    1.867    1.600 
#    2.400    1.333    0.000    0.000    0.000    0.000 
#    0.000    0.000    0.000    0.000    0.000    0.000 
#
# Total GULP energy -371947.354662 kJ/mol
# GULP energy per Si atom -12398.245155 kJ/mol
# Density = 2.182643 g / cm^3
# Si number density = 21.876223 Si / 1000 Ang^3
#
#
#
# Elastic Constant Matrix: (Units=GPa)
#
#
# Indices 1 2 3 4 5 6 
#
# 1 125.9861 53.9068 47.0809 0.0000 16.5080 0.0000
# 2 53.9068 117.3990 26.2921 0.0000 7.6086 0.0000
# 3 47.0809 26.2921 102.3278 0.0000 1.5531 0.0000
# 4 0.0000 0.0000 0.0000 31.8372 0.0000 9.7717
# 5 16.5080 7.6086 1.5531 0.0000 32.8769 0.0000
# 6 0.0000 0.0000 0.0000 9.7717 0.0000 38.3143
#
#
#
# Elastic Compliance Matrix: (Units=1/GPa)
#
#
# Indices 1 2 3 4 5 6 
#
# 1 0.012012 -0.004223 -0.004368 0.000000 -0.004848 0.000000
# 2 -0.004223 0.010654 -0.000790 0.000000 -0.000308 0.000000
# 3 -0.004368 -0.000790 0.011958 0.000000 0.001811 0.000000
# 4 0.000000 0.000000 0.000000 0.034077 0.000000 -0.008691
# 5 -0.004848 -0.000308 0.001811 0.000000 0.032836 0.000000
# 6 0.000000 0.000000 0.000000 -0.008691 0.000000 0.028317
#
#
# Mechanical properties :
#
#
# Convention : Reuss Voigt Hill
#
# Bulk Modulus (GPa) = 63.04451 66.69694 64.87073
# Shear Modulus (GPa) = 32.48812 35.16790 33.82801
#
# Velocity S-wave (km/s) = 3.85786 4.01382 3.93661
# Velocity P-wave (km/s) = 6.98036 7.21356 7.09792
#
# Compressibility (1/GPa) = 0.01586181
#
# Stress axis : x y z
#
# Youngs Moduli (GPa) = 83.25093 93.86200 83.62864
#
# Poissons Ratio (x) = 0.39639 0.36529
# Poissons Ratio (y) = 0.35158 0.06604
# Poissons Ratio (z) = 0.36364 0.07412
#
# Static dielectric constant tensor:
#      x y z
#    x 4.150050 0.000000 0.209010 
#    y 0.000000 4.056640 0.000000 
#    z 0.209010 0.000000 3.824160 
# 
# 
# High freq. dielectric constant tensor:
#      x y z
#    x 1.875180 0.000000 0.017060 
#    y 0.000000 1.873880 0.000000 
#    z 0.017060 0.000000 1.848390 
# 
# From -- ./inp_files/291580.got.cif
#   From: 2010.06.25/outbox.cif.g09.slc.cpg/sg15_146_cif.got.tgz:291580.got - 2010.06.28 07:06:18.
