data_PCOD8146230
_publ_section_title
;
Structure prediction by ZEFSAII (Michael W. Deem and Ramdas Pophale) SiO2 
 PCOD8146230
Probable space group: C 2/C
;
_chemical_formula_sum "Si O2"
_cell_formula_units_Z 44
_cell_length_a 23.122702
_cell_length_b 15.107739
_cell_length_c 16.002307
_cell_angle_alpha 90.000000
_cell_angle_beta 19.434012
_cell_angle_gamma 90.000000
_cell_volume 1859.948219
_symmetry_space_group_name_H-M "C 2/C"
_symmetry_group_IT_number 15
_symmetry_cell_setting 'monoclinic'
loop_
_space_group_symop_operation_xyz
x,y,z
-x,y,1/2-z
-x,-y,-z
x,-y,1/2+z
1/2+x,1/2+y,z
1/2-x,1/2+y,1/2-z
1/2-x,1/2-y,-z
1/2+x,1/2-y,1/2+z
loop_
_atom_site_type_symbol
_atom_site_label
_atom_site_fract_x
_atom_site_fract_y
_atom_site_fract_z
Si Si1 0.729338 0.337300 0.699373
Si Si2 0.755084 0.897308 0.640242
Si Si3 0.545742 0.897313 0.558931
Si Si4 0.500000 0.454389 0.750000
Si Si5 0.000000 0.250002 0.750000
Si Si6 0.586763 0.662696 0.984525
Si Si7 0.500000 0.045617 0.750000
O O1 0.705638 0.397083 0.814608
O O2 0.835251 0.249997 0.579495
O O3 0.832012 0.391987 0.489136
O O4 0.540261 0.312632 0.919477
O O5 0.548132 0.898027 0.903736
O O6 0.832201 0.984709 0.492128
O O7 0.831140 0.810491 0.491785
O O8 0.476990 0.810496 0.700086
O O9 0.753871 0.897086 0.266377
O O10 0.480867 0.984715 0.694800
O O11 0.474314 0.391993 0.704534
#
# Coordination Sequence:
#
# PCOD8146230 Si02
#       7
#     8   8   8   4   4   8   4
#     4  12  27  47  72 104 143 186 235 289 347 415
#     4  11  24  44  72 104 141 183 233 287 347 415
#     4  11  24  44  72 104 141 183 233 287 347 415
#     4  11  27  45  71 106 142 184 235 287 349 413
#     4  10  22  40  70 104 140 180 232 284 342 412
#     4  12  27  47  72 104 143 186 235 289 347 415
#     4  11  27  45  71 106 142 184 235 287 349 413
#
# _framework density 23.656572000000001
#
# number of rings (size 3 to 8) (size 9 to 14) (size 15 to 20)
#    0.000    0.727    1.818    4.364    0.000   17.455 
#    0.000    0.000    0.000    0.000    0.000    0.000 
#    0.000    0.000    0.000    0.000    0.000    0.000 
#
# Total GULP energy -272825.902369 kJ/mol
# GULP energy per Si atom -12401.177380 kJ/mol
# Density = 2.360273 g / cm^3
# Si number density = 23.656572 Si / 1000 Ang^3
#
#
#
# Elastic Constant Matrix: (Units=GPa)
#
#
# Indices 1 2 3 4 5 6 
#
# 1 155.9138 60.4718 84.3335 0.0013 -24.3217 0.0017
# 2 60.4718 114.7935 60.8288 0.0011 0.9398 -0.0001
# 3 84.3335 60.8288 141.1210 0.0069 -14.9047 0.0041
# 4 0.0013 0.0011 0.0069 6.0921 -0.0040 12.1844
# 5 -24.3217 0.9398 -14.9047 -0.0040 56.1464 -0.0040
# 6 0.0017 -0.0001 0.0041 12.1844 -0.0040 1.4740
#
#
#
# Elastic Compliance Matrix: (Units=1/GPa)
#
#
# Indices 1 2 3 4 5 6 
#
# 1 0.010715 -0.003206 -0.004656 0.000001 0.003459 0.000002
# 2 -0.003206 0.012377 -0.003691 0.000001 -0.002576 0.000000
# 3 -0.004656 -0.003691 0.011578 -0.000002 0.001118 -0.000004
# 4 0.000001 0.000001 -0.000002 -0.010568 0.000005 0.087356
# 5 0.003459 -0.002576 0.001118 0.000005 0.019649 0.000003
# 6 0.000002 0.000000 -0.000004 0.087356 0.000003 -0.043678
#
#
# Mechanical properties :
#
#
# Convention : Reuss Voigt Hill
#
# Bulk Modulus (GPa) = 86.47752 91.45515 88.96633
# Shear Modulus (GPa) = 184.94448 26.48880 105.71664
#
# Velocity S-wave (km/s) = 8.85148 3.34986 6.69217
# Velocity P-wave (km/s) = 11.87853 7.32840 9.86927
#
# Compressibility (1/GPa) = 0.01156370
#
# Stress axis : x y z
#
# Youngs Moduli (GPa) = 93.32386 80.79407 86.37082
#
# Poissons Ratio (x) = 0.25900 0.40217
# Poissons Ratio (y) = 0.29916 0.31883
# Poissons Ratio (z) = 0.43455 0.29824
#
# Static dielectric constant tensor:
#      x y z
#    x 4.071460 0.000000 0.281480 
#    y 0.000000 4.500050 0.000010 
#    z 0.281480 0.000010 4.177770 
# 
# 
# High freq. dielectric constant tensor:
#      x y z
#    x 1.932320 0.000000 0.007880 
#    y 0.000000 1.955370 0.000000 
#    z 0.007880 0.000000 1.935300 
# 
# From -- ./inp_files/219684.got.cif
#   From: 2010.06.25/outbox.cif.g09.slc.cpg/sg15_110_cif.got.tgz:219684.got - 2010.06.28 07:06:18.
