data_PCOD8146845
_publ_section_title
;
Structure prediction by ZEFSAII (Michael W. Deem and Ramdas Pophale) SiO2 
 PCOD8146845
Probable space group: C 2/C
;
_chemical_formula_sum "Si O2"
_cell_formula_units_Z 48
_cell_length_a 20.481412
_cell_length_b 13.381526
_cell_length_c 7.114362
_cell_angle_alpha 90.000000
_cell_angle_beta 59.594063
_cell_angle_gamma 90.000000
_cell_volume 1681.671162
_symmetry_space_group_name_H-M "C 2/C"
_symmetry_group_IT_number 15
_symmetry_cell_setting 'monoclinic'
loop_
_space_group_symop_operation_xyz
x,y,z
-x,y,1/2-z
-x,-y,-z
x,-y,1/2+z
1/2+x,1/2+y,z
1/2-x,1/2+y,1/2-z
1/2-x,1/2-y,-z
1/2+x,1/2-y,1/2+z
loop_
_atom_site_type_symbol
_atom_site_label
_atom_site_fract_x
_atom_site_fract_y
_atom_site_fract_z
Si Si1 0.163331 0.989345 0.750517
Si Si2 0.409728 0.838476 0.654045
Si Si3 0.914032 0.142996 0.842205
Si Si4 0.162151 0.485871 0.993029
Si Si5 0.585466 0.327913 0.656110
Si Si6 0.081491 0.351006 0.410036
O O1 0.251213 0.015579 0.614486
O O2 0.141868 0.923414 0.592161
O O3 0.111241 0.091541 0.824009
O O4 0.146899 0.913376 0.941901
O O5 0.404919 0.765252 0.850750
O O6 0.351744 0.931972 0.694950
O O7 0.390156 0.756192 0.525680
O O8 0.412781 0.729920 0.137073
O O9 0.000000 0.110904 0.750000
O O10 0.111894 0.591178 0.062156
O O11 0.134278 0.403938 0.180202
O O12 0.500000 0.365937 0.750000
O O13 0.494478 0.118835 0.006832
#
# Coordination Sequence:
#
# PCOD8146845 Si02
#       6
#     8   8   8   8   8   8
#     4  12  25  41  67 100 133 171 211 270 336 387
#     4  10  23  42  66  93 128 176 222 267 315 380
#     4  12  25  43  66  94 131 174 222 269 318 388
#     4  11  24  41  67 100 136 170 208 269 334 391
#     4   9  19  40  63  89 125 168 219 261 311 378
#     4  10  22  42  65  95 132 175 219 262 319 387
#
# _framework density 28.543037000000002
#
# number of rings (size 3 to 8) (size 9 to 14) (size 15 to 20)
#    0.000    1.333    0.000    7.000    0.000    7.333 
#    0.000    0.000    0.000    0.000    0.000    0.000 
#    0.000    0.000    0.000    0.000    0.000    0.000 
#
# Total GULP energy -297640.013626 kJ/mol
# GULP energy per Si atom -12401.667234 kJ/mol
# Density = 2.847807 g / cm^3
# Si number density = 28.543037 Si / 1000 Ang^3
#
#
#
# Elastic Constant Matrix: (Units=GPa)
#
#
# Indices 1 2 3 4 5 6 
#
# 1 193.6131 102.0199 29.5282 0.0000 -25.6867 0.0000
# 2 102.0199 196.7875 23.8120 0.0000 -25.6578 0.0000
# 3 29.5282 23.8120 68.5049 0.0000 -10.3169 0.0000
# 4 0.0000 0.0000 0.0000 37.7902 0.0000 1.5964
# 5 -25.6867 -25.6578 -10.3169 0.0000 55.4182 0.0000
# 6 0.0000 0.0000 0.0000 1.5964 0.0000 36.8365
#
#
#
# Elastic Compliance Matrix: (Units=1/GPa)
#
#
# Indices 1 2 3 4 5 6 
#
# 1 0.007458 -0.003452 -0.001785 0.000000 0.001527 0.000000
# 2 -0.003452 0.007169 -0.000767 0.000000 0.001577 0.000000
# 3 -0.001785 -0.000767 0.015901 0.000000 0.001778 0.000000
# 4 0.000000 0.000000 0.000000 0.026510 0.000000 -0.001149
# 5 0.001527 0.001577 0.001778 0.000000 0.019813 0.000000
# 6 0.000000 0.000000 0.000000 -0.001149 0.000000 0.027197
#
#
# Mechanical properties :
#
#
# Convention : Reuss Voigt Hill
#
# Bulk Modulus (GPa) = 53.99026 85.51400 69.75213
# Shear Modulus (GPa) = 40.90624 46.24535 43.57580
#
# Velocity S-wave (km/s) = 3.78979 4.02953 3.91150
# Velocity P-wave (km/s) = 6.17305 7.18848 6.70003
#
# Compressibility (1/GPa) = 0.01852186
#
# Stress axis : x y z
#
# Youngs Moduli (GPa) = 134.07530 139.48166 62.88810
#
# Poissons Ratio (x) = 0.48144 0.11227
# Poissons Ratio (y) = 0.46278 0.04822
# Poissons Ratio (z) = 0.23935 0.10696
#
# Static dielectric constant tensor:
#      x y z
#    x 5.803330 0.000000 2.046820 
#    y 0.000000 6.274950 0.000000 
#    z 2.046820 0.000000 7.033570 
# 
# 
# High freq. dielectric constant tensor:
#      x y z
#    x 2.145880 0.000000 0.081990 
#    y 0.000000 2.226600 0.000000 
#    z 0.081990 0.000000 2.224280 
# 
# From -- ./inp_files/55216.got.cif
#   From: 2010.06.25/outbox.cif.g09.slc.cpg/sg15_28_cif.got.tgz:55216.got - 2010.06.28 07:06:18.
