data_PCOD8146305
_publ_section_title
;
Structure prediction by ZEFSAII (Michael W. Deem and Ramdas Pophale) SiO2 
 PCOD8146305
Probable space group: C 2/C
;
_chemical_formula_sum "Si O2"
_cell_formula_units_Z 56
_cell_length_a 18.654869
_cell_length_b 20.055083
_cell_length_c 15.405461
_cell_angle_alpha 90.000000
_cell_angle_beta 151.773716
_cell_angle_gamma 90.000000
_cell_volume 2725.907993
_symmetry_space_group_name_H-M "C 2/C"
_symmetry_group_IT_number 15
_symmetry_cell_setting 'monoclinic'
loop_
_space_group_symop_operation_xyz
x,y,z
-x,y,1/2-z
-x,-y,-z
x,-y,1/2+z
1/2+x,1/2+y,z
1/2-x,1/2+y,1/2-z
1/2-x,1/2-y,-z
1/2+x,1/2-y,1/2+z
loop_
_atom_site_type_symbol
_atom_site_label
_atom_site_fract_x
_atom_site_fract_y
_atom_site_fract_z
Si Si1 0.609439 0.325435 0.645996
Si Si2 0.526627 0.835790 0.878439
Si Si3 0.318417 0.735119 0.755851
Si Si4 0.616975 0.529668 0.191693
Si Si5 0.500000 0.080471 0.750000
Si Si6 0.000000 0.077702 0.250000
Si Si7 0.776958 0.825197 0.551905
Si Si8 0.549982 0.016325 0.456721
O O1 0.442314 0.313501 0.430167
O O2 0.735577 0.277010 0.741576
O O3 0.660419 0.401700 0.689640
O O4 0.605593 0.315037 0.744357
O O5 0.500000 0.842945 0.750000
O O6 0.400576 0.785160 0.778481
O O7 0.696828 0.809927 0.076231
O O8 0.498619 0.907893 0.889282
O O9 0.546238 0.534673 0.214202
O O10 0.768776 0.486454 0.362167
O O11 0.500000 0.500000 0.000000
O O12 0.369794 0.131453 0.580532
O O13 0.532466 0.032970 0.701144
O O14 0.862442 0.127290 0.073678
O O15 0.750000 0.750000 0.500000
O O16 0.500000 0.000000 0.500000
#
# Coordination Sequence:
#
# PCOD8146305 Si02
#       8
#     8   8   8   8   4   4   8   8
#     4  10  22  41  61  95 130 168 221 265 328 396
#     4  11  23  43  70  96 131 173 222 283 339 393
#     4  10  23  41  66  96 129 168 225 278 328 400
#     4  11  24  43  65  94 132 175 221 269 336 399
#     4  12  25  46  64 104 139 170 236 280 330 423
#     4  10  23  44  60  98 133 170 224 276 320 407
#     4  11  25  39  68  95 136 180 218 274 338 393
#     4  12  26  44  71  99 137 182 223 277 346 404
#
# _framework density 20.543614000000002
#
# number of rings (size 3 to 8) (size 9 to 14) (size 15 to 20)
#    0.000    1.143    3.571    2.571    8.000    1.143 
#    2.571    0.000    3.143    0.000    0.000    0.000 
#    0.000    0.000    0.000    0.000    0.000    0.000 
#
# Total GULP energy -346916.761582 kJ/mol
# GULP energy per Si atom -12389.884342 kJ/mol
# Density = 2.049686 g / cm^3
# Si number density = 20.543614 Si / 1000 Ang^3
#
#
#
# Elastic Constant Matrix: (Units=GPa)
#
#
# Indices 1 2 3 4 5 6 
#
# 1 125.8653 39.9529 46.0634 0.0000 -10.7916 0.0000
# 2 39.9529 116.9159 34.3444 0.0000 -15.8266 0.0000
# 3 46.0634 34.3444 91.6770 0.0000 -10.8511 0.0000
# 4 0.0000 0.0000 0.0000 28.7642 0.0000 5.0321
# 5 -10.7916 -15.8266 -10.8511 0.0000 35.2536 0.0000
# 6 0.0000 0.0000 0.0000 5.0321 0.0000 17.9922
#
#
#
# Elastic Compliance Matrix: (Units=1/GPa)
#
#
# Indices 1 2 3 4 5 6 
#
# 1 0.010253 -0.002138 -0.004247 0.000000 0.000871 0.000000
# 2 -0.002138 0.010448 -0.002451 0.000000 0.003281 0.000000
# 3 -0.004247 -0.002451 0.014193 0.000000 0.001968 0.000000
# 4 0.000000 0.000000 0.000000 0.036554 0.000000 -0.010224
# 5 0.000871 0.003281 0.001968 0.000000 0.030712 0.000000
# 6 0.000000 0.000000 0.000000 -0.010224 0.000000 0.058439
#
#
# Mechanical properties :
#
#
# Convention : Reuss Voigt Hill
#
# Bulk Modulus (GPa) = 58.07072 63.90885 60.98978
# Shear Modulus (GPa) = 27.17203 30.67518 28.92361
#
# Velocity S-wave (km/s) = 3.64077 3.86835 3.75629
# Velocity P-wave (km/s) = 6.78248 7.15043 6.96888
#
# Compressibility (1/GPa) = 0.01722038
#
# Stress axis : x y z
#
# Youngs Moduli (GPa) = 97.53407 95.71133 70.45558
#
# Poissons Ratio (x) = 0.20463 0.29926
# Poissons Ratio (y) = 0.20852 0.17272
# Poissons Ratio (z) = 0.41428 0.23463
#
# Static dielectric constant tensor:
#      x y z
#    x 3.794920 0.000000 0.098840 
#    y 0.000000 3.390460 0.000000 
#    z 0.098840 0.000000 3.808020 
# 
# 
# High freq. dielectric constant tensor:
#      x y z
#    x 1.800730 0.000000 0.000890 
#    y 0.000000 1.818000 0.000000 
#    z 0.000890 0.000000 1.815130 
# 
# From -- ./inp_files/163848.got.cif
#   From: 2010.06.25/outbox.cif.g09.slc.cpg/sg15_82_cif.got.tgz:163848.got - 2010.06.28 07:06:18.
