data_PCOD8146360
_publ_section_title
;
Structure prediction by ZEFSAII (Michael W. Deem and Ramdas Pophale) SiO2 
 PCOD8146360
Probable space group: C 2/C
;
_chemical_formula_sum "Si O2"
_cell_formula_units_Z 40
_cell_length_a 18.273652
_cell_length_b 7.608555
_cell_length_c 15.160740
_cell_angle_alpha 90.000000
_cell_angle_beta 58.614089
_cell_angle_gamma 90.000000
_cell_volume 1799.461152
_symmetry_space_group_name_H-M "C 2/C"
_symmetry_group_IT_number 15
_symmetry_cell_setting 'monoclinic'
loop_
_space_group_symop_operation_xyz
x,y,z
-x,y,1/2-z
-x,-y,-z
x,-y,1/2+z
1/2+x,1/2+y,z
1/2-x,1/2+y,1/2-z
1/2-x,1/2-y,-z
1/2+x,1/2-y,1/2+z
loop_
_atom_site_type_symbol
_atom_site_label
_atom_site_fract_x
_atom_site_fract_y
_atom_site_fract_z
Si Si1 0.855123 0.558407 0.706552
Si Si2 0.468826 0.071395 0.368750
Si Si3 0.750362 0.726957 0.357507
Si Si4 0.635495 0.403786 0.076608
Si Si5 0.155442 0.717597 0.596051
O O1 0.795229 0.388738 0.754659
O O2 0.824535 0.659355 0.639075
O O3 0.848414 0.680883 0.797149
O O4 0.951427 0.492934 0.622014
O O5 0.500000 0.051610 0.250000
O O6 0.386680 0.943311 0.432225
O O7 0.441585 0.273243 0.403971
O O8 0.709752 0.598237 0.456046
O O9 0.824098 0.844516 0.355595
O O10 0.601736 0.602790 0.110102
O O11 0.250000 0.750000 0.500000
#
# Coordination Sequence:
#
# PCOD8146360 Si02
#       5
#     8   8   8   8   8
#     4  11  23  43  62 100 135 168 224 279 323 390
#     4  10  22  41  63  96 133 166 219 276 323 388
#     4  11  22  40  65  94 128 172 217 267 331 391
#     4  11  21  41  69  92 123 179 216 260 338 396
#     4  11  20  40  70  93 127 171 220 267 326 401
#
# _framework density 22.228878000000002
#
# number of rings (size 3 to 8) (size 9 to 14) (size 15 to 20)
#    0.000    1.200    6.000    2.400    0.000    3.200 
#    3.600    1.000    0.000    0.000    0.000    0.000 
#    0.000    0.000    0.000    0.000    0.000    0.000 
#
# Total GULP energy -248015.454053 kJ/mol
# GULP energy per Si atom -12400.772703 kJ/mol
# Density = 2.217828 g / cm^3
# Si number density = 22.228878 Si / 1000 Ang^3
#
#
#
# Elastic Constant Matrix: (Units=GPa)
#
#
# Indices 1 2 3 4 5 6 
#
# 1 106.6765 37.6855 18.9839 -0.0002 -13.0883 -0.0001
# 2 37.6855 135.4723 14.4775 -0.0003 -7.4252 0.0000
# 3 18.9839 14.4775 41.1535 -0.0001 -10.5936 0.0001
# 4 -0.0002 -0.0003 -0.0001 35.7396 0.0000 -4.8992
# 5 -13.0883 -7.4252 -10.5936 0.0000 34.8408 -0.0001
# 6 -0.0001 0.0000 0.0001 -4.8992 -0.0001 36.8856
#
#
#
# Elastic Compliance Matrix: (Units=1/GPa)
#
#
# Indices 1 2 3 4 5 6 
#
# 1 0.011252 -0.002603 -0.003612 0.000000 0.002574 0.000000
# 2 -0.002603 0.008297 -0.001643 0.000000 0.000291 0.000000
# 3 -0.003612 -0.001643 0.028321 0.000000 0.006904 0.000000
# 4 0.000000 0.000000 0.000000 0.028499 0.000000 0.003785
# 5 0.002574 0.000291 0.006904 0.000000 0.031830 0.000000
# 6 0.000000 0.000000 0.000000 0.003785 0.000000 0.027614
#
#
# Mechanical properties :
#
#
# Convention : Reuss Voigt Hill
#
# Bulk Modulus (GPa) = 31.10118 47.28847 39.19483
# Shear Modulus (GPa) = 30.81697 35.63690 33.22694
#
# Velocity S-wave (km/s) = 3.72741 4.00832 3.87041
# Velocity P-wave (km/s) = 5.70495 6.53772 6.13548
#
# Compressibility (1/GPa) = 0.03215312
#
# Stress axis : x y z
#
# Youngs Moduli (GPa) = 88.87022 120.52192 35.30965
#
# Poissons Ratio (x) = 0.31372 0.12755
# Poissons Ratio (y) = 0.23133 0.05802
# Poissons Ratio (z) = 0.32103 0.19805
#
# Static dielectric constant tensor:
#      x y z
#    x 4.131580 0.000000 -0.227240 
#    y 0.000000 4.265340 0.000000 
#    z -0.227240 0.000000 3.785670 
# 
# 
# High freq. dielectric constant tensor:
#      x y z
#    x 1.860820 0.000000 -0.010780 
#    y 0.000000 1.882890 0.000000 
#    z -0.010780 0.000000 1.866280 
# 
# From -- ./inp_files/159087.got.cif
#   From: 2010.06.25/outbox.cif.g09.slc.cpg/sg15_80_cif.got.tgz:159087.got - 2010.06.28 07:06:18.
