data_PCOD8146830
_publ_section_title
;
Structure prediction by ZEFSAII (Michael W. Deem and Ramdas Pophale) SiO2 
 PCOD8146830
Probable space group: C 2/C
;
_chemical_formula_sum "Si O2"
_cell_formula_units_Z 44
_cell_length_a 20.786087
_cell_length_b 7.914859
_cell_length_c 14.613709
_cell_angle_alpha 90.000000
_cell_angle_beta 58.232187
_cell_angle_gamma 90.000000
_cell_volume 2044.050629
_symmetry_space_group_name_H-M "C 2/C"
_symmetry_group_IT_number 15
_symmetry_cell_setting 'monoclinic'
loop_
_space_group_symop_operation_xyz
x,y,z
-x,y,1/2-z
-x,-y,-z
x,-y,1/2+z
1/2+x,1/2+y,z
1/2-x,1/2+y,1/2-z
1/2-x,1/2-y,-z
1/2+x,1/2-y,1/2+z
loop_
_atom_site_type_symbol
_atom_site_label
_atom_site_fract_x
_atom_site_fract_y
_atom_site_fract_z
Si Si1 0.752348 0.000200 0.170911
Si Si2 0.186400 0.361285 0.398850
Si Si3 0.474038 0.722025 0.950557
Si Si4 0.500000 0.086621 0.250000
Si Si5 0.150419 0.406227 0.088627
Si Si6 0.594671 0.631421 0.996003
O O1 0.709653 0.984901 0.299125
O O2 0.709691 0.885968 0.126891
O O3 0.758237 0.198161 0.138322
O O4 0.836423 0.927303 0.119719
O O5 0.098997 0.311517 0.451642
O O6 0.192181 0.466357 0.487836
O O7 0.506519 0.801280 0.834815
O O8 0.454859 0.529733 0.936698
O O9 0.539426 0.747970 0.977287
O O10 0.574418 0.974849 0.190250
O O11 0.128364 0.228533 0.058621
#
# Coordination Sequence:
#
# PCOD8146830 Si02
#       6
#     8   8   8   4   8   8
#     4  11  23  41  63  95 126 172 211 262 329 368
#     4  10  23  41  63  91 128 170 213 268 316 379
#     4   9  22  44  62  91 129 165 213 259 321 377
#     4  10  24  38  62  92 124 172 206 266 314 372
#     4  11  24  39  65  95 126 167 219 261 315 386
#     4  10  22  42  65  92 127 167 211 267 310 383
#
# _framework density 21.525884999999999
#
# number of rings (size 3 to 8) (size 9 to 14) (size 15 to 20)
#    0.000    1.818    0.000    2.182    7.636    2.182 
#    6.545    0.000    0.000    0.000    0.000    0.000 
#    0.000    0.000    0.000    0.000    0.000    0.000 
#
# Total GULP energy -272816.499749 kJ/mol
# GULP energy per Si atom -12400.749989 kJ/mol
# Density = 2.147689 g / cm^3
# Si number density = 21.525885 Si / 1000 Ang^3
#
#
#
# Elastic Constant Matrix: (Units=GPa)
#
#
# Indices 1 2 3 4 5 6 
#
# 1 76.9245 8.8607 31.7194 0.0000 -0.5981 0.0000
# 2 8.8607 62.7669 24.4680 0.0000 -14.0582 0.0000
# 3 31.7194 24.4680 121.1159 0.0000 -23.6264 0.0000
# 4 0.0000 0.0000 0.0000 25.3754 0.0000 1.4254
# 5 -0.5981 -14.0582 -23.6264 0.0000 21.1700 0.0000
# 6 0.0000 0.0000 0.0000 1.4254 0.0000 30.5723
#
#
#
# Elastic Compliance Matrix: (Units=1/GPa)
#
#
# Indices 1 2 3 4 5 6 
#
# 1 0.015120 -0.001605 -0.004807 0.000000 -0.006003 0.000000
# 2 -0.001605 0.019175 -0.001251 0.000000 0.011293 0.000000
# 3 -0.004807 -0.001251 0.012245 0.000000 0.012700 0.000000
# 4 0.000000 0.000000 0.000000 0.039512 0.000000 -0.001842
# 5 -0.006003 0.011293 0.012700 0.000000 0.068740 0.000000
# 6 0.000000 0.000000 0.000000 -0.001842 0.000000 0.032795
#
#
# Mechanical properties :
#
#
# Convention : Reuss Voigt Hill
#
# Bulk Modulus (GPa) = 32.03487 43.43372 37.73430
# Shear Modulus (GPa) = 23.43923 28.47415 25.95669
#
# Velocity S-wave (km/s) = 3.30341 3.64096 3.47628
# Velocity P-wave (km/s) = 5.42811 6.15603 5.80349
#
# Compressibility (1/GPa) = 0.03121598
#
# Stress axis : x y z
#
# Youngs Moduli (GPa) = 66.13783 52.15033 81.66310
#
# Poissons Ratio (x) = 0.08372 0.39252
# Poissons Ratio (y) = 0.10617 0.10212
# Poissons Ratio (z) = 0.31789 0.06522
#
# Static dielectric constant tensor:
#      x y z
#    x 3.910450 0.000000 -0.159110 
#    y 0.000000 3.942120 0.000000 
#    z -0.159110 0.000000 3.812910 
# 
# 
# High freq. dielectric constant tensor:
#      x y z
#    x 1.851190 0.000000 -0.013800 
#    y 0.000000 1.845920 0.000000 
#    z -0.013800 0.000000 1.845860 
# 
# From -- ./inp_files/109927.got.cif
#   From: 2010.06.25/outbox.cif.g09.slc.cpg/sg15_55_cif.got.tgz:109927.got - 2010.06.28 07:06:18.
