data_PCOD8146260
_publ_section_title
;
Structure prediction by ZEFSAII (Michael W. Deem and Ramdas Pophale) SiO2 
 PCOD8146260
Probable space group: C 2/C
;
_chemical_formula_sum "Si O2"
_cell_formula_units_Z 44
_cell_length_a 7.733976
_cell_length_b 19.543053
_cell_length_c 16.354238
_cell_angle_alpha 90.000000
_cell_angle_beta 128.247590
_cell_angle_gamma 90.000000
_cell_volume 1941.265357
_symmetry_space_group_name_H-M "C 2/C"
_symmetry_group_IT_number 15
_symmetry_cell_setting 'monoclinic'
loop_
_space_group_symop_operation_xyz
x,y,z
-x,y,1/2-z
-x,-y,-z
x,-y,1/2+z
1/2+x,1/2+y,z
1/2-x,1/2+y,1/2-z
1/2-x,1/2-y,-z
1/2+x,1/2-y,1/2+z
loop_
_atom_site_type_symbol
_atom_site_label
_atom_site_fract_x
_atom_site_fract_y
_atom_site_fract_z
Si Si1 0.719037 0.294428 0.569686
Si Si2 0.199065 0.136177 0.618320
Si Si3 0.800111 0.465949 0.395257
Si Si4 0.144134 0.327720 0.163376
Si Si5 0.000000 0.382960 0.750000
Si Si6 0.176413 0.001420 0.185974
O O1 0.750000 0.250000 0.500000
O O2 0.520534 0.346549 0.494857
O O3 0.668065 0.247592 0.633595
O O4 0.944682 0.335968 0.654867
O O5 0.191258 0.163692 0.710477
O O6 0.397576 0.166282 0.624388
O O7 0.224736 0.053607 0.628794
O O8 0.803194 0.382587 0.394837
O O9 0.822700 0.483070 0.307038
O O10 0.582326 0.499418 0.370368
O O11 0.000000 0.500000 0.500000
O O12 0.771136 0.424613 0.690622
#
# Coordination Sequence:
#
# PCOD8146260 Si02
#       6
#     8   8   8   8   4   8
#     4  12  26  43  67  99 138 189 226 282 350 413
#     4  10  22  44  72  95 138 183 222 293 343 412
#     4  10  22  40  72 101 137 176 223 292 341 410
#     4  10  22  44  68 101 135 176 236 274 349 415
#     4  12  28  44  66 102 138 174 236 284 340 428
#     4  10  23  43  64 104 136 175 229 282 349 404
#
# _framework density 22.665628999999999
#
# number of rings (size 3 to 8) (size 9 to 14) (size 15 to 20)
#    0.000    1.455    0.000    4.909    7.636    3.636 
#    0.000    1.818    0.000    0.000    0.000    0.000 
#    0.000    0.000    0.000    0.000    0.000    0.000 
#
# Total GULP energy -272703.709906 kJ/mol
# GULP energy per Si atom -12395.623178 kJ/mol
# Density = 2.261404 g / cm^3
# Si number density = 22.665629 Si / 1000 Ang^3
#
#
#
# Elastic Constant Matrix: (Units=GPa)
#
#
# Indices 1 2 3 4 5 6 
#
# 1 94.0247 52.0049 41.9477 0.0000 12.6786 0.0000
# 2 52.0049 135.2430 78.4917 0.0000 5.3194 0.0000
# 3 41.9477 78.4917 149.0449 0.0000 28.1881 0.0000
# 4 0.0000 0.0000 0.0000 38.1929 0.0000 -1.2250
# 5 12.6786 5.3194 28.1881 0.0000 30.0012 0.0000
# 6 0.0000 0.0000 0.0000 -1.2250 0.0000 27.0287
#
#
#
# Elastic Compliance Matrix: (Units=1/GPa)
#
#
# Indices 1 2 3 4 5 6 
#
# 1 0.014258 -0.005016 -0.000486 0.000000 -0.004679 0.000000
# 2 -0.005016 0.012848 -0.006475 0.000000 0.005926 0.000000
# 3 -0.000486 -0.006475 0.012161 0.000000 -0.010073 0.000000
# 4 0.000000 0.000000 0.000000 0.026221 0.000000 0.001188
# 5 -0.004679 0.005926 -0.010073 0.000000 0.043723 0.000000
# 6 0.000000 0.000000 0.000000 0.001188 0.000000 0.037052
#
#
# Mechanical properties :
#
#
# Convention : Reuss Voigt Hill
#
# Bulk Modulus (GPa) = 65.30782 80.35568 72.83175
# Shear Modulus (GPa) = 28.51911 32.76911 30.64411
#
# Velocity S-wave (km/s) = 3.55104 3.80644 3.68096
# Velocity P-wave (km/s) = 6.75938 7.40596 7.09005
#
# Compressibility (1/GPa) = 0.01531210
#
# Stress axis : x y z
#
# Youngs Moduli (GPa) = 70.13654 77.83360 82.22964
#
# Poissons Ratio (x) = 0.39045 0.03996
# Poissons Ratio (y) = 0.35184 0.53243
# Poissons Ratio (z) = 0.03408 0.50397
#
# Static dielectric constant tensor:
#      x y z
#    x 3.904040 0.000000 0.043530 
#    y 0.000000 4.339830 0.000000 
#    z 0.043530 0.000000 4.306290 
# 
# 
# High freq. dielectric constant tensor:
#      x y z
#    x 1.885810 0.000000 0.007510 
#    y 0.000000 1.894830 0.000000 
#    z 0.007510 0.000000 1.906970 
# 
# From -- ./inp_files/134713.got.cif
#   From: 2010.06.25/outbox.cif.g09.slc.cpg/sg15_68_cif.got.tgz:134713.got - 2010.06.28 07:06:18.
