data_PCOD8146110
_publ_section_title
;
Structure prediction by ZEFSAII (Michael W. Deem and Ramdas Pophale) SiO2 
 PCOD8146110
Probable space group: C 2/C
;
_chemical_formula_sum "Si O2"
_cell_formula_units_Z 52
_cell_length_a 30.973573
_cell_length_b 14.481698
_cell_length_c 9.518821
_cell_angle_alpha 90.000000
_cell_angle_beta 37.061820
_cell_angle_gamma 90.000000
_cell_volume 2573.227106
_symmetry_space_group_name_H-M "C 2/C"
_symmetry_group_IT_number 15
_symmetry_cell_setting 'monoclinic'
loop_
_space_group_symop_operation_xyz
x,y,z
-x,y,1/2-z
-x,-y,-z
x,-y,1/2+z
1/2+x,1/2+y,z
1/2-x,1/2+y,1/2-z
1/2-x,1/2-y,-z
1/2+x,1/2-y,1/2+z
loop_
_atom_site_type_symbol
_atom_site_label
_atom_site_fract_x
_atom_site_fract_y
_atom_site_fract_z
Si Si1 0.000000 0.734597 0.750000
Si Si2 0.574054 0.443950 0.001249
Si Si3 0.777456 0.868796 0.813808
Si Si4 0.426518 0.056610 0.996741
Si Si5 0.664364 0.988247 0.513659
Si Si6 0.251756 0.324223 0.197524
Si Si7 0.592194 0.384748 0.640975
O O1 0.941366 0.666930 0.976871
O O2 0.960725 0.797108 0.734758
O O3 0.500000 0.400348 0.250000
O O4 0.579863 0.549945 0.037892
O O5 0.637741 0.385534 0.904373
O O6 0.576012 0.440633 0.826603
O O7 0.762900 0.784628 0.744304
O O8 0.748748 0.846307 0.041555
O O9 0.736446 0.959621 0.871046
O O10 0.500000 0.007805 0.750000
O O11 0.362493 0.039574 0.054761
O O12 0.401312 0.009522 0.206372
O O13 0.687439 0.882036 0.433879
O O14 0.327018 0.348690 0.072422
#
# Coordination Sequence:
#
# PCOD8146110 Si02
#       7
#     4   8   8   8   8   8   8
#     4  10  24  42  62  92 130 170 212 268 328 378
#     4  11  23  39  65  93 127 174 211 265 327 390
#     4  10  22  41  65  96 133 166 223 263 321 386
#     4  10  25  42  67  96 130 172 214 274 330 382
#     4  12  20  44  69  97 131 175 216 269 330 392
#     4  10  22  40  66  98 127 173 211 273 322 382
#     4  11  22  42  63  90 132 169 213 271 329 383
#
# _framework density 20.208086999999999
#
# number of rings (size 3 to 8) (size 9 to 14) (size 15 to 20)
#    0.462    0.923    3.846    1.846    0.000    1.231 
#    0.000    2.308    0.000    0.000    0.000    0.000 
#    0.000    0.000    0.000    0.000    0.000    0.000 
#
# Total GULP energy -322355.176829 kJ/mol
# GULP energy per Si atom -12398.276032 kJ/mol
# Density = 2.016209 g / cm^3
# Si number density = 20.208087 Si / 1000 Ang^3
#
#
#
# Elastic Constant Matrix: (Units=GPa)
#
#
# Indices 1 2 3 4 5 6 
#
# 1 81.2612 36.1874 25.2300 0.0000 -10.4538 0.0000
# 2 36.1874 112.4922 39.2170 0.0000 -1.7616 0.0000
# 3 25.2300 39.2170 94.6832 0.0000 -19.1451 0.0000
# 4 0.0000 0.0000 0.0000 30.3713 0.0000 -10.0057
# 5 -10.4538 -1.7616 -19.1451 0.0000 25.7363 0.0000
# 6 0.0000 0.0000 0.0000 -10.0057 0.0000 36.4739
#
#
#
# Elastic Compliance Matrix: (Units=1/GPa)
#
#
# Indices 1 2 3 4 5 6 
#
# 1 0.015297 -0.004410 -0.001241 0.000000 0.004989 0.000000
# 2 -0.004410 0.011852 -0.004628 0.000000 -0.004423 0.000000
# 3 -0.001241 -0.004628 0.014882 0.000000 0.010250 0.000000
# 4 0.000000 0.000000 0.000000 0.036197 0.000000 0.009930
# 5 0.004989 -0.004423 0.010250 0.000000 0.048204 0.000000
# 6 0.000000 0.000000 0.000000 0.009930 0.000000 0.030141
#
#
# Mechanical properties :
#
#
# Convention : Reuss Voigt Hill
#
# Bulk Modulus (GPa) = 46.57137 54.41172 50.49154
# Shear Modulus (GPa) = 27.13130 31.03646 29.08388
#
# Velocity S-wave (km/s) = 3.66812 3.92324 3.79782
# Velocity P-wave (km/s) = 6.40594 6.89250 6.65367
#
# Compressibility (1/GPa) = 0.02147242
#
# Stress axis : x y z
#
# Youngs Moduli (GPa) = 65.37258 84.37050 67.19665
#
# Poissons Ratio (x) = 0.37209 0.08338
# Poissons Ratio (y) = 0.28830 0.31101
# Poissons Ratio (z) = 0.08111 0.39050
#
# Static dielectric constant tensor:
#      x y z
#    x 3.694300 0.000000 -0.148330 
#    y 0.000000 3.660210 0.000000 
#    z -0.148330 0.000000 3.594270 
# 
# 
# High freq. dielectric constant tensor:
#      x y z
#    x 1.800330 0.000000 -0.017500 
#    y 0.000000 1.782840 0.000000 
#    z -0.017500 0.000000 1.778480 
# 
# From -- ./inp_files/70098.got.cif
#   From: 2010.06.25/outbox.cif.g09.slc.cpg/sg15_36_cif.got.tgz:70098.got - 2010.06.28 07:06:18.
