data_PCOD8146984
_publ_section_title
;
Structure prediction by ZEFSAII (Michael W. Deem and Ramdas Pophale) SiO2 
 PCOD8146984
Probable space group: C 2/C
;
_chemical_formula_sum "Si O2"
_cell_formula_units_Z 44
_cell_length_a 8.022089
_cell_length_b 12.591808
_cell_length_c 21.489339
_cell_angle_alpha 90.000000
_cell_angle_beta 119.542956
_cell_angle_gamma 90.000000
_cell_volume 1888.474063
_symmetry_space_group_name_H-M "C 2/C"
_symmetry_group_IT_number 15
_symmetry_cell_setting 'monoclinic'
loop_
_space_group_symop_operation_xyz
x,y,z
-x,y,1/2-z
-x,-y,-z
x,-y,1/2+z
1/2+x,1/2+y,z
1/2-x,1/2+y,1/2-z
1/2-x,1/2-y,-z
1/2+x,1/2-y,1/2+z
loop_
_atom_site_type_symbol
_atom_site_label
_atom_site_fract_x
_atom_site_fract_y
_atom_site_fract_z
Si Si1 0.461461 0.253420 0.063972
Si Si2 0.500000 0.761917 0.250000
Si Si3 0.915297 0.073810 0.146223
Si Si4 0.393608 0.626733 0.793444
Si Si5 0.145243 0.907815 0.009159
Si Si6 0.476663 0.986159 0.923149
O O1 0.480152 0.328614 0.126648
O O2 0.511533 0.136219 0.094327
O O3 0.250000 0.250000 0.000000
O O4 0.595104 0.296809 0.032524
O O5 0.421532 0.686964 0.180935
O O6 0.326697 0.834625 0.243936
O O7 0.870045 0.105618 0.067333
O O8 0.743171 0.992285 0.138421
O O9 0.103385 0.002698 0.195854
O O10 0.500000 0.663317 0.750000
O O11 0.356526 0.940780 0.075304
O O12 0.000000 0.000000 0.000000
O O13 0.500000 0.000000 0.000000
#
# Coordination Sequence:
#
# PCOD8146984 Si02
#       6
#     8   4   8   8   8   8
#     4  12  23  43  72 110 144 186 248 299 367 443
#     4  12  28  52  72 104 150 200 250 300 376 442
#     4  11  24  50  70 104 148 192 248 303 366 452
#     4  12  28  50  75 107 149 199 249 304 371 453
#     4  11  22  40  74 109 141 186 240 304 378 430
#     4  10  22  42  68 104 148 179 231 309 362 432
#
# _framework density 23.299233999999998
#
# number of rings (size 3 to 8) (size 9 to 14) (size 15 to 20)
#    0.000    0.727    6.364    1.091    2.545    4.364 
#    1.636    0.000    0.000    0.000    0.000    0.000 
#    0.000    0.000    0.000    0.000    0.000    0.000 
#
# Total GULP energy -272623.552671 kJ/mol
# GULP energy per Si atom -12391.979667 kJ/mol
# Density = 2.324620 g / cm^3
# Si number density = 23.299234 Si / 1000 Ang^3
#
#
#
# Elastic Constant Matrix: (Units=GPa)
#
#
# Indices 1 2 3 4 5 6 
#
# 1 157.2232 52.7842 57.2354 0.0000 12.2104 0.0000
# 2 52.7842 88.8808 10.4846 0.0000 4.9710 0.0000
# 3 57.2354 10.4846 94.7951 0.0000 3.2237 0.0000
# 4 0.0000 0.0000 0.0000 26.2435 0.0000 5.7739
# 5 12.2104 4.9710 3.2237 0.0000 38.9272 0.0000
# 6 0.0000 0.0000 0.0000 5.7739 0.0000 50.8446
#
#
#
# Elastic Compliance Matrix: (Units=1/GPa)
#
#
# Indices 1 2 3 4 5 6 
#
# 1 0.010365 -0.005378 -0.005592 0.000000 -0.002101 0.000000
# 2 -0.005378 0.014262 0.001679 0.000000 -0.000273 0.000000
# 3 -0.005592 0.001679 0.013726 0.000000 0.000403 0.000000
# 4 0.000000 0.000000 0.000000 0.039081 0.000000 -0.004438
# 5 -0.002101 -0.000273 0.000403 0.000000 0.026350 0.000000
# 6 0.000000 0.000000 0.000000 -0.004438 0.000000 0.020172
#
#
# Mechanical properties :
#
#
# Convention : Reuss Voigt Hill
#
# Bulk Modulus (GPa) = 50.57877 64.65640 57.61759
# Shear Modulus (GPa) = 33.52830 37.89603 35.71217
#
# Velocity S-wave (km/s) = 3.79757 4.03736 3.91930
# Velocity P-wave (km/s) = 6.40189 7.03877 6.72787
#
# Compressibility (1/GPa) = 0.01977114
#
# Stress axis : x y z
#
# Youngs Moduli (GPa) = 96.47989 70.11502 72.85517
#
# Poissons Ratio (x) = 0.37710 0.40739
# Poissons Ratio (y) = 0.51890 -0.12234
# Poissons Ratio (z) = 0.53949 -0.11773
#
# Static dielectric constant tensor:
#      x y z
#    x 4.481030 0.000000 0.022980 
#    y 0.000000 3.180730 0.000000 
#    z 0.022980 0.000000 4.125710 
# 
# 
# High freq. dielectric constant tensor:
#      x y z
#    x 1.928230 0.000000 0.012110 
#    y 0.000000 1.924490 0.000000 
#    z 0.012110 0.000000 1.926720 
# 
# From -- ./inp_files/263616.got.cif
#   From: 2010.06.25/outbox.cif.g09.slc.cpg/sg15_132_cif.got.tgz:263616.got - 2010.06.28 07:06:18.
