data_PCOD8146834
_publ_section_title
;
Structure prediction by ZEFSAII (Michael W. Deem and Ramdas Pophale) SiO2 
 PCOD8146834
Probable space group: C 2/C
;
_chemical_formula_sum "Si O2"
_cell_formula_units_Z 48
_cell_length_a 17.903655
_cell_length_b 15.859862
_cell_length_c 16.036365
_cell_angle_alpha 90.000000
_cell_angle_beta 31.745997
_cell_angle_gamma 90.000000
_cell_volume 2395.853928
_symmetry_space_group_name_H-M "C 2/C"
_symmetry_group_IT_number 15
_symmetry_cell_setting 'monoclinic'
loop_
_space_group_symop_operation_xyz
x,y,z
-x,y,1/2-z
-x,-y,-z
x,-y,1/2+z
1/2+x,1/2+y,z
1/2-x,1/2+y,1/2-z
1/2-x,1/2-y,-z
1/2+x,1/2-y,1/2+z
loop_
_atom_site_type_symbol
_atom_site_label
_atom_site_fract_x
_atom_site_fract_y
_atom_site_fract_z
Si Si1 0.000000 0.040580 0.750000
Si Si2 0.513841 0.852806 0.994722
Si Si3 0.500000 0.922488 0.750000
Si Si4 0.318134 0.700985 0.170989
Si Si5 0.393034 0.001491 0.503697
Si Si6 0.414473 0.464347 0.659417
Si Si7 0.270074 0.335107 0.531663
O O1 0.137612 0.100000 0.610930
O O2 0.989813 0.981092 0.677096
O O3 0.377745 0.793525 0.134754
O O4 0.492957 0.926059 0.946568
O O5 0.649124 0.794955 0.844238
O O6 0.543182 0.906907 0.050250
O O7 0.605446 0.980390 0.595632
O O8 0.609498 0.867076 0.700560
O O9 0.393253 0.635157 0.162463
O O10 0.349533 0.678721 0.044370
O O11 0.239121 0.008723 0.692337
O O12 0.500000 0.500000 0.500000
O O13 0.250000 0.250000 0.500000
#
# Coordination Sequence:
#
# PCOD8146834 Si02
#       7
#     4   8   4   8   8   8   8
#     4  12  25  42  65  94 132 176 220 276 329 395
#     4  10  23  40  63  92 126 170 216 266 322 398
#     4  12  21  42  63  92 132 172 212 266 323 399
#     4  11  24  41  63  95 129 172 217 268 334 391
#     4  10  22  42  65  93 131 172 217 264 334 400
#     4  11  24  43  65  96 133 177 223 270 330 396
#     4  12  25  37  61  98 135 167 209 274 338 396
#
# _framework density 20.034611000000002
#
# number of rings (size 3 to 8) (size 9 to 14) (size 15 to 20)
#    0.000    1.000    5.000    1.500    4.667    0.000 
#    0.000    0.833    0.000    4.000    0.000    0.000 
#    0.000    0.000    0.000    0.000    0.000    0.000 
#
# Total GULP energy -297476.258285 kJ/mol
# GULP energy per Si atom -12394.844095 kJ/mol
# Density = 1.998901 g / cm^3
# Si number density = 20.034611 Si / 1000 Ang^3
#
#
#
# Elastic Constant Matrix: (Units=GPa)
#
#
# Indices 1 2 3 4 5 6 
#
# 1 110.2492 55.3639 42.6429 0.0000 7.5768 -0.0003
# 2 55.3639 117.2547 57.6287 -0.0004 -1.8936 0.0000
# 3 42.6429 57.6287 116.4930 -0.0006 -5.3853 0.0001
# 4 0.0000 -0.0004 -0.0006 29.2053 0.0003 -10.6701
# 5 7.5768 -1.8936 -5.3853 0.0003 34.7291 0.0001
# 6 -0.0003 0.0000 0.0001 -10.6701 0.0001 32.6990
#
#
#
# Elastic Compliance Matrix: (Units=1/GPa)
#
#
# Indices 1 2 3 4 5 6 
#
# 1 0.012670 -0.004863 -0.002389 0.000000 -0.003400 0.000000
# 2 -0.004863 0.013137 -0.004670 0.000000 0.001053 0.000000
# 3 -0.002389 -0.004670 0.011866 0.000000 0.002107 0.000000
# 4 0.000000 0.000000 0.000000 0.038875 0.000000 0.012685
# 5 -0.003400 0.001053 0.002107 0.000000 0.029920 0.000000
# 6 0.000000 0.000000 0.000000 0.012685 0.000000 0.034721
#
#
# Mechanical properties :
#
#
# Convention : Reuss Voigt Hill
#
# Bulk Modulus (GPa) = 72.31321 72.80754 72.56038
# Shear Modulus (GPa) = 29.47339 31.88411 30.67875
#
# Velocity S-wave (km/s) = 3.83968 3.99363 3.91741
# Velocity P-wave (km/s) = 7.47195 7.59508 7.53377
#
# Compressibility (1/GPa) = 0.01382873
#
# Stress axis : x y z
#
# Youngs Moduli (GPa) = 78.92468 76.12204 84.27109
#
# Poissons Ratio (x) = 0.37018 0.20136
# Poissons Ratio (y) = 0.38381 0.39354
# Poissons Ratio (z) = 0.18859 0.35548
#
# Static dielectric constant tensor:
#      x y z
#    x 3.731100 0.000000 -0.010970 
#    y 0.000000 3.607760 0.000000 
#    z -0.010970 0.000000 3.630040 
# 
# 
# High freq. dielectric constant tensor:
#      x y z
#    x 1.778200 0.000000 -0.010740 
#    y 0.000000 1.772530 0.000000 
#    z -0.010740 0.000000 1.787130 
# 
# From -- ./inp_files/163227.got.cif
#   From: 2010.06.25/outbox.cif.g09.slc.cpg/sg15_82_cif.got.tgz:163227.got - 2010.06.28 07:06:18.
