data_PCOD8146821
_publ_section_title
;
Structure prediction by ZEFSAII (Michael W. Deem and Ramdas Pophale) SiO2 
 PCOD8146821
Probable space group: C 2/C
;
_chemical_formula_sum "Si O2"
_cell_formula_units_Z 56
_cell_length_a 10.425898
_cell_length_b 8.924263
_cell_length_c 31.725570
_cell_angle_alpha 90.000000
_cell_angle_beta 70.964244
_cell_angle_gamma 90.000000
_cell_volume 2790.435029
_symmetry_space_group_name_H-M "C 2/C"
_symmetry_group_IT_number 15
_symmetry_cell_setting 'monoclinic'
loop_
_space_group_symop_operation_xyz
x,y,z
-x,y,1/2-z
-x,-y,-z
x,-y,1/2+z
1/2+x,1/2+y,z
1/2-x,1/2+y,1/2-z
1/2-x,1/2-y,-z
1/2+x,1/2-y,1/2+z
loop_
_atom_site_type_symbol
_atom_site_label
_atom_site_fract_x
_atom_site_fract_y
_atom_site_fract_z
Si Si1 0.453858 0.000571 0.439589
Si Si2 0.147531 0.935415 0.849047
Si Si3 0.833854 0.994787 0.559851
Si Si4 0.645352 0.919215 0.348580
Si Si5 0.046379 0.083048 0.697884
Si Si6 0.495838 0.249656 0.000800
Si Si7 0.454251 0.933078 0.801494
O O1 0.593263 0.987065 0.398455
O O2 0.433177 0.859609 0.472545
O O3 0.329219 0.005769 0.420218
O O4 0.451020 0.154288 0.465615
O O5 0.106087 0.999621 0.899345
O O6 0.135293 0.758142 0.851144
O O7 0.299746 0.987535 0.822372
O O8 0.046633 0.997099 0.825043
O O9 0.879687 0.843661 0.531382
O O10 0.878979 0.139044 0.528763
O O11 0.799428 0.972385 0.324908
O O12 0.552676 0.975727 0.320907
O O13 0.000000 0.042466 0.750000
O O14 0.031420 0.257996 0.689880
O O15 0.500000 0.972236 0.750000
#
# Coordination Sequence:
#
# PCOD8146821 Si02
#       7
#     8   8   8   8   8   8   8
#     4  11  22  42  62  90 123 160 208 250 303 361
#     4  11  23  39  63  92 128 158 202 259 299 367
#     4  11  22  41  61  91 123 160 206 249 308 359
#     4  11  23  39  63  93 125 158 205 255 300 367
#     4  10  24  43  63  92 125 162 205 248 308 370
#     4  10  24  40  61  89 122 163 200 255 305 362
#     4  10  22  42  65  89 120 161 204 253 309 366
#
# _framework density 20.068556000000001
#
# number of rings (size 3 to 8) (size 9 to 14) (size 15 to 20)
#    0.000    1.429    2.857    1.714    2.000    2.857 
#   10.286    0.000    0.000    0.000    0.000    0.000 
#    0.000    0.000    0.000    0.000    0.000    0.000 
#
# Total GULP energy -347321.608430 kJ/mol
# GULP energy per Si atom -12404.343158 kJ/mol
# Density = 2.002288 g / cm^3
# Si number density = 20.068556 Si / 1000 Ang^3
#
#
#
# Elastic Constant Matrix: (Units=GPa)
#
#
# Indices 1 2 3 4 5 6 
#
# 1 139.5335 30.6911 56.8822 0.0000 -3.1418 0.0000
# 2 30.6911 62.8917 32.3719 0.0000 -0.2148 0.0000
# 3 56.8822 32.3719 128.3857 0.0000 -5.8482 0.0000
# 4 0.0000 0.0000 0.0000 0.4237 0.0000 11.8824
# 5 -3.1418 -0.2148 -5.8482 0.0000 38.3571 0.0000
# 6 0.0000 0.0000 0.0000 11.8824 0.0000 24.0637
#
#
#
# Elastic Compliance Matrix: (Units=1/GPa)
#
#
# Indices 1 2 3 4 5 6 
#
# 1 0.009139 -0.002735 -0.003349 0.000000 0.000223 0.000000
# 2 -0.002735 0.019104 -0.003636 0.000000 -0.000671 0.000000
# 3 -0.003349 -0.003636 0.010247 0.000000 0.001268 0.000000
# 4 0.000000 0.000000 0.000000 -0.183699 0.000000 0.090708
# 5 0.000223 -0.000671 0.001268 0.000000 0.026279 0.000000
# 6 0.000000 0.000000 0.000000 0.090708 0.000000 -0.003234
#
#
# Mechanical properties :
#
#
# Convention : Reuss Voigt Hill
#
# Bulk Modulus (GPa) = 52.49294 63.41126 57.95210
# Shear Modulus (GPa) = -51.88124 26.62662 -12.62731
#
# Velocity S-wave (km/s) = -5.09000 3.64645 -2.51112
# Velocity P-wave (km/s) = 2.88627 7.02814 4.53124
#
# Compressibility (1/GPa) = 0.01905018
#
# Stress axis : x y z
#
# Youngs Moduli (GPa) = 109.42531 52.34452 97.58548
#
# Poissons Ratio (x) = 0.14316 0.32683
# Poissons Ratio (y) = 0.29928 0.35481
# Poissons Ratio (z) = 0.36649 0.19032
#
# Static dielectric constant tensor:
#      x y z
#    x 3.602910 0.000000 -0.178560 
#    y 0.000000 3.665180 0.000000 
#    z -0.178560 0.000000 3.889220 
# 
# 
# High freq. dielectric constant tensor:
#      x y z
#    x 1.784840 0.000000 -0.002660 
#    y 0.000000 1.784070 0.000000 
#    z -0.002660 0.000000 1.801800 
# 
# From -- ./inp_files/291501.got.cif
#   From: 2010.06.25/outbox.cif.g09.slc.cpg/sg15_146_cif.got.tgz:291501.got - 2010.06.28 07:06:18.
