data_PCOD8146444
_publ_section_title
;
Structure prediction by ZEFSAII (Michael W. Deem and Ramdas Pophale) SiO2 
 PCOD8146444
Probable space group: C 2/C
;
_chemical_formula_sum "Si O2"
_cell_formula_units_Z 56
_cell_length_a 14.565937
_cell_length_b 19.607831
_cell_length_c 18.524548
_cell_angle_alpha 90.000000
_cell_angle_beta 30.297146
_cell_angle_gamma 90.000000
_cell_volume 2669.091913
_symmetry_space_group_name_H-M "C 2/C"
_symmetry_group_IT_number 15
_symmetry_cell_setting 'monoclinic'
loop_
_space_group_symop_operation_xyz
x,y,z
-x,y,1/2-z
-x,-y,-z
x,-y,1/2+z
1/2+x,1/2+y,z
1/2-x,1/2+y,1/2-z
1/2-x,1/2-y,-z
1/2+x,1/2-y,1/2+z
loop_
_atom_site_type_symbol
_atom_site_label
_atom_site_fract_x
_atom_site_fract_y
_atom_site_fract_z
Si Si1 0.070748 0.665645 0.484741
Si Si2 0.716331 0.547951 0.109695
Si Si3 0.521209 0.001200 0.812333
Si Si4 0.821164 0.356344 0.842787
Si Si5 0.747386 0.259905 0.770653
Si Si6 0.700054 0.052449 0.830119
Si Si7 0.001435 0.147242 0.662647
O O1 0.212897 0.626617 0.441928
O O2 0.189942 0.704213 0.344803
O O3 0.941723 0.719452 0.615042
O O4 0.934849 0.608921 0.542240
O O5 0.500000 0.543299 0.250000
O O6 0.800634 0.519666 0.128003
O O7 0.813123 0.500188 0.984119
O O8 0.500000 0.040262 0.750000
O O9 0.609079 0.927700 0.737953
O O10 0.649530 0.042756 0.780254
O O11 0.709817 0.316906 0.856958
O O12 0.000000 0.315929 0.750000
O O13 0.703060 0.362233 0.995364
O O14 0.908584 0.213186 0.690907
O O15 0.903153 0.079633 0.700345
O O16 0.000000 0.150664 0.750000
#
# Coordination Sequence:
#
# PCOD8146444 Si02
#       7
#     8   8   8   8   8   8   8
#     4  10  22  41  65  94 125 169 219 267 322 382
#     4  11  23  43  68  95 128 176 216 269 327 389
#     4  10  23  42  63  97 128 165 216 273 322 380
#     4  11  24  36  59  92 135 165 211 266 321 381
#     4  11  21  41  63  89 129 173 218 263 318 386
#     4  10  22  41  69  91 132 169 218 260 329 389
#     4  11  25  38  60  98 133 177 213 256 324 399
#
# _framework density 20.980920000000001
#
# number of rings (size 3 to 8) (size 9 to 14) (size 15 to 20)
#    0.000    1.429    1.429    4.286   12.000    1.714 
#    2.571    0.714    0.000    3.429    0.000    0.000 
#    0.000    0.000    0.000    0.000    0.000    0.000 
#
# Total GULP energy -346929.886634 kJ/mol
# GULP energy per Si atom -12390.353094 kJ/mol
# Density = 2.093317 g / cm^3
# Si number density = 20.980920 Si / 1000 Ang^3
#
#
#
# Elastic Constant Matrix: (Units=GPa)
#
#
# Indices 1 2 3 4 5 6 
#
# 1 77.0927 34.0150 45.3187 0.0004 15.9158 0.0433
# 2 34.0150 98.1917 55.0198 0.0553 8.1706 0.0571
# 3 45.3187 55.0198 166.2547 -0.0164 0.2826 0.0732
# 4 0.0004 0.0553 -0.0164 -2.1309 0.0085 -8.5031
# 5 15.9158 8.1706 0.2826 0.0085 28.4591 -0.0517
# 6 0.0433 0.0571 0.0732 -8.5031 -0.0517 35.6438
#
#
#
# Elastic Compliance Matrix: (Units=1/GPa)
#
#
# Indices 1 2 3 4 5 6 
#
# 1 0.018794 -0.003513 -0.003944 -0.000002 -0.009463 -0.000023
# 2 -0.003513 0.013528 -0.003516 0.000216 -0.001884 0.000039
# 3 -0.003944 -0.003516 0.008248 -0.000069 0.003133 -0.000018
# 4 -0.000002 0.000216 -0.000069 -0.240420 -0.000093 -0.057354
# 5 -0.009463 -0.001884 0.003133 -0.000093 0.040940 0.000045
# 6 -0.000023 0.000039 -0.000018 -0.057354 0.000045 0.014373
#
#
# Mechanical properties :
#
#
# Convention : Reuss Voigt Hill
#
# Bulk Modulus (GPa) = 53.69612 67.80512 60.75062
# Shear Modulus (GPa) = -42.96163 26.20679 -8.37742
#
# Velocity S-wave (km/s) = -4.53001 3.53806 -2.00039
# Velocity P-wave (km/s) = 1.30878 7.00558 4.86648
#
# Compressibility (1/GPa) = 0.01862332
#
# Stress axis : x y z
#
# Youngs Moduli (GPa) = 53.20985 73.92127 121.23725
#
# Poissons Ratio (x) = 0.25968 0.47819
# Poissons Ratio (y) = 0.18692 0.42628
# Poissons Ratio (z) = 0.20987 0.25992
#
# Static dielectric constant tensor:
#      x y z
#    x 3.764930 -0.000010 -0.036380 
#    y -0.000010 3.932930 0.000180 
#    z -0.036380 0.000180 3.900100 
# 
# 
# High freq. dielectric constant tensor:
#      x y z
#    x 1.801630 0.000000 -0.007000 
#    y 0.000000 1.822690 0.000010 
#    z -0.007000 0.000010 1.831290 
# 
# From -- ./inp_files/206929.got.cif
#   From: 2010.06.25/outbox.cif.g09.slc.cpg/sg15_104_cif.got.tgz:206929.got - 2010.06.28 07:06:18.
