data_PCOD8146523
_publ_section_title
;
Structure prediction by ZEFSAII (Michael W. Deem and Ramdas Pophale) SiO2 
 PCOD8146523
Probable space group: C 2/C
;
_chemical_formula_sum "Si O2"
_cell_formula_units_Z 40
_cell_length_a 5.033192
_cell_length_b 21.714053
_cell_length_c 17.411135
_cell_angle_alpha 90.000000
_cell_angle_beta 76.523507
_cell_angle_gamma 90.000000
_cell_volume 1850.485679
_symmetry_space_group_name_H-M "C 2/C"
_symmetry_group_IT_number 15
_symmetry_cell_setting 'monoclinic'
loop_
_space_group_symop_operation_xyz
x,y,z
-x,y,1/2-z
-x,-y,-z
x,-y,1/2+z
1/2+x,1/2+y,z
1/2-x,1/2+y,1/2-z
1/2-x,1/2-y,-z
1/2+x,1/2-y,1/2+z
loop_
_atom_site_type_symbol
_atom_site_label
_atom_site_fract_x
_atom_site_fract_y
_atom_site_fract_z
Si Si1 0.323383 0.826789 0.410354
Si Si2 0.996563 0.711753 0.445402
Si Si3 0.621917 0.390684 0.157199
Si Si4 0.915232 0.970884 0.843258
Si Si5 0.580104 0.895441 0.656353
O O1 0.357658 0.831018 0.500228
O O2 0.609950 0.848069 0.354557
O O3 0.231803 0.756818 0.394975
O O4 0.083541 0.869650 0.395307
O O5 0.750000 0.750000 0.500000
O O6 0.867645 0.670773 0.386135
O O7 0.500000 0.387200 0.250000
O O8 0.680085 0.460653 0.126725
O O9 0.665158 0.925677 0.874048
O O10 0.000000 0.973528 0.750000
O O11 0.167851 0.942076 0.872937
O O12 0.500000 0.884498 0.750000
#
# Coordination Sequence:
#
# PCOD8146523 Si02
#       5
#     8   8   8   8   8
#     4  11  24  41  65  91 128 177 207 257 335 374
#     4  11  25  45  65  87 137 174 212 267 322 370
#     4  11  22  42  67  98 129 163 214 267 322 385
#     4   9  20  39  65  94 128 160 203 273 326 370
#     4  10  22  41  67  93 119 166 220 259 316 386
#
# _framework density 21.615946999999998
#
# number of rings (size 3 to 8) (size 9 to 14) (size 15 to 20)
#    0.000    1.600    2.000    1.800    5.600    4.000 
#    3.600    6.000    0.000    0.000    0.000    0.000 
#    0.000    0.000    0.000    0.000    0.000    0.000 
#
# Total GULP energy -247875.128007 kJ/mol
# GULP energy per Si atom -12393.756400 kJ/mol
# Density = 2.156675 g / cm^3
# Si number density = 21.615947 Si / 1000 Ang^3
#
#
#
# Elastic Constant Matrix: (Units=GPa)
#
#
# Indices 1 2 3 4 5 6 
#
# 1 144.9484 66.8850 29.8497 0.0000 -5.3601 0.0000
# 2 66.8850 142.0649 67.2078 0.0000 -7.7078 0.0000
# 3 29.8497 67.2078 50.3081 0.0000 2.7303 0.0000
# 4 0.0000 0.0000 0.0000 37.2085 0.0000 1.9516
# 5 -5.3601 -7.7078 2.7303 0.0000 31.0438 0.0000
# 6 0.0000 0.0000 0.0000 1.9516 0.0000 45.4533
#
#
#
# Elastic Compliance Matrix: (Units=1/GPa)
#
#
# Indices 1 2 3 4 5 6 
#
# 1 0.008831 -0.004487 0.000736 0.000000 0.000346 0.000000
# 2 -0.004487 0.023067 -0.028558 0.000000 0.007464 0.000000
# 3 0.000736 -0.028558 0.058249 0.000000 -0.012087 0.000000
# 4 0.000000 0.000000 0.000000 0.026936 0.000000 -0.001157
# 5 0.000346 0.007464 -0.012087 0.000000 0.035189 0.000000
# 6 0.000000 0.000000 0.000000 -0.001157 0.000000 0.022050
#
#
# Mechanical properties :
#
#
# Convention : Reuss Voigt Hill
#
# Bulk Modulus (GPa) = 39.17388 73.91183 56.54286
# Shear Modulus (GPa) = 20.20619 34.29972 27.25295
#
# Velocity S-wave (km/s) = 3.06074 3.98776 3.55460
# Velocity P-wave (km/s) = 5.53650 7.44785 6.56213
#
# Compressibility (1/GPa) = 0.02552721
#
# Stress axis : x y z
#
# Youngs Moduli (GPa) = 113.24151 43.35257 17.16778
#
# Poissons Ratio (x) = 0.19451 -0.01263
# Poissons Ratio (y) = 0.50809 0.49028
# Poissons Ratio (z) = -0.08330 1.23807
#
# Static dielectric constant tensor:
#      x y z
#    x 3.431570 0.000000 0.513760 
#    y 0.000000 4.118240 0.000000 
#    z 0.513760 0.000000 3.488750 
# 
# 
# High freq. dielectric constant tensor:
#      x y z
#    x 1.868050 0.000000 0.011050 
#    y 0.000000 1.856170 0.000000 
#    z 0.011050 0.000000 1.821550 
# 
# From -- ./inp_files/184236.got.cif
#   From: 2010.06.25/outbox.cif.g09.slc.cpg/sg15_93_cif.got.tgz:184236.got - 2010.06.28 07:06:18.
