data_PCOD8146437
_publ_section_title
;
Structure prediction by ZEFSAII (Michael W. Deem and Ramdas Pophale) SiO2 
 PCOD8146437
Probable space group: C 2/C
;
_chemical_formula_sum "Si O2"
_cell_formula_units_Z 60
_cell_length_a 23.347273
_cell_length_b 6.565080
_cell_length_c 18.801812
_cell_angle_alpha 90.000000
_cell_angle_beta 83.100474
_cell_angle_gamma 90.000000
_cell_volume 2861.010373
_symmetry_space_group_name_H-M "C 2/C"
_symmetry_group_IT_number 15
_symmetry_cell_setting 'monoclinic'
loop_
_space_group_symop_operation_xyz
x,y,z
-x,y,1/2-z
-x,-y,-z
x,-y,1/2+z
1/2+x,1/2+y,z
1/2-x,1/2+y,1/2-z
1/2-x,1/2-y,-z
1/2+x,1/2-y,1/2+z
loop_
_atom_site_type_symbol
_atom_site_label
_atom_site_fract_x
_atom_site_fract_y
_atom_site_fract_z
Si Si1 0.533651 0.054414 0.370301
Si Si2 0.593713 0.869060 0.596309
Si Si3 0.884986 0.088780 0.657758
Si Si4 0.828102 0.255261 0.420492
Si Si5 0.500000 0.210391 0.750000
Si Si6 0.376234 0.198567 0.560929
Si Si7 0.403980 0.500913 0.311632
Si Si8 0.196735 0.332603 0.918808
O O1 0.468809 0.032981 0.409413
O O2 0.553967 0.289670 0.355281
O O3 0.539129 0.928960 0.295561
O O4 0.574463 0.959357 0.423827
O O5 0.614828 0.747578 0.523316
O O6 0.581293 0.727685 0.666508
O O7 0.641761 0.036193 0.610503
O O8 0.833108 0.240835 0.646730
O O9 0.881605 0.903207 0.603884
O O10 0.875577 0.001602 0.737932
O O11 0.859096 0.069235 0.378033
O O12 0.832642 0.240080 0.505266
O O13 0.762274 0.238185 0.405541
O O14 0.540374 0.353741 0.695731
O O15 0.314516 0.078731 0.579795
#
# Coordination Sequence:
#
# PCOD8146437 Si02
#       8
#     8   8   8   8   4   8   8   8
#     4  11  22  39  61  89 130 170 208 265 323 386
#     4  11  23  39  65  95 125 164 219 262 316 387
#     4  11  23  40  61  93 128 170 212 261 331 386
#     4  10  22  44  66  94 124 169 217 265 322 384
#     4  12  22  42  60  88 138 172 212 264 334 398
#     4  10  22  41  65  93 125 167 209 266 321 382
#     4  12  24  39  61  94 127 169 213 261 319 391
#     4   9  22  44  68  90 128 165 213 273 322 378
#
# _framework density 20.971609999999998
#
# number of rings (size 3 to 8) (size 9 to 14) (size 15 to 20)
#    0.000    1.333    2.667    2.800    0.000    1.600 
#    4.800    4.000    0.000    0.000    0.000    0.000 
#    0.000    0.000    0.000    0.000    0.000    0.000 
#
# Total GULP energy -371954.510663 kJ/mol
# GULP energy per Si atom -12398.483689 kJ/mol
# Density = 2.092388 g / cm^3
# Si number density = 20.971610 Si / 1000 Ang^3
#
#
#
# Elastic Constant Matrix: (Units=GPa)
#
#
# Indices 1 2 3 4 5 6 
#
# 1 114.4765 45.8910 27.5418 0.0000 -2.8150 0.0000
# 2 45.8910 99.4801 36.5475 0.0000 -1.3965 0.0000
# 3 27.5418 36.5475 74.1511 0.0000 5.2215 0.0000
# 4 0.0000 0.0000 0.0000 49.0518 0.0000 4.4707
# 5 -2.8150 -1.3965 5.2215 0.0000 29.9625 0.0000
# 6 0.0000 0.0000 0.0000 4.4707 0.0000 33.9373
#
#
#
# Elastic Compliance Matrix: (Units=1/GPa)
#
#
# Indices 1 2 3 4 5 6 
#
# 1 0.010979 -0.004297 -0.002043 0.000000 0.001187 0.000000
# 2 -0.004297 0.014038 -0.005407 0.000000 0.001193 0.000000
# 3 -0.002043 -0.005407 0.017152 0.000000 -0.003433 0.000000
# 4 0.000000 0.000000 0.000000 0.020634 0.000000 -0.002718
# 5 0.001187 0.001193 -0.003433 0.000000 0.034140 0.000000
# 6 0.000000 0.000000 0.000000 -0.002718 0.000000 0.029824
#
#
# Mechanical properties :
#
#
# Convention : Reuss Voigt Hill
#
# Bulk Modulus (GPa) = 53.55248 56.45203 55.00226
# Shear Modulus (GPa) = 31.95162 34.46548 33.20855
#
# Velocity S-wave (km/s) = 3.90752 4.05833 3.98364
# Velocity P-wave (km/s) = 6.77860 6.99548 6.88790
#
# Compressibility (1/GPa) = 0.01867327
#
# Stress axis : x y z
#
# Youngs Moduli (GPa) = 91.08364 71.23663 58.30369
#
# Poissons Ratio (x) = 0.30612 0.11914
# Poissons Ratio (y) = 0.39141 0.31523
# Poissons Ratio (z) = 0.18613 0.38516
#
# Static dielectric constant tensor:
#      x y z
#    x 3.738090 0.000000 0.091850 
#    y 0.000000 3.843900 0.000000 
#    z 0.091850 0.000000 3.815790 
# 
# 
# High freq. dielectric constant tensor:
#      x y z
#    x 1.809510 0.000000 0.008370 
#    y 0.000000 1.827160 0.000000 
#    z 0.008370 0.000000 1.824840 
# 
# From -- ./inp_files/221258.got.cif
#   From: 2010.06.25/outbox.cif.g09.slc.cpg/sg15_111_cif.got.tgz:221258.got - 2010.06.28 07:06:18.
