data_PCOD8146449
_publ_section_title
;
Structure prediction by ZEFSAII (Michael W. Deem and Ramdas Pophale) SiO2 
 PCOD8146449
Probable space group: C 2/C
;
_chemical_formula_sum "Si O2"
_cell_formula_units_Z 40
_cell_length_a 13.308054
_cell_length_b 28.398378
_cell_length_c 13.543507
_cell_angle_alpha 90.000000
_cell_angle_beta 158.251783
_cell_angle_gamma 90.000000
_cell_volume 1896.535097
_symmetry_space_group_name_H-M "C 2/C"
_symmetry_group_IT_number 15
_symmetry_cell_setting 'monoclinic'
loop_
_space_group_symop_operation_xyz
x,y,z
-x,y,1/2-z
-x,-y,-z
x,-y,1/2+z
1/2+x,1/2+y,z
1/2-x,1/2+y,1/2-z
1/2-x,1/2-y,-z
1/2+x,1/2-y,1/2+z
loop_
_atom_site_type_symbol
_atom_site_label
_atom_site_fract_x
_atom_site_fract_y
_atom_site_fract_z
Si Si1 0.500000 0.570180 0.250000
Si Si2 0.731095 0.638078 0.608864
Si Si3 0.348431 0.130220 0.347478
Si Si4 0.500000 0.217991 0.750000
Si Si5 0.229712 0.029278 0.261759
Si Si6 0.426501 0.220908 0.296592
O O1 0.729011 0.602838 0.512614
O O2 0.652183 0.539035 0.306047
O O3 0.415712 0.651597 0.338540
O O4 0.907419 0.685098 0.755127
O O5 0.889000 0.616460 0.846391
O O6 0.256344 0.078572 0.225193
O O7 0.430099 0.167233 0.337979
O O8 0.250000 0.250000 0.500000
O O9 0.500000 0.000000 0.500000
O O10 0.000000 0.000000 0.000000
O O11 0.500000 0.217323 0.250000
O O12 0.640080 0.253219 0.550448
#
# Coordination Sequence:
#
# PCOD8146449 Si02
#       6
#     4   8   8   4   8   8
#     4  10  23  46  68  88 132 174 214 268 335 410
#     4  11  23  39  63  87 118 178 206 246 326 381
#     4  11  23  41  65  92 126 163 222 268 313 404
#     4  12  23  34  50  86 128 152 200 254 293 352
#     4  11  24  42  66  97 128 167 224 270 338 403
#     4  10  22  41  65  94 129 174 218 270 339 396
#
# _framework density 21.091093000000001
#
# number of rings (size 3 to 8) (size 9 to 14) (size 15 to 20)
#    0.000    1.200    0.000    7.800    0.000    8.800 
#    3.600    0.000    0.000    0.000    0.000    0.000 
#    0.000    0.000    0.000    0.000    0.000    0.000 
#
# Total GULP energy -247855.891849 kJ/mol
# GULP energy per Si atom -12392.794592 kJ/mol
# Density = 2.104309 g / cm^3
# Si number density = 21.091093 Si / 1000 Ang^3
#
#
#
# Elastic Constant Matrix: (Units=GPa)
#
#
# Indices 1 2 3 4 5 6 
#
# 1 70.1257 58.4489 43.9902 0.0001 4.0351 0.0006
# 2 58.4489 170.5782 68.8576 -0.0014 0.1197 -0.0008
# 3 43.9902 68.8576 179.4970 0.0015 3.0632 0.0014
# 4 0.0001 -0.0014 0.0015 43.3483 -0.0003 5.8482
# 5 4.0351 0.1197 3.0632 -0.0003 30.1095 0.0007
# 6 0.0006 -0.0008 0.0014 5.8482 0.0007 51.3951
#
#
#
# Elastic Compliance Matrix: (Units=1/GPa)
#
#
# Indices 1 2 3 4 5 6 
#
# 1 0.021310 -0.006164 -0.002814 0.000000 -0.002545 0.000000
# 2 -0.006164 0.008721 -0.001852 0.000000 0.000980 0.000000
# 3 -0.002814 -0.001852 0.006977 0.000000 -0.000325 0.000000
# 4 0.000000 0.000000 0.000000 0.023429 0.000000 -0.002666
# 5 -0.002545 0.000980 -0.000325 0.000000 0.033582 0.000000
# 6 0.000000 0.000000 0.000000 -0.002666 0.000000 0.019760
#
#
# Mechanical properties :
#
#
# Convention : Reuss Voigt Hill
#
# Bulk Modulus (GPa) = 65.15705 84.75494 74.95600
# Shear Modulus (GPa) = 35.57327 41.56418 38.56872
#
# Velocity S-wave (km/s) = 4.11134 4.44407 4.28094
# Velocity P-wave (km/s) = 7.31421 8.16122 7.74929
#
# Compressibility (1/GPa) = 0.01534753
#
# Stress axis : x y z
#
# Youngs Moduli (GPa) = 46.92727 114.66220 143.33271
#
# Poissons Ratio (x) = 0.70676 0.40341
# Poissons Ratio (y) = 0.28925 0.26541
# Poissons Ratio (z) = 0.13208 0.21232
#
# Static dielectric constant tensor:
#      x y z
#    x 3.653140 -0.000020 0.098160 
#    y -0.000020 3.847490 0.000050 
#    z 0.098160 0.000050 4.445460 
# 
# 
# High freq. dielectric constant tensor:
#      x y z
#    x 1.801530 0.000000 0.015370 
#    y 0.000000 1.832840 0.000000 
#    z 0.015370 0.000000 1.853830 
# 
# From -- ./inp_files/157287.got.cif
#   From: 2010.06.25/outbox.cif.g09.slc.cpg/sg15_79_cif.got.tgz:157287.got - 2010.06.28 07:06:18.
