data_PCOD8146986
_publ_section_title
;
Structure prediction by ZEFSAII (Michael W. Deem and Ramdas Pophale) SiO2 
 PCOD8146986
Probable space group: C 2/C
;
_chemical_formula_sum "Si O2"
_cell_formula_units_Z 44
_cell_length_a 8.760689
_cell_length_b 19.393886
_cell_length_c 12.358064
_cell_angle_alpha 90.000000
_cell_angle_beta 102.835813
_cell_angle_gamma 90.000000
_cell_volume 2047.212461
_symmetry_space_group_name_H-M "C 2/C"
_symmetry_group_IT_number 15
_symmetry_cell_setting 'monoclinic'
loop_
_space_group_symop_operation_xyz
x,y,z
-x,y,1/2-z
-x,-y,-z
x,-y,1/2+z
1/2+x,1/2+y,z
1/2-x,1/2+y,1/2-z
1/2-x,1/2-y,-z
1/2+x,1/2-y,1/2+z
loop_
_atom_site_type_symbol
_atom_site_label
_atom_site_fract_x
_atom_site_fract_y
_atom_site_fract_z
Si Si1 0.149190 0.316203 0.585125
Si Si2 0.500000 0.904195 0.750000
Si Si3 0.877756 0.089187 0.998397
Si Si4 0.772780 0.943626 0.935507
Si Si5 0.328691 0.186132 0.946294
Si Si6 0.846621 0.818306 0.294287
O O1 0.298867 0.354903 0.562544
O O2 0.204325 0.241396 0.631477
O O3 0.071616 0.355948 0.671110
O O4 0.015199 0.305062 0.474307
O O5 0.645401 0.949240 0.818529
O O6 0.877803 0.113403 0.871910
O O7 0.779196 0.018570 0.992127
O O8 0.051601 0.077035 0.074088
O O9 0.719071 0.886470 0.010894
O O10 0.290755 0.178031 0.814332
O O11 0.250000 0.250000 0.000000
O O12 0.000000 0.799351 0.250000
#
# Coordination Sequence:
#
# PCOD8146986 Si02
#       6
#     8   4   8   8   8   8
#     4  11  23  41  65  96 128 166 224 273 321 383
#     4  10  22  42  68  90 126 176 212 262 324 396
#     4  11  25  41  63  99 133 167 215 277 322 389
#     4  10  23  43  64  96 133 171 212 266 332 392
#     4  11  21  40  68  90 129 177 218 267 325 389
#     4  12  21  40  68  91 127 176 217 262 331 385
#
# _framework density 21.492639
#
# number of rings (size 3 to 8) (size 9 to 14) (size 15 to 20)
#    0.000    1.091    4.545    1.636    0.000    7.273 
#    0.000    1.818    0.000    0.000    0.000    0.000 
#    0.000    0.000    0.000    0.000    0.000    0.000 
#
# Total GULP energy -272727.880465 kJ/mol
# GULP energy per Si atom -12396.721839 kJ/mol
# Density = 2.144372 g / cm^3
# Si number density = 21.492639 Si / 1000 Ang^3
#
#
#
# Elastic Constant Matrix: (Units=GPa)
#
#
# Indices 1 2 3 4 5 6 
#
# 1 98.7377 43.5671 54.2724 0.0000 25.7666 0.0000
# 2 43.5671 135.1574 45.8868 0.0000 6.3087 0.0000
# 3 54.2724 45.8868 117.8820 0.0000 32.6258 0.0000
# 4 0.0000 0.0000 0.0000 23.9389 0.0000 -4.2471
# 5 25.7666 6.3087 32.6258 0.0000 44.7758 0.0000
# 6 0.0000 0.0000 0.0000 -4.2471 0.0000 34.9665
#
#
#
# Elastic Compliance Matrix: (Units=1/GPa)
#
#
# Indices 1 2 3 4 5 6 
#
# 1 0.015288 -0.003207 -0.004360 0.000000 -0.005169 0.000000
# 2 -0.003207 0.009282 -0.002863 0.000000 0.002624 0.000000
# 3 -0.004360 -0.002863 0.013526 0.000000 -0.006944 0.000000
# 4 0.000000 0.000000 0.000000 0.042693 0.000000 0.005186
# 5 -0.005169 0.002624 -0.006944 0.000000 0.029998 0.000000
# 6 0.000000 0.000000 0.000000 0.005186 0.000000 0.029229
#
#
# Mechanical properties :
#
#
# Convention : Reuss Voigt Hill
#
# Bulk Modulus (GPa) = 58.01109 71.02554 64.51832
# Shear Modulus (GPa) = 30.00831 34.60629 32.30730
#
# Velocity S-wave (km/s) = 3.74065 4.01702 3.88129
# Velocity P-wave (km/s) = 6.76065 7.39144 7.08307
#
# Compressibility (1/GPa) = 0.01723808
#
# Stress axis : x y z
#
# Youngs Moduli (GPa) = 65.41070 107.73648 73.92906
#
# Poissons Ratio (x) = 0.34546 0.32231
# Poissons Ratio (y) = 0.20974 0.21165
# Poissons Ratio (z) = 0.28517 0.30844
#
# Static dielectric constant tensor:
#      x y z
#    x 4.145520 0.000000 0.408210 
#    y 0.000000 3.983660 0.000000 
#    z 0.408210 0.000000 4.178020 
# 
# 
# High freq. dielectric constant tensor:
#      x y z
#    x 1.846870 0.000000 0.016860 
#    y 0.000000 1.849860 0.000000 
#    z 0.016860 0.000000 1.841360 
# 
# From -- ./inp_files/78306.got.cif
#   From: 2010.06.25/outbox.cif.g09.slc.cpg/sg15_40_cif.got.tgz:78306.got - 2010.06.28 07:06:18.
