data_PCOD8146647
_publ_section_title
;
Structure prediction by ZEFSAII (Michael W. Deem and Ramdas Pophale) SiO2 
 PCOD8146647
Probable space group: C 2/C
;
_chemical_formula_sum "Si O2"
_cell_formula_units_Z 48
_cell_length_a 11.409435
_cell_length_b 13.949427
_cell_length_c 20.074029
_cell_angle_alpha 90.000000
_cell_angle_beta 47.169367
_cell_angle_gamma 90.000000
_cell_volume 2343.020676
_symmetry_space_group_name_H-M "C 2/C"
_symmetry_group_IT_number 15
_symmetry_cell_setting 'monoclinic'
loop_
_space_group_symop_operation_xyz
x,y,z
-x,y,1/2-z
-x,-y,-z
x,-y,1/2+z
1/2+x,1/2+y,z
1/2-x,1/2+y,1/2-z
1/2-x,1/2-y,-z
1/2+x,1/2-y,1/2+z
loop_
_atom_site_type_symbol
_atom_site_label
_atom_site_fract_x
_atom_site_fract_y
_atom_site_fract_z
Si Si1 0.713938 0.963558 0.238399
Si Si2 0.500000 0.190702 0.750000
Si Si3 0.333175 0.677928 0.417352
Si Si4 0.000000 0.615588 0.250000
Si Si5 0.332020 0.843642 0.941702
Si Si6 0.049939 0.994789 0.056280
Si Si7 0.394795 0.940809 0.589770
O O1 0.636636 0.871418 0.232982
O O2 0.636059 0.054615 0.233503
O O3 0.683527 0.981287 0.328986
O O4 0.903868 0.950957 0.155058
O O5 0.551010 0.256880 0.669866
O O6 0.250000 0.750000 0.500000
O O7 0.424801 0.602002 0.427533
O O8 0.229704 0.619882 0.404227
O O9 0.892209 0.676659 0.342993
O O10 0.493976 0.862986 0.918237
O O11 0.250000 0.750000 0.000000
O O12 0.211988 0.933060 0.998069
O O13 0.000000 0.000000 0.000000
O O14 0.500000 0.000000 0.500000
#
# Coordination Sequence:
#
# PCOD8146647 Si02
#       7
#     8   4   8   4   8   8   8
#     4  10  22  41  72  92 136 182 224 280 346 411
#     4  11  24  44  69 106 130 180 239 280 349 418
#     4  12  26  42  70 102 136 179 238 288 341 418
#     4   9  20  44  67  92 132 178 221 274 337 408
#     4  11  25  44  70 101 136 179 231 283 350 417
#     4  12  24  45  68  98 136 183 228 290 347 415
#     4  11  23  46  66  96 141 180 224 288 348 405
#
# _framework density 20.486374000000001
#
# number of rings (size 3 to 8) (size 9 to 14) (size 15 to 20)
#    0.000    1.000    3.333    3.000    7.000    0.000 
#    3.000    0.000    0.000    0.000    0.000    0.000 
#    0.000    0.000    0.000    0.000    0.000    0.000 
#
# Total GULP energy -297426.197992 kJ/mol
# GULP energy per Si atom -12392.758250 kJ/mol
# Density = 2.043975 g / cm^3
# Si number density = 20.486374 Si / 1000 Ang^3
#
#
#
# Elastic Constant Matrix: (Units=GPa)
#
#
# Indices 1 2 3 4 5 6 
#
# 1 105.7895 41.6464 41.2347 0.0000 9.0079 0.0000
# 2 41.6464 123.4537 64.4904 0.0000 11.5852 0.0000
# 3 41.2347 64.4904 183.0759 -0.0001 17.5160 0.0000
# 4 0.0000 0.0000 -0.0001 44.3637 0.0000 6.4691
# 5 9.0079 11.5852 17.5160 0.0000 38.8064 0.0000
# 6 0.0000 0.0000 0.0000 6.4691 0.0000 32.6379
#
#
#
# Elastic Compliance Matrix: (Units=1/GPa)
#
#
# Indices 1 2 3 4 5 6 
#
# 1 0.011255 -0.002971 -0.001383 0.000000 -0.001101 0.000000
# 2 -0.002971 0.010790 -0.003020 0.000000 -0.001168 0.000000
# 3 -0.001383 -0.003020 0.007024 0.000000 -0.001948 0.000000
# 4 0.000000 0.000000 0.000000 0.023212 0.000000 -0.004601
# 5 -0.001101 -0.001168 -0.001948 0.000000 0.027253 0.000000
# 6 0.000000 0.000000 0.000000 -0.004601 0.000000 0.031551
#
#
# Mechanical properties :
#
#
# Convention : Reuss Voigt Hill
#
# Bulk Modulus (GPa) = 69.82826 78.56247 74.19537
# Shear Modulus (GPa) = 38.28316 40.82476 39.55396
#
# Velocity S-wave (km/s) = 4.32755 4.46890 4.39879
# Velocity P-wave (km/s) = 7.68957 8.06597 7.88002
#
# Compressibility (1/GPa) = 0.01432085
#
# Stress axis : x y z
#
# Youngs Moduli (GPa) = 88.84764 92.68189 142.37225
#
# Poissons Ratio (x) = 0.27536 0.19692
# Poissons Ratio (y) = 0.26397 0.42993
# Poissons Ratio (z) = 0.12289 0.27988
#
# Static dielectric constant tensor:
#      x y z
#    x 4.265410 0.000000 -0.208620 
#    y 0.000000 3.470530 0.000000 
#    z -0.208620 0.000000 4.515630 
# 
# 
# High freq. dielectric constant tensor:
#      x y z
#    x 1.811170 0.000000 0.007200 
#    y 0.000000 1.793460 0.000000 
#    z 0.007200 0.000000 1.825960 
# 
# From -- ./inp_files/182551.got.cif
#   From: 2010.06.25/outbox.cif.g09.slc.cpg/sg15_92_cif.got.tgz:182551.got - 2010.06.28 07:06:18.
