data_PCOD8146666
_publ_section_title
;
Structure prediction by ZEFSAII (Michael W. Deem and Ramdas Pophale) SiO2 
 PCOD8146666
Probable space group: C 2/C
;
_chemical_formula_sum "Si O2"
_cell_formula_units_Z 60
_cell_length_a 10.072578
_cell_length_b 9.890094
_cell_length_c 30.191194
_cell_angle_alpha 90.000000
_cell_angle_beta 84.592765
_cell_angle_gamma 90.000000
_cell_volume 2994.225164
_symmetry_space_group_name_H-M "C 2/C"
_symmetry_group_IT_number 15
_symmetry_cell_setting 'monoclinic'
loop_
_space_group_symop_operation_xyz
x,y,z
-x,y,1/2-z
-x,-y,-z
x,-y,1/2+z
1/2+x,1/2+y,z
1/2-x,1/2+y,1/2-z
1/2-x,1/2-y,-z
1/2+x,1/2-y,1/2+z
loop_
_atom_site_type_symbol
_atom_site_label
_atom_site_fract_x
_atom_site_fract_y
_atom_site_fract_z
Si Si1 0.987533 0.631617 0.447393
Si Si2 0.537495 0.170683 0.544431
Si Si3 0.375636 0.214231 0.824895
Si Si4 0.712314 0.368576 0.587138
Si Si5 0.000000 0.107843 0.250000
Si Si6 0.870189 0.732247 0.632071
Si Si7 0.399362 0.640144 0.886147
Si Si8 0.865336 0.022249 0.672702
O O1 0.990808 0.697560 0.495904
O O2 0.133877 0.601422 0.424306
O O3 0.916180 0.485431 0.450803
O O4 0.907697 0.731800 0.418223
O O5 0.666249 0.261095 0.551683
O O6 0.415864 0.213570 0.579947
O O7 0.311162 0.313493 0.862869
O O8 0.394922 0.297891 0.779269
O O9 0.520349 0.163918 0.838570
O O10 0.281260 0.086629 0.818971
O O11 0.626549 0.505442 0.584273
O O12 0.915392 0.013281 0.220104
O O13 0.726765 0.661729 0.642885
O O14 0.857841 0.890616 0.642494
O O15 0.533068 0.628366 0.852947
#
# Coordination Sequence:
#
# PCOD8146666 Si02
#       8
#     8   8   8   8   4   8   8   8
#     4  11  24  38  61  95 130 171 218 265 310 372
#     4  10  22  42  57  90 137 169 211 273 313 355
#     4  10  22  44  68  89 130 165 200 259 323 381
#     4  11  21  42  62  89 127 172 212 262 315 376
#     4  10  22  42  64 100 128 150 204 270 318 386
#     4  10  23  40  63  93 129 169 214 259 308 371
#     4  12  23  38  67  95 123 171 219 256 311 379
#     4  11  23  44  68  94 126 167 206 260 322 383
#
# _framework density 20.038573
#
# number of rings (size 3 to 8) (size 9 to 14) (size 15 to 20)
#    0.000    1.333    6.667    0.400    3.733    3.200 
#    0.000    0.000    0.000    0.000    0.000    0.000 
#    0.000    0.000    0.000    0.000    0.000    0.000 
#
# Total GULP energy -372048.723314 kJ/mol
# GULP energy per Si atom -12401.624110 kJ/mol
# Density = 1.999296 g / cm^3
# Si number density = 20.038573 Si / 1000 Ang^3
#
#
#
# Elastic Constant Matrix: (Units=GPa)
#
#
# Indices 1 2 3 4 5 6 
#
# 1 114.9850 57.1988 31.1101 0.0000 11.1429 0.0000
# 2 57.1988 103.3444 45.6927 0.0000 15.4841 0.0000
# 3 31.1101 45.6927 111.1616 0.0000 12.9117 0.0000
# 4 0.0000 0.0000 0.0000 25.1347 0.0000 2.8810
# 5 11.1429 15.4841 12.9117 0.0000 18.0086 0.0000
# 6 0.0000 0.0000 0.0000 2.8810 0.0000 42.9767
#
#
#
# Elastic Compliance Matrix: (Units=1/GPa)
#
#
# Indices 1 2 3 4 5 6 
#
# 1 0.012100 -0.006147 -0.000659 0.000000 -0.001730 0.000000
# 2 -0.006147 0.015896 -0.004001 0.000000 -0.006995 0.000000
# 3 -0.000659 -0.004001 0.011321 0.000000 -0.004269 0.000000
# 4 0.000000 0.000000 0.000000 0.040094 0.000000 -0.002688
# 5 -0.001730 -0.006995 -0.004269 0.000000 0.065675 0.000000
# 6 0.000000 0.000000 0.000000 -0.002688 0.000000 0.023449
#
#
# Mechanical properties :
#
#
# Convention : Reuss Voigt Hill
#
# Bulk Modulus (GPa) = 56.48695 66.38822 61.43759
# Shear Modulus (GPa) = 25.50391 30.25663 27.88027
#
# Velocity S-wave (km/s) = 3.57142 3.88998 3.73410
# Velocity P-wave (km/s) = 6.72733 7.30603 7.02265
#
# Compressibility (1/GPa) = 0.01770320
#
# Stress axis : x y z
#
# Youngs Moduli (GPa) = 82.64208 62.91042 88.33304
#
# Poissons Ratio (x) = 0.38670 0.05821
# Poissons Ratio (y) = 0.50798 0.35343
# Poissons Ratio (z) = 0.05446 0.25171
#
# Static dielectric constant tensor:
#      x y z
#    x 3.727660 0.000000 -0.053260 
#    y 0.000000 3.669350 0.000000 
#    z -0.053260 0.000000 3.592080 
# 
# 
# High freq. dielectric constant tensor:
#      x y z
#    x 1.781910 0.000000 -0.004400 
#    y 0.000000 1.784580 0.000000 
#    z -0.004400 0.000000 1.775540 
# 
# From -- ./inp_files/309966.got.cif
#   From: 2010.06.25/outbox.cif.g09.slc.cpg/sg15_155_cif.got.tgz:309966.got - 2010.06.28 07:06:18.
