data_PCOD8146002
_publ_section_title
;
Structure prediction by ZEFSAII (Michael W. Deem and Ramdas Pophale) SiO2 
 PCOD8146002
Probable space group: C 2/C
;
_chemical_formula_sum "Si O2"
_cell_formula_units_Z 52
_cell_length_a 5.153128
_cell_length_b 18.184888
_cell_length_c 26.381931
_cell_angle_alpha 90.000000
_cell_angle_beta 117.502272
_cell_angle_gamma 90.000000
_cell_volume 2192.845831
_symmetry_space_group_name_H-M "C 2/C"
_symmetry_group_IT_number 15
_symmetry_cell_setting 'monoclinic'
loop_
_space_group_symop_operation_xyz
x,y,z
-x,y,1/2-z
-x,-y,-z
x,-y,1/2+z
1/2+x,1/2+y,z
1/2-x,1/2+y,1/2-z
1/2-x,1/2-y,-z
1/2+x,1/2-y,1/2+z
loop_
_atom_site_type_symbol
_atom_site_label
_atom_site_fract_x
_atom_site_fract_y
_atom_site_fract_z
Si Si1 0.103814 0.074440 0.074947
Si Si2 0.156686 0.066742 0.717666
Si Si3 0.467110 0.799251 0.633726
Si Si4 0.000000 0.674230 0.250000
Si Si5 0.829557 0.435058 0.049968
Si Si6 0.027243 0.082367 0.324224
Si Si7 0.040554 0.138002 0.898215
O O1 0.183479 0.161036 0.084169
O O2 0.081080 0.052140 0.131230
O O3 0.349162 0.019437 0.072170
O O4 0.794679 0.063882 0.018498
O O5 0.500000 0.045468 0.750000
O O6 0.000000 0.112060 0.750000
O O7 0.146807 0.115447 0.666809
O O8 0.931593 0.996434 0.698310
O O9 0.453817 0.779927 0.693179
O O10 0.707480 0.861946 0.645925
O O11 0.492644 0.726202 0.603097
O O12 0.717879 0.623390 0.231412
O O13 0.590011 0.392326 0.061800
O O14 0.131283 0.391657 0.078594
#
# Coordination Sequence:
#
# PCOD8146002 Si02
#       7
#     8   8   8   4   8   8   8
#     4  10  25  45  75  99 136 185 243 296 352 423
#     4  12  25  43  72 101 139 182 235 295 350 417
#     4  11  26  42  70 100 147 187 233 292 359 435
#     4  10  22  40  64  96 134 188 230 284 342 426
#     4  11  26  49  73 104 139 186 242 298 354 417
#     4  11  22  43  68 104 134 185 241 287 354 423
#     4  12  28  46  70 106 147 184 234 293 363 428
#
# _framework density 23.713476
#
# number of rings (size 3 to 8) (size 9 to 14) (size 15 to 20)
#    0.000    0.923    2.308    3.231    9.692    3.692 
#    0.000    0.000    0.000    0.000    0.000    0.000 
#    0.000    0.000    0.000    0.000    0.000    0.000 
#
# Total GULP energy -322121.046393 kJ/mol
# GULP energy per Si atom -12389.271015 kJ/mol
# Density = 2.365950 g / cm^3
# Si number density = 23.713476 Si / 1000 Ang^3
#
#
#
# Elastic Constant Matrix: (Units=GPa)
#
#
# Indices 1 2 3 4 5 6 
#
# 1 87.2445 16.1192 7.1409 0.0000 9.8832 0.0000
# 2 16.1192 105.8901 40.3749 0.0000 -1.7378 0.0000
# 3 7.1409 40.3749 86.9859 0.0000 11.1225 0.0000
# 4 0.0000 0.0000 0.0000 14.7684 0.0000 -6.8034
# 5 9.8832 -1.7378 11.1225 0.0000 26.6939 0.0000
# 6 0.0000 0.0000 0.0000 -6.8034 0.0000 19.0775
#
#
#
# Elastic Compliance Matrix: (Units=1/GPa)
#
#
# Indices 1 2 3 4 5 6 
#
# 1 0.012385 -0.002216 0.000651 0.000000 -0.005001 0.000000
# 2 -0.002216 0.012124 -0.005970 0.000000 0.004097 0.000000
# 3 0.000651 -0.005970 0.015098 0.000000 -0.006921 0.000000
# 4 0.000000 0.000000 0.000000 0.081023 0.000000 0.028894
# 5 -0.005001 0.004097 -0.006921 0.000000 0.042464 0.000000
# 6 0.000000 0.000000 0.000000 0.028894 0.000000 0.062722
#
#
# Mechanical properties :
#
#
# Convention : Reuss Voigt Hill
#
# Bulk Modulus (GPa) = 40.75093 45.26561 43.00827
# Shear Modulus (GPa) = 20.07517 26.54033 23.30775
#
# Velocity S-wave (km/s) = 2.91275 3.34909 3.13851
# Velocity P-wave (km/s) = 5.34174 5.83825 5.59550
#
# Compressibility (1/GPa) = 0.02453932
#
# Stress axis : x y z
#
# Youngs Moduli (GPa) = 80.74544 82.47829 66.23222
#
# Poissons Ratio (x) = 0.18274 -0.04313
# Poissons Ratio (y) = 0.17890 0.39538
# Poissons Ratio (z) = -0.05258 0.49236
#
# Static dielectric constant tensor:
#      x y z
#    x 4.313180 0.000000 -0.089150 
#    y 0.000000 4.162360 0.000000 
#    z -0.089150 0.000000 4.442330 
# 
# 
# High freq. dielectric constant tensor:
#      x y z
#    x 1.932860 0.000000 -0.007490 
#    y 0.000000 1.930110 0.000000 
#    z -0.007490 0.000000 1.959430 
# 
# From -- ./inp_files/286157.got.cif
#   From: 2010.06.25/outbox.cif.g09.slc.cpg/sg15_144_cif.got.tgz:286157.got - 2010.06.28 07:06:18.
