data_PCOD8146963
_publ_section_title
;
Structure prediction by ZEFSAII (Michael W. Deem and Ramdas Pophale) SiO2 
 PCOD8146963
Probable space group: C 2/C
;
_chemical_formula_sum "Si O2"
_cell_formula_units_Z 48
_cell_length_a 7.827638
_cell_length_b 25.562378
_cell_length_c 13.700813
_cell_angle_alpha 90.000000
_cell_angle_beta 50.079407
_cell_angle_gamma 90.000000
_cell_volume 2102.503029
_symmetry_space_group_name_H-M "C 2/C"
_symmetry_group_IT_number 15
_symmetry_cell_setting 'monoclinic'
loop_
_space_group_symop_operation_xyz
x,y,z
-x,y,1/2-z
-x,-y,-z
x,-y,1/2+z
1/2+x,1/2+y,z
1/2-x,1/2+y,1/2-z
1/2-x,1/2-y,-z
1/2+x,1/2-y,1/2+z
loop_
_atom_site_type_symbol
_atom_site_label
_atom_site_fract_x
_atom_site_fract_y
_atom_site_fract_z
Si Si1 0.270398 0.389090 0.789252
Si Si2 0.597195 0.943667 0.486735
Si Si3 0.500000 0.613172 0.750000
Si Si4 0.429787 0.341117 0.069641
Si Si5 0.238817 0.712471 0.188724
Si Si6 0.500000 0.218783 0.750000
Si Si7 0.614030 0.554587 0.434907
O O1 0.500000 0.369328 0.750000
O O2 0.167726 0.341283 0.767255
O O3 0.303979 0.440459 0.707056
O O4 0.110169 0.403673 0.938363
O O5 0.680530 0.940226 0.567349
O O6 0.787027 0.925251 0.341624
O O7 0.500000 0.000000 0.500000
O O8 0.534348 0.651640 0.828066
O O9 0.188468 0.317741 0.133093
O O10 0.617055 0.301124 0.960409
O O11 0.440935 0.397791 0.014507
O O12 0.386316 0.747891 0.206027
O O13 0.000000 0.739466 0.250000
O O14 0.500000 0.500000 0.500000
#
# Coordination Sequence:
#
# PCOD8146963 Si02
#       7
#     8   8   4   8   8   4   8
#     4  11  22  41  68 100 135 181 240 295 350 432
#     4  11  24  39  67  99 140 184 236 291 359 429
#     4  10  24  46  65 100 146 187 228 298 368 414
#     4  10  25  46  69 104 147 183 241 297 359 433
#     4  11  24  48  74 104 139 189 244 297 361 427
#     4  12  26  46  73 112 144 185 238 298 368 428
#     4  10  22  42  67  97 137 184 233 292 358 423
#
# _framework density 22.829930999999998
#
# number of rings (size 3 to 8) (size 9 to 14) (size 15 to 20)
#    0.000    1.333    0.833    5.000    7.000    4.667 
#    6.000    0.000    0.000    0.000    0.000    0.000 
#    0.000    0.000    0.000    0.000    0.000    0.000 
#
# Total GULP energy -297587.713720 kJ/mol
# GULP energy per Si atom -12399.488072 kJ/mol
# Density = 2.277797 g / cm^3
# Si number density = 22.829931 Si / 1000 Ang^3
#
#
#
# Elastic Constant Matrix: (Units=GPa)
#
#
# Indices 1 2 3 4 5 6 
#
# 1 126.0461 50.8339 59.3368 0.0000 -15.9182 0.0000
# 2 50.8339 112.2706 57.3941 0.0000 -15.2568 0.0000
# 3 59.3368 57.3941 164.1313 0.0000 -23.1398 0.0000
# 4 0.0000 0.0000 0.0000 25.9339 0.0000 -9.8010
# 5 -15.9182 -15.2568 -23.1398 0.0000 43.8766 0.0000
# 6 0.0000 0.0000 0.0000 -9.8010 0.0000 37.9017
#
#
#
# Elastic Compliance Matrix: (Units=1/GPa)
#
#
# Indices 1 2 3 4 5 6 
#
# 1 0.010627 -0.003360 -0.002472 0.000000 0.001383 0.000000
# 2 -0.003360 0.012059 -0.002790 0.000000 0.001503 0.000000
# 3 -0.002472 -0.002790 0.008317 0.000000 0.002519 0.000000
# 4 0.000000 0.000000 0.000000 0.042736 0.000000 0.011051
# 5 0.001383 0.001503 0.002519 0.000000 0.025144 0.000000
# 6 0.000000 0.000000 0.000000 0.011051 0.000000 0.029242
#
#
# Mechanical properties :
#
#
# Convention : Reuss Voigt Hill
#
# Bulk Modulus (GPa) = 72.68042 81.95306 77.31674
# Shear Modulus (GPa) = 33.34307 37.20131 35.27219
#
# Velocity S-wave (km/s) = 3.82579 4.04108 3.93491
# Velocity P-wave (km/s) = 7.17079 7.59927 7.38814
#
# Compressibility (1/GPa) = 0.01375886
#
# Stress axis : x y z
#
# Youngs Moduli (GPa) = 94.09916 82.92531 120.23245
#
# Poissons Ratio (x) = 0.27863 0.29720
# Poissons Ratio (y) = 0.31618 0.33548
# Poissons Ratio (z) = 0.23260 0.23138
#
# Static dielectric constant tensor:
#      x y z
#    x 4.105580 0.000000 -0.059330 
#    y 0.000000 4.401700 0.000000 
#    z -0.059330 0.000000 4.298190 
# 
# 
# High freq. dielectric constant tensor:
#      x y z
#    x 1.905020 0.000000 -0.006160 
#    y 0.000000 1.899060 0.000000 
#    z -0.006160 0.000000 1.908430 
# 
# From -- ./inp_files/138971.got.cif
#   From: 2010.06.25/outbox.cif.g09.slc.cpg/sg15_70_cif.got.tgz:138971.got - 2010.06.28 07:06:18.
