data_PCOD8146296
_publ_section_title
;
Structure prediction by ZEFSAII (Michael W. Deem and Ramdas Pophale) SiO2 
 PCOD8146296
Probable space group: C 2/C
;
_chemical_formula_sum "Si O2"
_cell_formula_units_Z 56
_cell_length_a 6.545210
_cell_length_b 26.462089
_cell_length_c 15.419037
_cell_angle_alpha 90.000000
_cell_angle_beta 61.380696
_cell_angle_gamma 90.000000
_cell_volume 2344.289526
_symmetry_space_group_name_H-M "C 2/C"
_symmetry_group_IT_number 15
_symmetry_cell_setting 'monoclinic'
loop_
_space_group_symop_operation_xyz
x,y,z
-x,y,1/2-z
-x,-y,-z
x,-y,1/2+z
1/2+x,1/2+y,z
1/2-x,1/2+y,1/2-z
1/2-x,1/2-y,-z
1/2+x,1/2-y,1/2+z
loop_
_atom_site_type_symbol
_atom_site_label
_atom_site_fract_x
_atom_site_fract_y
_atom_site_fract_z
Si Si1 0.014303 0.836152 0.849487
Si Si2 0.358465 0.535472 0.860094
Si Si3 0.898748 0.491175 0.363702
Si Si4 0.898648 0.410496 0.952895
Si Si5 0.880394 0.062893 0.444520
Si Si6 0.683846 0.254060 0.147988
Si Si7 0.009521 0.303383 0.962407
O O1 0.049235 0.887808 0.900762
O O2 0.780098 0.808647 0.928247
O O3 0.000000 0.850151 0.750000
O O4 0.222082 0.797106 0.824940
O O5 0.500000 0.556733 0.750000
O O6 0.499008 0.487741 0.875707
O O7 0.107979 0.513015 0.888827
O O8 0.309094 0.581154 0.935363
O O9 0.827022 0.551065 0.387767
O O10 0.697310 0.452636 0.440635
O O11 0.000000 0.475209 0.250000
O O12 0.899128 0.351188 0.932422
O O13 0.155714 0.421033 0.935702
O O14 0.500000 0.280376 0.250000
O O15 0.538199 0.243702 0.090040
O O16 0.886992 0.293455 0.080921
#
# Coordination Sequence:
#
# PCOD8146296 Si02
#       7
#     8   8   8   8   8   8   8
#     4  11  20  38  66  89 113 159 203 240 300 364
#     4   9  16  31  51  75 108 148 185 224 289 347
#     4   9  17  33  53  78 114 150 187 235 280 335
#     4   8  17  34  54  75 105 154 187 225 291 351
#     4   8  17  33  54  77 114 150 186 233 284 340
#     4  11  23  40  62  90 117 152 197 254 310 355
#     4  10  22  41  61  85 123 150 195 258 299 355
#
# _framework density 23.887833000000001
#
# number of rings (size 3 to 8) (size 9 to 14) (size 15 to 20)
#    0.000    2.571    1.429    2.571    0.000    1.143 
#    7.714    1.429    6.286    0.857    0.000    0.000 
#    0.000    0.000    0.000    0.000    0.000    0.000 
#
# Total GULP energy -346948.860574 kJ/mol
# GULP energy per Si atom -12391.030735 kJ/mol
# Density = 2.383346 g / cm^3
# Si number density = 23.887833 Si / 1000 Ang^3
#
#
#
# Elastic Constant Matrix: (Units=GPa)
#
#
# Indices 1 2 3 4 5 6 
#
# 1 27.8653 5.9048 -2.4648 0.0000 -1.5025 0.0000
# 2 5.9048 53.2527 14.4651 0.0000 -4.3948 0.0000
# 3 -2.4648 14.4651 162.5957 0.0000 -12.7796 0.0000
# 4 0.0000 0.0000 0.0000 46.1277 0.0000 1.7338
# 5 -1.5025 -4.3948 -12.7796 0.0000 24.6822 0.0000
# 6 0.0000 0.0000 0.0000 1.7338 0.0000 34.0162
#
#
#
# Elastic Compliance Matrix: (Units=1/GPa)
#
#
# Indices 1 2 3 4 5 6 
#
# 1 0.036992 -0.004230 0.001100 0.000000 0.002068 0.000000
# 2 -0.004230 0.019894 -0.001643 0.000000 0.002434 0.000000
# 3 0.001100 -0.001643 0.006562 0.000000 0.003172 0.000000
# 4 0.000000 0.000000 0.000000 0.021721 0.000000 -0.001107
# 5 0.002068 0.002434 0.003172 0.000000 0.042717 0.000000
# 6 0.000000 0.000000 0.000000 -0.001107 0.000000 0.029454
#
#
# Mechanical properties :
#
#
# Convention : Reuss Voigt Hill
#
# Bulk Modulus (GPa) = 18.55176 31.05821 24.80499
# Shear Modulus (GPa) = 27.04841 36.01913 31.53377
#
# Velocity S-wave (km/s) = 3.36863 3.88731 3.63723
# Velocity P-wave (km/s) = 4.78678 5.76005 5.29582
#
# Compressibility (1/GPa) = 0.05390323
#
# Stress axis : x y z
#
# Youngs Moduli (GPa) = 27.03285 50.26520 152.38428
#
# Poissons Ratio (x) = 0.21261 -0.16756
# Poissons Ratio (y) = 0.11434 0.25032
# Poissons Ratio (z) = -0.02973 0.08257
#
# Static dielectric constant tensor:
#      x y z
#    x 4.330020 0.000000 -0.175900 
#    y 0.000000 4.268200 0.000000 
#    z -0.175900 0.000000 4.299520 
# 
# 
# High freq. dielectric constant tensor:
#      x y z
#    x 1.969220 0.000000 -0.013220 
#    y 0.000000 1.919490 0.000000 
#    z -0.013220 0.000000 1.943350 
# 
# From -- ./inp_files/193569.got.cif
#   From: 2010.06.25/outbox.cif.g09.slc.cpg/sg15_97_cif.got.tgz:193569.got - 2010.06.28 07:06:18.
