data_PCOD8146123
_publ_section_title
;
Structure prediction by ZEFSAII (Michael W. Deem and Ramdas Pophale) SiO2 
 PCOD8146123
Probable space group: C 2/C
;
_chemical_formula_sum "Si O2"
_cell_formula_units_Z 48
_cell_length_a 22.917977
_cell_length_b 19.277135
_cell_length_c 17.250233
_cell_angle_alpha 90.000000
_cell_angle_beta 18.112459
_cell_angle_gamma 90.000000
_cell_volume 2369.249867
_symmetry_space_group_name_H-M "C 2/C"
_symmetry_group_IT_number 15
_symmetry_cell_setting 'monoclinic'
loop_
_space_group_symop_operation_xyz
x,y,z
-x,y,1/2-z
-x,-y,-z
x,-y,1/2+z
1/2+x,1/2+y,z
1/2-x,1/2+y,1/2-z
1/2-x,1/2-y,-z
1/2+x,1/2-y,1/2+z
loop_
_atom_site_type_symbol
_atom_site_label
_atom_site_fract_x
_atom_site_fract_y
_atom_site_fract_z
Si Si1 0.555351 0.422909 0.949046
Si Si2 0.623649 0.347355 0.705345
Si Si3 0.500000 0.762951 0.250000
Si Si4 0.318986 0.955550 0.746961
Si Si5 0.500000 0.462863 0.750000
Si Si6 0.913668 0.819498 0.236723
Si Si7 0.706273 0.179343 0.147691
O O1 0.561176 0.373224 0.867846
O O2 0.749459 0.427427 0.751379
O O3 0.500000 0.500000 0.000000
O O4 0.399975 0.387027 0.199901
O O5 0.485097 0.288141 0.844304
O O6 0.826570 0.313840 0.458689
O O7 0.627145 0.414771 0.645169
O O8 0.401714 0.890232 0.690613
O O9 0.500000 0.000000 0.500000
O O10 0.147371 0.991657 0.012334
O O11 0.734954 0.823563 0.518667
O O12 0.909828 0.749509 0.189012
O O13 0.100937 0.819574 0.049721
#
# Coordination Sequence:
#
# PCOD8146123 Si02
#       7
#     8   8   4   8   4   8   8
#     4  11  22  39  59  94 124 164 210 268 318 383
#     4  10  22  40  67  89 128 170 217 270 329 387
#     4   9  22  44  62  94 119 174 222 264 331 390
#     4  11  24  40  63  96 130 170 218 259 329 393
#     4  11  22  44  64  90 137 178 206 280 333 390
#     4   9  19  36  60  84 118 155 204 248 316 368
#     4   9  19  38  60  84 117 163 195 256 312 378
#
# _framework density 20.259577
#
# number of rings (size 3 to 8) (size 9 to 14) (size 15 to 20)
#    0.000    2.000    1.667    2.000    2.333    4.000 
#    6.000    0.000    0.000    0.000    0.000    0.000 
#    0.000    0.000    0.000    0.000    0.000    0.000 
#
# Total GULP energy -297333.859461 kJ/mol
# GULP energy per Si atom -12388.910811 kJ/mol
# Density = 2.021347 g / cm^3
# Si number density = 20.259577 Si / 1000 Ang^3
#
#
#
# Elastic Constant Matrix: (Units=GPa)
#
#
# Indices 1 2 3 4 5 6 
#
# 1 114.4885 64.5015 30.9252 0.0156 12.8867 -0.0179
# 2 64.5015 180.0204 51.4445 -0.0289 11.8891 -0.0106
# 3 30.9252 51.4445 67.6764 -0.0451 8.9503 -0.0135
# 4 0.0156 -0.0289 -0.0451 40.3142 -0.0001 0.2888
# 5 12.8867 11.8891 8.9503 -0.0001 17.9297 0.0082
# 6 -0.0179 -0.0106 -0.0135 0.2888 0.0082 42.2424
#
#
#
# Elastic Compliance Matrix: (Units=1/GPa)
#
#
# Indices 1 2 3 4 5 6 
#
# 1 0.011737 -0.003227 -0.002224 -0.000009 -0.005186 0.000005
# 2 -0.003227 0.008063 -0.004554 0.000002 -0.000753 -0.000001
# 3 -0.002224 -0.004554 0.019962 0.000020 -0.005346 0.000005
# 4 -0.000009 0.000002 0.000020 0.024806 -0.000004 -0.000170
# 5 -0.005186 -0.000753 -0.005346 -0.000004 0.062668 -0.000016
# 6 0.000005 -0.000001 0.000005 -0.000170 -0.000016 0.023674
#
#
# Mechanical properties :
#
#
# Convention : Reuss Voigt Hill
#
# Bulk Modulus (GPa) = 50.63470 72.88086 61.75778
# Shear Modulus (GPa) = 28.16810 34.45154 31.30982
#
# Velocity S-wave (km/s) = 3.73280 4.12819 3.93546
# Velocity P-wave (km/s) = 6.60497 7.66644 7.15541
#
# Compressibility (1/GPa) = 0.01974930
#
# Stress axis : x y z
#
# Youngs Moduli (GPa) = 85.19867 124.03029 50.09588
#
# Poissons Ratio (x) = 0.40029 0.11143
# Poissons Ratio (y) = 0.27497 0.22816
# Poissons Ratio (z) = 0.18951 0.56489
#
# Static dielectric constant tensor:
#      x y z
#    x 4.009430 0.000010 0.114990 
#    y 0.000010 4.225030 0.000110 
#    z 0.114990 0.000110 3.240910 
# 
# 
# High freq. dielectric constant tensor:
#      x y z
#    x 1.806840 -0.000010 0.003490 
#    y -0.000010 1.819970 0.000010 
#    z 0.003490 0.000010 1.747740 
# 
# From -- ./inp_files/206695.got.cif
#   From: 2010.06.25/outbox.cif.g09.slc.cpg/sg15_104_cif.got.tgz:206695.got - 2010.06.28 07:06:18.
