data_PCOD8146547
_publ_section_title
;
Structure prediction by ZEFSAII (Michael W. Deem and Ramdas Pophale) SiO2 
 PCOD8146547
Probable space group: C 2/C
;
_chemical_formula_sum "Si O2"
_cell_formula_units_Z 56
_cell_length_a 13.814568
_cell_length_b 19.202037
_cell_length_c 18.333183
_cell_angle_alpha 90.000000
_cell_angle_beta 147.343485
_cell_angle_gamma 90.000000
_cell_volume 2624.192128
_symmetry_space_group_name_H-M "C 2/C"
_symmetry_group_IT_number 15
_symmetry_cell_setting 'monoclinic'
loop_
_space_group_symop_operation_xyz
x,y,z
-x,y,1/2-z
-x,-y,-z
x,-y,1/2+z
1/2+x,1/2+y,z
1/2-x,1/2+y,1/2-z
1/2-x,1/2-y,-z
1/2+x,1/2-y,1/2+z
loop_
_atom_site_type_symbol
_atom_site_label
_atom_site_fract_x
_atom_site_fract_y
_atom_site_fract_z
Si Si1 0.531075 0.143164 0.854213
Si Si2 0.500000 0.128329 0.250000
Si Si3 0.500000 0.352950 0.250000
Si Si4 0.130287 0.934878 0.472076
Si Si5 0.979803 0.209362 0.089986
Si Si6 0.600014 0.577329 0.385031
Si Si7 0.339245 0.756389 0.742405
Si Si8 0.855503 0.845684 0.372531
O O1 0.500000 0.125701 0.750000
O O2 0.578844 0.224506 0.899716
O O3 0.343166 0.127886 0.777642
O O4 0.690027 0.098232 0.991835
O O5 0.664949 0.079031 0.375802
O O6 0.547502 0.176454 0.210427
O O7 0.589294 0.399306 0.368834
O O8 0.657239 0.303028 0.318059
O O9 0.998500 0.907237 0.452171
O O10 0.096275 0.017183 0.443782
O O11 0.138537 0.220897 0.133130
O O12 0.018596 0.144592 0.167935
O O13 0.824834 0.180424 0.936956
O O14 0.500000 0.548173 0.250000
O O15 0.422127 0.721122 0.867677
#
# Coordination Sequence:
#
# PCOD8146547 Si02
#       8
#     8   4   4   8   8   8   8   8
#     4  11  24  44  68  97 125 169 216 265 317 370
#     4  11  22  38  68 100 127 168 220 256 311 386
#     4   9  20  42  66  88 137 168 208 258 325 378
#     4  11  24  44  63  95 132 173 208 258 320 385
#     4  11  22  40  67  98 130 160 215 266 316 367
#     4  12  27  45  66  90 129 173 217 257 320 387
#     4   9  21  36  65 101 127 166 209 267 317 368
#     4  10  22  41  67  98 133 164 205 269 325 366
#
# _framework density 21.3399
#
# number of rings (size 3 to 8) (size 9 to 14) (size 15 to 20)
#    0.000    1.429    3.571    0.857    7.000    2.286 
#    2.571    0.714    0.000    0.000    0.000    0.000 
#    0.000    0.000    0.000    0.000    0.000    0.000 
#
# Total GULP energy -347011.529268 kJ/mol
# GULP energy per Si atom -12393.268902 kJ/mol
# Density = 2.129133 g / cm^3
# Si number density = 21.339900 Si / 1000 Ang^3
#
#
#
# Elastic Constant Matrix: (Units=GPa)
#
#
# Indices 1 2 3 4 5 6 
#
# 1 44.7482 4.0621 28.1441 0.0007 -2.1307 -0.0005
# 2 4.0621 97.3025 35.5496 -0.0023 0.2181 -0.0026
# 3 28.1441 35.5496 121.0861 0.0026 11.8475 -0.0013
# 4 0.0007 -0.0023 0.0026 27.3510 0.0013 -0.6634
# 5 -2.1307 0.2181 11.8475 0.0013 35.6601 -0.0006
# 6 -0.0005 -0.0026 -0.0013 -0.6634 -0.0006 20.9458
#
#
#
# Elastic Compliance Matrix: (Units=1/GPa)
#
#
# Indices 1 2 3 4 5 6 
#
# 1 0.026836 0.001445 -0.007047 0.000000 0.003936 0.000001
# 2 0.001445 0.011631 -0.003878 0.000001 0.001304 0.000001
# 3 -0.007047 -0.003878 0.011446 -0.000001 -0.004200 0.000000
# 4 0.000000 0.000001 -0.000001 0.036590 -0.000001 0.001159
# 5 0.003936 0.001304 -0.004200 -0.000001 0.029665 0.000001
# 6 0.000001 0.000001 0.000000 0.001159 0.000001 0.047779
#
#
# Mechanical properties :
#
#
# Convention : Reuss Voigt Hill
#
# Bulk Modulus (GPa) = 32.30686 44.29428 38.30057
# Shear Modulus (GPa) = 25.87678 29.81678 27.84678
#
# Velocity S-wave (km/s) = 3.48602 3.74201 3.61628
# Velocity P-wave (km/s) = 5.60135 6.28266 5.95176
#
# Compressibility (1/GPa) = 0.03095318
#
# Stress axis : x y z
#
# Youngs Moduli (GPa) = 37.26400 85.97806 87.36630
#
# Poissons Ratio (x) = -0.12428 0.61566
# Poissons Ratio (y) = -0.05386 0.33883
# Poissons Ratio (z) = 0.26259 0.33344
#
# Static dielectric constant tensor:
#      x y z
#    x 3.964970 0.000000 0.067110 
#    y 0.000000 3.791560 -0.000010 
#    z 0.067110 -0.000010 3.817610 
# 
# 
# High freq. dielectric constant tensor:
#      x y z
#    x 1.842920 0.000000 0.005790 
#    y 0.000000 1.829220 0.000000 
#    z 0.005790 0.000000 1.833600 
# 
# From -- ./inp_files/245220.got.cif
#   From: 2010.06.25/outbox.cif.g09.slc.cpg/sg15_123_cif.got.tgz:245220.got - 2010.06.28 07:06:18.
