data_PCOD8146010
_publ_section_title
;
Structure prediction by ZEFSAII (Michael W. Deem and Ramdas Pophale) SiO2 
 PCOD8146010
Probable space group: C 2/C
;
_chemical_formula_sum "Si O2"
_cell_formula_units_Z 52
_cell_length_a 24.995541
_cell_length_b 13.022490
_cell_length_c 9.963534
_cell_angle_alpha 90.000000
_cell_angle_beta 45.511530
_cell_angle_gamma 90.000000
_cell_volume 2313.651277
_symmetry_space_group_name_H-M "C 2/C"
_symmetry_group_IT_number 15
_symmetry_cell_setting 'monoclinic'
loop_
_space_group_symop_operation_xyz
x,y,z
-x,y,1/2-z
-x,-y,-z
x,-y,1/2+z
1/2+x,1/2+y,z
1/2-x,1/2+y,1/2-z
1/2-x,1/2-y,-z
1/2+x,1/2-y,1/2+z
loop_
_atom_site_type_symbol
_atom_site_label
_atom_site_fract_x
_atom_site_fract_y
_atom_site_fract_z
Si Si1 0.393359 0.789544 0.130177
Si Si2 0.846889 0.082180 0.931560
Si Si3 0.732931 0.232135 0.838372
Si Si4 0.000000 0.829106 0.250000
Si Si5 0.049804 0.492214 0.543616
Si Si6 0.731712 0.493918 0.174116
Si Si7 0.144062 0.657724 0.517631
O O1 0.318194 0.738786 0.203168
O O2 0.396007 0.782989 0.287891
O O3 0.466444 0.738174 0.932321
O O4 0.386491 0.909344 0.100407
O O5 0.832487 0.011204 0.827282
O O6 0.935201 0.099886 0.799174
O O7 0.801711 0.190933 0.987613
O O8 0.810465 0.019202 0.115973
O O9 0.725527 0.115146 0.895162
O O10 0.817746 0.259040 0.647229
O O11 0.083667 0.600975 0.529894
O O12 0.000000 0.446289 0.750000
O O13 0.000000 0.500000 0.500000
O O14 0.795648 0.577155 0.028224
#
# Coordination Sequence:
#
# PCOD8146010 Si02
#       7
#     8   8   8   4   8   8   8
#     4  11  21  41  65  91 134 169 209 268 324 387
#     4  10  24  41  66  96 128 171 216 261 324 388
#     4  10  22  40  65 100 125 166 216 275 322 377
#     4  10  24  42  62  96 132 176 214 260 322 392
#     4  12  24  39  61  92 129 171 211 261 331 392
#     4  11  22  42  67  95 127 166 217 274 321 374
#     4  11  24  40  67  97 130 168 221 271 326 389
#
# _framework density 22.475297000000001
#
# number of rings (size 3 to 8) (size 9 to 14) (size 15 to 20)
#    0.000    1.231    3.846    1.846    2.154    4.308 
#    0.000    0.000    0.000    0.000    0.000    0.000 
#    0.000    0.000    0.000    0.000    0.000    0.000 
#
# Total GULP energy -322350.274968 kJ/mol
# GULP energy per Si atom -12398.087499 kJ/mol
# Density = 2.242414 g / cm^3
# Si number density = 22.475297 Si / 1000 Ang^3
#
#
#
# Elastic Constant Matrix: (Units=GPa)
#
#
# Indices 1 2 3 4 5 6 
#
# 1 100.9706 7.2935 19.8676 0.0000 -3.1090 0.0000
# 2 7.2935 49.2464 0.1678 0.0000 -2.5608 0.0000
# 3 19.8676 0.1678 84.1499 0.0000 -3.9158 0.0000
# 4 0.0000 0.0000 0.0000 22.1626 0.0000 -2.3840
# 5 -3.1090 -2.5608 -3.9158 0.0000 32.1771 0.0000
# 6 0.0000 0.0000 0.0000 -2.3840 0.0000 39.2690
#
#
#
# Elastic Compliance Matrix: (Units=1/GPa)
#
#
# Indices 1 2 3 4 5 6 
#
# 1 0.010514 -0.001518 -0.002452 0.000000 0.000597 0.000000
# 2 -0.001518 0.020610 0.000389 0.000000 0.001541 0.000000
# 3 -0.002452 0.000389 0.012523 0.000000 0.001318 0.000000
# 4 0.000000 0.000000 0.000000 0.045418 0.000000 0.002757
# 5 0.000597 0.001541 0.001318 0.000000 0.031419 0.000000
# 6 0.000000 0.000000 0.000000 0.002757 0.000000 0.025633
#
#
# Mechanical properties :
#
#
# Convention : Reuss Voigt Hill
#
# Bulk Modulus (GPa) = 27.40781 32.11385 29.76083
# Shear Modulus (GPa) = 30.22268 32.52430 31.37349
#
# Velocity S-wave (km/s) = 3.67100 3.80822 3.74024
# Velocity P-wave (km/s) = 5.49449 5.80140 5.65003
#
# Compressibility (1/GPa) = 0.03648596
#
# Stress axis : x y z
#
# Youngs Moduli (GPa) = 95.10879 48.52101 79.85350
#
# Poissons Ratio (x) = 0.07365 0.19577
# Poissons Ratio (y) = 0.14436 -0.03106
# Poissons Ratio (z) = 0.23317 -0.01887
#
# Static dielectric constant tensor:
#      x y z
#    x 4.005400 0.000000 0.008770 
#    y 0.000000 4.294810 0.000000 
#    z 0.008770 0.000000 3.981120 
# 
# 
# High freq. dielectric constant tensor:
#      x y z
#    x 1.884100 0.000000 0.005350 
#    y 0.000000 1.879060 0.000000 
#    z 0.005350 0.000000 1.885340 
# 
# From -- ./inp_files/66133.got.cif
#   From: 2010.06.25/outbox.cif.g09.slc.cpg/sg15_34_cif.got.tgz:66133.got - 2010.06.28 07:06:18.
