data_PCOD8146415
_publ_section_title
;
Structure prediction by ZEFSAII (Michael W. Deem and Ramdas Pophale) SiO2 
 PCOD8146415
Probable space group: C 2/C
;
_chemical_formula_sum "Si O2"
_cell_formula_units_Z 40
_cell_length_a 34.160502
_cell_length_b 9.722374
_cell_length_c 9.327607
_cell_angle_alpha 90.000000
_cell_angle_beta 39.111358
_cell_angle_gamma 90.000000
_cell_volume 1954.244481
_symmetry_space_group_name_H-M "C 2/C"
_symmetry_group_IT_number 15
_symmetry_cell_setting 'monoclinic'
loop_
_space_group_symop_operation_xyz
x,y,z
-x,y,1/2-z
-x,-y,-z
x,-y,1/2+z
1/2+x,1/2+y,z
1/2-x,1/2+y,1/2-z
1/2-x,1/2-y,-z
1/2+x,1/2-y,1/2+z
loop_
_atom_site_type_symbol
_atom_site_label
_atom_site_fract_x
_atom_site_fract_y
_atom_site_fract_z
Si Si1 0.786436 0.136013 0.625575
Si Si2 0.845930 0.054083 0.157256
Si Si3 0.044206 0.516688 0.743528
Si Si4 0.121067 0.759276 0.431893
Si Si5 0.145470 0.691728 0.038273
O O1 0.821997 0.109708 0.376134
O O2 0.822316 0.256613 0.613573
O O3 0.788506 0.998885 0.720002
O O4 0.716728 0.177471 0.789157
O O5 0.893136 0.923710 0.044329
O O6 0.880782 0.173346 0.968631
O O7 0.061445 0.675843 0.659233
O O8 0.108305 0.436758 0.581233
O O9 0.000000 0.451341 0.750000
O O10 0.000000 0.500000 0.000000
O O11 0.140436 0.697789 0.223542
#
# Coordination Sequence:
#
# PCOD8146415 Si02
#       5
#     8   8   8   8   8
#     4  10  23  36  71 103 139 170 219 278 355 395
#     4  10  22  41  65 105 134 169 225 272 350 406
#     4  12  28  46  67  96 135 186 234 273 338 398
#     4  10  23  44  67  92 141 171 229 281 333 411
#     4  12  24  42  70  97 141 179 225 286 333 410
#
# _framework density 20.468267999999998
#
# number of rings (size 3 to 8) (size 9 to 14) (size 15 to 20)
#    1.200    0.000    4.000    1.200    8.400    0.000 
#    0.000    2.000    0.000    0.000    0.000    0.000 
#    0.000    0.000    0.000    0.000    0.000    0.000 
#
# Total GULP energy -247783.946591 kJ/mol
# GULP energy per Si atom -12389.197330 kJ/mol
# Density = 2.042168 g / cm^3
# Si number density = 20.468268 Si / 1000 Ang^3
#
#
#
# Elastic Constant Matrix: (Units=GPa)
#
#
# Indices 1 2 3 4 5 6 
#
# 1 127.1501 38.5897 53.1862 0.0000 15.7826 0.0000
# 2 38.5897 108.3266 55.4382 0.0000 5.0082 0.0000
# 3 53.1862 55.4382 118.6154 0.0000 18.9312 0.0000
# 4 0.0000 0.0000 0.0000 19.4874 0.0000 -3.5881
# 5 15.7826 5.0082 18.9312 0.0000 36.5912 0.0000
# 6 0.0000 0.0000 0.0000 -3.5881 0.0000 29.5121
#
#
#
# Elastic Compliance Matrix: (Units=1/GPa)
#
#
# Indices 1 2 3 4 5 6 
#
# 1 0.010088 -0.001792 -0.003303 0.000000 -0.002397 0.000000
# 2 -0.001792 0.012517 -0.005337 0.000000 0.001821 0.000000
# 3 -0.003303 -0.005337 0.013148 0.000000 -0.004647 0.000000
# 4 0.000000 0.000000 0.000000 0.052490 0.000000 0.006382
# 5 -0.002397 0.001821 -0.004647 0.000000 0.030518 0.000000
# 6 0.000000 0.000000 0.000000 0.006382 0.000000 0.034660
#
#
# Mechanical properties :
#
#
# Convention : Reuss Voigt Hill
#
# Bulk Modulus (GPa) = 67.17035 72.05780 69.61407
# Shear Modulus (GPa) = 27.89421 30.91002 29.40211
#
# Velocity S-wave (km/s) = 3.69562 3.89027 3.79419
# Velocity P-wave (km/s) = 7.14830 7.44715 7.29925
#
# Compressibility (1/GPa) = 0.01488752
#
# Stress axis : x y z
#
# Youngs Moduli (GPa) = 99.12890 79.89096 76.05834
#
# Poissons Ratio (x) = 0.14320 0.25122
# Poissons Ratio (y) = 0.17768 0.40593
# Poissons Ratio (z) = 0.32742 0.42639
#
# Static dielectric constant tensor:
#      x y z
#    x 3.831420 0.000000 0.159420 
#    y 0.000000 4.399450 0.000000 
#    z 0.159420 0.000000 3.384980 
# 
# 
# High freq. dielectric constant tensor:
#      x y z
#    x 1.808580 0.000000 0.029010 
#    y 0.000000 1.799370 0.000000 
#    z 0.029010 0.000000 1.780160 
# 
# From -- ./inp_files/68949.got.cif
#   From: 2010.06.25/outbox.cif.g09.slc.cpg/sg15_35_cif.got.tgz:68949.got - 2010.06.28 07:06:18.
