data_PCOD8146823
_publ_section_title
;
Structure prediction by ZEFSAII (Michael W. Deem and Ramdas Pophale) SiO2 
 PCOD8146823
Probable space group: C 2/C
;
_chemical_formula_sum "Si O2"
_cell_formula_units_Z 52
_cell_length_a 12.827424
_cell_length_b 25.519652
_cell_length_c 9.342589
_cell_angle_alpha 90.000000
_cell_angle_beta 119.714074
_cell_angle_gamma 90.000000
_cell_volume 2656.171775
_symmetry_space_group_name_H-M "C 2/C"
_symmetry_group_IT_number 15
_symmetry_cell_setting 'monoclinic'
loop_
_space_group_symop_operation_xyz
x,y,z
-x,y,1/2-z
-x,-y,-z
x,-y,1/2+z
1/2+x,1/2+y,z
1/2-x,1/2+y,1/2-z
1/2-x,1/2-y,-z
1/2+x,1/2-y,1/2+z
loop_
_atom_site_type_symbol
_atom_site_label
_atom_site_fract_x
_atom_site_fract_y
_atom_site_fract_z
Si Si1 0.008960 0.320058 0.977286
Si Si2 0.972875 0.885161 0.573506
Si Si3 0.000000 0.610794 0.750000
Si Si4 0.942430 0.207096 0.557170
Si Si5 0.203632 0.051432 0.185784
Si Si6 0.309252 0.154830 0.131289
Si Si7 0.241975 0.447975 0.451294
O O1 0.049962 0.260093 0.031416
O O2 0.109892 0.350455 0.954891
O O3 0.882378 0.317941 0.808758
O O4 0.989254 0.350907 0.109035
O O5 0.836947 0.903902 0.471302
O O6 0.000000 0.862883 0.750000
O O7 0.983718 0.838647 0.468465
O O8 0.063125 0.933244 0.600406
O O9 0.113108 0.572386 0.813978
O O10 0.804357 0.191053 0.479756
O O11 0.000000 0.218390 0.750000
O O12 0.274884 0.096901 0.154721
O O13 0.257841 0.041362 0.379288
O O14 0.220804 0.000324 0.103866
#
# Coordination Sequence:
#
# PCOD8146823 Si02
#       7
#     8   8   4   8   8   8   8
#     4  11  24  42  63  88 130 168 202 255 306 368
#     4   9  22  42  63  91 127 158 203 263 313 364
#     4  12  28  40  60  96 126 168 212 246 306 376
#     4  11  23  38  67  98 118 163 212 252 312 364
#     4  10  22  42  65  91 119 164 204 258 317 359
#     4  10  22  44  63  88 128 161 205 258 307 369
#     4  11  24  41  62  91 126 161 210 254 308 370
#
# _framework density 19.577048000000001
#
# number of rings (size 3 to 8) (size 9 to 14) (size 15 to 20)
#    0.000    1.538    3.077    0.923    5.385    3.077 
#    0.000    2.308    0.000    0.000    0.000    0.000 
#    0.000    0.000    0.000    0.000    0.000    0.000 
#
# Total GULP energy -322493.211779 kJ/mol
# GULP energy per Si atom -12403.585068 kJ/mol
# Density = 1.953249 g / cm^3
# Si number density = 19.577048 Si / 1000 Ang^3
#
#
#
# Elastic Constant Matrix: (Units=GPa)
#
#
# Indices 1 2 3 4 5 6 
#
# 1 88.9676 13.0803 33.2607 0.0000 7.5749 0.0000
# 2 13.0803 47.9526 17.1868 0.0000 -16.5061 0.0000
# 3 33.2607 17.1868 68.0238 0.0000 -1.5199 0.0000
# 4 0.0000 0.0000 0.0000 27.9869 0.0000 34.6106
# 5 7.5749 -16.5061 -1.5199 0.0000 31.4684 0.0000
# 6 0.0000 0.0000 0.0000 34.6106 0.0000 170.7520
#
#
#
# Elastic Compliance Matrix: (Units=1/GPa)
#
#
# Indices 1 2 3 4 5 6 
#
# 1 0.014654 -0.003708 -0.006357 0.000000 -0.005780 0.000000
# 2 -0.003708 0.029234 -0.005216 0.000000 0.015975 0.000000
# 3 -0.006357 -0.005216 0.019121 0.000000 -0.000282 0.000000
# 4 0.000000 0.000000 0.000000 0.047684 0.000000 -0.009665
# 5 -0.005780 0.015975 -0.000282 0.000000 0.041535 0.000000
# 6 0.000000 0.000000 0.000000 -0.009665 0.000000 0.007816
#
#
# Mechanical properties :
#
#
# Convention : Reuss Voigt Hill
#
# Bulk Modulus (GPa) = 30.82116 36.88886 33.85501
# Shear Modulus (GPa) = 24.82363 55.46919 40.14641
#
# Velocity S-wave (km/s) = 3.56476 5.32872 4.53336
# Velocity P-wave (km/s) = 5.72023 7.53288 6.68824
#
# Compressibility (1/GPa) = 0.03244524
#
# Stress axis : x y z
#
# Youngs Moduli (GPa) = 68.24052 34.20715 52.29890
#
# Poissons Ratio (x) = 0.12684 0.33249
# Poissons Ratio (y) = 0.25304 0.27280
# Poissons Ratio (z) = 0.43384 0.17843
#
# Static dielectric constant tensor:
#      x y z
#    x 3.814440 0.000000 0.037190 
#    y 0.000000 3.535400 0.000000 
#    z 0.037190 0.000000 3.612760 
# 
# 
# High freq. dielectric constant tensor:
#      x y z
#    x 1.777520 0.000000 0.002310 
#    y 0.000000 1.766870 0.000000 
#    z 0.002310 0.000000 1.763560 
# 
# From -- ./inp_files/34429.got.cif
#   From: 2010.06.25/outbox.cif.g09.slc.cpg/sg15_18_cif.got.tgz:34429.got - 2010.06.28 07:06:18.
