data_PCOD8146612
_publ_section_title
;
Structure prediction by ZEFSAII (Michael W. Deem and Ramdas Pophale) SiO2 
 PCOD8146612
Probable space group: C 2/C
;
_chemical_formula_sum "Si O2"
_cell_formula_units_Z 44
_cell_length_a 6.483575
_cell_length_b 27.215835
_cell_length_c 11.549148
_cell_angle_alpha 90.000000
_cell_angle_beta 107.088521
_cell_angle_gamma 90.000000
_cell_volume 1947.945309
_symmetry_space_group_name_H-M "C 2/C"
_symmetry_group_IT_number 15
_symmetry_cell_setting 'monoclinic'
loop_
_space_group_symop_operation_xyz
x,y,z
-x,y,1/2-z
-x,-y,-z
x,-y,1/2+z
1/2+x,1/2+y,z
1/2-x,1/2+y,1/2-z
1/2-x,1/2-y,-z
1/2+x,1/2-y,1/2+z
loop_
_atom_site_type_symbol
_atom_site_label
_atom_site_fract_x
_atom_site_fract_y
_atom_site_fract_z
Si Si1 0.380913 0.441016 0.560982
Si Si2 0.565788 0.374948 0.139139
Si Si3 0.821354 0.520023 0.122129
Si Si4 0.197105 0.300220 0.053793
Si Si5 0.032637 0.616854 0.122437
Si Si6 0.000000 0.675881 0.750000
O O1 0.485199 0.412019 0.471063
O O2 0.198579 0.477885 0.478895
O O3 0.586834 0.471117 0.646556
O O4 0.276731 0.402245 0.634527
O O5 0.500000 0.400517 0.250000
O O6 0.426281 0.325785 0.104095
O O7 0.816101 0.360604 0.173699
O O8 0.000000 0.506446 0.250000
O O9 0.883331 0.570427 0.067396
O O10 0.090989 0.289613 0.162026
O O11 0.250000 0.250000 0.000000
O O12 0.027152 0.334888 0.959160
O O13 0.000000 0.631361 0.250000
#
# Coordination Sequence:
#
# PCOD8146612 Si02
#       6
#     8   8   8   8   8   4
#     4  11  22  45  68  96 140 185 226 281 346 407
#     4  10  22  41  69  98 131 175 228 281 336 403
#     4  10  24  42  67 102 135 180 234 283 339 412
#     4  11  24  45  69 102 135 173 232 285 341 415
#     4  11  24  44  66  97 142 180 221 281 343 410
#     4  10  22  44  70  98 134 174 224 280 346 402
#
# _framework density 22.587900999999999
#
# number of rings (size 3 to 8) (size 9 to 14) (size 15 to 20)
#    0.000    1.455    3.636    0.545    1.273    5.818 
#   16.364    0.000    0.000    0.000    0.000    0.000 
#    0.000    0.000    0.000    0.000    0.000    0.000 
#
# Total GULP energy -272666.821456 kJ/mol
# GULP energy per Si atom -12393.946430 kJ/mol
# Density = 2.253649 g / cm^3
# Si number density = 22.587901 Si / 1000 Ang^3
#
#
#
# Elastic Constant Matrix: (Units=GPa)
#
#
# Indices 1 2 3 4 5 6 
#
# 1 125.1607 31.4471 45.8568 0.0000 11.4866 0.0000
# 2 31.4471 95.7324 40.1792 0.0000 -12.2529 0.0000
# 3 45.8568 40.1792 99.5681 0.0000 -3.0701 0.0000
# 4 0.0000 0.0000 0.0000 31.6546 0.0000 -6.0289
# 5 11.4866 -12.2529 -3.0701 0.0000 44.0774 0.0000
# 6 0.0000 0.0000 0.0000 -6.0289 0.0000 26.7263
#
#
#
# Elastic Compliance Matrix: (Units=1/GPa)
#
#
# Indices 1 2 3 4 5 6 
#
# 1 0.010325 -0.002175 -0.003988 0.000000 -0.003573 0.000000
# 2 -0.002175 0.013486 -0.004316 0.000000 0.004015 0.000000
# 3 -0.003988 -0.004316 0.013646 0.000000 0.000790 0.000000
# 4 0.000000 0.000000 0.000000 0.033009 0.000000 0.007446
# 5 -0.003573 0.004015 0.000790 0.000000 0.024790 0.000000
# 6 0.000000 0.000000 0.000000 0.007446 0.000000 0.039096
#
#
# Mechanical properties :
#
#
# Convention : Reuss Voigt Hill
#
# Bulk Modulus (GPa) = 60.61214 61.71415 61.16315
# Shear Modulus (GPa) = 31.09253 34.02355 32.55804
#
# Velocity S-wave (km/s) = 3.71416 3.88528 3.80069
# Velocity P-wave (km/s) = 6.72945 6.89263 6.81153
#
# Compressibility (1/GPa) = 0.01649834
#
# Stress axis : x y z
#
# Youngs Moduli (GPa) = 96.84976 74.15171 73.28119
#
# Poissons Ratio (x) = 0.16131 0.29222
# Poissons Ratio (y) = 0.21069 0.31630
# Poissons Ratio (z) = 0.38621 0.32006
#
# Static dielectric constant tensor:
#      x y z
#    x 4.316800 0.000000 -0.038550 
#    y 0.000000 3.676070 0.000000 
#    z -0.038550 0.000000 4.048120 
# 
# 
# High freq. dielectric constant tensor:
#      x y z
#    x 1.914380 0.000000 -0.001980 
#    y 0.000000 1.860740 0.000000 
#    z -0.001980 0.000000 1.890770 
# 
# From -- ./inp_files/73862.got.cif
#   From: 2010.06.25/outbox.cif.g09.slc.cpg/sg15_37_cif.got.tgz:73862.got - 2010.06.28 07:06:18.
