data_PCOD8146456
_publ_section_title
;
Structure prediction by ZEFSAII (Michael W. Deem and Ramdas Pophale) SiO2 
 PCOD8146456
Probable space group: C 2/C
;
_chemical_formula_sum "Si O2"
_cell_formula_units_Z 56
_cell_length_a 28.531751
_cell_length_b 12.062560
_cell_length_c 8.872576
_cell_angle_alpha 90.000000
_cell_angle_beta 121.462224
_cell_angle_gamma 90.000000
_cell_volume 2604.706323
_symmetry_space_group_name_H-M "C 2/C"
_symmetry_group_IT_number 15
_symmetry_cell_setting 'monoclinic'
loop_
_space_group_symop_operation_xyz
x,y,z
-x,y,1/2-z
-x,-y,-z
x,-y,1/2+z
1/2+x,1/2+y,z
1/2-x,1/2+y,1/2-z
1/2-x,1/2-y,-z
1/2+x,1/2-y,1/2+z
loop_
_atom_site_type_symbol
_atom_site_label
_atom_site_fract_x
_atom_site_fract_y
_atom_site_fract_z
Si Si1 0.302256 0.025390 0.755323
Si Si2 0.376544 0.944619 0.118313
Si Si3 0.946071 0.271362 0.085361
Si Si4 0.117748 0.926458 0.120207
Si Si5 0.062841 0.901691 0.330498
Si Si6 0.740574 0.373168 0.420058
Si Si7 0.053049 0.343290 0.751805
O O1 0.347482 0.087954 0.727238
O O2 0.272378 0.114161 0.814041
O O3 0.260215 0.961081 0.577205
O O4 0.332684 0.933689 0.909220
O O5 0.427849 0.866916 0.170918
O O6 0.396300 0.072394 0.156835
O O7 0.000000 0.217504 0.250000
O O8 0.898256 0.179948 0.006850
O O9 0.960448 0.319865 0.945393
O O10 0.074025 0.935742 0.179246
O O11 0.178055 0.906242 0.285234
O O12 0.108765 0.038951 0.011371
O O13 0.070623 0.769757 0.366283
O O14 0.000000 0.938962 0.250000
O O15 0.750000 0.250000 0.500000
O O16 0.000000 0.393203 0.750000
#
# Coordination Sequence:
#
# PCOD8146456 Si02
#       7
#     8   8   8   8   8   8   8
#     4  10  24  42  68 100 123 176 226 276 334 400
#     4  11  21  42  65  94 137 169 221 271 341 395
#     4  11  24  39  62  98 136 170 221 272 328 409
#     4  11  23  43  66  90 128 177 215 277 341 385
#     4  10  22  41  65  95 130 169 222 268 332 408
#     4  11  24  46  70  95 136 175 230 286 339 401
#     4  10  23  39  62  94 133 184 217 265 340 404
#
# _framework density 21.499545000000001
#
# number of rings (size 3 to 8) (size 9 to 14) (size 15 to 20)
#    0.000    1.429    1.429    3.000    8.000    3.429 
#    0.000    6.429    0.000    0.000    0.000    0.000 
#    0.000    0.000    0.000    0.000    0.000    0.000 
#
# Total GULP energy -347176.709326 kJ/mol
# GULP energy per Si atom -12399.168190 kJ/mol
# Density = 2.145061 g / cm^3
# Si number density = 21.499545 Si / 1000 Ang^3
#
#
#
# Elastic Constant Matrix: (Units=GPa)
#
#
# Indices 1 2 3 4 5 6 
#
# 1 128.6658 49.9394 51.3553 0.0000 -14.6049 0.0000
# 2 49.9394 101.8301 50.0407 0.0000 -2.0904 0.0000
# 3 51.3553 50.0407 115.7482 0.0000 8.3832 0.0000
# 4 0.0000 0.0000 0.0000 27.1132 0.0000 -4.4512
# 5 -14.6049 -2.0904 8.3832 0.0000 43.6730 0.0000
# 6 0.0000 0.0000 0.0000 -4.4512 0.0000 27.7741
#
#
#
# Elastic Compliance Matrix: (Units=1/GPa)
#
#
# Indices 1 2 3 4 5 6 
#
# 1 0.011108 -0.003539 -0.003707 0.000000 0.004257 0.000000
# 2 -0.003539 0.013716 -0.004382 0.000000 0.000314 0.000000
# 3 -0.003707 -0.004382 0.012457 0.000000 -0.003841 0.000000
# 4 0.000000 0.000000 0.000000 0.037879 0.000000 0.006071
# 5 0.004257 0.000314 -0.003841 0.000000 0.025073 0.000000
# 6 0.000000 0.000000 0.000000 0.006071 0.000000 0.036978
#
#
# Mechanical properties :
#
#
# Convention : Reuss Voigt Hill
#
# Bulk Modulus (GPa) = 71.30179 72.10166 71.70173
# Shear Modulus (GPa) = 30.27695 32.70597 31.49146
#
# Velocity S-wave (km/s) = 3.75675 3.90454 3.83136
# Velocity P-wave (km/s) = 7.21484 7.34414 7.27978
#
# Compressibility (1/GPa) = 0.01402489
#
# Stress axis : x y z
#
# Youngs Moduli (GPa) = 90.02209 72.90905 80.27649
#
# Poissons Ratio (x) = 0.25800 0.29759
# Poissons Ratio (y) = 0.31856 0.35180
# Poissons Ratio (z) = 0.33372 0.31951
#
# Static dielectric constant tensor:
#      x y z
#    x 4.063690 0.000000 -0.119950 
#    y 0.000000 3.765140 0.000000 
#    z -0.119950 0.000000 3.914190 
# 
# 
# High freq. dielectric constant tensor:
#      x y z
#    x 1.855700 0.000000 -0.004890 
#    y 0.000000 1.828760 0.000000 
#    z -0.004890 0.000000 1.852910 
# 
# From -- ./inp_files/69438.got.cif
#   From: 2010.06.25/outbox.cif.g09.slc.cpg/sg15_35_cif.got.tgz:69438.got - 2010.06.28 07:06:18.
