data_PCOD8146395
_publ_section_title
;
Structure prediction by ZEFSAII (Michael W. Deem and Ramdas Pophale) SiO2 
 PCOD8146395
Probable space group: C 2/C
;
_chemical_formula_sum "Si O2"
_cell_formula_units_Z 36
_cell_length_a 16.325879
_cell_length_b 9.832772
_cell_length_c 21.404343
_cell_angle_alpha 90.000000
_cell_angle_beta 152.407647
_cell_angle_gamma 90.000000
_cell_volume 1591.483485
_symmetry_space_group_name_H-M "C 2/C"
_symmetry_group_IT_number 15
_symmetry_cell_setting 'monoclinic'
loop_
_space_group_symop_operation_xyz
x,y,z
-x,y,1/2-z
-x,-y,-z
x,-y,1/2+z
1/2+x,1/2+y,z
1/2-x,1/2+y,1/2-z
1/2-x,1/2-y,-z
1/2+x,1/2-y,1/2+z
loop_
_atom_site_type_symbol
_atom_site_label
_atom_site_fract_x
_atom_site_fract_y
_atom_site_fract_z
Si Si1 0.505200 0.198684 0.062296
Si Si2 0.098637 0.962131 0.445399
Si Si3 0.084215 0.776574 0.634269
Si Si4 0.000000 0.973403 0.750000
Si Si5 0.360670 0.937443 0.034687
O O1 0.385590 0.322401 0.006907
O O2 0.707898 0.225067 0.216078
O O3 0.446496 0.060545 0.054547
O O4 0.472144 0.195266 0.966041
O O5 0.991767 0.935577 0.307886
O O6 0.994170 0.071543 0.417357
O O7 0.297554 0.014138 0.561462
O O8 0.995321 0.688758 0.630510
O O9 0.818015 0.886327 0.623076
#
# Coordination Sequence:
#
# PCOD8146395 Si02
#       5
#     8   8   8   4   8
#     4  12  24  42  66  98 133 167 214 267 326 377
#     4  10  22  41  64  95 126 171 215 264 311 385
#     4  12  24  42  66  98 133 167 214 267 326 377
#     4   8  20  38  70  82 132 158 232 234 328 360
#     4  10  22  42  65  93 127 178 210 257 320 389
#
# _framework density 22.620405000000002
#
# number of rings (size 3 to 8) (size 9 to 14) (size 15 to 20)
#    1.333    0.000    0.000    6.667    0.000    0.000 
#    0.000    2.222    0.000    0.000    0.000    0.000 
#    0.000    0.000    0.000    0.000    0.000    0.000 
#
# Total GULP energy -223019.859055 kJ/mol
# GULP energy per Si atom -12389.992170 kJ/mol
# Density = 2.256892 g / cm^3
# Si number density = 22.620405 Si / 1000 Ang^3
#
#
#
# Elastic Constant Matrix: (Units=GPa)
#
#
# Indices 1 2 3 4 5 6 
#
# 1 75.9995 11.3305 26.4233 -0.0019 15.7353 -0.0044
# 2 11.3305 81.9756 16.1869 0.0030 14.7499 -0.0181
# 3 26.4233 16.1869 99.5992 -0.0086 28.0304 -0.0382
# 4 -0.0019 0.0030 -0.0086 34.6641 -0.0073 35.4523
# 5 15.7353 14.7499 28.0304 -0.0073 28.2768 -0.0228
# 6 -0.0044 -0.0181 -0.0382 35.4523 -0.0228 92.7570
#
#
#
# Elastic Compliance Matrix: (Units=1/GPa)
#
#
# Indices 1 2 3 4 5 6 
#
# 1 0.015267 -0.000594 -0.002288 0.000001 -0.005918 -0.000002
# 2 -0.000594 0.013492 -0.000205 -0.000006 -0.006504 0.000003
# 3 -0.002288 -0.000205 0.014274 -0.000003 -0.012770 0.000004
# 4 0.000001 -0.000006 -0.000003 0.047362 0.000003 -0.018102
# 5 -0.005918 -0.006504 -0.012770 0.000003 0.054709 0.000005
# 6 -0.000002 0.000003 0.000004 -0.018102 0.000005 0.017700
#
#
# Mechanical properties :
#
#
# Convention : Reuss Voigt Hill
#
# Bulk Modulus (GPa) = 27.12967 40.60618 33.86793
# Shear Modulus (GPa) = 27.58409 44.71516 36.14962
#
# Velocity S-wave (km/s) = 3.49583 4.45090 4.00196
# Velocity P-wave (km/s) = 5.32108 6.66364 6.02984
#
# Compressibility (1/GPa) = 0.03686001
#
# Stress axis : x y z
#
# Youngs Moduli (GPa) = 65.49930 74.12053 70.05505
#
# Poissons Ratio (x) = 0.04400 0.16032
# Poissons Ratio (y) = 0.03888 0.01434
# Poissons Ratio (z) = 0.14989 0.01517
#
# Static dielectric constant tensor:
#      x y z
#    x 4.302730 -0.000010 0.203350 
#    y -0.000010 3.780340 -0.000020 
#    z 0.203350 -0.000020 3.850240 
# 
# 
# High freq. dielectric constant tensor:
#      x y z
#    x 1.907870 0.000000 0.020480 
#    y 0.000000 1.880040 0.000000 
#    z 0.020480 0.000000 1.873200 
# 
# From -- ./inp_files/243864.got.cif
#   From: 2010.06.25/outbox.cif.g09.slc.cpg/sg15_122_cif.got.tgz:243864.got - 2010.06.28 07:06:18.
