data_PCOD8146608
_publ_section_title
;
Structure prediction by ZEFSAII (Michael W. Deem and Ramdas Pophale) SiO2 
 PCOD8146608
Probable space group: C 2/C
;
_chemical_formula_sum "Si O2"
_cell_formula_units_Z 60
_cell_length_a 25.191723
_cell_length_b 15.826020
_cell_length_c 19.182422
_cell_angle_alpha 90.000000
_cell_angle_beta 159.845464
_cell_angle_gamma 90.000000
_cell_volume 2635.054261
_symmetry_space_group_name_H-M "C 2/C"
_symmetry_group_IT_number 15
_symmetry_cell_setting 'monoclinic'
loop_
_space_group_symop_operation_xyz
x,y,z
-x,y,1/2-z
-x,-y,-z
x,-y,1/2+z
1/2+x,1/2+y,z
1/2-x,1/2+y,1/2-z
1/2-x,1/2-y,-z
1/2+x,1/2-y,1/2+z
loop_
_atom_site_type_symbol
_atom_site_label
_atom_site_fract_x
_atom_site_fract_y
_atom_site_fract_z
Si Si1 0.285470 0.384229 0.851505
Si Si2 0.334188 0.261125 0.030011
Si Si3 0.000000 0.112641 0.250000
Si Si4 0.864967 0.573418 0.031871
Si Si5 0.206412 0.301745 0.377105
Si Si6 0.639530 0.654642 0.201518
Si Si7 0.948447 0.011986 0.315513
Si Si8 0.563911 0.925167 0.467028
O O1 0.381185 0.334834 0.907768
O O2 0.119037 0.413229 0.615745
O O3 0.248802 0.326487 0.873353
O O4 0.390397 0.464577 0.999303
O O5 0.500000 0.302079 0.250000
O O6 0.359845 0.174592 0.018729
O O7 0.250000 0.250000 0.000000
O O8 0.128462 0.168297 0.448981
O O9 0.092245 0.059529 0.306281
O O10 0.918488 0.525641 0.027116
O O11 0.000000 0.545104 0.250000
O O12 0.693580 0.549714 0.845246
O O13 0.250000 0.250000 0.500000
O O14 0.113877 0.243124 0.208573
O O15 0.101081 0.385473 0.255282
O O16 0.526618 0.580918 0.091548
O O17 0.813884 0.622835 0.433090
#
# Coordination Sequence:
#
# PCOD8146608 Si02
#       8
#     8   8   4   8   8   8   8   8
#     4  10  24  45  68 102 135 177 243 290 359 435
#     4  11  25  46  73 104 135 189 242 309 361 429
#     4  12  26  36  66 104 134 186 228 296 346 418
#     4  10  22  41  69  97 135 182 234 286 365 422
#     4  12  22  42  65 102 144 176 234 282 345 434
#     4   9  22  41  67  99 137 186 224 284 357 421
#     4  11  22  42  68 100 138 181 237 290 355 433
#     4   9  23  41  65  98 133 183 224 292 352 422
#
# _framework density 22.769929999999999
#
# number of rings (size 3 to 8) (size 9 to 14) (size 15 to 20)
#    0.800    0.800    1.333    2.800    4.667    2.133 
#    2.400    0.667    0.000    0.000    0.000    0.000 
#    0.000    0.000    0.000    0.000    0.000    0.000 
#
# Total GULP energy -371695.080039 kJ/mol
# GULP energy per Si atom -12389.836001 kJ/mol
# Density = 2.271810 g / cm^3
# Si number density = 22.769930 Si / 1000 Ang^3
#
#
#
# Elastic Constant Matrix: (Units=GPa)
#
#
# Indices 1 2 3 4 5 6 
#
# 1 109.7105 40.5065 20.8003 0.0028 -16.8411 0.0021
# 2 40.5065 109.0063 40.5519 0.0033 -9.1510 0.0029
# 3 20.8003 40.5519 105.8961 0.0033 -2.5268 0.0038
# 4 0.0028 0.0033 0.0033 26.8026 0.0032 0.1694
# 5 -16.8411 -9.1510 -2.5268 0.0032 31.5653 0.0029
# 6 0.0021 0.0029 0.0038 0.1694 0.0029 36.1500
#
#
#
# Elastic Compliance Matrix: (Units=1/GPa)
#
#
# Indices 1 2 3 4 5 6 
#
# 1 0.011315 -0.003505 -0.000762 -0.000001 0.004960 -0.000001
# 2 -0.003505 0.012032 -0.003888 -0.000001 0.001307 0.000000
# 3 -0.000762 -0.003888 0.011066 -0.000001 -0.000648 -0.000001
# 4 -0.000001 -0.000001 -0.000001 0.037311 -0.000005 -0.000175
# 5 0.004960 0.001307 -0.000648 -0.000005 0.034654 -0.000003
# 6 -0.000001 0.000000 -0.000001 -0.000175 -0.000003 0.027663
#
#
# Mechanical properties :
#
#
# Convention : Reuss Voigt Hill
#
# Bulk Modulus (GPa) = 55.23708 58.70337 56.97022
# Shear Modulus (GPa) = 31.97232 33.75385 32.86308
#
# Velocity S-wave (km/s) = 3.75126 3.85435 3.80316
# Velocity P-wave (km/s) = 6.56308 6.75612 6.66030
#
# Compressibility (1/GPa) = 0.01810378
#
# Stress axis : x y z
#
# Youngs Moduli (GPa) = 88.38072 83.10992 90.36415
#
# Poissons Ratio (x) = 0.29127 0.06886
# Poissons Ratio (y) = 0.30974 0.35134
# Poissons Ratio (z) = 0.06735 0.32314
#
# Static dielectric constant tensor:
#      x y z
#    x 3.844790 0.000000 -0.058810 
#    y 0.000000 4.057100 -0.000010 
#    z -0.058810 -0.000010 3.992830 
# 
# 
# High freq. dielectric constant tensor:
#      x y z
#    x 1.880240 0.000000 -0.000540 
#    y 0.000000 1.897040 0.000000 
#    z -0.000540 0.000000 1.892600 
# 
# From -- ./inp_files/257896.got.cif
#   From: 2010.06.25/outbox.cif.g09.slc.cpg/sg15_129_cif.got.tgz:257896.got - 2010.06.28 07:06:18.
