data_PCOD8146446
_publ_section_title
;
Structure prediction by ZEFSAII (Michael W. Deem and Ramdas Pophale) SiO2 
 PCOD8146446
Probable space group: C 2/C
;
_chemical_formula_sum "Si O2"
_cell_formula_units_Z 56
_cell_length_a 22.265388
_cell_length_b 8.953222
_cell_length_c 13.553489
_cell_angle_alpha 90.000000
_cell_angle_beta 118.034322
_cell_angle_gamma 90.000000
_cell_volume 2384.828910
_symmetry_space_group_name_H-M "C 2/C"
_symmetry_group_IT_number 15
_symmetry_cell_setting 'monoclinic'
loop_
_space_group_symop_operation_xyz
x,y,z
-x,y,1/2-z
-x,-y,-z
x,-y,1/2+z
1/2+x,1/2+y,z
1/2-x,1/2+y,1/2-z
1/2-x,1/2-y,-z
1/2+x,1/2-y,1/2+z
loop_
_atom_site_type_symbol
_atom_site_label
_atom_site_fract_x
_atom_site_fract_y
_atom_site_fract_z
Si Si1 0.937326 0.285889 0.264169
Si Si2 0.104753 0.587966 0.221934
Si Si3 0.169447 0.241952 0.944889
Si Si4 0.595800 0.516994 0.006941
Si Si5 0.512900 0.732157 0.511634
Si Si6 0.181466 0.121247 0.251880
Si Si7 0.801265 0.588406 0.849588
O O1 0.918864 0.456005 0.221332
O O2 0.871349 0.178262 0.203859
O O3 0.000000 0.220377 0.250000
O O4 0.957414 0.304033 0.395546
O O5 0.136124 0.715511 0.315483
O O6 0.041737 0.648574 0.110355
O O7 0.160665 0.529251 0.189320
O O8 0.141818 0.075487 0.950898
O O9 0.250000 0.250000 0.000000
O O10 0.152198 0.356861 0.021929
O O11 0.525186 0.609221 0.951452
O O12 0.572732 0.342715 0.988732
O O13 0.638362 0.531548 0.139171
O O14 0.218558 0.265378 0.230810
O O15 0.234699 0.001491 0.338066
#
# Coordination Sequence:
#
# PCOD8146446 Si02
#       7
#     8   8   8   8   8   8   8
#     4  10  23  40  62  98 133 168 226 273 328 408
#     4  11  24  40  70  94 130 184 215 272 347 391
#     4  11  25  43  66 102 129 175 232 272 331 406
#     4   9  21  41  63  94 129 163 225 271 325 400
#     4  10  22  41  65  94 128 178 210 272 343 383
#     4   9  20  40  66  91 132 176 213 279 335 387
#     4  10  22  42  65  97 134 171 229 276 328 397
#
# _framework density 23.481769
#
# number of rings (size 3 to 8) (size 9 to 14) (size 15 to 20)
#    0.000    2.000    0.000    3.000    8.000    1.143 
#    5.143    2.857    0.000    0.000    0.000    0.000 
#    0.000    0.000    0.000    0.000    0.000    0.000 
#
# Total GULP energy -347029.689686 kJ/mol
# GULP energy per Si atom -12393.917489 kJ/mol
# Density = 2.342832 g / cm^3
# Si number density = 23.481769 Si / 1000 Ang^3
#
#
#
# Elastic Constant Matrix: (Units=GPa)
#
#
# Indices 1 2 3 4 5 6 
#
# 1 103.1216 9.3860 -14.5179 0.0000 -2.7441 0.0000
# 2 9.3860 57.4918 -4.7759 0.0000 9.2603 0.0000
# 3 -14.5179 -4.7759 53.5986 0.0000 4.9112 0.0000
# 4 0.0000 0.0000 0.0000 31.2401 0.0000 6.4818
# 5 -2.7441 9.2603 4.9112 0.0000 31.3043 0.0000
# 6 0.0000 0.0000 0.0000 6.4818 0.0000 31.3661
#
#
#
# Elastic Compliance Matrix: (Units=1/GPa)
#
#
# Indices 1 2 3 4 5 6 
#
# 1 0.010228 -0.001616 0.002537 0.000000 0.000977 0.000000
# 2 -0.001616 0.018768 0.001782 0.000000 -0.005973 0.000000
# 3 0.002537 0.001782 0.019816 0.000000 -0.003414 0.000000
# 4 0.000000 0.000000 0.000000 0.033444 0.000000 -0.006911
# 5 0.000977 -0.005973 -0.003414 0.000000 0.034333 0.000000
# 6 0.000000 0.000000 0.000000 -0.006911 0.000000 0.033310
#
#
# Mechanical properties :
#
#
# Convention : Reuss Voigt Hill
#
# Bulk Modulus (GPa) = 18.44488 21.59962 20.02225
# Shear Modulus (GPa) = 30.75694 33.72344 32.24019
#
# Velocity S-wave (km/s) = 3.62307 3.79377 3.70941
# Velocity P-wave (km/s) = 5.03728 5.32998 5.18570
#
# Compressibility (1/GPa) = 0.05421559
#
# Stress axis : x y z
#
# Youngs Moduli (GPa) = 97.77539 53.28286 50.46467
#
# Poissons Ratio (x) = 0.08612 -0.12802
# Poissons Ratio (y) = 0.15804 -0.08992
# Poissons Ratio (z) = -0.24803 -0.09494
#
# Static dielectric constant tensor:
#      x y z
#    x 4.358140 0.000000 -0.014350 
#    y 0.000000 4.283140 0.000000 
#    z -0.014350 0.000000 3.984150 
# 
# 
# High freq. dielectric constant tensor:
#      x y z
#    x 1.934540 0.000000 0.005380 
#    y 0.000000 1.928280 0.000000 
#    z 0.005380 0.000000 1.902880 
# 
# From -- ./inp_files/172455.got.cif
#   From: 2010.06.25/outbox.cif.g09.slc.cpg/sg15_87_cif.got.tgz:172455.got - 2010.06.28 07:06:18.
