data_PCOD8146498
_publ_section_title
;
Structure prediction by ZEFSAII (Michael W. Deem and Ramdas Pophale) SiO2 
 PCOD8146498
Probable space group: C 2/C
;
_chemical_formula_sum "Si O2"
_cell_formula_units_Z 64
_cell_length_a 14.160898
_cell_length_b 21.823821
_cell_length_c 9.844610
_cell_angle_alpha 90.000000
_cell_angle_beta 83.193239
_cell_angle_gamma 90.000000
_cell_volume 3020.982090
_symmetry_space_group_name_H-M "C 2/C"
_symmetry_group_IT_number 15
_symmetry_cell_setting 'monoclinic'
loop_
_space_group_symop_operation_xyz
x,y,z
-x,y,1/2-z
-x,-y,-z
x,-y,1/2+z
1/2+x,1/2+y,z
1/2-x,1/2+y,1/2-z
1/2-x,1/2-y,-z
1/2+x,1/2-y,1/2+z
loop_
_atom_site_type_symbol
_atom_site_label
_atom_site_fract_x
_atom_site_fract_y
_atom_site_fract_z
Si Si1 0.892859 0.102548 0.911329
Si Si2 0.282212 0.819041 0.003978
Si Si3 0.391147 0.129400 0.739442
Si Si4 0.721558 0.491357 0.943312
Si Si5 0.097835 0.498573 0.902994
Si Si6 0.186886 0.606641 0.247295
Si Si7 0.755303 0.322664 0.497825
Si Si8 0.898811 0.892475 0.102050
O O1 0.906321 0.125426 0.757147
O O2 0.994209 0.099473 0.972378
O O3 0.818890 0.147960 0.993062
O O4 0.848539 0.034770 0.928610
O O5 0.344800 0.846656 0.868070
O O6 0.250000 0.750000 0.000000
O O7 0.344080 0.830703 0.127625
O O8 0.500000 0.148736 0.750000
O O9 0.331906 0.145887 0.884030
O O10 0.386629 0.057347 0.698636
O O11 0.734618 0.442584 0.818592
O O12 0.671879 0.550497 0.892798
O O13 0.821464 0.506233 0.996594
O O14 0.099257 0.435846 0.814209
O O15 0.000000 0.500000 0.000000
O O16 0.228478 0.649751 0.356813
O O17 0.750000 0.250000 0.500000
O O18 0.648030 0.337626 0.472230
#
# Coordination Sequence:
#
# PCOD8146498 Si02
#       8
#     8   8   8   8   8   8   8   8
#     4  10  22  41  66  95 127 177 225 280 348 417
#     4  11  24  48  72  96 139 191 236 292 349 422
#     4  12  26  46  72 102 143 189 231 294 364 429
#     4  11  21  43  64  96 140 172 223 286 359 422
#     4  12  25  42  70 106 144 183 231 296 366 439
#     4  11  24  41  67 103 136 182 234 286 361 432
#     4  12  25  45  68  99 139 185 237 296 347 419
#     4  11  22  39  67  96 131 173 226 283 355 415
#
# _framework density 21.185164
#
# number of rings (size 3 to 8) (size 9 to 14) (size 15 to 20)
#    0.000    0.750    5.000    3.375    1.750    1.000 
#    2.250    1.875    0.000    0.000    0.000    0.000 
#    0.000    0.000    0.000    0.000    0.000    0.000 
#
# Total GULP energy -396545.047815 kJ/mol
# GULP energy per Si atom -12392.032744 kJ/mol
# Density = 2.113695 g / cm^3
# Si number density = 21.185164 Si / 1000 Ang^3
#
#
#
# Elastic Constant Matrix: (Units=GPa)
#
#
# Indices 1 2 3 4 5 6 
#
# 1 144.9844 42.4527 40.3388 0.0000 6.9853 0.0000
# 2 42.4527 151.4342 45.2169 0.0000 2.8449 0.0000
# 3 40.3388 45.2169 108.5755 0.0000 3.2603 0.0000
# 4 0.0000 0.0000 0.0000 30.8346 0.0000 -2.7358
# 5 6.9853 2.8449 3.2603 0.0000 29.9314 0.0000
# 6 0.0000 0.0000 0.0000 -2.7358 0.0000 15.8170
#
#
#
# Elastic Compliance Matrix: (Units=1/GPa)
#
#
# Indices 1 2 3 4 5 6 
#
# 1 0.008063 -0.001543 -0.002308 0.000000 -0.001484 0.000000
# 2 -0.001543 0.007841 -0.002689 0.000000 -0.000092 0.000000
# 3 -0.002308 -0.002689 0.011201 0.000000 -0.000426 0.000000
# 4 0.000000 0.000000 0.000000 0.032937 0.000000 0.005697
# 5 -0.001484 -0.000092 -0.000426 0.000000 0.033811 0.000000
# 6 0.000000 0.000000 0.000000 0.005697 0.000000 0.064209
#
#
# Mechanical properties :
#
#
# Convention : Reuss Voigt Hill
#
# Bulk Modulus (GPa) = 71.31325 73.44565 72.37945
# Shear Modulus (GPa) = 28.43875 33.78232 31.11054
#
# Velocity S-wave (km/s) = 3.66784 3.99760 3.83627
# Velocity P-wave (km/s) = 7.18835 7.48675 7.33907
#
# Compressibility (1/GPa) = 0.01402264
#
# Stress axis : x y z
#
# Youngs Moduli (GPa) = 124.02504 127.53695 89.28141
#
# Poissons Ratio (x) = 0.19682 0.20609
# Poissons Ratio (y) = 0.19140 0.24010
# Poissons Ratio (z) = 0.28630 0.34298
#
# Static dielectric constant tensor:
#      x y z
#    x 4.223140 0.000000 -0.078520 
#    y 0.000000 4.201170 0.000000 
#    z -0.078520 0.000000 4.298930 
# 
# 
# High freq. dielectric constant tensor:
#      x y z
#    x 1.830530 0.000000 -0.001110 
#    y 0.000000 1.827440 0.000000 
#    z -0.001110 0.000000 1.841860 
# 
# From -- ./inp_files/42665.got.cif
#   From: 2010.06.25/outbox.cif.g09.slc.cpg/sg15_22_cif.got.tgz:42665.got - 2010.06.28 07:06:18.
