data_PCOD8146417
_publ_section_title
;
Structure prediction by ZEFSAII (Michael W. Deem and Ramdas Pophale) SiO2 
 PCOD8146417
Probable space group: C 2/C
;
_chemical_formula_sum "Si O2"
_cell_formula_units_Z 60
_cell_length_a 16.227162
_cell_length_b 14.732483
_cell_length_c 22.305283
_cell_angle_alpha 90.000000
_cell_angle_beta 145.492897
_cell_angle_gamma 90.000000
_cell_volume 3020.874006
_symmetry_space_group_name_H-M "C 2/C"
_symmetry_group_IT_number 15
_symmetry_cell_setting 'monoclinic'
loop_
_space_group_symop_operation_xyz
x,y,z
-x,y,1/2-z
-x,-y,-z
x,-y,1/2+z
1/2+x,1/2+y,z
1/2-x,1/2+y,1/2-z
1/2-x,1/2-y,-z
1/2+x,1/2-y,1/2+z
loop_
_atom_site_type_symbol
_atom_site_label
_atom_site_fract_x
_atom_site_fract_y
_atom_site_fract_z
Si Si1 0.842797 0.186317 0.879395
Si Si2 0.232614 0.762453 0.298916
Si Si3 0.865701 0.899147 0.941301
Si Si4 0.288313 0.645160 0.525178
Si Si5 0.464865 0.974191 0.576524
Si Si6 0.134881 0.544490 0.785545
Si Si7 0.478231 0.137376 0.503391
Si Si8 0.500000 0.322319 0.250000
O O1 0.837254 0.222913 0.807952
O O2 0.685032 0.148730 0.804960
O O3 0.883728 0.270820 0.946757
O O4 0.958117 0.102713 0.959200
O O5 0.303880 0.663686 0.350462
O O6 0.351835 0.841204 0.382039
O O7 0.106927 0.761317 0.273947
O O8 0.779984 0.993295 0.894196
O O9 0.854835 0.859439 0.000389
O O10 0.250000 0.750000 0.500000
O O11 0.156807 0.575893 0.457196
O O12 0.404509 0.618147 0.646682
O O13 0.532431 0.907349 0.568220
O O14 0.593441 0.999434 0.698216
O O15 0.411696 0.067966 0.512737
O O16 0.000000 0.541751 0.750000
#
# Coordination Sequence:
#
# PCOD8146417 Si02
#       8
#     8   8   8   8   8   8   8   4
#     4  11  23  43  62  89 127 166 215 259 311 374
#     4  11  21  35  61  93 122 167 202 257 317 378
#     4  11  23  36  62  93 125 160 204 260 320 370
#     4  12  22  35  60  96 133 162 196 255 319 378
#     4  11  22  40  65  95 125 165 211 258 320 384
#     4  12  25  40  65  91 126 167 215 265 314 375
#     4  10  22  41  65  86 124 170 212 256 312 379
#     4  12  22  32  56  92 134 162 204 242 322 386
#
# _framework density 19.861799999999999
#
# number of rings (size 3 to 8) (size 9 to 14) (size 15 to 20)
#    0.000    0.800    6.667    2.000    2.800    0.000 
#    0.000    0.667    1.467    0.000    0.000    0.000 
#    0.000    0.000    0.000    0.000    0.000    0.000 
#
# Total GULP energy -371683.297943 kJ/mol
# GULP energy per Si atom -12389.443265 kJ/mol
# Density = 1.981659 g / cm^3
# Si number density = 19.861800 Si / 1000 Ang^3
#
#
#
# Elastic Constant Matrix: (Units=GPa)
#
#
# Indices 1 2 3 4 5 6 
#
# 1 68.8672 47.2658 26.9595 0.0001 7.4199 0.0000
# 2 47.2658 80.3831 38.5873 -0.0004 16.9067 -0.0001
# 3 26.9595 38.5873 105.3441 -0.0017 -2.5454 -0.0003
# 4 0.0001 -0.0004 -0.0017 32.1991 -0.0006 7.5492
# 5 7.4199 16.9067 -2.5454 -0.0006 25.3998 0.0000
# 6 0.0000 -0.0001 -0.0003 7.5492 0.0000 29.8568
#
#
#
# Elastic Compliance Matrix: (Units=1/GPa)
#
#
# Indices 1 2 3 4 5 6 
#
# 1 0.024588 -0.014521 -0.000916 0.000000 0.002391 0.000000
# 2 -0.014521 0.027202 -0.006599 0.000000 -0.014525 0.000000
# 3 -0.000916 -0.006599 0.012286 0.000001 0.005891 0.000000
# 4 0.000000 0.000000 0.000001 0.033014 0.000001 -0.008347
# 5 0.002391 -0.014525 0.005891 0.000001 0.048931 0.000000
# 6 0.000000 0.000000 0.000000 -0.008347 0.000000 0.035604
#
#
# Mechanical properties :
#
#
# Convention : Reuss Voigt Hill
#
# Bulk Modulus (GPa) = 49.98740 53.35771 51.67256
# Shear Modulus (GPa) = 21.51799 26.94326 24.23063
#
# Velocity S-wave (km/s) = 3.29505 3.68712 3.49658
# Velocity P-wave (km/s) = 6.30069 6.71187 6.50953
#
# Compressibility (1/GPa) = 0.02000504
#
# Stress axis : x y z
#
# Youngs Moduli (GPa) = 40.67039 36.76242 81.39057
#
# Poissons Ratio (x) = 0.53384 0.07452
# Poissons Ratio (y) = 0.59058 0.53707
# Poissons Ratio (z) = 0.03724 0.24258
#
# Static dielectric constant tensor:
#      x y z
#    x 3.421720 0.000000 -0.057350 
#    y 0.000000 3.559370 0.000000 
#    z -0.057350 0.000000 3.926760 
# 
# 
# High freq. dielectric constant tensor:
#      x y z
#    x 1.759870 0.000000 -0.008000 
#    y 0.000000 1.762820 0.000000 
#    z -0.008000 0.000000 1.792700 
# 
# From -- ./inp_files/105390.got.cif
#   From: 2010.06.25/outbox.cif.g09.slc.cpg/sg15_53_cif.got.tgz:105390.got - 2010.06.28 07:06:18.
