data_PCOD8146139
_publ_section_title
;
Structure prediction by ZEFSAII (Michael W. Deem and Ramdas Pophale) SiO2 
 PCOD8146139
Probable space group: C 2/C
;
_chemical_formula_sum "Si O2"
_cell_formula_units_Z 44
_cell_length_a 21.353797
_cell_length_b 7.867038
_cell_length_c 13.761364
_cell_angle_alpha 90.000000
_cell_angle_beta 49.956532
_cell_angle_gamma 90.000000
_cell_volume 1769.803810
_symmetry_space_group_name_H-M "C 2/C"
_symmetry_group_IT_number 15
_symmetry_cell_setting 'monoclinic'
loop_
_space_group_symop_operation_xyz
x,y,z
-x,y,1/2-z
-x,-y,-z
x,-y,1/2+z
1/2+x,1/2+y,z
1/2-x,1/2+y,1/2-z
1/2-x,1/2-y,-z
1/2+x,1/2-y,1/2+z
loop_
_atom_site_type_symbol
_atom_site_label
_atom_site_fract_x
_atom_site_fract_y
_atom_site_fract_z
Si Si1 0.332140 0.118127 0.218510
Si Si2 0.938860 0.601290 0.495321
Si Si3 0.285007 0.639778 0.600829
Si Si4 0.542093 0.343367 0.311486
Si Si5 0.370850 0.671807 0.320600
Si Si6 0.000000 0.570704 0.750000
O O1 0.324302 0.284141 0.159019
O O2 0.398005 0.175973 0.235391
O O3 0.248820 0.053555 0.352444
O O4 0.352916 0.948183 0.131128
O O5 0.943766 0.540418 0.378081
O O6 0.000000 0.500000 0.500000
O O7 0.967097 0.802065 0.463647
O O8 0.355291 0.624546 0.449077
O O9 0.213521 0.769495 0.641867
O O10 0.500000 0.354235 0.250000
O O11 0.594289 0.512962 0.276215
O O12 0.439174 0.816495 0.244860
#
# Coordination Sequence:
#
# PCOD8146139 Si02
#       6
#     8   8   8   8   8   4
#     4  11  24  45  66 100 137 186 227 278 347 410
#     4  10  22  40  67  96 131 179 225 281 338 401
#     4  11  25  45  69  97 144 181 226 281 344 417
#     4  11  23  41  68 102 137 173 231 284 338 400
#     4  11  24  42  67 100 133 184 225 283 343 406
#     4  12  20  44  70  92 144 172 232 284 342 398
#
# _framework density 24.861512000000001
#
# number of rings (size 3 to 8) (size 9 to 14) (size 15 to 20)
#    0.000    1.091    3.636    3.273    0.000    2.182 
#    0.000    9.091    0.000    0.000    0.000    0.000 
#    0.000    0.000    0.000    0.000    0.000    0.000 
#
# Total GULP energy -272540.276419 kJ/mol
# GULP energy per Si atom -12388.194383 kJ/mol
# Density = 2.480493 g / cm^3
# Si number density = 24.861512 Si / 1000 Ang^3
#
#
#
# Elastic Constant Matrix: (Units=GPa)
#
#
# Indices 1 2 3 4 5 6 
#
# 1 60.4161 -5.3503 2.4244 0.0005 2.7783 -0.0002
# 2 -5.3503 96.9913 27.5540 0.0022 -3.2060 -0.0010
# 3 2.4244 27.5540 70.3414 0.0007 1.9524 -0.0003
# 4 0.0005 0.0022 0.0007 42.7833 0.0000 -11.1952
# 5 2.7783 -3.2060 1.9524 0.0000 31.3807 0.0000
# 6 -0.0002 -0.0010 -0.0003 -11.1952 0.0000 32.7619
#
#
#
# Elastic Compliance Matrix: (Units=1/GPa)
#
#
# Indices 1 2 3 4 5 6 
#
# 1 0.016755 0.001165 -0.000998 0.000000 -0.001302 0.000000
# 2 0.001165 0.011750 -0.004681 0.000000 0.001389 0.000000
# 3 -0.000998 -0.004681 0.016123 0.000000 -0.001393 0.000000
# 4 0.000000 0.000000 0.000000 0.025669 0.000000 0.008771
# 5 -0.001302 0.001389 -0.001393 0.000000 0.032211 0.000000
# 6 0.000000 0.000000 0.000000 0.008771 0.000000 0.033521
#
#
# Mechanical properties :
#
#
# Convention : Reuss Voigt Hill
#
# Bulk Modulus (GPa) = 28.09016 30.77831 29.43423
# Shear Modulus (GPa) = 31.86260 34.92656 33.39458
#
# Velocity S-wave (km/s) = 3.58383 3.75219 3.66898
# Velocity P-wave (km/s) = 5.33370 5.58379 5.46018
#
# Compressibility (1/GPa) = 0.03559966
#
# Stress axis : x y z
#
# Youngs Moduli (GPa) = 59.68392 85.10427 62.02228
#
# Poissons Ratio (x) = -0.09911 0.06187
# Poissons Ratio (y) = -0.06951 0.29036
# Poissons Ratio (z) = 0.05954 0.39841
#
# Static dielectric constant tensor:
#      x y z
#    x 1.599790 0.000010 5.968770 
#    y 0.000010 4.619170 -0.000020 
#    z 5.968770 -0.000020 -8.045110 
# 
# 
# High freq. dielectric constant tensor:
#      x y z
#    x 1.993190 0.000000 0.005570 
#    y 0.000000 1.979940 0.000000 
#    z 0.005570 0.000000 1.984090 
# 
# From -- ./inp_files/171698.got.cif
#   From: 2010.06.25/outbox.cif.g09.slc.cpg/sg15_86_cif.got.tgz:171698.got - 2010.06.28 07:06:18.
