data_PCOD8146188
_publ_section_title
;
Structure prediction by ZEFSAII (Michael W. Deem and Ramdas Pophale) SiO2 
 PCOD8146188
Probable space group: C 2/C
;
_chemical_formula_sum "Si O2"
_cell_formula_units_Z 60
_cell_length_a 7.873742
_cell_length_b 21.071124
_cell_length_c 18.200496
_cell_angle_alpha 90.000000
_cell_angle_beta 61.778969
_cell_angle_gamma 90.000000
_cell_volume 2660.676440
_symmetry_space_group_name_H-M "C 2/C"
_symmetry_group_IT_number 15
_symmetry_cell_setting 'monoclinic'
loop_
_space_group_symop_operation_xyz
x,y,z
-x,y,1/2-z
-x,-y,-z
x,-y,1/2+z
1/2+x,1/2+y,z
1/2-x,1/2+y,1/2-z
1/2-x,1/2-y,-z
1/2+x,1/2-y,1/2+z
loop_
_atom_site_type_symbol
_atom_site_label
_atom_site_fract_x
_atom_site_fract_y
_atom_site_fract_z
Si Si1 0.500000 0.795231 0.250000
Si Si2 0.929412 0.662542 0.996980
Si Si3 0.838300 0.889856 0.225920
Si Si4 0.021510 0.457035 0.378512
Si Si5 0.890328 0.016777 0.597586
Si Si6 0.446520 0.094460 0.136372
Si Si7 0.216158 0.105154 0.317854
Si Si8 0.526181 0.721048 0.099700
O O1 0.690957 0.834618 0.232326
O O2 0.574832 0.752961 0.167494
O O3 0.978168 0.651135 0.072291
O O4 0.704611 0.679769 0.032322
O O5 0.990268 0.599077 0.942483
O O6 0.042415 0.723957 0.943155
O O7 0.705754 0.943944 0.289676
O O8 0.958350 0.922274 0.132716
O O9 0.000000 0.863729 0.250000
O O10 0.830926 0.463845 0.368998
O O11 0.062737 0.526781 0.405439
O O12 0.927614 0.953554 0.638554
O O13 0.000000 0.000000 0.500000
O O14 0.253744 0.107896 0.222709
O O15 0.607237 0.090726 0.165101
O O16 0.148231 0.173554 0.357067
#
# Coordination Sequence:
#
# PCOD8146188 Si02
#       8
#     4   8   8   8   8   8   8   8
#     4  12  24  52  70  94 154 192 228 320 350 412
#     4  11  23  41  65 100 128 187 240 280 352 426
#     4  12  25  44  76 107 136 193 247 291 373 440
#     4  11  21  45  71  97 148 184 224 309 366 414
#     4  11  22  42  70 103 146 180 228 300 361 425
#     4  10  22  40  68  96 137 176 223 297 355 403
#     4  10  22  41  62  97 134 182 223 271 356 420
#     4  11  24  42  67  92 136 191 235 278 358 426
#
# _framework density 22.550656
#
# number of rings (size 3 to 8) (size 9 to 14) (size 15 to 20)
#    0.000    1.067    4.000    2.000    0.000    5.867 
#    6.000    0.000    0.000    0.000    0.000    0.000 
#    0.000    0.000    0.000    0.000    0.000    0.000 
#
# Total GULP energy -371683.986674 kJ/mol
# GULP energy per Si atom -12389.466222 kJ/mol
# Density = 2.249933 g / cm^3
# Si number density = 22.550656 Si / 1000 Ang^3
#
#
#
# Elastic Constant Matrix: (Units=GPa)
#
#
# Indices 1 2 3 4 5 6 
#
# 1 53.3688 19.2495 19.1794 0.0000 -3.5502 0.0000
# 2 19.2495 122.3948 65.5965 0.0000 -4.8105 0.0000
# 3 19.1794 65.5965 141.3183 0.0000 3.8602 0.0000
# 4 0.0000 0.0000 0.0000 41.4785 0.0000 -4.5353
# 5 -3.5502 -4.8105 3.8602 0.0000 25.8555 0.0000
# 6 0.0000 0.0000 0.0000 -4.5353 0.0000 21.6269
#
#
#
# Elastic Compliance Matrix: (Units=1/GPa)
#
#
# Indices 1 2 3 4 5 6 
#
# 1 0.020341 -0.002096 -0.001861 0.000000 0.002681 0.000000
# 2 -0.002096 0.011296 -0.005029 0.000000 0.002565 0.000000
# 3 -0.001861 -0.005029 0.009735 0.000000 -0.002645 0.000000
# 4 0.000000 0.000000 0.000000 0.024675 0.000000 0.005174
# 5 0.002681 0.002565 -0.002645 0.000000 0.039917 0.000000
# 6 0.000000 0.000000 0.000000 0.005174 0.000000 0.047324
#
#
# Mechanical properties :
#
#
# Convention : Reuss Voigt Hill
#
# Bulk Modulus (GPa) = 42.73517 58.34809 50.54163
# Shear Modulus (GPa) = 27.92376 31.99595 29.95985
#
# Velocity S-wave (km/s) = 3.52272 3.77085 3.64889
# Velocity P-wave (km/s) = 5.96137 6.69996 6.34143
#
# Compressibility (1/GPa) = 0.02339993
#
# Stress axis : x y z
#
# Youngs Moduli (GPa) = 49.16246 88.52713 102.71940
#
# Poissons Ratio (x) = 0.18560 0.19113
# Poissons Ratio (y) = 0.10307 0.51656
# Poissons Ratio (z) = 0.09148 0.44519
#
# Static dielectric constant tensor:
#      x y z
#    x 3.690820 0.000000 -0.028330 
#    y 0.000000 4.413260 0.000000 
#    z -0.028330 0.000000 4.344070 
# 
# 
# High freq. dielectric constant tensor:
#      x y z
#    x 1.855930 0.000000 0.001920 
#    y 0.000000 1.902050 0.000000 
#    z 0.001920 0.000000 1.903780 
# 
# From -- ./inp_files/192532.got.cif
#   From: 2010.06.25/outbox.cif.g09.slc.cpg/sg15_97_cif.got.tgz:192532.got - 2010.06.28 07:06:18.
