data_PCOD8146303
_publ_section_title
;
Structure prediction by ZEFSAII (Michael W. Deem and Ramdas Pophale) SiO2 
 PCOD8146303
Probable space group: C 2/C
;
_chemical_formula_sum "Si O2"
_cell_formula_units_Z 64
_cell_length_a 17.548292
_cell_length_b 21.597990
_cell_length_c 24.026375
_cell_angle_alpha 90.000000
_cell_angle_beta 160.358194
_cell_angle_gamma 90.000000
_cell_volume 3060.942388
_symmetry_space_group_name_H-M "C 2/C"
_symmetry_group_IT_number 15
_symmetry_cell_setting 'monoclinic'
loop_
_space_group_symop_operation_xyz
x,y,z
-x,y,1/2-z
-x,-y,-z
x,-y,1/2+z
1/2+x,1/2+y,z
1/2-x,1/2+y,1/2-z
1/2-x,1/2-y,-z
1/2+x,1/2-y,1/2+z
loop_
_atom_site_type_symbol
_atom_site_label
_atom_site_fract_x
_atom_site_fract_y
_atom_site_fract_z
Si Si1 0.599128 0.853218 0.010546
Si Si2 0.266865 0.801395 0.058391
Si Si3 0.050465 0.127169 0.660380
Si Si4 0.240091 0.275773 0.891665
Si Si5 0.144641 0.823640 0.648525
Si Si6 0.702425 0.547237 0.926332
Si Si7 0.584892 0.567758 0.570279
Si Si8 0.428364 0.068235 0.640179
O O1 0.336653 0.832917 0.828124
O O2 0.696583 0.862906 0.140202
O O3 0.745832 0.797115 0.084656
O O4 0.617642 0.916804 0.988456
O O5 0.500000 0.790554 0.250000
O O6 0.267130 0.870948 0.032341
O O7 0.250000 0.750000 0.000000
O O8 0.064525 0.791601 0.963518
O O9 0.058563 0.077194 0.617467
O O10 0.947216 0.190921 0.565833
O O11 0.884144 0.099660 0.591758
O O12 0.265153 0.283739 0.841962
O O13 0.000000 0.301286 0.750000
O O14 0.075554 0.889829 0.577195
O O15 0.500000 0.520476 0.750000
O O16 0.805097 0.488290 0.026495
O O17 0.500000 0.500000 0.500000
O O18 0.843982 0.584295 0.735924
O O19 0.500000 0.044591 0.750000
#
# Coordination Sequence:
#
# PCOD8146303 Si02
#       8
#     8   8   8   8   8   8   8   8
#     4  11  23  40  62  96 139 173 212 266 334 399
#     4  11  26  48  71  97 130 176 234 290 341 396
#     4  10  23  39  61  94 133 172 214 263 326 394
#     4  11  23  40  67  99 136 179 221 265 328 407
#     4  11  24  42  66  98 131 174 224 274 335 400
#     4  10  22  41  61  93 135 169 207 265 332 403
#     4  11  22  41  67  95 125 169 222 276 332 397
#     4  11  22  44  67  90 126 166 224 280 326 394
#
# _framework density 20.908594999999998
#
# number of rings (size 3 to 8) (size 9 to 14) (size 15 to 20)
#    0.000    1.250    2.500    4.125    1.750    5.500 
#    2.250    1.875    0.000    0.000    0.000    0.000 
#    0.000    0.000    0.000    0.000    0.000    0.000 
#
# Total GULP energy -396767.405536 kJ/mol
# GULP energy per Si atom -12398.981423 kJ/mol
# Density = 2.086101 g / cm^3
# Si number density = 20.908595 Si / 1000 Ang^3
#
#
#
# Elastic Constant Matrix: (Units=GPa)
#
#
# Indices 1 2 3 4 5 6 
#
# 1 110.0160 43.8251 52.1554 -1.0296 -2.1246 -0.3041
# 2 43.8251 121.6633 41.6095 -5.4384 -23.4421 -2.2509
# 3 52.1554 41.6095 133.6001 -7.0290 -12.9191 -2.8259
# 4 -1.0296 -5.4384 -7.0290 23.5828 -1.0645 -18.3308
# 5 -2.1246 -23.4421 -12.9191 -1.0645 40.9585 -0.4325
# 6 -0.3041 -2.2509 -2.8259 -18.3308 -0.4325 43.5337
#
#
#
# Elastic Compliance Matrix: (Units=1/GPa)
#
#
# Indices 1 2 3 4 5 6 
#
# 1 0.012493 -0.003807 -0.004170 -0.003012 -0.002942 -0.001678
# 2 -0.003807 0.011405 -0.001210 0.004164 0.006081 0.002298
# 3 -0.004170 -0.001210 0.010016 0.004586 0.002396 0.002513
# 4 -0.003012 0.004164 0.004586 0.067317 0.005728 0.028894
# 5 -0.002942 0.006081 0.002396 0.005728 0.028680 0.003146
# 6 -0.001678 0.002298 0.002513 0.028894 0.003146 0.035439
#
#
# Mechanical properties :
#
#
# Convention : Reuss Voigt Hill
#
# Bulk Modulus (GPa) = 64.34942 71.16215 67.75579
# Shear Modulus (GPa) = 26.46844 36.79429 31.63136
#
# Velocity S-wave (km/s) = 3.56183 4.19951 3.89374
# Velocity P-wave (km/s) = 6.91078 7.59100 7.25886
#
# Compressibility (1/GPa) = 0.01554016
#
# Stress axis : x y z
#
# Youngs Moduli (GPa) = 80.04339 87.68221 99.84029
#
# Poissons Ratio (x) = 0.33377 0.41634
# Poissons Ratio (y) = 0.30470 0.12083
# Poissons Ratio (z) = 0.33378 0.10612
#
# Static dielectric constant tensor:
#      x y z
#    x 17.853650 -0.438050 -16.653850 
#    y -0.438050 4.115470 0.519350 
#    z -16.653850 0.519350 23.552200 
# 
# 
# High freq. dielectric constant tensor:
#      x y z
#    x 1.815280 0.000000 -0.007090 
#    y 0.000000 1.822240 -0.000050 
#    z -0.007090 -0.000050 1.826900 
# 
# From -- ./inp_files/278155.got.cif
#   From: 2010.06.25/outbox.cif.g09.slc.cpg/sg15_140_cif.got.tgz:278155.got - 2010.06.28 07:06:18.
