data_PCOD8146750
_publ_section_title
;
Structure prediction by ZEFSAII (Michael W. Deem and Ramdas Pophale) SiO2 
 PCOD8146750
Probable space group: C 2/C
;
_chemical_formula_sum "Si O2"
_cell_formula_units_Z 56
_cell_length_a 8.022448
_cell_length_b 32.916997
_cell_length_c 18.900048
_cell_angle_alpha 90.000000
_cell_angle_beta 32.868003
_cell_angle_gamma 90.000000
_cell_volume 2708.658353
_symmetry_space_group_name_H-M "C 2/C"
_symmetry_group_IT_number 15
_symmetry_cell_setting 'monoclinic'
loop_
_space_group_symop_operation_xyz
x,y,z
-x,y,1/2-z
-x,-y,-z
x,-y,1/2+z
1/2+x,1/2+y,z
1/2-x,1/2+y,1/2-z
1/2-x,1/2-y,-z
1/2+x,1/2-y,1/2+z
loop_
_atom_site_type_symbol
_atom_site_label
_atom_site_fract_x
_atom_site_fract_y
_atom_site_fract_z
Si Si1 0.729306 0.787094 0.101803
Si Si2 0.233231 0.566472 0.222069
Si Si3 0.286096 0.418235 0.488400
Si Si4 0.610937 0.624170 0.998913
Si Si5 0.359898 0.504846 0.876251
Si Si6 0.825295 0.366987 0.104467
Si Si7 0.161066 0.726785 0.891821
O O1 0.500000 0.792800 0.250000
O O2 0.898582 0.828770 0.019471
O O3 0.520401 0.768464 0.115907
O O4 0.009841 0.754560 0.008479
O O5 0.515224 0.536469 0.134211
O O6 0.000000 0.545641 0.250000
O O7 0.043577 0.572229 0.360474
O O8 0.353525 0.609851 0.147572
O O9 0.545097 0.401001 0.450109
O O10 0.442030 0.457659 0.398140
O O11 0.155019 0.386882 0.478520
O O12 0.936894 0.616203 0.921241
O O13 0.500000 0.514165 0.750000
O O14 0.000000 0.500000 0.000000
O O15 0.500000 0.379284 0.250000
O O16 0.853028 0.319459 0.077812
O O17 0.500000 0.741573 0.750000
#
# Coordination Sequence:
#
# PCOD8146750 Si02
#       7
#     8   8   8   8   8   8   8
#     4  10  22  42  63  98 134 171 220 275 330 389
#     4  10  24  46  63  94 133 171 224 272 331 404
#     4  11  24  43  67  98 129 173 221 273 340 391
#     4  10  24  41  67  92 134 173 215 281 327 394
#     4  12  24  45  71  98 132 174 222 276 337 402
#     4  10  22  42  63  97 131 169 226 276 327 399
#     4   9  21  41  64  92 134 172 218 273 326 400
#
# _framework density 20.674440000000001
#
# number of rings (size 3 to 8) (size 9 to 14) (size 15 to 20)
#    0.000    1.714    1.429    1.286    6.000    4.571 
#   12.857    0.000    0.000    0.000    0.000    0.000 
#    0.000    0.000    0.000    0.000    0.000    0.000 
#
# Total GULP energy -346946.285417 kJ/mol
# GULP energy per Si atom -12390.938765 kJ/mol
# Density = 2.062738 g / cm^3
# Si number density = 20.674440 Si / 1000 Ang^3
#
#
#
# Elastic Constant Matrix: (Units=GPa)
#
#
# Indices 1 2 3 4 5 6 
#
# 1 118.1452 55.6416 63.3155 0.0000 -5.5217 0.0000
# 2 55.6416 114.7132 83.6546 0.0000 3.5854 0.0000
# 3 63.3155 83.6546 143.8116 -0.0003 2.0862 0.0001
# 4 0.0000 0.0000 -0.0003 42.8528 0.0001 -3.0087
# 5 -5.5217 3.5854 2.0862 0.0001 39.6186 0.0000
# 6 0.0000 0.0000 0.0001 -3.0087 0.0000 29.6322
#
#
#
# Elastic Compliance Matrix: (Units=1/GPa)
#
#
# Indices 1 2 3 4 5 6 
#
# 1 0.011957 -0.003483 -0.003270 0.000000 0.002154 0.000000
# 2 -0.003483 0.016187 -0.007860 0.000000 -0.001536 0.000000
# 3 -0.003270 -0.007860 0.012972 0.000000 -0.000427 0.000000
# 4 0.000000 0.000000 0.000000 0.023503 0.000000 0.002386
# 5 0.002154 -0.001536 -0.000427 0.000000 0.025702 0.000000
# 6 0.000000 0.000000 0.000000 0.002386 0.000000 0.033989
#
#
# Mechanical properties :
#
#
# Convention : Reuss Voigt Hill
#
# Bulk Modulus (GPa) = 84.10211 86.87703 85.48957
# Shear Modulus (GPa) = 31.74615 34.02460 32.88538
#
# Velocity S-wave (km/s) = 3.92283 4.06116 3.99260
# Velocity P-wave (km/s) = 7.82852 8.00646 7.91799
#
# Compressibility (1/GPa) = 0.01189031
#
# Stress axis : x y z
#
# Youngs Moduli (GPa) = 83.63037 61.77906 77.09198
#
# Poissons Ratio (x) = 0.21516 0.25207
# Poissons Ratio (y) = 0.29126 0.60595
# Poissons Ratio (z) = 0.27345 0.48559
#
# Static dielectric constant tensor:
#      x y z
#    x 3.695390 0.000000 -0.166150 
#    y 0.000000 3.822760 0.000000 
#    z -0.166150 0.000000 3.881560 
# 
# 
# High freq. dielectric constant tensor:
#      x y z
#    x 1.818430 0.000000 -0.003420 
#    y 0.000000 1.808410 0.000000 
#    z -0.003420 0.000000 1.815520 
# 
# From -- ./inp_files/234911.got.cif
#   From: 2010.06.25/outbox.cif.g09.slc.cpg/sg15_118_cif.got.tgz:234911.got - 2010.06.28 07:06:18.
