data_PCOD8146872
_publ_section_title
;
Structure prediction by ZEFSAII (Michael W. Deem and Ramdas Pophale) SiO2 
 PCOD8146872
Probable space group: C 2/C
;
_chemical_formula_sum "Si O2"
_cell_formula_units_Z 32
_cell_length_a 26.423332
_cell_length_b 7.685444
_cell_length_c 21.437648
_cell_angle_alpha 90.000000
_cell_angle_beta 22.092816
_cell_angle_gamma 90.000000
_cell_volume 1637.368203
_symmetry_space_group_name_H-M "C 2/C"
_symmetry_group_IT_number 15
_symmetry_cell_setting 'monoclinic'
loop_
_space_group_symop_operation_xyz
x,y,z
-x,y,1/2-z
-x,-y,-z
x,-y,1/2+z
1/2+x,1/2+y,z
1/2-x,1/2+y,1/2-z
1/2-x,1/2-y,-z
1/2+x,1/2-y,1/2+z
loop_
_atom_site_type_symbol
_atom_site_label
_atom_site_fract_x
_atom_site_fract_y
_atom_site_fract_z
Si Si1 0.939734 0.394371 0.125490
Si Si2 0.830992 0.259215 0.556210
Si Si3 0.237045 0.951235 0.943037
Si Si4 0.850256 0.426036 0.945187
O O1 0.813449 0.278041 0.245682
O O2 0.884615 0.527381 0.241931
O O3 0.000000 0.500000 0.000000
O O4 0.052481 0.266427 0.025291
O O5 0.818302 0.442309 0.536590
O O6 0.860885 0.103885 0.471918
O O7 0.248848 0.967765 0.004116
O O8 0.173729 0.765097 0.998857
O O9 0.000000 0.446532 0.750000
#
# Coordination Sequence:
#
# PCOD8146872 Si02
#       4
#     8   8   8   8
#     4  10  23  45  62  91 125 168 219 255 307 377
#     4  10  22  42  66  89 128 166 209 259 319 378
#     4   9  23  37  63  97 126 163 208 259 319 375
#     4  11  19  38  65  96 129 158 205 265 319 382
#
# _framework density 19.543558000000001
#
# number of rings (size 3 to 8) (size 9 to 14) (size 15 to 20)
#    1.500    0.500    2.500    0.750    0.000    7.000 
#    0.000    2.500    0.000    0.000    0.000    0.000 
#    0.000    0.000    0.000    0.000    0.000    0.000 
#
# Total GULP energy -198306.540854 kJ/mol
# GULP energy per Si atom -12394.158803 kJ/mol
# Density = 1.949908 g / cm^3
# Si number density = 19.543558 Si / 1000 Ang^3
#
#
#
# Elastic Constant Matrix: (Units=GPa)
#
#
# Indices 1 2 3 4 5 6 
#
# 1 51.8021 22.6727 19.8771 -0.0021 -10.1932 0.0012
# 2 22.6727 104.4107 26.7867 -0.0082 -10.1791 0.0008
# 3 19.8771 26.7867 95.6521 -0.0052 -4.4779 0.0022
# 4 -0.0021 -0.0082 -0.0052 39.7051 0.0001 2.8603
# 5 -10.1932 -10.1791 -4.4779 0.0001 24.5373 -0.0005
# 6 0.0012 0.0008 0.0022 2.8603 -0.0005 29.5586
#
#
#
# Elastic Compliance Matrix: (Units=1/GPa)
#
#
# Indices 1 2 3 4 5 6 
#
# 1 0.023732 -0.003474 -0.003595 0.000000 0.007761 0.000000
# 2 -0.003474 0.011188 -0.002281 0.000002 0.002782 0.000000
# 3 -0.003595 -0.002281 0.011827 0.000001 -0.000281 -0.000001
# 4 0.000000 0.000002 0.000001 0.025362 0.000001 -0.002454
# 5 0.007761 0.002782 -0.000281 0.000001 0.045081 0.000000
# 6 0.000000 0.000000 -0.000001 -0.002454 0.000000 0.034069
#
#
# Mechanical properties :
#
#
# Convention : Reuss Voigt Hill
#
# Bulk Modulus (GPa) = 35.65562 43.39311 39.52437
# Shear Modulus (GPa) = 27.88478 30.92876 29.40677
#
# Velocity S-wave (km/s) = 3.78140 3.98245 3.88323
# Velocity P-wave (km/s) = 6.11139 6.58772 6.35402
#
# Compressibility (1/GPa) = 0.02804607
#
# Stress axis : x y z
#
# Youngs Moduli (GPa) = 42.13795 89.37815 84.55026
#
# Poissons Ratio (x) = 0.31052 0.30398
# Poissons Ratio (y) = 0.14640 0.19286
# Poissons Ratio (z) = 0.15150 0.20387
#
# Static dielectric constant tensor:
#      x y z
#    x 3.507800 0.000000 -0.163460 
#    y 0.000000 3.613380 0.000000 
#    z -0.163460 0.000000 3.479230 
# 
# 
# High freq. dielectric constant tensor:
#      x y z
#    x 1.748360 0.000000 -0.011240 
#    y 0.000000 1.760030 0.000000 
#    z -0.011240 0.000000 1.754470 
# 
# From -- ./inp_files/53502.got.cif
#   From: 2010.06.25/outbox.cif.g09.slc.cpg/sg15_27_cif.got.tgz:53502.got - 2010.06.28 07:06:18.
