data_PCOD8146611
_publ_section_title
;
Structure prediction by ZEFSAII (Michael W. Deem and Ramdas Pophale) SiO2 
 PCOD8146611
Probable space group: C 2/C
;
_chemical_formula_sum "Si O2"
_cell_formula_units_Z 64
_cell_length_a 14.864054
_cell_length_b 9.219591
_cell_length_c 28.461627
_cell_angle_alpha 90.000000
_cell_angle_beta 50.404940
_cell_angle_gamma 90.000000
_cell_volume 3005.520772
_symmetry_space_group_name_H-M "C 2/C"
_symmetry_group_IT_number 15
_symmetry_cell_setting 'monoclinic'
loop_
_space_group_symop_operation_xyz
x,y,z
-x,y,1/2-z
-x,-y,-z
x,-y,1/2+z
1/2+x,1/2+y,z
1/2-x,1/2+y,1/2-z
1/2-x,1/2-y,-z
1/2+x,1/2-y,1/2+z
loop_
_atom_site_type_symbol
_atom_site_label
_atom_site_fract_x
_atom_site_fract_y
_atom_site_fract_z
Si Si1 0.431892 0.918818 0.120683
Si Si2 0.774068 0.388537 0.083840
Si Si3 0.010878 0.905368 0.191647
Si Si4 0.854920 0.710872 0.179449
Si Si5 0.846182 0.911741 0.518915
Si Si6 0.398270 0.456070 0.099458
Si Si7 0.690258 0.902122 0.007832
Si Si8 0.880183 0.152887 0.192330
O O1 0.329225 0.902267 0.116873
O O2 0.553304 0.873816 0.057330
O O3 0.409764 0.820752 0.174162
O O4 0.440381 0.081732 0.136459
O O5 0.637594 0.354714 0.133321
O O6 0.832872 0.257708 0.035136
O O7 0.790035 0.542130 0.051866
O O8 0.000000 0.887278 0.250000
O O9 0.913262 0.804577 0.200860
O O10 0.984667 0.071111 0.184859
O O11 0.835788 0.811159 0.139795
O O12 0.734809 0.641047 0.237467
O O13 0.961737 0.933118 0.448834
O O14 0.850306 0.009075 0.564237
O O15 0.736058 0.970743 0.526702
O O16 0.364608 0.586658 0.145403
O O17 0.750000 0.750000 0.000000
#
# Coordination Sequence:
#
# PCOD8146611 Si02
#       8
#     8   8   8   8   8   8   8   8
#     4  12  24  42  65  98 130 173 220 276 335 396
#     4  12  24  43  68  93 133 180 225 269 328 411
#     4  11  24  44  68  96 128 178 226 272 334 402
#     4  11  23  41  70  96 132 171 227 277 331 395
#     4  11  23  42  69  95 136 176 223 273 334 406
#     4  10  22  41  69  98 130 179 222 269 339 405
#     4  12  26  40  63 101 138 167 212 283 338 395
#     4  11  22  45  65  96 133 174 218 276 335 399
#
# _framework density 21.294148
#
# number of rings (size 3 to 8) (size 9 to 14) (size 15 to 20)
#    0.000    0.750    1.250    8.250    3.500    0.000 
#    2.250    0.625    0.000    0.000    0.000    0.000 
#    0.000    0.000    0.000    0.000    0.000    0.000 
#
# Total GULP energy -396950.117501 kJ/mol
# GULP energy per Si atom -12404.691172 kJ/mol
# Density = 2.124568 g / cm^3
# Si number density = 21.294148 Si / 1000 Ang^3
#
#
#
# Elastic Constant Matrix: (Units=GPa)
#
#
# Indices 1 2 3 4 5 6 
#
# 1 85.3646 23.3694 26.8154 0.0000 -5.4612 0.0000
# 2 23.3694 125.0140 31.0395 0.0000 10.1102 0.0000
# 3 26.8154 31.0395 113.6995 0.0000 -5.4990 0.0000
# 4 0.0000 0.0000 0.0000 44.2724 0.0000 -0.5610
# 5 -5.4612 10.1102 -5.4990 0.0000 32.3597 0.0000
# 6 0.0000 0.0000 0.0000 -0.5610 0.0000 24.8178
#
#
#
# Elastic Compliance Matrix: (Units=1/GPa)
#
#
# Indices 1 2 3 4 5 6 
#
# 1 0.013200 -0.002063 -0.002431 0.000000 0.002459 0.000000
# 2 -0.002063 0.009224 -0.002206 0.000000 -0.003605 0.000000
# 3 -0.002431 -0.002206 0.010067 0.000000 0.001990 0.000000
# 4 0.000000 0.000000 0.000000 0.022594 0.000000 0.000511
# 5 0.002459 -0.003605 0.001990 0.000000 0.032782 0.000000
# 6 0.000000 0.000000 0.000000 0.000511 0.000000 0.040305
#
#
# Mechanical properties :
#
#
# Convention : Reuss Voigt Hill
#
# Bulk Modulus (GPa) = 52.37989 54.05852 53.21921
# Shear Modulus (GPa) = 33.79846 36.48023 35.13935
#
# Velocity S-wave (km/s) = 3.98831 4.14352 4.06666
# Velocity P-wave (km/s) = 6.77204 6.95222 6.86272
#
# Compressibility (1/GPa) = 0.01909130
#
# Stress axis : x y z
#
# Youngs Moduli (GPa) = 75.75663 108.41335 99.33529
#
# Poissons Ratio (x) = 0.22364 0.24149
# Poissons Ratio (y) = 0.15627 0.21913
# Poissons Ratio (z) = 0.18417 0.23915
#
# Static dielectric constant tensor:
#      x y z
#    x 3.813010 0.000000 0.000960 
#    y 0.000000 3.960380 0.000000 
#    z 0.000960 0.000000 3.935910 
# 
# 
# High freq. dielectric constant tensor:
#      x y z
#    x 1.829020 0.000000 0.003710 
#    y 0.000000 1.846730 0.000000 
#    z 0.003710 0.000000 1.847380 
# 
# From -- ./inp_files/313133.got.cif
#   From: 2010.06.25/outbox.cif.g09.slc.cpg/sg15_157_cif.got.tgz:313133.got - 2010.06.28 07:06:18.
