data_PCOD8146904
_publ_section_title
;
Structure prediction by ZEFSAII (Michael W. Deem and Ramdas Pophale) SiO2 
 PCOD8146904
Probable space group: C 2/C
;
_chemical_formula_sum "Si O2"
_cell_formula_units_Z 44
_cell_length_a 17.838954
_cell_length_b 11.847969
_cell_length_c 12.909212
_cell_angle_alpha 90.000000
_cell_angle_beta 55.017912
_cell_angle_gamma 90.000000
_cell_volume 2235.489237
_symmetry_space_group_name_H-M "C 2/C"
_symmetry_group_IT_number 15
_symmetry_cell_setting 'monoclinic'
loop_
_space_group_symop_operation_xyz
x,y,z
-x,y,1/2-z
-x,-y,-z
x,-y,1/2+z
1/2+x,1/2+y,z
1/2-x,1/2+y,1/2-z
1/2-x,1/2-y,-z
1/2+x,1/2-y,1/2+z
loop_
_atom_site_type_symbol
_atom_site_label
_atom_site_fract_x
_atom_site_fract_y
_atom_site_fract_z
Si Si1 0.794572 0.660235 0.716604
Si Si2 0.740093 0.427292 0.463198
Si Si3 0.000000 0.725988 0.250000
Si Si4 0.990132 0.370131 0.979883
Si Si5 0.310645 0.652783 0.902165
Si Si6 0.831973 0.291273 0.553796
O O1 0.792876 0.566319 0.810325
O O2 0.897322 0.682787 0.598760
O O3 0.732357 0.614317 0.672518
O O4 0.749328 0.776694 0.796016
O O5 0.689393 0.544793 0.522261
O O6 0.813024 0.400533 0.497247
O O7 0.666881 0.323324 0.517607
O O8 0.990179 0.644405 0.356337
O O9 0.913638 0.807302 0.305480
O O10 0.071736 0.300415 0.966159
O O11 0.000000 0.500000 0.000000
O O12 0.250000 0.750000 0.000000
#
# Coordination Sequence:
#
# PCOD8146904 Si02
#       6
#     8   8   4   8   8   8
#     4  10  22  42  66  95 127 172 214 273 328 384
#     4   9  22  45  64  94 130 173 210 272 330 387
#     4  12  26  44  60 104 128 172 226 264 334 400
#     4  12  25  40  70  97 129 173 223 278 325 394
#     4  12  24  42  68  93 136 172 217 269 331 395
#     4   9  21  45  64  97 132 164 228 262 336 389
#
# _framework density 19.682492
#
# number of rings (size 3 to 8) (size 9 to 14) (size 15 to 20)
#    1.091    0.364    3.636    1.091    2.545    2.182 
#    3.273    1.818    0.000    0.000    0.000    0.000 
#    0.000    0.000    0.000    0.000    0.000    0.000 
#
# Total GULP energy -272714.726795 kJ/mol
# GULP energy per Si atom -12396.123945 kJ/mol
# Density = 1.963769 g / cm^3
# Si number density = 19.682492 Si / 1000 Ang^3
#
#
#
# Elastic Constant Matrix: (Units=GPa)
#
#
# Indices 1 2 3 4 5 6 
#
# 1 141.4451 36.5693 77.9616 0.0000 -8.1160 0.0000
# 2 36.5693 102.4101 51.6871 0.0000 -4.4521 0.0000
# 3 77.9616 51.6871 151.2424 0.0000 -0.2558 0.0000
# 4 0.0000 0.0000 0.0000 31.3123 0.0000 -2.5198
# 5 -8.1160 -4.4521 -0.2558 0.0000 42.9949 0.0000
# 6 0.0000 0.0000 0.0000 -2.5198 0.0000 15.3355
#
#
#
# Elastic Compliance Matrix: (Units=1/GPa)
#
#
# Indices 1 2 3 4 5 6 
#
# 1 0.010123 -0.001095 -0.004841 0.000000 0.001769 0.000000
# 2 -0.001095 0.011980 -0.003528 0.000000 0.001013 0.000000
# 3 -0.004841 -0.003528 0.010311 0.000000 -0.001218 0.000000
# 4 0.000000 0.000000 0.000000 0.032364 0.000000 0.005318
# 5 0.001769 0.001013 -0.001218 0.000000 0.023690 0.000000
# 6 0.000000 0.000000 0.000000 0.005318 0.000000 0.066082
#
#
# Mechanical properties :
#
#
# Convention : Reuss Voigt Hill
#
# Bulk Modulus (GPa) = 74.14898 80.83708 77.49303
# Shear Modulus (GPa) = 28.09414 33.18718 30.64066
#
# Velocity S-wave (km/s) = 3.78215 4.11070 3.94984
# Velocity P-wave (km/s) = 7.53838 7.98061 7.76265
#
# Compressibility (1/GPa) = 0.01348636
#
# Stress axis : x y z
#
# Youngs Moduli (GPa) = 98.78952 83.47018 96.98380
#
# Poissons Ratio (x) = 0.09136 0.46949
# Poissons Ratio (y) = 0.10813 0.34219
# Poissons Ratio (z) = 0.47823 0.29451
#
# Static dielectric constant tensor:
#      x y z
#    x 3.782950 0.000000 0.174210 
#    y 0.000000 3.325590 0.000000 
#    z 0.174210 0.000000 3.699640 
# 
# 
# High freq. dielectric constant tensor:
#      x y z
#    x 1.774670 0.000000 0.017160 
#    y 0.000000 1.750480 0.000000 
#    z 0.017160 0.000000 1.771820 
# 
# From -- ./inp_files/110848.got.cif
#   From: 2010.06.25/outbox.cif.g09.slc.cpg/sg15_56_cif.got.tgz:110848.got - 2010.06.28 07:06:18.
