data_PCOD8146693
_publ_section_title
;
Structure prediction by ZEFSAII (Michael W. Deem and Ramdas Pophale) SiO2 
 PCOD8146693
Probable space group: C 2/C
;
_chemical_formula_sum "Si O2"
_cell_formula_units_Z 64
_cell_length_a 15.655321
_cell_length_b 11.203464
_cell_length_c 20.366949
_cell_angle_alpha 90.000000
_cell_angle_beta 56.015570
_cell_angle_gamma 90.000000
_cell_volume 2962.061494
_symmetry_space_group_name_H-M "C 2/C"
_symmetry_group_IT_number 15
_symmetry_cell_setting 'monoclinic'
loop_
_space_group_symop_operation_xyz
x,y,z
-x,y,1/2-z
-x,-y,-z
x,-y,1/2+z
1/2+x,1/2+y,z
1/2-x,1/2+y,1/2-z
1/2-x,1/2-y,-z
1/2+x,1/2-y,1/2+z
loop_
_atom_site_type_symbol
_atom_site_label
_atom_site_fract_x
_atom_site_fract_y
_atom_site_fract_z
Si Si1 0.299638 0.507585 0.599249
Si Si2 0.727514 0.327090 0.772826
Si Si3 0.485215 0.735877 0.110732
Si Si4 0.896853 0.654390 0.832959
Si Si5 0.445860 0.125120 0.031318
Si Si6 0.411619 0.692627 0.645042
Si Si7 0.584701 0.514491 0.586466
Si Si8 0.216037 0.101242 0.138708
O O1 0.287638 0.394788 0.651977
O O2 0.183785 0.547759 0.633754
O O3 0.364861 0.613729 0.605122
O O4 0.350673 0.466487 0.508321
O O5 0.626550 0.243141 0.809230
O O6 0.821953 0.231861 0.734663
O O7 0.731631 0.424839 0.710599
O O8 0.569583 0.822715 0.106801
O O9 0.511235 0.597529 0.107596
O O10 0.488302 0.774209 0.034303
O O11 0.845281 0.775566 0.830299
O O12 0.000000 0.619965 0.750000
O O13 0.449412 0.177585 0.103233
O O14 0.327492 0.116184 0.057456
O O15 0.500000 0.000000 0.000000
O O16 0.508648 0.625116 0.635609
O O17 0.654989 0.496840 0.621652
#
# Coordination Sequence:
#
# PCOD8146693 Si02
#       8
#     8   8   8   8   8   8   8   8
#     4  12  21  39  66 101 134 176 226 280 335 405
#     4  11  23  38  65  99 140 174 227 280 343 403
#     4  11  20  38  67  98 126 168 218 283 346 393
#     4  11  20  35  63  98 133 160 219 289 336 384
#     4  11  23  40  63  93 133 176 220 275 341 403
#     4  11  22  41  60  98 134 170 225 278 336 411
#     4  11  22  40  74  96 131 172 228 282 343 406
#     4  10  22  42  61  98 131 172 220 281 337 397
#
# _framework density 21.606573999999998
#
# number of rings (size 3 to 8) (size 9 to 14) (size 15 to 20)
#    0.000    1.000    6.250    1.875    0.000    6.000 
#    0.000    0.625    0.000    7.500    0.000    0.000 
#    0.000    0.000    0.000    0.000    0.000    0.000 
#
# Total GULP energy -396505.494672 kJ/mol
# GULP energy per Si atom -12390.796708 kJ/mol
# Density = 2.155740 g / cm^3
# Si number density = 21.606574 Si / 1000 Ang^3
#
#
#
# Elastic Constant Matrix: (Units=GPa)
#
#
# Indices 1 2 3 4 5 6 
#
# 1 98.5364 51.7701 60.7938 0.0000 -16.1975 0.0000
# 2 51.7701 71.9423 32.6018 0.0000 -17.6423 0.0000
# 3 60.7938 32.6018 137.0213 0.0000 -21.7760 0.0000
# 4 0.0000 0.0000 0.0000 38.9894 0.0000 -11.7736
# 5 -16.1975 -17.6423 -21.7760 0.0000 31.7880 0.0000
# 6 0.0000 0.0000 0.0000 -11.7736 0.0000 37.8125
#
#
#
# Elastic Compliance Matrix: (Units=1/GPa)
#
#
# Indices 1 2 3 4 5 6 
#
# 1 0.020055 -0.011763 -0.006186 0.000000 -0.000547 0.000000
# 2 -0.011763 0.023934 0.000766 0.000000 0.007814 0.000000
# 3 -0.006186 0.000766 0.010579 0.000000 0.004520 0.000000
# 4 0.000000 0.000000 0.000000 0.028310 0.000000 0.008815
# 5 -0.000547 0.007814 0.004520 0.000000 0.038613 0.000000
# 6 0.000000 0.000000 0.000000 0.008815 0.000000 0.029191
#
#
# Mechanical properties :
#
#
# Convention : Reuss Voigt Hill
#
# Bulk Modulus (GPa) = 49.49958 66.42570 57.96264
# Shear Modulus (GPa) = 26.07130 32.54025 29.30578
#
# Velocity S-wave (km/s) = 3.47744 3.88498 3.68684
# Velocity P-wave (km/s) = 6.25161 7.13681 6.70883
#
# Compressibility (1/GPa) = 0.02020219
#
# Stress axis : x y z
#
# Youngs Moduli (GPa) = 49.86178 41.78220 94.52717
#
# Poissons Ratio (x) = 0.49147 0.58479
# Poissons Ratio (y) = 0.58651 -0.07243
# Poissons Ratio (z) = 0.30847 -0.03201
#
# Static dielectric constant tensor:
#      x y z
#    x 4.039520 0.000000 -0.168680 
#    y 0.000000 3.348870 0.000000 
#    z -0.168680 0.000000 4.115380 
# 
# 
# High freq. dielectric constant tensor:
#      x y z
#    x 1.836250 0.000000 -0.016640 
#    y 0.000000 1.815270 0.000000 
#    z -0.016640 0.000000 1.869250 
# 
# From -- ./inp_files/277082.got.cif
#   From: 2010.06.25/outbox.cif.g09.slc.cpg/sg15_139_cif.got.tgz:277082.got - 2010.06.28 07:06:18.
