data_PCOD8146825
_publ_section_title
;
Structure prediction by ZEFSAII (Michael W. Deem and Ramdas Pophale) SiO2 
 PCOD8146825
Probable space group: C 2/C
;
_chemical_formula_sum "Si O2"
_cell_formula_units_Z 40
_cell_length_a 15.959673
_cell_length_b 8.554094
_cell_length_c 23.707140
_cell_angle_alpha 90.000000
_cell_angle_beta 31.617801
_cell_angle_gamma 90.000000
_cell_volume 1696.742840
_symmetry_space_group_name_H-M "C 2/C"
_symmetry_group_IT_number 15
_symmetry_cell_setting 'monoclinic'
loop_
_space_group_symop_operation_xyz
x,y,z
-x,y,1/2-z
-x,-y,-z
x,-y,1/2+z
1/2+x,1/2+y,z
1/2-x,1/2+y,1/2-z
1/2-x,1/2-y,-z
1/2+x,1/2-y,1/2+z
loop_
_atom_site_type_symbol
_atom_site_label
_atom_site_fract_x
_atom_site_fract_y
_atom_site_fract_z
Si Si1 0.208774 0.063367 0.493004
Si Si2 0.821114 0.185705 0.104239
Si Si3 0.326012 0.469484 0.365641
Si Si4 0.415748 0.767411 0.458823
Si Si5 0.963046 0.539755 0.710737
O O1 0.112413 0.141466 0.496753
O O2 0.162096 0.128161 0.581663
O O3 0.186756 0.873861 0.508898
O O4 0.398293 0.090802 0.375415
O O5 0.731160 0.352296 0.150936
O O6 0.972105 0.195140 0.057635
O O7 0.706499 0.048283 0.192731
O O8 0.500000 0.536363 0.250000
O O9 0.198716 0.608398 0.444864
O O10 0.530527 0.838324 0.344587
O O11 0.000000 0.623979 0.750000
#
# Coordination Sequence:
#
# PCOD8146825 Si02
#       5
#     8   8   8   8   8
#     4  10  22  42  65  91 127 172 216 261 318 392
#     4  11  23  42  66  97 130 167 213 274 327 373
#     4  11  23  41  65  94 130 179 219 256 316 389
#     4  11  24  42  66 100 131 165 216 275 321 373
#     4   9  20  41  65  90 126 171 212 254 319 393
#
# _framework density 23.574577999999999
#
# number of rings (size 3 to 8) (size 9 to 14) (size 15 to 20)
#    0.000    1.600    0.000    6.000    0.000    9.600 
#    0.000   10.000    0.000    0.000    0.000    0.000 
#    0.000    0.000    0.000    0.000    0.000    0.000 
#
# Total GULP energy -247952.729913 kJ/mol
# GULP energy per Si atom -12397.636496 kJ/mol
# Density = 2.352092 g / cm^3
# Si number density = 23.574578 Si / 1000 Ang^3
#
#
#
# Elastic Constant Matrix: (Units=GPa)
#
#
# Indices 1 2 3 4 5 6 
#
# 1 75.6053 -4.7645 32.9511 -0.0002 5.8341 -0.0008
# 2 -4.7645 56.5993 -2.4427 -0.0001 -9.1518 -0.0011
# 3 32.9511 -2.4427 113.1085 0.0002 2.0874 0.0004
# 4 -0.0002 -0.0001 0.0002 15.8161 0.0003 8.5359
# 5 5.8341 -9.1518 2.0874 0.0003 31.1464 -0.0003
# 6 -0.0008 -0.0011 0.0004 8.5359 -0.0003 38.6765
#
#
#
# Elastic Compliance Matrix: (Units=1/GPa)
#
#
# Indices 1 2 3 4 5 6 
#
# 1 0.015382 0.000720 -0.004422 0.000000 -0.002373 0.000000
# 2 0.000720 0.018593 0.000093 0.000000 0.005322 0.000001
# 3 -0.004422 0.000093 0.010128 0.000000 0.000177 0.000000
# 4 0.000000 0.000000 0.000000 0.071776 -0.000001 -0.015841
# 5 -0.002373 0.005322 0.000177 -0.000001 0.034103 0.000001
# 6 0.000000 0.000001 0.000000 -0.015841 0.000001 0.029352
#
#
# Mechanical properties :
#
#
# Convention : Reuss Voigt Hill
#
# Bulk Modulus (GPa) = 27.10951 32.97787 30.04369
# Shear Modulus (GPa) = 25.14510 31.76576 28.45543
#
# Velocity S-wave (km/s) = 3.26946 3.67476 3.47802
# Velocity P-wave (km/s) = 5.07710 5.65900 5.37592
#
# Compressibility (1/GPa) = 0.03688743
#
# Stress axis : x y z
#
# Youngs Moduli (GPa) = 65.00979 53.78282 98.73605
#
# Poissons Ratio (x) = -0.03874 0.43660
# Poissons Ratio (y) = -0.04683 -0.00923
# Poissons Ratio (z) = 0.28746 -0.00503
#
# Static dielectric constant tensor:
#      x y z
#    x 4.182760 0.000000 0.280620 
#    y 0.000000 4.131030 0.000000 
#    z 0.280620 0.000000 4.287060 
# 
# 
# High freq. dielectric constant tensor:
#      x y z
#    x 1.929910 0.000000 0.012960 
#    y 0.000000 1.940300 0.000000 
#    z 0.012960 0.000000 1.929450 
# 
# From -- ./inp_files/276722.got.cif
#   From: 2010.06.25/outbox.cif.g09.slc.cpg/sg15_139_cif.got.tgz:276722.got - 2010.06.28 07:06:18.
