data_PCOD8146931
_publ_section_title
;
Structure prediction by ZEFSAII (Michael W. Deem and Ramdas Pophale) SiO2 
 PCOD8146931
Probable space group: C 2/C
;
_chemical_formula_sum "Si O2"
_cell_formula_units_Z 44
_cell_length_a 19.720472
_cell_length_b 8.832237
_cell_length_c 11.035429
_cell_angle_alpha 90.000000
_cell_angle_beta 82.229078
_cell_angle_gamma 90.000000
_cell_volume 1904.454100
_symmetry_space_group_name_H-M "C 2/C"
_symmetry_group_IT_number 15
_symmetry_cell_setting 'monoclinic'
loop_
_space_group_symop_operation_xyz
x,y,z
-x,y,1/2-z
-x,-y,-z
x,-y,1/2+z
1/2+x,1/2+y,z
1/2-x,1/2+y,1/2-z
1/2-x,1/2-y,-z
1/2+x,1/2-y,1/2+z
loop_
_atom_site_type_symbol
_atom_site_label
_atom_site_fract_x
_atom_site_fract_y
_atom_site_fract_z
Si Si1 0.065509 0.482054 0.674956
Si Si2 0.318054 0.298865 0.701662
Si Si3 0.304896 0.030032 0.184603
Si Si4 0.927223 0.980404 0.080998
Si Si5 0.500000 0.298229 0.250000
Si Si6 0.645236 0.782160 0.034627
O O1 0.124322 0.454122 0.760910
O O2 0.038767 0.312712 0.643063
O O3 0.088158 0.583301 0.555592
O O4 0.000000 0.568590 0.750000
O O5 0.295954 0.143331 0.638874
O O6 0.258089 0.424130 0.711679
O O7 0.386144 0.365788 0.621401
O O8 0.328970 0.244647 0.836782
O O9 0.299722 0.146470 0.071691
O O10 0.941116 0.899335 0.205109
O O11 0.881598 0.876832 0.006140
O O12 0.000000 0.000000 0.000000
#
# Coordination Sequence:
#
# PCOD8146931 Si02
#       6
#     8   8   8   8   4   8
#     4   9  22  38  69  98 133 174 233 277 338 409
#     4  11  27  45  68 105 141 181 235 286 342 423
#     4  11  23  45  70  98 143 182 227 289 348 407
#     4  12  26  42  71 100 143 182 229 287 349 406
#     4  10  22  42  66  98 140 166 238 278 338 404
#     4  11  23  44  71  97 139 181 236 279 353 403
#
# _framework density 23.103733999999999
#
# number of rings (size 3 to 8) (size 9 to 14) (size 15 to 20)
#    0.545    0.727    1.818    2.727    7.636    2.909 
#    0.000    4.545    0.000    0.000    0.000    0.000 
#    0.000    0.000    0.000    0.000    0.000    0.000 
#
# Total GULP energy -272583.924958 kJ/mol
# GULP energy per Si atom -12390.178407 kJ/mol
# Density = 2.305115 g / cm^3
# Si number density = 23.103734 Si / 1000 Ang^3
#
#
#
# Elastic Constant Matrix: (Units=GPa)
#
#
# Indices 1 2 3 4 5 6 
#
# 1 81.5451 34.9415 26.0170 0.0000 -32.2586 0.0000
# 2 34.9415 149.6654 31.2782 0.0000 -22.2027 0.0000
# 3 26.0170 31.2782 73.6475 0.0000 -18.0012 0.0000
# 4 0.0000 0.0000 0.0000 39.3458 0.0000 -7.0166
# 5 -32.2586 -22.2027 -18.0012 0.0000 45.5281 0.0000
# 6 0.0000 0.0000 0.0000 -7.0166 0.0000 37.2044
#
#
#
# Elastic Compliance Matrix: (Units=1/GPa)
#
#
# Indices 1 2 3 4 5 6 
#
# 1 0.018385 -0.002063 -0.002967 0.000000 0.010847 0.000000
# 2 -0.002063 0.007852 -0.002244 0.000000 0.001480 0.000000
# 3 -0.002967 -0.002244 0.016381 0.000000 0.003280 0.000000
# 4 0.000000 0.000000 0.000000 0.026300 0.000000 0.004960
# 5 0.010847 0.001480 0.003280 0.000000 0.031669 0.000000
# 6 0.000000 0.000000 0.000000 0.004960 0.000000 0.027814
#
#
# Mechanical properties :
#
#
# Convention : Reuss Voigt Hill
#
# Bulk Modulus (GPa) = 35.62612 54.37014 44.99813
# Shear Modulus (GPa) = 32.82864 38.59040 35.70952
#
# Velocity S-wave (km/s) = 3.77360 4.09138 3.93570
# Velocity P-wave (km/s) = 5.86859 6.77520 6.33812
#
# Compressibility (1/GPa) = 0.02806929
#
# Stress axis : x y z
#
# Youngs Moduli (GPa) = 54.39251 127.36003 61.04541
#
# Poissons Ratio (x) = 0.26273 0.18114
# Poissons Ratio (y) = 0.11221 0.13699
# Poissons Ratio (z) = 0.16140 0.28581
#
# Static dielectric constant tensor:
#      x y z
#    x 5.173110 0.000000 -0.777430 
#    y 0.000000 4.556650 0.000000 
#    z -0.777430 0.000000 4.232760 
# 
# 
# High freq. dielectric constant tensor:
#      x y z
#    x 1.912290 0.000000 -0.015560 
#    y 0.000000 1.928080 0.000000 
#    z -0.015560 0.000000 1.892180 
# 
# From -- ./inp_files/109972.got.cif
#   From: 2010.06.25/outbox.cif.g09.slc.cpg/sg15_55_cif.got.tgz:109972.got - 2010.06.28 07:06:18.
