data_PCOD8146124
_publ_section_title
;
Structure prediction by ZEFSAII (Michael W. Deem and Ramdas Pophale) SiO2 
 PCOD8146124
Probable space group: C 2/C
;
_chemical_formula_sum "Si O2"
_cell_formula_units_Z 40
_cell_length_a 21.001018
_cell_length_b 12.062340
_cell_length_c 15.941529
_cell_angle_alpha 90.000000
_cell_angle_beta 152.108901
_cell_angle_gamma 90.000000
_cell_volume 1889.100896
_symmetry_space_group_name_H-M "C 2/C"
_symmetry_group_IT_number 15
_symmetry_cell_setting 'monoclinic'
loop_
_space_group_symop_operation_xyz
x,y,z
-x,y,1/2-z
-x,-y,-z
x,-y,1/2+z
1/2+x,1/2+y,z
1/2-x,1/2+y,1/2-z
1/2-x,1/2-y,-z
1/2+x,1/2-y,1/2+z
loop_
_atom_site_type_symbol
_atom_site_label
_atom_site_fract_x
_atom_site_fract_y
_atom_site_fract_z
Si Si1 0.382216 0.297524 0.229943
Si Si2 0.114810 0.065624 0.521869
Si Si3 0.684891 0.476733 0.777634
Si Si4 0.347826 0.220898 0.537660
Si Si5 0.342074 0.343751 0.996519
O O1 0.302204 0.410740 0.155241
O O2 0.373726 0.281671 0.120343
O O3 0.544397 0.303724 0.440681
O O4 0.311702 0.198702 0.202716
O O5 0.166696 0.183569 0.549848
O O6 0.959203 0.081355 0.369554
O O7 0.200116 0.012390 0.698009
O O8 0.140296 0.976843 0.476059
O O9 0.805891 0.394000 0.944338
O O10 0.500000 0.211312 0.750000
O O11 0.250000 0.250000 0.500000
#
# Coordination Sequence:
#
# PCOD8146124 Si02
#       5
#     8   8   8   8   8
#     4   9  18  35  57  83 118 155 204 253 313 378
#     4  10  22  40  67  90 131 173 214 271 336 391
#     4  10  22  41  64  94 129 171 218 270 333 390
#     4  12  24  44  70  98 132 180 230 270 331 408
#     4   9  18  34  58  84 114 160 202 251 313 380
#
# _framework density 21.174095000000001
#
# number of rings (size 3 to 8) (size 9 to 14) (size 15 to 20)
#    0.000    2.000    2.000    1.200    5.600    0.000 
#   10.800    1.000    0.000    0.000    0.000    0.000 
#    0.000    0.000    0.000    0.000    0.000    0.000 
#
# Total GULP energy -247769.509717 kJ/mol
# GULP energy per Si atom -12388.475486 kJ/mol
# Density = 2.112590 g / cm^3
# Si number density = 21.174095 Si / 1000 Ang^3
#
#
#
# Elastic Constant Matrix: (Units=GPa)
#
#
# Indices 1 2 3 4 5 6 
#
# 1 92.1027 54.6184 43.4271 0.0000 9.7869 0.0000
# 2 54.6184 119.4906 51.2084 0.0000 18.8158 0.0000
# 3 43.4271 51.2084 93.1174 0.0000 12.1978 0.0000
# 4 0.0000 0.0000 0.0000 37.7109 0.0000 5.1704
# 5 9.7869 18.8158 12.1978 0.0000 29.6921 0.0000
# 6 0.0000 0.0000 0.0000 5.1704 0.0000 41.3032
#
#
#
# Elastic Compliance Matrix: (Units=1/GPa)
#
#
# Indices 1 2 3 4 5 6 
#
# 1 0.016259 -0.005470 -0.004573 0.000000 -0.000014 0.000000
# 2 -0.005470 0.013453 -0.004192 0.000000 -0.005000 0.000000
# 3 -0.004573 -0.004192 0.015464 0.000000 -0.002189 0.000000
# 4 0.000000 0.000000 0.000000 0.026981 0.000000 -0.003378
# 5 -0.000014 -0.005000 -0.002189 0.000000 0.037751 0.000000
# 6 0.000000 0.000000 0.000000 -0.003378 0.000000 0.024634
#
#
# Mechanical properties :
#
#
# Convention : Reuss Voigt Hill
#
# Bulk Modulus (GPa) = 59.85870 67.02428 63.44149
# Shear Modulus (GPa) = 29.65949 32.10502 30.88225
#
# Velocity S-wave (km/s) = 3.74671 3.89812 3.82316
# Velocity P-wave (km/s) = 6.85918 7.20993 7.03674
#
# Compressibility (1/GPa) = 0.01670601
#
# Stress axis : x y z
#
# Youngs Moduli (GPa) = 61.50548 74.33237 64.66672
#
# Poissons Ratio (x) = 0.40659 0.29570
# Poissons Ratio (y) = 0.33643 0.27111
# Poissons Ratio (z) = 0.28124 0.31163
#
# Static dielectric constant tensor:
#      x y z
#    x 4.095880 0.000000 0.417000 
#    y 0.000000 3.824720 0.000000 
#    z 0.417000 0.000000 4.261190 
# 
# 
# High freq. dielectric constant tensor:
#      x y z
#    x 1.834870 0.000000 0.011710 
#    y 0.000000 1.824400 0.000000 
#    z 0.011710 0.000000 1.805780 
# 
# From -- ./inp_files/54226.got.cif
#   From: 2010.06.25/outbox.cif.g09.slc.cpg/sg15_28_cif.got.tgz:54226.got - 2010.06.28 07:06:18.
