data_PCOD8146017
_publ_section_title
;
Structure prediction by ZEFSAII (Michael W. Deem and Ramdas Pophale) SiO2 
 PCOD8146017
Probable space group: C 2/C
;
_chemical_formula_sum "Si O2"
_cell_formula_units_Z 40
_cell_length_a 11.438275
_cell_length_b 23.408091
_cell_length_c 14.996421
_cell_angle_alpha 90.000000
_cell_angle_beta 151.128906
_cell_angle_gamma 90.000000
_cell_volume 1938.732885
_symmetry_space_group_name_H-M "C 2/C"
_symmetry_group_IT_number 15
_symmetry_cell_setting 'monoclinic'
loop_
_space_group_symop_operation_xyz
x,y,z
-x,y,1/2-z
-x,-y,-z
x,-y,1/2+z
1/2+x,1/2+y,z
1/2-x,1/2+y,1/2-z
1/2-x,1/2-y,-z
1/2+x,1/2-y,1/2+z
loop_
_atom_site_type_symbol
_atom_site_label
_atom_site_fract_x
_atom_site_fract_y
_atom_site_fract_z
Si Si1 0.229717 0.412015 0.447674
Si Si2 0.356506 0.799381 0.845679
Si Si3 0.000000 0.834370 0.750000
Si Si4 0.000000 0.479302 0.750000
Si Si5 0.627965 0.682813 0.741122
Si Si6 0.869301 0.889534 0.927207
O O1 0.290958 0.376666 0.576123
O O2 0.452338 0.412305 0.528618
O O3 0.000000 0.379720 0.250000
O O4 0.151797 0.477937 0.417618
O O5 0.421965 0.736388 0.856641
O O6 0.290598 0.837005 0.715825
O O7 0.123702 0.795580 0.756539
O O8 0.586304 0.825719 0.051252
O O9 0.812825 0.441181 0.678499
O O10 0.500000 0.691828 0.750000
O O11 0.513464 0.628366 0.613336
#
# Coordination Sequence:
#
# PCOD8146017 Si02
#       6
#     8   8   4   4   8   8
#     4   9  21  41  63  86 122 156 205 253 299 356
#     4  11  24  40  64  91 125 164 199 248 302 366
#     4  10  22  44  61  92 125 156 204 252 304 358
#     4  10  22  40  65  86 117 164 202 254 304 350
#     4  12  24  40  63  92 127 162 202 245 301 367
#     4  11  22  42  61  90 125 159 200 251 305 353
#
# _framework density 20.632031999999999
#
# number of rings (size 3 to 8) (size 9 to 14) (size 15 to 20)
#    0.600    0.800    2.000    3.600    1.400    0.800 
#    7.200    2.000    0.000    0.000    0.000    0.000 
#    0.000    0.000    0.000    0.000    0.000    0.000 
#
# Total GULP energy -247937.658576 kJ/mol
# GULP energy per Si atom -12396.882929 kJ/mol
# Density = 2.058507 g / cm^3
# Si number density = 20.632032 Si / 1000 Ang^3
#
#
#
# Elastic Constant Matrix: (Units=GPa)
#
#
# Indices 1 2 3 4 5 6 
#
# 1 78.6011 31.4082 16.2175 -0.0005 -0.0024 -0.0027
# 2 31.4082 82.2255 24.4623 -0.0002 -1.1431 -0.0025
# 3 16.2175 24.4623 117.4792 -0.0021 -0.3475 -0.0079
# 4 -0.0005 -0.0002 -0.0021 36.8687 -0.0007 14.9532
# 5 -0.0024 -1.1431 -0.3475 -0.0007 32.5538 -0.0034
# 6 -0.0027 -0.0025 -0.0079 14.9532 -0.0034 13.3731
#
#
#
# Elastic Compliance Matrix: (Units=1/GPa)
#
#
# Indices 1 2 3 4 5 6 
#
# 1 0.015113 -0.005495 -0.000943 -0.000001 -0.000202 0.000002
# 2 -0.005495 0.014969 -0.002357 -0.000001 0.000500 0.000001
# 3 -0.000943 -0.002357 0.009133 -0.000003 0.000015 0.000008
# 4 -0.000001 -0.000001 -0.000003 0.049631 -0.000005 -0.055494
# 5 -0.000202 0.000500 0.000015 -0.000005 0.030736 0.000013
# 6 0.000002 0.000001 0.000008 -0.055494 0.000013 0.136828
#
#
# Mechanical properties :
#
#
# Convention : Reuss Voigt Hill
#
# Bulk Modulus (GPa) = 46.24174 46.94243 46.59208
# Shear Modulus (GPa) = 17.78053 30.30699 24.04376
#
# Velocity S-wave (km/s) = 2.93882 3.83682 3.41744
# Velocity P-wave (km/s) = 5.82896 6.51382 6.18088
#
# Compressibility (1/GPa) = 0.02162549
#
# Stress axis : x y z
#
# Youngs Moduli (GPa) = 66.16940 66.80574 109.49220
#
# Poissons Ratio (x) = 0.36710 0.10321
# Poissons Ratio (y) = 0.36361 0.25806
# Poissons Ratio (z) = 0.06237 0.15745
#
# Static dielectric constant tensor:
#      x y z
#    x 3.608880 0.000000 0.130160 
#    y 0.000000 3.589750 -0.000010 
#    z 0.130160 -0.000010 4.030890 
# 
# 
# High freq. dielectric constant tensor:
#      x y z
#    x 1.808360 0.000000 0.014870 
#    y 0.000000 1.792790 0.000000 
#    z 0.014870 0.000000 1.820270 
# 
# From -- ./inp_files/148187.got.cif
#   From: 2010.06.25/outbox.cif.g09.slc.cpg/sg15_75_cif.got.tgz:148187.got - 2010.06.28 07:06:18.
