data_PCOD8146920
_publ_section_title
;
Structure prediction by ZEFSAII (Michael W. Deem and Ramdas Pophale) SiO2 
 PCOD8146920
Probable space group: C 2/C
;
_chemical_formula_sum "Si O2"
_cell_formula_units_Z 52
_cell_length_a 30.302527
_cell_length_b 5.302452
_cell_length_c 14.462037
_cell_angle_alpha 90.000000
_cell_angle_beta 83.070682
_cell_angle_gamma 90.000000
_cell_volume 2306.753661
_symmetry_space_group_name_H-M "C 2/C"
_symmetry_group_IT_number 15
_symmetry_cell_setting 'monoclinic'
loop_
_space_group_symop_operation_xyz
x,y,z
-x,y,1/2-z
-x,-y,-z
x,-y,1/2+z
1/2+x,1/2+y,z
1/2-x,1/2+y,1/2-z
1/2-x,1/2-y,-z
1/2+x,1/2-y,1/2+z
loop_
_atom_site_type_symbol
_atom_site_label
_atom_site_fract_x
_atom_site_fract_y
_atom_site_fract_z
Si Si1 0.843962 0.030437 0.062579
Si Si2 0.000000 0.878991 0.750000
Si Si3 0.722434 0.653799 0.265006
Si Si4 0.148095 0.898769 0.643343
Si Si5 0.898195 0.469895 0.586053
Si Si6 0.062786 0.585853 0.607851
Si Si7 0.421779 0.715784 0.753371
O O1 0.878493 0.253185 0.077391
O O2 0.799437 0.086637 0.130752
O O3 0.862595 0.756612 0.086357
O O4 0.833815 0.032444 0.954982
O O5 0.960381 0.029570 0.709528
O O6 0.980008 0.724675 0.840996
O O7 0.750605 0.906824 0.273888
O O8 0.688187 0.724582 0.190957
O O9 0.126698 0.093301 0.722419
O O10 0.110401 0.699087 0.626321
O O11 0.938209 0.426548 0.502717
O O12 0.918990 0.451129 0.683283
O O13 0.062241 0.305117 0.649415
#
# Coordination Sequence:
#
# PCOD8146920 Si02
#       7
#     8   4   8   8   8   8   8
#     4  11  23  44  67 101 128 172 229 265 327 394
#     4  10  24  40  60 100 138 172 214 278 326 388
#     4  12  27  42  66 102 137 172 218 274 332 394
#     4  10  23  42  69  91 133 178 220 270 326 391
#     4  11  23  39  74  97 126 178 228 267 314 398
#     4  10  22  42  66  97 131 174 225 266 331 389
#     4  11  21  42  67  93 131 177 218 271 331 383
#
# _framework density 22.542501000000001
#
# number of rings (size 3 to 8) (size 9 to 14) (size 15 to 20)
#    0.000    1.231    3.077    2.308    4.308    1.846 
#    0.000    3.077    0.000    0.000    0.000    0.000 
#    0.000    0.000    0.000    0.000    0.000    0.000 
#
# Total GULP energy -322308.135530 kJ/mol
# GULP energy per Si atom -12396.466751 kJ/mol
# Density = 2.249119 g / cm^3
# Si number density = 22.542501 Si / 1000 Ang^3
#
#
#
# Elastic Constant Matrix: (Units=GPa)
#
#
# Indices 1 2 3 4 5 6 
#
# 1 56.8783 4.8633 27.9704 0.0000 -16.3538 0.0000
# 2 4.8633 63.4743 -9.8761 0.0000 -10.1469 0.0000
# 3 27.9704 -9.8761 106.2576 0.0000 -19.1807 0.0000
# 4 0.0000 0.0000 0.0000 29.7635 0.0000 1.2239
# 5 -16.3538 -10.1469 -19.1807 0.0000 35.4093 0.0000
# 6 0.0000 0.0000 0.0000 1.2239 0.0000 23.0809
#
#
#
# Elastic Compliance Matrix: (Units=1/GPa)
#
#
# Indices 1 2 3 4 5 6 
#
# 1 0.022058 -0.001231 -0.004595 0.000000 0.007346 0.000000
# 2 -0.001231 0.017280 0.003016 0.000000 0.006017 0.000000
# 3 -0.004595 0.003016 0.011831 0.000000 0.005151 0.000000
# 4 0.000000 0.000000 0.000000 0.033672 0.000000 -0.001786
# 5 0.007346 0.006017 0.005151 0.000000 0.036148 0.000000
# 6 0.000000 0.000000 0.000000 -0.001786 0.000000 0.043421
#
#
# Mechanical properties :
#
#
# Convention : Reuss Voigt Hill
#
# Bulk Modulus (GPa) = 21.95371 30.28060 26.11715
# Shear Modulus (GPa) = 26.99618 31.22757 29.11188
#
# Velocity S-wave (km/s) = 3.46434 3.72597 3.59753
# Velocity P-wave (km/s) = 5.07565 5.65440 5.37282
#
# Compressibility (1/GPa) = 0.04555039
#
# Stress axis : x y z
#
# Youngs Moduli (GPa) = 45.33438 57.87073 84.52589
#
# Poissons Ratio (x) = 0.07122 0.38838
# Poissons Ratio (y) = 0.05579 -0.25495
# Poissons Ratio (z) = 0.20830 -0.17455
#
# Static dielectric constant tensor:
#      x y z
#    x 3.758010 0.000000 -0.198900 
#    y 0.000000 4.044770 0.000000 
#    z -0.198900 0.000000 4.491160 
# 
# 
# High freq. dielectric constant tensor:
#      x y z
#    x 1.863890 0.000000 -0.012380 
#    y 0.000000 1.894250 0.000000 
#    z -0.012380 0.000000 1.908780 
# 
# From -- ./inp_files/180040.got.cif
#   From: 2010.06.25/outbox.cif.g09.slc.cpg/sg15_91_cif.got.tgz:180040.got - 2010.06.28 07:06:18.
