data_PCOD8146865
_publ_section_title
;
Structure prediction by ZEFSAII (Michael W. Deem and Ramdas Pophale) SiO2 
 PCOD8146865
Probable space group: C 2/C
;
_chemical_formula_sum "Si O2"
_cell_formula_units_Z 56
_cell_length_a 18.039225
_cell_length_b 22.592489
_cell_length_c 8.454510
_cell_angle_alpha 90.000000
_cell_angle_beta 130.538061
_cell_angle_gamma 90.000000
_cell_volume 2618.601104
_symmetry_space_group_name_H-M "C 2/C"
_symmetry_group_IT_number 15
_symmetry_cell_setting 'monoclinic'
loop_
_space_group_symop_operation_xyz
x,y,z
-x,y,1/2-z
-x,-y,-z
x,-y,1/2+z
1/2+x,1/2+y,z
1/2-x,1/2+y,1/2-z
1/2-x,1/2-y,-z
1/2+x,1/2-y,1/2+z
loop_
_atom_site_type_symbol
_atom_site_label
_atom_site_fract_x
_atom_site_fract_y
_atom_site_fract_z
Si Si1 0.249636 0.031419 0.136475
Si Si2 0.500000 0.149132 0.750000
Si Si3 0.432492 0.467094 0.528324
Si Si4 0.500000 0.687856 0.750000
Si Si5 0.286062 0.685842 0.914958
Si Si6 0.188194 0.423225 0.450087
Si Si7 0.087743 0.250854 0.178736
Si Si8 0.171119 0.125153 0.826105
O O1 0.258344 0.046793 0.330575
O O2 0.325496 0.978923 0.190405
O O3 0.258347 0.090962 0.040459
O O4 0.137531 0.010321 0.966157
O O5 0.409161 0.104904 0.610472
O O6 0.479067 0.192202 0.869981
O O7 0.500000 0.434403 0.750000
O O8 0.500000 0.500000 0.500000
O O9 0.368787 0.418158 0.360442
O O10 0.468539 0.724346 0.550231
O O11 0.591570 0.646593 0.840679
O O12 0.254826 0.626217 0.962032
O O13 0.199422 0.733452 0.795191
O O14 0.293574 0.678985 0.734789
O O15 0.389813 0.708247 0.136604
#
# Coordination Sequence:
#
# PCOD8146865 Si02
#       8
#     8   4   8   4   8   8   8   8
#     4  12  22  40  59  91 135 164 200 253 304 381
#     4  10  24  44  68  88 116 168 224 264 314 362
#     4  12  22  35  54  84 126 162 194 234 290 364
#     4  12  26  38  62  96 126 150 210 262 324 360
#     4  10  22  42  66  85 120 168 208 249 325 378
#     4  11  22  41  65  93 126 169 209 255 314 378
#     4  10  23  44  63  89 120 157 211 274 311 366
#     4  12  24  37  60  93 123 166 201 243 310 382
#
# _framework density 21.385465
#
# number of rings (size 3 to 8) (size 9 to 14) (size 15 to 20)
#    0.000    0.857    4.286    2.571    2.000    2.286 
#    0.000    0.000    0.000    0.000    0.000    0.000 
#    0.000    0.000    0.000    0.000    0.000    0.000 
#
# Total GULP energy -346882.786963 kJ/mol
# GULP energy per Si atom -12388.670963 kJ/mol
# Density = 2.133679 g / cm^3
# Si number density = 21.385465 Si / 1000 Ang^3
#
#
#
# Elastic Constant Matrix: (Units=GPa)
#
#
# Indices 1 2 3 4 5 6 
#
# 1 90.3733 25.4941 5.5907 0.0000 3.7252 0.0000
# 2 25.4941 80.5210 17.4422 0.0000 1.9890 0.0000
# 3 5.5907 17.4422 51.7510 0.0000 -5.3823 0.0000
# 4 0.0000 0.0000 0.0000 -6.4129 0.0000 13.0241
# 5 3.7252 1.9890 -5.3823 0.0000 28.8021 0.0000
# 6 0.0000 0.0000 0.0000 13.0241 0.0000 28.5529
#
#
#
# Elastic Compliance Matrix: (Units=1/GPa)
#
#
# Indices 1 2 3 4 5 6 
#
# 1 0.012201 -0.003791 -0.000181 0.000000 -0.001350 0.000000
# 2 -0.003791 0.014667 -0.004679 0.000000 -0.001397 0.000000
# 3 -0.000181 -0.004679 0.021371 0.000000 0.004340 0.000000
# 4 0.000000 0.000000 0.000000 -0.080947 0.000000 0.036923
# 5 -0.001350 -0.001397 0.004340 0.000000 0.035802 0.000000
# 6 0.000000 0.000000 0.000000 0.036923 0.000000 0.018180
#
#
# Mechanical properties :
#
#
# Convention : Reuss Voigt Hill
#
# Bulk Modulus (GPa) = 32.32226 35.52214 33.92220
# Shear Modulus (GPa) = 102.27151 21.79633 62.03392
#
# Velocity S-wave (km/s) = 6.92291 3.19597 5.39171
# Velocity P-wave (km/s) = 8.89096 5.50141 7.39306
#
# Compressibility (1/GPa) = 0.03093843
#
# Stress axis : x y z
#
# Youngs Moduli (GPa) = 81.95804 68.17842 46.79160
#
# Poissons Ratio (x) = 0.25844 0.00847
# Poissons Ratio (y) = 0.31067 0.21895
# Poissons Ratio (z) = 0.01483 0.31903
#
# Static dielectric constant tensor:
#      x y z
#    x 3.817670 0.000000 -0.047860 
#    y 0.000000 4.306860 0.000000 
#    z -0.047860 0.000000 3.853760 
# 
# 
# High freq. dielectric constant tensor:
#      x y z
#    x 1.848480 0.000000 -0.018900 
#    y 0.000000 1.845780 0.000000 
#    z -0.018900 0.000000 1.823410 
# 
# From -- ./inp_files/51608.got.cif
#   From: 2010.06.25/outbox.cif.g09.slc.cpg/sg15_26_cif.got.tgz:51608.got - 2010.06.28 07:06:18.
