data_PCOD8146790
_publ_section_title
;
Structure prediction by ZEFSAII (Michael W. Deem and Ramdas Pophale) SiO2 
 PCOD8146790
Probable space group: C 2/C
;
_chemical_formula_sum "Si O2"
_cell_formula_units_Z 56
_cell_length_a 7.757141
_cell_length_b 16.843194
_cell_length_c 28.816868
_cell_angle_alpha 90.000000
_cell_angle_beta 136.948089
_cell_angle_gamma 90.000000
_cell_volume 2570.264484
_symmetry_space_group_name_H-M "C 2/C"
_symmetry_group_IT_number 15
_symmetry_cell_setting 'monoclinic'
loop_
_space_group_symop_operation_xyz
x,y,z
-x,y,1/2-z
-x,-y,-z
x,-y,1/2+z
1/2+x,1/2+y,z
1/2-x,1/2+y,1/2-z
1/2-x,1/2-y,-z
1/2+x,1/2-y,1/2+z
loop_
_atom_site_type_symbol
_atom_site_label
_atom_site_fract_x
_atom_site_fract_y
_atom_site_fract_z
Si Si1 0.000000 0.191848 0.750000
Si Si2 0.306460 0.177939 0.977403
Si Si3 0.976675 0.033712 0.944453
Si Si4 0.288554 0.061773 0.440421
Si Si5 0.541976 0.248029 0.158822
Si Si6 0.754728 0.090390 0.175611
Si Si7 0.408512 0.927429 0.320038
Si Si8 0.000000 0.345180 0.250000
O O1 0.063020 0.249127 0.718958
O O2 0.236475 0.136762 0.813821
O O3 0.178689 0.101648 0.975403
O O4 0.202257 0.203447 0.906612
O O5 0.250000 0.250000 0.000000
O O6 0.601094 0.151297 0.028503
O O7 0.705347 0.075426 0.888103
O O8 0.033670 0.960784 0.919182
O O9 0.000000 0.000000 0.000000
O O10 0.219147 0.059134 0.372047
O O11 0.500000 0.000000 0.500000
O O12 0.538649 0.157834 0.138443
O O13 0.787033 0.290390 0.184103
O O14 0.000000 0.126436 0.250000
O O15 0.685370 0.015745 0.192881
O O16 0.356262 0.902568 0.257004
#
# Coordination Sequence:
#
# PCOD8146790 Si02
#       8
#     4   8   8   8   8   8   8   4
#     4  10  26  42  70  96 136 184 228 280 346 424
#     4  11  22  43  70  94 131 182 229 272 350 407
#     4  11  25  42  67  98 133 170 230 288 330 409
#     4  10  24  43  68  96 135 183 226 280 342 413
#     4  11  23  44  66  98 137 181 220 287 345 413
#     4  12  25  42  69 100 137 175 229 285 354 408
#     4  11  23  40  66  97 129 173 228 270 339 404
#     4  10  22  42  64  94 128 176 216 276 336 408
#
# _framework density 21.787641000000001
#
# number of rings (size 3 to 8) (size 9 to 14) (size 15 to 20)
#    0.000    1.143    4.286    1.714    8.000    0.571 
#    0.000    0.714    0.000    0.000    0.000    0.000 
#    0.000    0.000    0.000    0.000    0.000    0.000 
#
# Total GULP energy -346910.631547 kJ/mol
# GULP energy per Si atom -12389.665412 kJ/mol
# Density = 2.173805 g / cm^3
# Si number density = 21.787641 Si / 1000 Ang^3
#
#
#
# Elastic Constant Matrix: (Units=GPa)
#
#
# Indices 1 2 3 4 5 6 
#
# 1 105.3538 49.2049 31.5454 0.0001 -11.6696 0.0001
# 2 49.2049 107.5941 23.2848 -0.0001 -23.1762 -0.0001
# 3 31.5454 23.2848 96.7145 -0.0001 -12.0336 0.0000
# 4 0.0001 -0.0001 -0.0001 30.8285 0.0000 -4.9971
# 5 -11.6696 -23.1762 -12.0336 0.0000 37.1746 0.0001
# 6 0.0001 -0.0001 0.0000 -4.9971 0.0001 31.0667
#
#
#
# Elastic Compliance Matrix: (Units=1/GPa)
#
#
# Indices 1 2 3 4 5 6 
#
# 1 0.012807 -0.005268 -0.002936 0.000000 -0.000214 0.000000
# 2 -0.005268 0.013221 -0.000672 0.000000 0.006371 0.000000
# 3 -0.002936 -0.000672 0.011766 0.000000 0.002468 0.000000
# 4 0.000000 0.000000 0.000000 0.033306 0.000000 0.005357
# 5 -0.000214 0.006371 0.002468 0.000000 0.031604 0.000000
# 6 0.000000 0.000000 0.000000 0.005357 0.000000 0.033051
#
#
# Mechanical properties :
#
#
# Convention : Reuss Voigt Hill
#
# Bulk Modulus (GPa) = 49.89199 57.52584 53.70891
# Shear Modulus (GPa) = 31.21330 33.52243 32.36787
#
# Velocity S-wave (km/s) = 3.78910 3.92675 3.85854
# Velocity P-wave (km/s) = 6.48783 6.85707 6.67501
#
# Compressibility (1/GPa) = 0.02004330
#
# Stress axis : x y z
#
# Youngs Moduli (GPa) = 78.07926 75.63613 84.98931
#
# Poissons Ratio (x) = 0.39844 0.24951
# Poissons Ratio (y) = 0.41131 0.05712
# Poissons Ratio (z) = 0.22922 0.05084
#
# Static dielectric constant tensor:
#      x y z
#    x 4.318910 -0.000010 0.341030 
#    y -0.000010 8.708220 -0.000020 
#    z 0.341030 -0.000020 4.140050 
# 
# 
# High freq. dielectric constant tensor:
#      x y z
#    x 1.848630 0.000000 -0.000930 
#    y 0.000000 1.858990 0.000000 
#    z -0.000930 0.000000 1.856400 
# 
# From -- ./inp_files/308664.got.cif
#   From: 2010.06.25/outbox.cif.g09.slc.cpg/sg15_155_cif.got.tgz:308664.got - 2010.06.28 07:06:18.
