data_PCOD8146267
_publ_section_title
;
Structure prediction by ZEFSAII (Michael W. Deem and Ramdas Pophale) SiO2 
 PCOD8146267
Probable space group: C 2/C
;
_chemical_formula_sum "Si O2"
_cell_formula_units_Z 60
_cell_length_a 27.159444
_cell_length_b 5.368157
_cell_length_c 18.457931
_cell_angle_alpha 90.000000
_cell_angle_beta 89.697321
_cell_angle_gamma 90.000000
_cell_volume 2691.057900
_symmetry_space_group_name_H-M "C 2/C"
_symmetry_group_IT_number 15
_symmetry_cell_setting 'monoclinic'
loop_
_space_group_symop_operation_xyz
x,y,z
-x,y,1/2-z
-x,-y,-z
x,-y,1/2+z
1/2+x,1/2+y,z
1/2-x,1/2+y,1/2-z
1/2-x,1/2-y,-z
1/2+x,1/2-y,1/2+z
loop_
_atom_site_type_symbol
_atom_site_label
_atom_site_fract_x
_atom_site_fract_y
_atom_site_fract_z
Si Si1 0.259647 0.537391 0.789869
Si Si2 0.905045 0.177755 0.445528
Si Si3 0.500000 0.050641 0.750000
Si Si4 0.839451 0.475966 0.157994
Si Si5 0.576563 0.686734 0.807021
Si Si6 0.989048 0.841024 0.606448
Si Si7 0.395890 0.814803 0.029043
Si Si8 0.363163 0.344475 0.791571
O O1 0.249636 0.825838 0.770788
O O2 0.218957 0.468077 0.852745
O O3 0.316749 0.522368 0.812315
O O4 0.889377 0.419587 0.490800
O O5 0.884434 0.245864 0.367102
O O6 0.963569 0.118638 0.444363
O O7 0.883301 0.920580 0.478008
O O8 0.508365 0.211632 0.678815
O O9 0.549895 0.893452 0.758647
O O10 0.874163 0.719359 0.152753
O O11 0.857513 0.285926 0.096103
O O12 0.844847 0.378999 0.240755
O O13 0.538812 0.595328 0.869765
O O14 0.591861 0.472359 0.751448
O O15 0.950777 0.676534 0.561453
#
# Coordination Sequence:
#
# PCOD8146267 Si02
#       8
#     8   8   4   8   8   8   8   8
#     4  10  22  40  73 107 132 167 229 293 346 401
#     4  12  29  44  66 100 141 185 229 278 337 406
#     4  12  24  36  68 104 132 170 238 286 342 394
#     4  11  23  44  73 100 132 179 232 285 344 407
#     4  12  21  40  70  99 136 171 232 286 342 393
#     4  12  25  43  61 100 132 191 223 281 332 413
#     4  12  27  46  67  96 144 185 226 274 343 409
#     4  11  24  45  70 102 135 176 232 291 343 404
#
# _framework density 22.296063
#
# number of rings (size 3 to 8) (size 9 to 14) (size 15 to 20)
#    0.000    0.533    4.000    4.400    5.600    0.000 
#    0.000    1.333    0.000    0.000    0.000    0.000 
#    0.000    0.000    0.000    0.000    0.000    0.000 
#
# Total GULP energy -371866.541056 kJ/mol
# GULP energy per Si atom -12395.551369 kJ/mol
# Density = 2.224532 g / cm^3
# Si number density = 22.296063 Si / 1000 Ang^3
#
#
#
# Elastic Constant Matrix: (Units=GPa)
#
#
# Indices 1 2 3 4 5 6 
#
# 1 95.2570 1.7397 17.1879 0.0000 -28.5527 0.0000
# 2 1.7397 102.0836 29.0723 0.0000 -7.9427 0.0000
# 3 17.1879 29.0723 93.4727 0.0000 -9.0942 0.0000
# 4 0.0000 0.0000 0.0000 20.5055 0.0000 3.4611
# 5 -28.5527 -7.9427 -9.0942 0.0000 20.5674 0.0000
# 6 0.0000 0.0000 0.0000 3.4611 0.0000 26.4214
#
#
#
# Elastic Compliance Matrix: (Units=1/GPa)
#
#
# Indices 1 2 3 4 5 6 
#
# 1 0.018463 0.002132 -0.001551 0.000000 0.025769 0.000000
# 2 0.002132 0.011150 -0.003295 0.000000 0.005809 0.000000
# 3 -0.001551 -0.003295 0.012200 0.000000 0.001969 0.000000
# 4 0.000000 0.000000 0.000000 0.049870 0.000000 -0.006533
# 5 0.025769 0.005809 0.001969 0.000000 0.087508 0.000000
# 6 0.000000 0.000000 0.000000 -0.006533 0.000000 0.038704
#
#
# Mechanical properties :
#
#
# Convention : Reuss Voigt Hill
#
# Bulk Modulus (GPa) = 27.48389 42.97924 35.23156
# Shear Modulus (GPa) = 21.23594 29.68641 25.46117
#
# Velocity S-wave (km/s) = 3.08953 3.65288 3.38295
# Velocity P-wave (km/s) = 5.00804 6.09179 5.57630
#
# Compressibility (1/GPa) = 0.03638495
#
# Stress axis : x y z
#
# Youngs Moduli (GPa) = 54.16290 89.68760 81.96847
#
# Poissons Ratio (x) = -0.19121 0.12713
# Poissons Ratio (y) = -0.11548 0.27007
# Poissons Ratio (z) = 0.08401 0.29550
#
# Static dielectric constant tensor:
#      x y z
#    x 4.504030 0.000000 -0.228660 
#    y 0.000000 3.950880 0.000000 
#    z -0.228660 0.000000 4.006510 
# 
# 
# High freq. dielectric constant tensor:
#      x y z
#    x 1.883790 0.000000 -0.015670 
#    y 0.000000 1.879930 0.000000 
#    z -0.015670 0.000000 1.861040 
# 
# From -- ./inp_files/221252.got.cif
#   From: 2010.06.25/outbox.cif.g09.slc.cpg/sg15_111_cif.got.tgz:221252.got - 2010.06.28 07:06:18.
