data_PCOD8146268
_publ_section_title
;
Structure prediction by ZEFSAII (Michael W. Deem and Ramdas Pophale) SiO2 
 PCOD8146268
Probable space group: C 2/C
;
_chemical_formula_sum "Si O2"
_cell_formula_units_Z 44
_cell_length_a 28.607593
_cell_length_b 11.335603
_cell_length_c 17.765071
_cell_angle_alpha 90.000000
_cell_angle_beta 19.598509
_cell_angle_gamma 90.000000
_cell_volume 1932.373095
_symmetry_space_group_name_H-M "C 2/C"
_symmetry_group_IT_number 15
_symmetry_cell_setting 'monoclinic'
loop_
_space_group_symop_operation_xyz
x,y,z
-x,y,1/2-z
-x,-y,-z
x,-y,1/2+z
1/2+x,1/2+y,z
1/2-x,1/2+y,1/2-z
1/2-x,1/2-y,-z
1/2+x,1/2-y,1/2+z
loop_
_atom_site_type_symbol
_atom_site_label
_atom_site_fract_x
_atom_site_fract_y
_atom_site_fract_z
Si Si1 0.743322 0.105946 0.139111
Si Si2 0.365320 0.376271 0.999187
Si Si3 0.500000 0.238118 0.250000
Si Si4 0.203348 0.418339 0.524612
Si Si5 0.756123 0.178896 0.413606
Si Si6 0.572822 0.686521 0.926934
O O1 0.604077 0.172297 0.379549
O O2 0.748596 0.103280 0.041119
O O3 0.875656 0.180168 0.970487
O O4 0.744130 0.973573 0.170601
O O5 0.500000 0.423497 0.750000
O O6 0.322943 0.248796 0.031981
O O7 0.397008 0.369673 0.038355
O O8 0.438481 0.153607 0.277556
O O9 0.178125 0.555605 0.545070
O O10 0.330597 0.373545 0.281278
O O11 0.750000 0.250000 0.500000
O O12 0.914006 0.160732 0.146896
#
# Coordination Sequence:
#
# PCOD8146268 Si02
#       6
#     8   8   4   8   8   8
#     4  11  24  47  72 102 140 180 231 285 342 407
#     4  12  25  45  70  99 144 186 226 281 346 408
#     4  10  22  40  74 100 132 176 228 282 336 398
#     4  11  25  47  73 102 138 179 231 286 340 409
#     4  12  25  46  69 100 142 183 224 284 345 408
#     4  11  26  43  71 104 132 186 231 281 340 410
#
# _framework density 22.769928
#
# number of rings (size 3 to 8) (size 9 to 14) (size 15 to 20)
#    0.000    0.727    4.545    2.727    3.818    6.545 
#    3.273    0.000    0.000    0.000    0.000    0.000 
#    0.000    0.000    0.000    0.000    0.000    0.000 
#
# Total GULP energy -272887.272701 kJ/mol
# GULP energy per Si atom -12403.966941 kJ/mol
# Density = 2.271810 g / cm^3
# Si number density = 22.769928 Si / 1000 Ang^3
#
#
#
# Elastic Constant Matrix: (Units=GPa)
#
#
# Indices 1 2 3 4 5 6 
#
# 1 82.0005 29.5897 30.3765 0.0002 1.2002 0.0000
# 2 29.5897 135.4762 14.9498 -0.0005 -5.7729 -0.0012
# 3 30.3765 14.9498 53.6687 -0.0002 1.1208 -0.0004
# 4 0.0002 -0.0005 -0.0002 9.9596 0.0006 -59.7064
# 5 1.2002 -5.7729 1.1208 0.0006 36.2360 0.0014
# 6 0.0000 -0.0012 -0.0004 -59.7064 0.0014 -125.1600
#
#
#
# Elastic Compliance Matrix: (Units=1/GPa)
#
#
# Indices 1 2 3 4 5 6 
#
# 1 0.016302 -0.002656 -0.008473 0.000000 -0.000701 0.000000
# 2 -0.002656 0.008108 -0.000785 0.000000 0.001404 0.000000
# 3 -0.008473 -0.000785 0.023659 0.000000 -0.000576 0.000000
# 4 0.000000 0.000000 0.000000 0.026013 0.000000 -0.012409
# 5 -0.000701 0.001404 -0.000576 0.000000 0.027862 0.000000
# 6 0.000000 0.000000 0.000000 -0.012409 0.000000 -0.002070
#
#
# Mechanical properties :
#
#
# Convention : Reuss Voigt Hill
#
# Bulk Modulus (GPa) = 41.24896 46.77526 44.01211
# Shear Modulus (GPa) = 37.94180 -2.71093 17.61543
#
# Velocity S-wave (km/s) = 4.08648 -1.09232 2.78443
# Velocity P-wave (km/s) = 6.35772 4.35847 5.45054
#
# Compressibility (1/GPa) = 0.02424304
#
# Stress axis : x y z
#
# Youngs Moduli (GPa) = 61.34145 123.33819 42.26717
#
# Poissons Ratio (x) = 0.32753 0.35812
# Poissons Ratio (y) = 0.16289 0.03317
# Poissons Ratio (z) = 0.51973 0.09679
#
# Static dielectric constant tensor:
#      x y z
#    x 4.098720 0.000000 -0.135440 
#    y 0.000000 4.586990 0.000000 
#    z -0.135440 0.000000 4.174020 
# 
# 
# High freq. dielectric constant tensor:
#      x y z
#    x 1.900450 0.000000 -0.005300 
#    y 0.000000 1.918150 0.000000 
#    z -0.005300 0.000000 1.884920 
# 
# From -- ./inp_files/225090.got.cif
#   From: 2010.06.25/outbox.cif.g09.slc.cpg/sg15_113_cif.got.tgz:225090.got - 2010.06.28 07:06:18.
