data_PCOD8146066
_publ_section_title
;
Structure prediction by ZEFSAII (Michael W. Deem and Ramdas Pophale) SiO2 
 PCOD8146066
Probable space group: C 2/C
;
_chemical_formula_sum "Si O2"
_cell_formula_units_Z 36
_cell_length_a 19.637535
_cell_length_b 8.594940
_cell_length_c 10.596772
_cell_angle_alpha 90.000000
_cell_angle_beta 102.642100
_cell_angle_gamma 90.000000
_cell_volume 1745.198117
_symmetry_space_group_name_H-M "C 2/C"
_symmetry_group_IT_number 15
_symmetry_cell_setting 'monoclinic'
loop_
_space_group_symop_operation_xyz
x,y,z
-x,y,1/2-z
-x,-y,-z
x,-y,1/2+z
1/2+x,1/2+y,z
1/2-x,1/2+y,1/2-z
1/2-x,1/2-y,-z
1/2+x,1/2-y,1/2+z
loop_
_atom_site_type_symbol
_atom_site_label
_atom_site_fract_x
_atom_site_fract_y
_atom_site_fract_z
Si Si1 0.287672 0.410438 0.869018
Si Si2 0.432632 0.946361 0.547632
Si Si3 0.718896 0.049115 0.595419
Si Si4 0.943939 0.132103 0.451352
Si Si5 0.500000 0.158747 0.750000
O O1 0.271357 0.230009 0.875622
O O2 0.252621 0.458682 0.724431
O O3 0.369952 0.449773 0.896186
O O4 0.255602 0.498727 0.977752
O O5 0.362525 0.995567 0.446541
O O6 0.435807 0.756857 0.564104
O O7 0.500000 0.000000 0.500000
O O8 0.437205 0.043059 0.679729
O O9 0.966491 0.231375 0.340300
O O10 0.000000 0.000000 0.500000
#
# Coordination Sequence:
#
# PCOD8146066 Si02
#       5
#     8   8   8   8   4
#     4  10  24  42  62  95 128 169 210 263 324 382
#     4   9  21  40  63  90 120 167 216 257 312 394
#     4  10  23  42  64  92 130 165 214 263 319 383
#     4  10  23  41  62  97 127 162 216 270 324 375
#     4  10  22  40  66  86 126 172 220 258 324 382
#
# _framework density 20.628029999999999
#
# number of rings (size 3 to 8) (size 9 to 14) (size 15 to 20)
#    0.000    2.222    0.000    0.000   12.444    5.333 
#    4.000    0.000    0.000    0.000    0.000    0.000 
#    0.000    0.000    0.000    0.000    0.000    0.000 
#
# Total GULP energy -223083.579094 kJ/mol
# GULP energy per Si atom -12393.532172 kJ/mol
# Density = 2.058108 g / cm^3
# Si number density = 20.628030 Si / 1000 Ang^3
#
#
#
# Elastic Constant Matrix: (Units=GPa)
#
#
# Indices 1 2 3 4 5 6 
#
# 1 156.0934 57.2846 82.9715 0.0000 28.3200 0.0000
# 2 57.2846 85.0840 70.3152 0.0000 18.8735 0.0000
# 3 82.9715 70.3152 164.8640 0.0000 16.0468 0.0000
# 4 0.0000 0.0000 0.0000 47.7897 0.0000 4.6609
# 5 28.3200 18.8735 16.0468 0.0000 41.9724 0.0000
# 6 0.0000 0.0000 0.0000 4.6609 0.0000 29.9333
#
#
#
# Elastic Compliance Matrix: (Units=1/GPa)
#
#
# Indices 1 2 3 4 5 6 
#
# 1 0.010070 -0.003102 -0.003344 0.000000 -0.004121 0.000000
# 2 -0.003102 0.020368 -0.006687 0.000000 -0.004509 0.000000
# 3 -0.003344 -0.006687 0.010478 0.000000 0.001257 0.000000
# 4 0.000000 0.000000 0.000000 0.021248 0.000000 -0.003308
# 5 -0.004121 -0.004509 0.001257 0.000000 0.028153 0.000000
# 6 0.000000 0.000000 0.000000 -0.003308 0.000000 0.033923
#
#
# Mechanical properties :
#
#
# Convention : Reuss Voigt Hill
#
# Bulk Modulus (GPa) = 68.25776 91.90933 80.08355
# Shear Modulus (GPa) = 32.17734 36.97043 34.57389
#
# Velocity S-wave (km/s) = 3.95382 4.23808 4.09842
# Velocity P-wave (km/s) = 7.34883 8.28256 7.82962
#
# Compressibility (1/GPa) = 0.01465035
#
# Stress axis : x y z
#
# Youngs Moduli (GPa) = 99.30501 49.09597 95.43811
#
# Poissons Ratio (x) = 0.15232 0.31911
# Poissons Ratio (y) = 0.30809 0.63818
# Poissons Ratio (z) = 0.33204 0.32830
#
# Static dielectric constant tensor:
#      x y z
#    x 4.038000 0.000000 -0.046930 
#    y 0.000000 3.974340 0.000000 
#    z -0.046930 0.000000 4.621320 
# 
# 
# High freq. dielectric constant tensor:
#      x y z
#    x 1.820740 0.000000 0.005110 
#    y 0.000000 1.799950 0.000000 
#    z 0.005110 0.000000 1.805890 
# 
# From -- ./inp_files/60124.got.cif
#   From: 2010.06.25/outbox.cif.g09.slc.cpg/sg15_31_cif.got.tgz:60124.got - 2010.06.28 07:06:18.
