data_PCOD8146855
_publ_section_title
;
Structure prediction by ZEFSAII (Michael W. Deem and Ramdas Pophale) SiO2 
 PCOD8146855
Probable space group: C 2/C
;
_chemical_formula_sum "Si O2"
_cell_formula_units_Z 36
_cell_length_a 16.177463
_cell_length_b 15.281355
_cell_length_c 7.384985
_cell_angle_alpha 90.000000
_cell_angle_beta 131.241242
_cell_angle_gamma 90.000000
_cell_volume 1372.794159
_symmetry_space_group_name_H-M "C 2/C"
_symmetry_group_IT_number 15
_symmetry_cell_setting 'monoclinic'
loop_
_space_group_symop_operation_xyz
x,y,z
-x,y,1/2-z
-x,-y,-z
x,-y,1/2+z
1/2+x,1/2+y,z
1/2-x,1/2+y,1/2-z
1/2-x,1/2-y,-z
1/2+x,1/2-y,1/2+z
loop_
_atom_site_type_symbol
_atom_site_label
_atom_site_fract_x
_atom_site_fract_y
_atom_site_fract_z
Si Si1 0.782779 0.949741 0.338814
Si Si2 0.500000 0.366040 0.750000
Si Si3 0.050912 0.409310 0.130145
Si Si4 0.429438 0.757111 0.839018
Si Si5 0.783442 0.137437 0.445073
O O1 0.892277 0.926177 0.607752
O O2 0.681773 0.920111 0.320738
O O3 0.770260 0.901932 0.129121
O O4 0.787899 0.055269 0.315526
O O5 0.491304 0.306751 0.562923
O O6 0.000000 0.380338 0.250000
O O7 0.000000 0.500000 0.000000
O O8 0.015018 0.336533 0.928735
O O9 0.317551 0.800341 0.758192
O O10 0.393550 0.699911 0.608129
#
# Coordination Sequence:
#
# PCOD8146855 Si02
#       5
#     8   4   8   8   8
#     4  11  24  43  71  98 135 182 226 273 337 413
#     4  10  24  46  66 104 136 178 226 278 348 394
#     4  12  24  41  71  99 133 176 225 278 331 401
#     4  10  22  42  65  98 141 169 222 283 330 402
#     4  10  23  44  68  98 138 177 225 277 337 407
#
# _framework density 26.223886
#
# number of rings (size 3 to 8) (size 9 to 14) (size 15 to 20)
#    0.000    1.333    3.333    1.333    0.000    4.444 
#    0.000    8.889    0.000    0.000    0.000    0.000 
#    0.000    0.000    0.000    0.000    0.000    0.000 
#
# Total GULP energy -223075.831358 kJ/mol
# GULP energy per Si atom -12393.101742 kJ/mol
# Density = 2.616420 g / cm^3
# Si number density = 26.223886 Si / 1000 Ang^3
#
#
#
# Elastic Constant Matrix: (Units=GPa)
#
#
# Indices 1 2 3 4 5 6 
#
# 1 89.0224 15.4478 36.6731 0.0000 15.8962 0.0000
# 2 15.4478 135.9283 23.8597 0.0000 12.8248 0.0000
# 3 36.6731 23.8597 113.1359 0.0000 32.6368 0.0000
# 4 0.0000 0.0000 0.0000 45.5136 0.0000 5.4527
# 5 15.8962 12.8248 32.6368 0.0000 50.3397 0.0000
# 6 0.0000 0.0000 0.0000 5.4527 0.0000 23.9956
#
#
#
# Elastic Compliance Matrix: (Units=1/GPa)
#
#
# Indices 1 2 3 4 5 6 
#
# 1 0.013145 -0.000702 -0.003650 0.000000 -0.001606 0.000000
# 2 -0.000702 0.007728 -0.001105 0.000000 -0.001031 0.000000
# 3 -0.003650 -0.001105 0.012105 0.000000 -0.006414 0.000000
# 4 0.000000 0.000000 0.000000 0.022586 0.000000 -0.005132
# 5 -0.001606 -0.001031 -0.006414 0.000000 0.024793 0.000000
# 6 0.000000 0.000000 0.000000 -0.005132 0.000000 0.042841
#
#
# Mechanical properties :
#
#
# Convention : Reuss Voigt Hill
#
# Bulk Modulus (GPa) = 45.31953 54.44975 49.88464
# Shear Modulus (GPa) = 35.34403 41.44352 38.39377
#
# Velocity S-wave (km/s) = 3.67520 3.97970 3.83048
# Velocity P-wave (km/s) = 5.94380 6.47502 6.21509
#
# Compressibility (1/GPa) = 0.02206554
#
# Stress axis : x y z
#
# Youngs Moduli (GPa) = 76.07341 129.40336 82.60791
#
# Poissons Ratio (x) = 0.09081 0.30150
# Poissons Ratio (y) = 0.05338 0.09127
# Poissons Ratio (z) = 0.27765 0.14298
#
# Static dielectric constant tensor:
#      x y z
#    x 5.239280 0.000000 0.093170 
#    y 0.000000 5.447860 0.000000 
#    z 0.093170 0.000000 5.477210 
# 
# 
# High freq. dielectric constant tensor:
#      x y z
#    x 2.025340 0.000000 0.018560 
#    y 0.000000 2.079440 0.000000 
#    z 0.018560 0.000000 2.070830 
# 
# From -- ./inp_files/56323.got.cif
#   From: 2010.06.25/outbox.cif.g09.slc.cpg/sg15_29_cif.got.tgz:56323.got - 2010.06.28 07:06:18.
