data_PCOD8146055
_publ_section_title
;
Structure prediction by ZEFSAII (Michael W. Deem and Ramdas Pophale) SiO2 
 PCOD8146055
Probable space group: C 2/C
;
_chemical_formula_sum "Si O2"
_cell_formula_units_Z 64
_cell_length_a 18.015041
_cell_length_b 15.470346
_cell_length_c 17.160837
_cell_angle_alpha 90.000000
_cell_angle_beta 37.777023
_cell_angle_gamma 90.000000
_cell_volume 2929.838930
_symmetry_space_group_name_H-M "C 2/C"
_symmetry_group_IT_number 15
_symmetry_cell_setting 'monoclinic'
loop_
_space_group_symop_operation_xyz
x,y,z
-x,y,1/2-z
-x,-y,-z
x,-y,1/2+z
1/2+x,1/2+y,z
1/2-x,1/2+y,1/2-z
1/2-x,1/2-y,-z
1/2+x,1/2-y,1/2+z
loop_
_atom_site_type_symbol
_atom_site_label
_atom_site_fract_x
_atom_site_fract_y
_atom_site_fract_z
Si Si1 0.379189 0.499418 0.393421
Si Si2 0.792236 0.591579 0.077337
Si Si3 0.882849 0.204784 0.902935
Si Si4 0.371576 0.679923 0.085576
Si Si5 0.293911 0.233585 0.798770
Si Si6 0.396889 0.400485 0.040849
Si Si7 0.037710 0.414371 0.302168
Si Si8 0.215696 0.472062 0.747644
O O1 0.500000 0.527807 0.250000
O O2 0.263005 0.529642 0.441874
O O3 0.365768 0.397094 0.409893
O O4 0.383589 0.546355 0.472304
O O5 0.703035 0.672905 0.163546
O O6 0.817858 0.541494 0.135398
O O7 0.922389 0.623413 0.942003
O O8 0.000000 0.233926 0.750000
O O9 0.750000 0.250000 0.000000
O O10 0.915389 0.221501 0.967319
O O11 0.341771 0.757957 0.169868
O O12 0.253723 0.618159 0.174117
O O13 0.467097 0.611633 0.042998
O O14 0.157820 0.196348 0.915873
O O15 0.375205 0.167922 0.780781
O O16 0.321228 0.456043 0.165482
O O17 0.100490 0.492468 0.296240
O O18 0.000000 0.451960 0.250000
#
# Coordination Sequence:
#
# PCOD8146055 Si02
#       8
#     8   8   8   8   8   8   8   8
#     4  11  24  43  71 104 136 178 235 292 350 422
#     4  11  23  41  67  98 139 179 228 285 351 424
#     4  11  28  49  71 106 143 187 242 298 362 426
#     4  11  23  42  70  94 137 178 234 291 347 417
#     4  10  24  40  64  99 138 179 227 280 353 420
#     4  11  22  41  70  99 130 182 233 286 348 412
#     4  11  24  42  64  96 139 179 224 287 353 428
#     4  10  22  40  65  98 126 177 235 282 345 411
#
# _framework density 21.844204999999999
#
# number of rings (size 3 to 8) (size 9 to 14) (size 15 to 20)
#    0.000    1.250    1.250    4.500    5.250    4.500 
#    2.250    0.000    0.000    0.000    0.000    0.000 
#    0.000    0.000    0.000    0.000    0.000    0.000 
#
# Total GULP energy -396672.935338 kJ/mol
# GULP energy per Si atom -12396.029229 kJ/mol
# Density = 2.179449 g / cm^3
# Si number density = 21.844205 Si / 1000 Ang^3
#
#
#
# Elastic Constant Matrix: (Units=GPa)
#
#
# Indices 1 2 3 4 5 6 
#
# 1 138.2689 39.3388 48.1004 0.0000 5.8479 0.0000
# 2 39.3388 65.2998 25.7722 0.0000 0.8283 0.0000
# 3 48.1004 25.7722 120.8733 0.0000 1.4044 0.0000
# 4 0.0000 0.0000 0.0000 33.3319 0.0000 -2.5905
# 5 5.8479 0.8283 1.4044 0.0000 31.9303 0.0000
# 6 0.0000 0.0000 0.0000 -2.5905 0.0000 30.6996
#
#
#
# Elastic Compliance Matrix: (Units=1/GPa)
#
#
# Indices 1 2 3 4 5 6 
#
# 1 0.009598 -0.004654 -0.002809 0.000000 -0.001513 0.000000
# 2 -0.004654 0.018980 -0.002200 0.000000 0.000457 0.000000
# 3 -0.002809 -0.002200 0.009859 0.000000 0.000138 0.000000
# 4 0.000000 0.000000 0.000000 0.030199 0.000000 0.002548
# 5 -0.001513 0.000457 0.000138 0.000000 0.031577 0.000000
# 6 0.000000 0.000000 0.000000 0.002548 0.000000 0.032789
#
#
# Mechanical properties :
#
#
# Convention : Reuss Voigt Hill
#
# Bulk Modulus (GPa) = 52.33032 61.20719 56.76875
# Shear Modulus (GPa) = 31.50615 33.27442 32.39028
#
# Velocity S-wave (km/s) = 3.80190 3.90713 3.85487
# Velocity P-wave (km/s) = 6.57881 6.95952 6.77184
#
# Compressibility (1/GPa) = 0.01910938
#
# Stress axis : x y z
#
# Youngs Moduli (GPa) = 104.19136 52.68630 101.43399
#
# Poissons Ratio (x) = 0.24520 0.28497
# Poissons Ratio (y) = 0.48490 0.22318
# Poissons Ratio (z) = 0.29272 0.11592
#
# Static dielectric constant tensor:
#      x y z
#    x 3.873730 0.000000 0.055180 
#    y 0.000000 3.885280 0.000000 
#    z 0.055180 0.000000 4.540250 
# 
# 
# High freq. dielectric constant tensor:
#      x y z
#    x 1.853810 0.000000 0.002230 
#    y 0.000000 1.854000 0.000000 
#    z 0.002230 0.000000 1.876840 
# 
# From -- ./inp_files/211356.got.cif
#   From: 2010.06.25/outbox.cif.g09.slc.cpg/sg15_106_cif.got.tgz:211356.got - 2010.06.28 07:06:18.
