data_PCOD8146873
_publ_section_title
;
Structure prediction by ZEFSAII (Michael W. Deem and Ramdas Pophale) SiO2 
 PCOD8146873
Probable space group: C 2/C
;
_chemical_formula_sum "Si O2"
_cell_formula_units_Z 52
_cell_length_a 10.809331
_cell_length_b 11.131236
_cell_length_c 22.467531
_cell_angle_alpha 90.000000
_cell_angle_beta 62.889972
_cell_angle_gamma 90.000000
_cell_volume 2406.315052
_symmetry_space_group_name_H-M "C 2/C"
_symmetry_group_IT_number 15
_symmetry_cell_setting 'monoclinic'
loop_
_space_group_symop_operation_xyz
x,y,z
-x,y,1/2-z
-x,-y,-z
x,-y,1/2+z
1/2+x,1/2+y,z
1/2-x,1/2+y,1/2-z
1/2-x,1/2-y,-z
1/2+x,1/2-y,1/2+z
loop_
_atom_site_type_symbol
_atom_site_label
_atom_site_fract_x
_atom_site_fract_y
_atom_site_fract_z
Si Si1 0.630917 0.400564 0.682538
Si Si2 0.842482 0.033375 0.041748
Si Si3 0.794060 0.160048 0.636859
Si Si4 0.753803 0.770712 0.648421
Si Si5 0.500000 0.081536 0.250000
Si Si6 0.827401 0.428383 0.214457
Si Si7 0.603284 0.593709 0.594347
O O1 0.500000 0.353539 0.750000
O O2 0.730934 0.291721 0.641458
O O3 0.717290 0.492582 0.703416
O O4 0.576896 0.467952 0.634868
O O5 0.756234 0.919952 0.086656
O O6 0.843962 0.137399 0.090941
O O7 0.796145 0.072285 0.985564
O O8 0.000000 0.000000 0.000000
O O9 0.731527 0.096405 0.707667
O O10 0.960881 0.161064 0.607852
O O11 0.852021 0.696517 0.673219
O O12 0.686700 0.680602 0.617583
O O13 0.634093 0.835419 0.712459
O O14 0.471238 0.000165 0.196717
#
# Coordination Sequence:
#
# PCOD8146873 Si02
#       7
#     8   8   8   8   4   8   8
#     4  11  23  39  67  97 131 171 219 280 333 393
#     4  10  23  42  62  88 134 176 217 269 324 397
#     4  11  22  39  58  94 129 168 217 264 331 393
#     4  11  22  41  68  95 126 173 220 271 334 388
#     4  12  24  42  66 102 140 164 216 288 332 396
#     4  11  23  40  64  98 131 166 215 275 337 382
#     4  10  22  42  66  89 128 175 220 271 326 396
#
# _framework density 21.609807
#
# number of rings (size 3 to 8) (size 9 to 14) (size 15 to 20)
#    0.000    1.231    3.077    3.231    3.231    0.615 
#    0.000    3.077    0.000   11.077    0.000    0.000 
#    0.000    0.000    0.000    0.000    0.000    0.000 
#
# Total GULP energy -322262.272046 kJ/mol
# GULP energy per Si atom -12394.702771 kJ/mol
# Density = 2.156062 g / cm^3
# Si number density = 21.609807 Si / 1000 Ang^3
#
#
#
# Elastic Constant Matrix: (Units=GPa)
#
#
# Indices 1 2 3 4 5 6 
#
# 1 70.8306 36.9479 24.3572 0.0000 12.3012 0.0000
# 2 36.9479 130.6767 66.1783 0.0000 2.8649 0.0000
# 3 24.3572 66.1783 130.5658 0.0000 8.7789 0.0000
# 4 0.0000 0.0000 0.0000 32.8953 0.0000 -0.6029
# 5 12.3012 2.8649 8.7789 0.0000 22.9086 0.0000
# 6 0.0000 0.0000 0.0000 -0.6029 0.0000 31.3084
#
#
#
# Elastic Compliance Matrix: (Units=1/GPa)
#
#
# Indices 1 2 3 4 5 6 
#
# 1 0.018327 -0.004790 -0.000379 0.000000 -0.009097 0.000000
# 2 -0.004790 0.011559 -0.005174 0.000000 0.003110 0.000000
# 3 -0.000379 -0.005174 0.010567 0.000000 -0.003199 0.000000
# 4 0.000000 0.000000 0.000000 0.030410 0.000000 0.000586
# 5 -0.009097 0.003110 -0.003199 0.000000 0.049373 0.000000
# 6 0.000000 0.000000 0.000000 0.000586 0.000000 0.031952
#
#
# Mechanical properties :
#
#
# Convention : Reuss Voigt Hill
#
# Bulk Modulus (GPa) = 50.59200 65.22667 57.90933
# Shear Modulus (GPa) = 27.86048 31.06176 29.46112
#
# Velocity S-wave (km/s) = 3.59451 3.79541 3.69632
# Velocity P-wave (km/s) = 6.37885 7.03251 6.71364
#
# Compressibility (1/GPa) = 0.01976597
#
# Stress axis : x y z
#
# Youngs Moduli (GPa) = 54.56336 86.51164 94.63042
#
# Poissons Ratio (x) = 0.41443 0.03589
# Poissons Ratio (y) = 0.26138 0.48964
# Poissons Ratio (z) = 0.02070 0.44763
#
# Static dielectric constant tensor:
#      x y z
#    x 6.076880 0.000000 5.752710 
#    y 0.000000 4.461160 0.000000 
#    z 5.752710 0.000000 18.454690 
# 
# 
# High freq. dielectric constant tensor:
#      x y z
#    x 1.835670 0.000000 0.015790 
#    y 0.000000 1.863770 0.000000 
#    z 0.015790 0.000000 1.848610 
# 
# From -- ./inp_files/237488.got.cif
#   From: 2010.06.25/outbox.cif.g09.slc.cpg/sg15_119_cif.got.tgz:237488.got - 2010.06.28 07:06:18.
