data_PCOD8146331
_publ_section_title
;
Structure prediction by ZEFSAII (Michael W. Deem and Ramdas Pophale) SiO2 
 PCOD8146331
Probable space group: C 2/C
;
_chemical_formula_sum "Si O2"
_cell_formula_units_Z 48
_cell_length_a 24.889418
_cell_length_b 11.682454
_cell_length_c 9.068207
_cell_angle_alpha 90.000000
_cell_angle_beta 120.363196
_cell_angle_gamma 90.000000
_cell_volume 2275.096293
_symmetry_space_group_name_H-M "C 2/C"
_symmetry_group_IT_number 15
_symmetry_cell_setting 'monoclinic'
loop_
_space_group_symop_operation_xyz
x,y,z
-x,y,1/2-z
-x,-y,-z
x,-y,1/2+z
1/2+x,1/2+y,z
1/2-x,1/2+y,1/2-z
1/2-x,1/2-y,-z
1/2+x,1/2-y,1/2+z
loop_
_atom_site_type_symbol
_atom_site_label
_atom_site_fract_x
_atom_site_fract_y
_atom_site_fract_z
Si Si1 0.606089 0.985089 0.102931
Si Si2 0.182990 0.134775 0.835780
Si Si3 0.380559 0.505633 0.005715
Si Si4 0.542743 0.403747 0.624145
Si Si5 0.674862 0.887696 0.922324
Si Si6 0.498821 0.844171 0.414210
O O1 0.668576 0.022876 0.277269
O O2 0.567997 0.878898 0.113695
O O3 0.560070 0.094891 0.063158
O O4 0.626347 0.941845 0.971015
O O5 0.151906 0.104095 0.636482
O O6 0.158138 0.260235 0.844030
O O7 0.256618 0.121510 0.914826
O O8 0.166980 0.048886 0.945531
O O9 0.401925 0.404498 0.921796
O O10 0.434985 0.567411 0.177925
O O11 0.500000 0.500000 0.500000
O O12 0.500029 0.291568 0.562799
O O13 0.500000 0.884903 0.250000
#
# Coordination Sequence:
#
# PCOD8146331 Si02
#       6
#     8   8   8   8   8   8
#     4  11  24  41  64  90 131 170 210 268 317 395
#     4  10  23  41  66  94 128 169 224 270 327 385
#     4  10  22  41  62  94 128 168 206 276 318 382
#     4  11  23  39  63  95 129 169 212 261 323 387
#     4  11  23  42  65  94 126 175 219 273 324 384
#     4  11  23  40  60  93 126 169 211 256 328 387
#
# _framework density 21.098006000000002
#
# number of rings (size 3 to 8) (size 9 to 14) (size 15 to 20)
#    0.000    1.333    1.667    3.500    7.000    0.000 
#    3.000    0.000    0.000   11.000    0.000    0.000 
#    0.000    0.000    0.000    0.000    0.000    0.000 
#
# Total GULP energy -297387.808406 kJ/mol
# GULP energy per Si atom -12391.158684 kJ/mol
# Density = 2.104999 g / cm^3
# Si number density = 21.098006 Si / 1000 Ang^3
#
#
#
# Elastic Constant Matrix: (Units=GPa)
#
#
# Indices 1 2 3 4 5 6 
#
# 1 69.4884 42.3087 35.7832 0.0000 -6.2014 0.0000
# 2 42.3087 115.3793 58.8735 0.0000 -0.5674 0.0000
# 3 35.7832 58.8735 138.5916 0.0000 -7.7124 0.0000
# 4 0.0000 0.0000 0.0000 -57.3455 0.0000 -93.8946
# 5 -6.2014 -0.5674 -7.7124 0.0000 35.9496 0.0000
# 6 0.0000 0.0000 0.0000 -93.8946 0.0000 -65.3411
#
#
#
# Elastic Compliance Matrix: (Units=1/GPa)
#
#
# Indices 1 2 3 4 5 6 
#
# 1 0.019453 -0.005918 -0.002355 0.000000 0.002757 0.000000
# 2 -0.005918 0.012891 -0.004042 0.000000 -0.001685 0.000000
# 3 -0.002355 -0.004042 0.009629 0.000000 0.001596 0.000000
# 4 0.000000 0.000000 0.000000 0.012890 0.000000 -0.018523
# 5 0.002757 -0.001685 0.001596 0.000000 0.028608 0.000000
# 6 0.000000 0.000000 0.000000 -0.018523 0.000000 0.011313
#
#
# Mechanical properties :
#
#
# Convention : Reuss Voigt Hill
#
# Bulk Modulus (GPa) = 57.65901 66.37669 62.01785
# Shear Modulus (GPa) = 39.93754 -4.91447 17.51153
#
# Velocity S-wave (km/s) = 4.35553 -1.52788 2.88411
# Velocity P-wave (km/s) = 7.25828 5.33075 6.36787
#
# Compressibility (1/GPa) = 0.01734334
#
# Stress axis : x y z
#
# Youngs Moduli (GPa) = 51.40616 77.57174 103.84879
#
# Poissons Ratio (x) = 0.45906 0.24459
# Poissons Ratio (y) = 0.30422 0.41976
# Poissons Ratio (z) = 0.12107 0.31354
#
# Static dielectric constant tensor:
#      x y z
#    x 2.007660 0.000000 0.557540 
#    y 0.000000 3.388110 0.000000 
#    z 0.557540 0.000000 3.641290 
# 
# 
# High freq. dielectric constant tensor:
#      x y z
#    x 1.834100 0.000000 -0.007460 
#    y 0.000000 1.825360 0.000000 
#    z -0.007460 0.000000 1.835840 
# 
# From -- ./inp_files/65247.got.cif
#   From: 2010.06.25/outbox.cif.g09.slc.cpg/sg15_33_cif.got.tgz:65247.got - 2010.06.28 07:06:18.
