data_PCOD8146925
_publ_section_title
;
Structure prediction by ZEFSAII (Michael W. Deem and Ramdas Pophale) SiO2 
 PCOD8146925
Probable space group: C 2/C
;
_chemical_formula_sum "Si O2"
_cell_formula_units_Z 32
_cell_length_a 29.721742
_cell_length_b 11.090384
_cell_length_c 9.521013
_cell_angle_alpha 90.000000
_cell_angle_beta 26.571403
_cell_angle_gamma 90.000000
_cell_volume 1403.832454
_symmetry_space_group_name_H-M "C 2/C"
_symmetry_group_IT_number 15
_symmetry_cell_setting 'monoclinic'
loop_
_space_group_symop_operation_xyz
x,y,z
-x,y,1/2-z
-x,-y,-z
x,-y,1/2+z
1/2+x,1/2+y,z
1/2-x,1/2+y,1/2-z
1/2-x,1/2-y,-z
1/2+x,1/2-y,1/2+z
loop_
_atom_site_type_symbol
_atom_site_label
_atom_site_fract_x
_atom_site_fract_y
_atom_site_fract_z
Si Si1 0.235532 0.944524 0.269793
Si Si2 0.543981 0.893880 0.782490
Si Si3 0.722020 0.120327 0.139663
Si Si4 0.941553 0.761658 0.780693
O O1 0.142987 0.853086 0.539669
O O2 0.207688 0.069080 0.429967
O O3 0.334890 0.893963 0.071368
O O4 0.268361 0.972310 0.017391
O O5 0.500000 0.892410 0.750000
O O6 0.514173 0.770378 0.948762
O O7 0.500000 0.000000 0.000000
O O8 0.609476 0.136999 0.515965
O O9 0.750000 0.250000 0.000000
O O10 0.000000 0.821837 0.750000
#
# Coordination Sequence:
#
# PCOD8146925 Si02
#       4
#     8   8   8   8
#     4  11  23  42  70 100 138 182 236 291 348 414
#     4  12  23  39  69 104 135 186 244 286 344 424
#     4  10  22  42  66  97 140 181 227 285 350 414
#     4  11  23  43  68 102 142 184 229 295 356 413
#
# _framework density 22.794743
#
# number of rings (size 3 to 8) (size 9 to 14) (size 15 to 20)
#    0.000    1.000    5.000    2.250    0.000    1.000 
#    4.500    5.000    0.000    0.000    0.000    0.000 
#    0.000    0.000    0.000    0.000    0.000    0.000 
#
# Total GULP energy -198230.000549 kJ/mol
# GULP energy per Si atom -12389.375034 kJ/mol
# Density = 2.274286 g / cm^3
# Si number density = 22.794743 Si / 1000 Ang^3
#
#
#
# Elastic Constant Matrix: (Units=GPa)
#
#
# Indices 1 2 3 4 5 6 
#
# 1 177.6760 69.2246 50.4478 0.0000 10.8706 0.0000
# 2 69.2246 90.3429 45.7429 0.0000 9.0963 0.0000
# 3 50.4478 45.7429 78.0274 0.0000 4.0605 0.0000
# 4 0.0000 0.0000 0.0000 29.1637 0.0000 2.0941
# 5 10.8706 9.0963 4.0605 0.0000 55.3786 0.0000
# 6 0.0000 0.0000 0.0000 2.0941 0.0000 46.2154
#
#
#
# Elastic Compliance Matrix: (Units=1/GPa)
#
#
# Indices 1 2 3 4 5 6 
#
# 1 0.008333 -0.005135 -0.002345 0.000000 -0.000620 0.000000
# 2 -0.005135 0.019111 -0.007803 0.000000 -0.001559 0.000000
# 3 -0.002345 -0.007803 0.018888 0.000000 0.000357 0.000000
# 4 0.000000 0.000000 0.000000 0.034401 0.000000 -0.001559
# 5 -0.000620 -0.001559 0.000357 0.000000 0.018409 0.000000
# 6 0.000000 0.000000 0.000000 -0.001559 0.000000 0.021708
#
#
# Mechanical properties :
#
#
# Convention : Reuss Voigt Hill
#
# Bulk Modulus (GPa) = 63.42515 75.20857 69.31686
# Shear Modulus (GPa) = 31.91403 38.19360 35.05382
#
# Velocity S-wave (km/s) = 3.74580 4.09778 3.92574
# Velocity P-wave (km/s) = 6.82590 7.44678 7.14309
#
# Compressibility (1/GPa) = 0.01576662
#
# Stress axis : x y z
#
# Youngs Moduli (GPa) = 120.01025 52.32471 52.94495
#
# Poissons Ratio (x) = 0.26870 0.12413
# Poissons Ratio (y) = 0.61628 0.41311
# Poissons Ratio (z) = 0.28138 0.40827
#
# Static dielectric constant tensor:
#      x y z
#    x 4.470670 0.000000 0.434860 
#    y 0.000000 3.959340 0.000000 
#    z 0.434860 0.000000 4.726210 
# 
# 
# High freq. dielectric constant tensor:
#      x y z
#    x 1.905590 0.000000 0.012840 
#    y 0.000000 1.866390 0.000000 
#    z 0.012840 0.000000 1.911790 
# 
# From -- ./inp_files/36743.got.cif
#   From: 2010.06.25/outbox.cif.g09.slc.cpg/sg15_19_cif.got.tgz:36743.got - 2010.06.28 07:06:18.
