data_PCOD8146466
_publ_section_title
;
Structure prediction by ZEFSAII (Michael W. Deem and Ramdas Pophale) SiO2 
 PCOD8146466
Probable space group: C 2/C
;
_chemical_formula_sum "Si O2"
_cell_formula_units_Z 60
_cell_length_a 22.662690
_cell_length_b 14.302264
_cell_length_c 8.860643
_cell_angle_alpha 90.000000
_cell_angle_beta 111.591893
_cell_angle_gamma 90.000000
_cell_volume 2670.449507
_symmetry_space_group_name_H-M "C 2/C"
_symmetry_group_IT_number 15
_symmetry_cell_setting 'monoclinic'
loop_
_space_group_symop_operation_xyz
x,y,z
-x,y,1/2-z
-x,-y,-z
x,-y,1/2+z
1/2+x,1/2+y,z
1/2-x,1/2+y,1/2-z
1/2-x,1/2-y,-z
1/2+x,1/2-y,1/2+z
loop_
_atom_site_type_symbol
_atom_site_label
_atom_site_fract_x
_atom_site_fract_y
_atom_site_fract_z
Si Si1 0.392875 0.159176 0.353769
Si Si2 0.073149 0.106392 0.073617
Si Si3 0.524184 0.200557 0.610983
Si Si4 0.132371 0.442445 0.198599
Si Si5 0.289046 0.357213 0.860880
Si Si6 0.000000 0.999346 0.750000
Si Si7 0.291832 0.162396 0.488990
Si Si8 0.814191 0.336251 0.507452
O O1 0.467024 0.178916 0.441084
O O2 0.358156 0.195083 0.473758
O O3 0.361290 0.209914 0.178710
O O4 0.379871 0.051225 0.302957
O O5 0.145619 0.085597 0.094120
O O6 0.065557 0.218065 0.074413
O O7 0.053900 0.063210 0.218356
O O8 0.029632 0.065544 0.902894
O O9 0.500000 0.235001 0.750000
O O10 0.566697 0.109162 0.676750
O O11 0.190605 0.408823 0.360296
O O12 0.151224 0.421166 0.043902
O O13 0.247783 0.390331 0.678528
O O14 0.250081 0.378442 0.977697
O O15 0.299260 0.244555 0.870928
O O16 0.250000 0.250000 0.500000
#
# Coordination Sequence:
#
# PCOD8146466 Si02
#       8
#     8   8   8   8   8   4   8   8
#     4  11  26  41  66 105 141 177 222 287 347 399
#     4  11  23  48  69 101 132 177 227 290 347 409
#     4  12  24  42  73  99 136 189 229 271 355 431
#     4  12  23  45  68 100 143 174 233 286 333 411
#     4  10  22  43  68  95 131 172 232 267 342 410
#     4  10  26  46  72  98 138 164 228 304 340 394
#     4  11  21  42  68  93 131 188 222 271 336 402
#     4  10  22  41  65  97 132 172 221 285 323 410
#
# _framework density 22.468129000000001
#
# number of rings (size 3 to 8) (size 9 to 14) (size 15 to 20)
#    0.000    1.067    4.667    1.200    1.867    0.533 
#    9.600    1.333    0.000    0.000    0.000    0.000 
#    0.000    0.000    0.000    0.000    0.000    0.000 
#
# Total GULP energy -371949.386303 kJ/mol
# GULP energy per Si atom -12398.312877 kJ/mol
# Density = 2.241699 g / cm^3
# Si number density = 22.468129 Si / 1000 Ang^3
#
#
#
# Elastic Constant Matrix: (Units=GPa)
#
#
# Indices 1 2 3 4 5 6 
#
# 1 124.6659 11.8272 34.1170 0.0000 5.5197 0.0000
# 2 11.8272 52.1224 11.1642 0.0000 5.1438 0.0000
# 3 34.1170 11.1642 92.4595 0.0000 1.8332 0.0000
# 4 0.0000 0.0000 0.0000 22.9055 0.0000 -0.4023
# 5 5.5197 5.1438 1.8332 0.0000 39.5374 0.0000
# 6 0.0000 0.0000 0.0000 -0.4023 0.0000 27.1400
#
#
#
# Elastic Compliance Matrix: (Units=1/GPa)
#
#
# Indices 1 2 3 4 5 6 
#
# 1 0.009052 -0.001282 -0.003166 0.000000 -0.000950 0.000000
# 2 -0.001282 0.020117 -0.001909 0.000000 -0.002350 0.000000
# 3 -0.003166 -0.001909 0.012212 0.000000 0.000124 0.000000
# 4 0.000000 0.000000 0.000000 0.043669 0.000000 0.000647
# 5 -0.000950 -0.002350 0.000124 0.000000 0.025725 0.000000
# 6 0.000000 0.000000 0.000000 0.000647 0.000000 0.036856
#
#
# Mechanical properties :
#
#
# Convention : Reuss Voigt Hill
#
# Bulk Modulus (GPa) = 34.88521 42.60717 38.74619
# Shear Modulus (GPa) = 29.42879 32.05920 30.74399
#
# Velocity S-wave (km/s) = 3.62304 3.78150 3.70312
# Velocity P-wave (km/s) = 5.74997 6.17016 5.96377
#
# Compressibility (1/GPa) = 0.02866545
#
# Stress axis : x y z
#
# Youngs Moduli (GPa) = 110.47698 49.70822 81.88652
#
# Poissons Ratio (x) = 0.06372 0.25928
# Poissons Ratio (y) = 0.14163 0.15636
# Poissons Ratio (z) = 0.34981 0.09492
#
# Static dielectric constant tensor:
#      x y z
#    x 4.293730 0.000000 -0.090300 
#    y 0.000000 3.677880 0.000000 
#    z -0.090300 0.000000 4.293180 
# 
# 
# High freq. dielectric constant tensor:
#      x y z
#    x 1.897600 0.000000 -0.005440 
#    y 0.000000 1.858580 0.000000 
#    z -0.005440 0.000000 1.898890 
# 
# From -- ./inp_files/61963.got.cif
#   From: 2010.06.25/outbox.cif.g09.slc.cpg/sg15_31_cif.got.tgz:61963.got - 2010.06.28 07:06:18.
