data_PCOD8146725
_publ_section_title
;
Structure prediction by ZEFSAII (Michael W. Deem and Ramdas Pophale) SiO2 
 PCOD8146725
Probable space group: C 2/C
;
_chemical_formula_sum "Si O2"
_cell_formula_units_Z 60
_cell_length_a 11.766179
_cell_length_b 7.528631
_cell_length_c 28.903659
_cell_angle_alpha 90.000000
_cell_angle_beta 88.905623
_cell_angle_gamma 90.000000
_cell_volume 2559.912148
_symmetry_space_group_name_H-M "C 2/C"
_symmetry_group_IT_number 15
_symmetry_cell_setting 'monoclinic'
loop_
_space_group_symop_operation_xyz
x,y,z
-x,y,1/2-z
-x,-y,-z
x,-y,1/2+z
1/2+x,1/2+y,z
1/2-x,1/2+y,1/2-z
1/2-x,1/2-y,-z
1/2+x,1/2-y,1/2+z
loop_
_atom_site_type_symbol
_atom_site_label
_atom_site_fract_x
_atom_site_fract_y
_atom_site_fract_z
Si Si1 0.903151 0.111632 0.662562
Si Si2 0.537975 0.532285 0.937107
Si Si3 0.969939 0.514384 0.143873
Si Si4 0.071378 0.449865 0.955387
Si Si5 0.817141 0.587195 0.303382
Si Si6 0.808007 0.938967 0.986765
Si Si7 0.852506 0.335154 0.223943
Si Si8 0.500000 0.470722 0.750000
O O1 0.884331 0.318392 0.650119
O O2 0.782945 0.039874 0.679321
O O3 0.945275 0.000498 0.617488
O O4 0.994451 0.092471 0.703924
O O5 0.546010 0.741796 0.948672
O O6 0.418620 0.437513 0.951853
O O7 0.644856 0.458280 0.967377
O O8 0.970765 0.448057 0.090769
O O9 0.931695 0.355959 0.177930
O O10 0.093215 0.590719 0.156090
O O11 0.200284 0.525977 0.961770
O O12 0.000000 0.500000 0.000000
O O13 0.867044 0.507745 0.255285
O O14 0.775513 0.788708 0.292261
O O15 0.750000 0.750000 0.000000
O O16 0.890616 0.159573 0.251838
#
# Coordination Sequence:
#
# PCOD8146725 Si02
#       8
#     8   8   8   8   8   8   8   4
#     4  10  24  41  65  97 128 175 222 265 336 393
#     4   9  20  43  64  94 128 169 218 271 326 404
#     4  11  24  44  66  94 135 173 219 277 330 400
#     4  10  23  41  63  98 127 168 216 271 339 392
#     4  11  24  41  65  96 130 175 219 270 328 397
#     4   9  19  41  66  92 125 167 215 268 329 390
#     4  11  23  43  64  96 132 173 223 269 331 398
#     4  10  22  42  62  98 130 166 218 270 324 400
#
# _framework density 23.438305
#
# number of rings (size 3 to 8) (size 9 to 14) (size 15 to 20)
#    0.000    1.867    1.333    0.800    7.467    2.667 
#   21.600    0.000    0.000    0.000    0.000    0.000 
#    0.000    0.000    0.000    0.000    0.000    0.000 
#
# Total GULP energy -371668.361104 kJ/mol
# GULP energy per Si atom -12388.945370 kJ/mol
# Density = 2.338496 g / cm^3
# Si number density = 23.438305 Si / 1000 Ang^3
#
#
#
# Elastic Constant Matrix: (Units=GPa)
#
#
# Indices 1 2 3 4 5 6 
#
# 1 127.8978 4.7369 62.1057 0.0000 23.2638 0.0000
# 2 4.7369 32.3594 13.0563 0.0000 -1.2357 0.0000
# 3 62.1057 13.0563 199.5445 0.0000 16.4160 0.0000
# 4 0.0000 0.0000 0.0000 29.6466 0.0000 -3.1457
# 5 23.2638 -1.2357 16.4160 0.0000 41.4004 0.0000
# 6 0.0000 0.0000 0.0000 -3.1457 0.0000 28.3241
#
#
#
# Elastic Compliance Matrix: (Units=1/GPa)
#
#
# Indices 1 2 3 4 5 6 
#
# 1 0.009976 -0.000547 -0.002694 0.000000 -0.004553 0.000000
# 2 -0.000547 0.031906 -0.002089 0.000000 0.002088 0.000000
# 3 -0.002694 -0.002089 0.006065 0.000000 -0.000953 0.000000
# 4 0.000000 0.000000 0.000000 0.034133 0.000000 0.003791
# 5 -0.004553 0.002088 -0.000953 0.000000 0.027153 0.000000
# 6 0.000000 0.000000 0.000000 0.003791 0.000000 0.035727
#
#
# Mechanical properties :
#
#
# Convention : Reuss Voigt Hill
#
# Bulk Modulus (GPa) = 26.82017 57.73324 42.27671
# Shear Modulus (GPa) = 29.75326 38.53441 34.14384
#
# Velocity S-wave (km/s) = 3.56677 4.05912 3.82088
# Velocity P-wave (km/s) = 5.33200 6.83038 6.12716
#
# Compressibility (1/GPa) = 0.03728537
#
# Stress axis : x y z
#
# Youngs Moduli (GPa) = 100.24447 31.34237 164.87715
#
# Poissons Ratio (x) = 0.01714 0.44424
# Poissons Ratio (y) = 0.05484 0.34445
# Poissons Ratio (z) = 0.27010 0.06548
#
# Static dielectric constant tensor:
#      x y z
#    x 4.589870 0.000000 0.545960 
#    y 0.000000 3.995220 0.000000 
#    z 0.545960 0.000000 4.916790 
# 
# 
# High freq. dielectric constant tensor:
#      x y z
#    x 1.927440 0.000000 0.015240 
#    y 0.000000 1.909410 0.000000 
#    z 0.015240 0.000000 1.938100 
# 
# From -- ./inp_files/291568.got.cif
#   From: 2010.06.25/outbox.cif.g09.slc.cpg/sg15_146_cif.got.tgz:291568.got - 2010.06.28 07:06:18.
