data_PCOD8146256
_publ_section_title
;
Structure prediction by ZEFSAII (Michael W. Deem and Ramdas Pophale) SiO2 
 PCOD8146256
Probable space group: C 2/C
;
_chemical_formula_sum "Si O2"
_cell_formula_units_Z 60
_cell_length_a 19.025971
_cell_length_b 9.271641
_cell_length_c 19.516949
_cell_angle_alpha 90.000000
_cell_angle_beta 54.394667
_cell_angle_gamma 90.000000
_cell_volume 2799.179761
_symmetry_space_group_name_H-M "C 2/C"
_symmetry_group_IT_number 15
_symmetry_cell_setting 'monoclinic'
loop_
_space_group_symop_operation_xyz
x,y,z
-x,y,1/2-z
-x,-y,-z
x,-y,1/2+z
1/2+x,1/2+y,z
1/2-x,1/2+y,1/2-z
1/2-x,1/2-y,-z
1/2+x,1/2-y,1/2+z
loop_
_atom_site_type_symbol
_atom_site_label
_atom_site_fract_x
_atom_site_fract_y
_atom_site_fract_z
Si Si1 0.742674 0.233819 0.361555
Si Si2 0.917089 0.339733 0.633848
Si Si3 0.756995 0.070353 0.921642
Si Si4 0.214618 0.975966 0.939918
Si Si5 0.598119 0.160364 0.816940
Si Si6 0.093898 0.750112 0.965466
Si Si7 0.635031 0.813121 0.690507
Si Si8 0.000000 0.539318 0.750000
O O1 0.651850 0.233132 0.375482
O O2 0.723742 0.352933 0.430228
O O3 0.815227 0.281064 0.266628
O O4 0.771255 0.087588 0.382233
O O5 0.890162 0.505970 0.654345
O O6 0.911778 0.270614 0.712295
O O7 0.011897 0.314703 0.550579
O O8 0.844785 0.163070 0.859005
O O9 0.746648 0.068336 0.008820
O O10 0.673521 0.142054 0.934704
O O11 0.274678 0.898228 0.848318
O O12 0.118477 0.910235 0.980482
O O13 0.524374 0.143477 0.799995
O O14 0.573551 0.263256 0.895090
O O15 0.576688 0.930768 0.682533
#
# Coordination Sequence:
#
# PCOD8146256 Si02
#       8
#     8   8   8   8   8   8   8   4
#     4  12  24  44  66  99 137 187 214 280 348 407
#     4  11  24  40  71 100 133 176 234 280 333 401
#     4  11  25  42  69 100 136 178 230 277 341 409
#     4  11  24  43  66 100 140 179 219 278 345 397
#     4  11  24  42  71 100 134 176 228 279 338 412
#     4  11  24  43  71 103 129 180 231 286 328 402
#     4  10  22  41  70  96 128 176 226 280 325 411
#     4  10  22  40  72 100 126 176 228 284 332 404
#
# _framework density 21.434850000000001
#
# number of rings (size 3 to 8) (size 9 to 14) (size 15 to 20)
#    0.000    1.067    4.000    4.000    7.467    0.533 
#    2.400    0.667    0.000    0.000    0.000    0.000 
#    0.000    0.000    0.000    0.000    0.000    0.000 
#
# Total GULP energy -371780.704985 kJ/mol
# GULP energy per Si atom -12392.690166 kJ/mol
# Density = 2.138606 g / cm^3
# Si number density = 21.434850 Si / 1000 Ang^3
#
#
#
# Elastic Constant Matrix: (Units=GPa)
#
#
# Indices 1 2 3 4 5 6 
#
# 1 108.4236 26.3998 49.2725 0.0000 8.7571 0.0000
# 2 26.3998 89.5382 33.6035 0.0000 -9.8572 -0.0001
# 3 49.2725 33.6035 123.0238 0.0000 -1.0543 -0.0001
# 4 0.0000 0.0000 0.0000 26.1806 0.0000 7.4051
# 5 8.7571 -9.8572 -1.0543 0.0000 35.3402 0.0000
# 6 0.0000 -0.0001 -0.0001 7.4051 0.0000 10.9316
#
#
#
# Elastic Compliance Matrix: (Units=1/GPa)
#
#
# Indices 1 2 3 4 5 6 
#
# 1 0.012013 -0.002383 -0.004193 0.000000 -0.003766 0.000000
# 2 -0.002383 0.013332 -0.002651 0.000000 0.004230 0.000000
# 3 -0.004193 -0.002651 0.010537 0.000000 0.000614 0.000000
# 4 0.000000 0.000000 0.000000 0.047249 0.000000 -0.032007
# 5 -0.003766 0.004230 0.000614 0.000000 0.030428 0.000000
# 6 0.000000 0.000000 0.000000 -0.032007 0.000000 0.113159
#
#
# Mechanical properties :
#
#
# Convention : Reuss Voigt Hill
#
# Bulk Modulus (GPa) = 57.37739 59.94856 58.66297
# Shear Modulus (GPa) = 19.92189 28.60448 24.26319
#
# Velocity S-wave (km/s) = 3.05194 3.65702 3.36810
# Velocity P-wave (km/s) = 6.26462 6.77202 6.52326
#
# Compressibility (1/GPa) = 0.01742847
#
# Stress axis : x y z
#
# Youngs Moduli (GPa) = 83.24408 75.01011 94.90352
#
# Poissons Ratio (x) = 0.17875 0.39790
# Poissons Ratio (y) = 0.19838 0.25157
# Poissons Ratio (z) = 0.34901 0.19883
#
# Static dielectric constant tensor:
#      x y z
#    x 3.924000 0.000000 0.028500 
#    y 0.000000 3.958020 0.000000 
#    z 0.028500 0.000000 4.020120 
# 
# 
# High freq. dielectric constant tensor:
#      x y z
#    x 1.838610 0.000000 0.005980 
#    y 0.000000 1.833060 0.000000 
#    z 0.005980 0.000000 1.847190 
# 
# From -- ./inp_files/252095.got.cif
#   From: 2010.06.25/outbox.cif.g09.slc.cpg/sg15_127_cif.got.tgz:252095.got - 2010.06.28 07:06:18.
