data_PCOD8146504
_publ_section_title
;
Structure prediction by ZEFSAII (Michael W. Deem and Ramdas Pophale) SiO2 
 PCOD8146504
Probable space group: C 2/C
;
_chemical_formula_sum "Si O2"
_cell_formula_units_Z 56
_cell_length_a 14.107433
_cell_length_b 18.193007
_cell_length_c 11.605273
_cell_angle_alpha 90.000000
_cell_angle_beta 60.735402
_cell_angle_gamma 90.000000
_cell_volume 2598.419736
_symmetry_space_group_name_H-M "C 2/C"
_symmetry_group_IT_number 15
_symmetry_cell_setting 'monoclinic'
loop_
_space_group_symop_operation_xyz
x,y,z
-x,y,1/2-z
-x,-y,-z
x,-y,1/2+z
1/2+x,1/2+y,z
1/2-x,1/2+y,1/2-z
1/2-x,1/2-y,-z
1/2+x,1/2-y,1/2+z
loop_
_atom_site_type_symbol
_atom_site_label
_atom_site_fract_x
_atom_site_fract_y
_atom_site_fract_z
Si Si1 0.532651 0.828301 0.105518
Si Si2 0.702317 0.806540 0.337730
Si Si3 0.375672 0.420411 0.824298
Si Si4 0.119819 0.850080 0.919338
Si Si5 0.556785 0.010500 0.592055
Si Si6 0.228822 0.067903 0.548492
Si Si7 0.374164 0.315880 0.036445
O O1 0.500000 0.799342 0.250000
O O2 0.419004 0.838687 0.104965
O O3 0.597736 0.905039 0.065383
O O4 0.614385 0.768090 0.009442
O O5 0.689784 0.724393 0.396740
O O6 0.772918 0.856236 0.381217
O O7 0.771513 0.813184 0.180476
O O8 0.500000 0.442736 0.750000
O O9 0.351397 0.371891 0.727489
O O10 0.314459 0.498194 0.854689
O O11 0.342765 0.372399 0.954490
O O12 0.158265 0.916998 0.976741
O O13 0.991284 0.839034 0.020176
O O14 0.500000 0.000560 0.750000
O O15 0.500000 0.000000 0.500000
O O16 0.648597 0.950552 0.555067
#
# Coordination Sequence:
#
# PCOD8146504 Si02
#       7
#     8   8   8   8   8   8   8
#     4  10  22  41  66  98 131 166 228 282 330 405
#     4  11  24  43  69  95 134 175 222 267 339 402
#     4  10  25  42  67  98 131 168 221 277 333 395
#     4  10  25  46  63  98 132 172 225 271 324 410
#     4  11  26  45  67 102 139 175 224 282 341 404
#     4  12  27  42  69  95 135 175 219 267 342 399
#     4  10  23  42  69  97 128 174 219 280 334 395
#
# _framework density 21.551559999999998
#
# number of rings (size 3 to 8) (size 9 to 14) (size 15 to 20)
#    0.000    1.429    1.429    2.571   12.000    2.286 
#    0.000    0.000    0.000    0.000    0.000    0.000 
#    0.000    0.000    0.000    0.000    0.000    0.000 
#
# Total GULP energy -346980.479599 kJ/mol
# GULP energy per Si atom -12392.159986 kJ/mol
# Density = 2.150251 g / cm^3
# Si number density = 21.551560 Si / 1000 Ang^3
#
#
#
# Elastic Constant Matrix: (Units=GPa)
#
#
# Indices 1 2 3 4 5 6 
#
# 1 46.4850 28.4248 2.2833 0.0000 13.0064 0.0000
# 2 28.4248 120.1820 32.0089 0.0000 -8.0161 0.0000
# 3 2.2833 32.0089 61.6809 0.0000 5.4411 0.0000
# 4 0.0000 0.0000 0.0000 8.6694 0.0000 -9.0262
# 5 13.0064 -8.0161 5.4411 0.0000 20.7112 0.0000
# 6 0.0000 0.0000 0.0000 -9.0262 0.0000 35.8166
#
#
#
# Elastic Compliance Matrix: (Units=1/GPa)
#
#
# Indices 1 2 3 4 5 6 
#
# 1 0.037877 -0.013212 0.008193 0.000000 -0.031052 0.000000
# 2 -0.013212 0.014837 -0.008650 0.000000 0.016312 0.000000
# 3 0.008193 -0.008650 0.021649 0.000000 -0.014180 0.000000
# 4 0.000000 0.000000 0.000000 0.156379 0.000000 0.039409
# 5 -0.031052 0.016312 -0.014180 0.000000 0.077822 0.000000
# 6 0.000000 0.000000 0.000000 0.039409 0.000000 0.037852
#
#
# Mechanical properties :
#
#
# Convention : Reuss Voigt Hill
#
# Bulk Modulus (GPa) = 21.26448 39.30911 30.28679
# Shear Modulus (GPa) = 12.83936 24.08150 18.46043
#
# Velocity S-wave (km/s) = 2.44345 3.34637 2.92990
# Velocity P-wave (km/s) = 4.22478 5.76282 5.05266
#
# Compressibility (1/GPa) = 0.04702678
#
# Stress axis : x y z
#
# Youngs Moduli (GPa) = 26.40121 67.39816 46.19217
#
# Poissons Ratio (x) = 0.89045 -0.37847
# Poissons Ratio (y) = 0.34881 0.39954
# Poissons Ratio (z) = -0.21631 0.58296
#
# Static dielectric constant tensor:
#      x y z
#    x 4.392950 0.000000 0.631630 
#    y 0.000000 4.014610 0.000000 
#    z 0.631630 0.000000 4.616760 
# 
# 
# High freq. dielectric constant tensor:
#      x y z
#    x 1.845630 0.000000 -0.002560 
#    y 0.000000 1.863000 0.000000 
#    z -0.002560 0.000000 1.841830 
# 
# From -- ./inp_files/98648.got.cif
#   From: 2010.06.25/outbox.cif.g09.slc.cpg/sg15_50_cif.got.tgz:98648.got - 2010.06.28 07:06:18.
