data_PCOD8146737
_publ_section_title
;
Structure prediction by ZEFSAII (Michael W. Deem and Ramdas Pophale) SiO2 
 PCOD8146737
Probable space group: C 2/C
;
_chemical_formula_sum "Si O2"
_cell_formula_units_Z 48
_cell_length_a 17.039764
_cell_length_b 9.648304
_cell_length_c 31.887480
_cell_angle_alpha 90.000000
_cell_angle_beta 153.919703
_cell_angle_gamma 90.000000
_cell_volume 2304.742436
_symmetry_space_group_name_H-M "C 2/C"
_symmetry_group_IT_number 15
_symmetry_cell_setting 'monoclinic'
loop_
_space_group_symop_operation_xyz
x,y,z
-x,y,1/2-z
-x,-y,-z
x,-y,1/2+z
1/2+x,1/2+y,z
1/2-x,1/2+y,1/2-z
1/2-x,1/2-y,-z
1/2+x,1/2-y,1/2+z
loop_
_atom_site_type_symbol
_atom_site_label
_atom_site_fract_x
_atom_site_fract_y
_atom_site_fract_z
Si Si1 0.007420 0.400543 0.205672
Si Si2 0.831245 0.178237 0.694290
Si Si3 0.329371 0.678731 0.997252
Si Si4 0.725004 0.394217 0.706916
Si Si5 0.202432 0.868625 0.792337
Si Si6 0.031521 0.338848 0.512463
O O1 0.174479 0.472710 0.263340
O O2 0.033927 0.234020 0.214381
O O3 0.000000 0.450843 0.250000
O O4 0.817438 0.430069 0.091606
O O5 0.812705 0.255360 0.729859
O O6 0.665815 0.226376 0.585512
O O7 0.000000 0.233421 0.750000
O O8 0.847154 0.014447 0.710187
O O9 0.361214 0.798016 0.977963
O O10 0.250000 0.750000 0.000000
O O11 0.512427 0.596946 0.095747
O O12 0.765713 0.391698 0.775551
O O13 0.361938 0.792494 0.894899
O O14 0.000000 0.500000 0.500000
#
# Coordination Sequence:
#
# PCOD8146737 Si02
#       6
#     8   8   8   8   8   8
#     4  12  24  42  68  95 129 172 216 261 326 389
#     4  10  22  42  63  89 130 167 208 266 326 372
#     4  11  23  42  66  94 130 174 213 264 330 379
#     4  11  25  42  63  95 134 164 210 269 324 383
#     4  11  21  41  66  93 122 164 222 263 305 388
#     4   9  21  37  64  93 121 163 216 264 310 378
#
# _framework density 20.826623000000001
#
# number of rings (size 3 to 8) (size 9 to 14) (size 15 to 20)
#    0.000    1.333    3.333    2.000    7.000    0.667 
#    3.000    0.833    0.000    0.000    0.000    0.000 
#    0.000    0.000    0.000    0.000    0.000    0.000 
#
# Total GULP energy -297536.704341 kJ/mol
# GULP energy per Si atom -12397.362681 kJ/mol
# Density = 2.077922 g / cm^3
# Si number density = 20.826623 Si / 1000 Ang^3
#
#
#
# Elastic Constant Matrix: (Units=GPa)
#
#
# Indices 1 2 3 4 5 6 
#
# 1 149.8303 15.4402 94.1764 0.0000 -6.4422 0.0000
# 2 15.4402 56.6180 32.5833 -0.0001 6.0420 0.0000
# 3 94.1764 32.5833 152.2639 -0.0001 2.8325 0.0001
# 4 0.0000 -0.0001 -0.0001 21.3986 0.0000 6.9551
# 5 -6.4422 6.0420 2.8325 0.0000 42.8455 0.0000
# 6 0.0000 0.0000 0.0001 6.9551 0.0000 35.0244
#
#
#
# Elastic Compliance Matrix: (Units=1/GPa)
#
#
# Indices 1 2 3 4 5 6 
#
# 1 0.011144 0.000836 -0.007109 0.000000 0.002028 0.000000
# 2 0.000836 0.020490 -0.004856 0.000000 -0.002443 0.000000
# 3 -0.007109 -0.004856 0.012026 0.000000 -0.001179 0.000000
# 4 0.000000 0.000000 0.000000 0.049956 0.000000 -0.009920
# 5 0.002028 -0.002443 -0.001179 0.000000 0.024067 0.000000
# 6 0.000000 0.000000 0.000000 -0.009920 0.000000 0.030521
#
#
# Mechanical properties :
#
#
# Convention : Reuss Voigt Hill
#
# Bulk Modulus (GPa) = 46.72835 71.45689 59.09262
# Shear Modulus (GPa) = 28.15381 34.28785 31.22083
#
# Velocity S-wave (km/s) = 3.68070 4.06192 3.87600
# Velocity P-wave (km/s) = 6.36780 7.50891 6.96178
#
# Compressibility (1/GPa) = 0.02140028
#
# Stress axis : x y z
#
# Youngs Moduli (GPa) = 89.73704 48.80508 83.15553
#
# Poissons Ratio (x) = -0.04079 0.59116
# Poissons Ratio (y) = -0.07501 0.40382
# Poissons Ratio (z) = 0.63794 0.23701
#
# Static dielectric constant tensor:
#      x y z
#    x 3.798650 0.000000 -0.198540 
#    y 0.000000 3.607180 0.000000 
#    z -0.198540 0.000000 4.567410 
# 
# 
# High freq. dielectric constant tensor:
#      x y z
#    x 1.822540 0.000000 -0.002110 
#    y 0.000000 1.793390 0.000000 
#    z -0.002110 0.000000 1.831950 
# 
# From -- ./inp_files/313645.got.cif
#   From: 2010.06.25/outbox.cif.g09.slc.cpg/sg15_157_cif.got.tgz:313645.got - 2010.06.28 07:06:18.
