data_PCOD8146951
_publ_section_title
;
Structure prediction by ZEFSAII (Michael W. Deem and Ramdas Pophale) SiO2 
 PCOD8146951
Probable space group: C 2/C
;
_chemical_formula_sum "Si O2"
_cell_formula_units_Z 56
_cell_length_a 25.640586
_cell_length_b 6.674836
_cell_length_c 23.166584
_cell_angle_alpha 90.000000
_cell_angle_beta 41.885410
_cell_angle_gamma 90.000000
_cell_volume 2647.127416
_symmetry_space_group_name_H-M "C 2/C"
_symmetry_group_IT_number 15
_symmetry_cell_setting 'monoclinic'
loop_
_space_group_symop_operation_xyz
x,y,z
-x,y,1/2-z
-x,-y,-z
x,-y,1/2+z
1/2+x,1/2+y,z
1/2-x,1/2+y,1/2-z
1/2-x,1/2-y,-z
1/2+x,1/2-y,1/2+z
loop_
_atom_site_type_symbol
_atom_site_label
_atom_site_fract_x
_atom_site_fract_y
_atom_site_fract_z
Si Si1 0.658462 0.216286 0.574582
Si Si2 0.927416 0.435824 0.637167
Si Si3 0.163469 0.043743 0.784782
Si Si4 0.966773 0.979189 0.339338
Si Si5 0.334141 0.803750 0.132245
Si Si6 0.089943 0.389084 0.543638
Si Si7 0.108361 0.252834 0.243429
O O1 0.750000 0.250000 0.500000
O O2 0.619713 0.426878 0.589768
O O3 0.630308 0.169125 0.662297
O O4 0.632976 0.039544 0.552075
O O5 0.907381 0.201167 0.659086
O O6 0.891393 0.522577 0.607971
O O7 0.886203 0.546150 0.724442
O O8 0.020106 0.485117 0.562978
O O9 0.245262 0.155199 0.723036
O O10 0.144858 0.908722 0.856312
O O11 0.167010 0.910635 0.723207
O O12 0.958598 0.779474 0.382545
O O13 0.000000 0.913733 0.250000
O O14 0.022779 0.152400 0.318301
O O15 0.345845 0.796719 0.053206
#
# Coordination Sequence:
#
# PCOD8146951 Si02
#       7
#     8   8   8   8   8   8   8
#     4  11  25  43  65  97 131 167 218 280 331 390
#     4  11  23  41  67  94 128 177 217 265 327 393
#     4  11  22  43  68  94 130 176 217 272 329 394
#     4  10  23  41  65  95 129 170 218 263 327 401
#     4  11  25  42  63  99 131 171 222 268 331 388
#     4  12  25  41  69  96 131 172 219 276 326 391
#     4  10  22  42  67  94 128 171 223 262 329 399
#
# _framework density 21.155007000000001
#
# number of rings (size 3 to 8) (size 9 to 14) (size 15 to 20)
#    0.000    1.143    4.286    1.286    2.000    3.429 
#    0.000    0.000    0.000    0.000    0.000    0.000 
#    0.000    0.000    0.000    0.000    0.000    0.000 
#
# Total GULP energy -347143.191944 kJ/mol
# GULP energy per Si atom -12397.971141 kJ/mol
# Density = 2.110686 g / cm^3
# Si number density = 21.155007 Si / 1000 Ang^3
#
#
#
# Elastic Constant Matrix: (Units=GPa)
#
#
# Indices 1 2 3 4 5 6 
#
# 1 106.8528 39.0915 49.7986 -0.0252 -5.0964 0.0370
# 2 39.0915 94.9385 51.4803 0.0164 7.5047 -0.0333
# 3 49.7986 51.4803 101.0110 0.0435 -2.1602 -0.0067
# 4 -0.0252 0.0164 0.0435 20.3907 0.0251 -5.7153
# 5 -5.0964 7.5047 -2.1602 0.0251 45.9271 -0.0192
# 6 0.0370 -0.0333 -0.0067 -5.7153 -0.0192 38.9425
#
#
#
# Elastic Compliance Matrix: (Units=1/GPa)
#
#
# Indices 1 2 3 4 5 6 
#
# 1 0.012686 -0.002736 -0.004825 0.000023 0.001628 -0.000011
# 2 -0.002736 0.015496 -0.006616 0.000006 -0.003147 0.000014
# 3 -0.004825 -0.006616 0.015678 -0.000037 0.001283 -0.000003
# 4 0.000023 0.000006 -0.000037 0.051146 -0.000025 0.007506
# 5 0.001628 -0.003147 0.001283 -0.000025 0.022529 0.000003
# 6 -0.000011 0.000014 -0.000003 0.007506 0.000003 0.026781
#
#
# Mechanical properties :
#
#
# Convention : Reuss Voigt Hill
#
# Bulk Modulus (GPa) = 64.49115 64.83811 64.66463
# Shear Modulus (GPa) = 28.11550 31.88085 29.99818
#
# Velocity S-wave (km/s) = 3.64953 3.88624 3.76974
# Velocity P-wave (km/s) = 6.95054 7.13111 7.04140
#
# Compressibility (1/GPa) = 0.01550600
#
# Stress axis : x y z
#
# Youngs Moduli (GPa) = 78.82762 64.53307 63.78361
#
# Poissons Ratio (x) = 0.17655 0.30776
# Poissons Ratio (y) = 0.21566 0.42200
# Poissons Ratio (z) = 0.38035 0.42695
#
# Static dielectric constant tensor:
#      x y z
#    x 3.796180 -0.002310 0.728700 
#    y -0.002310 3.708550 0.005500 
#    z 0.728700 0.005500 1.754650 
# 
# 
# High freq. dielectric constant tensor:
#      x y z
#    x 1.847090 -0.000010 -0.002050 
#    y -0.000010 1.826910 0.000010 
#    z -0.002050 0.000010 1.819060 
# 
# From -- ./inp_files/302913.got.cif
#   From: 2010.06.25/outbox.cif.g09.slc.cpg/sg15_152_cif.got.tgz:302913.got - 2010.06.28 07:06:18.
