data_PCOD8146356
_publ_section_title
;
Structure prediction by ZEFSAII (Michael W. Deem and Ramdas Pophale) SiO2 
 PCOD8146356
Probable space group: C 2/C
;
_chemical_formula_sum "Si O2"
_cell_formula_units_Z 40
_cell_length_a 7.741701
_cell_length_b 17.016104
_cell_length_c 17.370034
_cell_angle_alpha 90.000000
_cell_angle_beta 56.697281
_cell_angle_gamma 90.000000
_cell_volume 1912.448931
_symmetry_space_group_name_H-M "C 2/C"
_symmetry_group_IT_number 15
_symmetry_cell_setting 'monoclinic'
loop_
_space_group_symop_operation_xyz
x,y,z
-x,y,1/2-z
-x,-y,-z
x,-y,1/2+z
1/2+x,1/2+y,z
1/2-x,1/2+y,1/2-z
1/2-x,1/2-y,-z
1/2+x,1/2-y,1/2+z
loop_
_atom_site_type_symbol
_atom_site_label
_atom_site_fract_x
_atom_site_fract_y
_atom_site_fract_z
Si Si1 0.346275 0.559433 0.079687
Si Si2 0.783009 0.408931 0.332803
Si Si3 0.568005 0.155345 0.034606
Si Si4 0.546582 0.703613 0.650745
Si Si5 0.215870 0.157110 0.014440
O O1 0.232809 0.504578 0.170727
O O2 0.180355 0.591299 0.059409
O O3 0.500000 0.500000 0.000000
O O4 0.474183 0.632053 0.087182
O O5 0.595705 0.371437 0.331256
O O6 0.783172 0.383658 0.420415
O O7 0.000000 0.377912 0.250000
O O8 0.488111 0.226699 0.107101
O O9 0.715122 0.182679 0.927374
O O10 0.359164 0.121477 0.047274
O O11 0.500000 0.729669 0.750000
O O12 0.250000 0.250000 0.000000
#
# Coordination Sequence:
#
# PCOD8146356 Si02
#       5
#     8   8   8   8   8
#     4  10  22  41  63  93 131 164 212 261 323 392
#     4  11  23  42  62  95 134 168 212 272 323 385
#     4  11  21  41  71  94 125 177 212 268 332 375
#     4  11  22  40  65  98 130 168 220 265 321 390
#     4  11  20  40  71  95 122 171 221 261 320 392
#
# _framework density 20.915589000000001
#
# number of rings (size 3 to 8) (size 9 to 14) (size 15 to 20)
#    0.000    1.200    6.000    2.400    0.000    4.000 
#    3.600    0.000    0.000    0.000    0.000    0.000 
#    0.000    0.000    0.000    0.000    0.000    0.000 
#
# Total GULP energy -247842.631054 kJ/mol
# GULP energy per Si atom -12392.131553 kJ/mol
# Density = 2.086798 g / cm^3
# Si number density = 20.915589 Si / 1000 Ang^3
#
#
#
# Elastic Constant Matrix: (Units=GPa)
#
#
# Indices 1 2 3 4 5 6 
#
# 1 152.4813 41.6358 28.5613 0.0000 12.6990 0.0000
# 2 41.6358 107.1948 17.8625 0.0000 -3.5867 0.0000
# 3 28.5613 17.8625 101.6526 0.0000 0.9045 0.0000
# 4 0.0000 0.0000 0.0000 20.3803 0.0000 4.4309
# 5 12.6990 -3.5867 0.9045 0.0000 18.1577 0.0000
# 6 0.0000 0.0000 0.0000 4.4309 0.0000 36.7747
#
#
#
# Elastic Compliance Matrix: (Units=1/GPa)
#
#
# Indices 1 2 3 4 5 6 
#
# 1 0.008261 -0.003134 -0.001714 0.000000 -0.006311 0.000000
# 2 -0.003134 0.010871 -0.001069 0.000000 0.004392 0.000000
# 3 -0.001714 -0.001069 0.010503 0.000000 0.000465 0.000000
# 4 0.000000 0.000000 0.000000 0.050387 0.000000 -0.006071
# 5 -0.006311 0.004392 0.000465 0.000000 0.060331 0.000000
# 6 0.000000 0.000000 0.000000 -0.006071 0.000000 0.027924
#
#
# Mechanical properties :
#
#
# Convention : Reuss Voigt Hill
#
# Bulk Modulus (GPa) = 56.17795 59.71643 57.94719
# Shear Modulus (GPa) = 26.87529 33.28046 30.07787
#
# Velocity S-wave (km/s) = 3.58850 3.99329 3.79629
# Velocity P-wave (km/s) = 6.63984 7.06222 6.85428
#
# Compressibility (1/GPa) = 0.01780058
#
# Stress axis : x y z
#
# Youngs Moduli (GPa) = 121.05648 91.98625 95.21344
#
# Poissons Ratio (x) = 0.28829 0.16321
# Poissons Ratio (y) = 0.37940 0.10176
# Poissons Ratio (z) = 0.20750 0.09832
#
# Static dielectric constant tensor:
#      x y z
#    x 4.498650 0.000000 -0.729090 
#    y 0.000000 5.081080 0.000000 
#    z -0.729090 0.000000 4.371670 
# 
# 
# High freq. dielectric constant tensor:
#      x y z
#    x 1.830610 0.000000 -0.005300 
#    y 0.000000 1.821940 0.000000 
#    z -0.005300 0.000000 1.794350 
# 
# From -- ./inp_files/188697.got.cif
#   From: 2010.06.25/outbox.cif.g09.slc.cpg/sg15_95_cif.got.tgz:188697.got - 2010.06.28 07:06:18.
