data_PCOD8146950
_publ_section_title
;
Structure prediction by ZEFSAII (Michael W. Deem and Ramdas Pophale) SiO2 
 PCOD8146950
Probable space group: C 2/C
;
_chemical_formula_sum "Si O2"
_cell_formula_units_Z 40
_cell_length_a 14.329437
_cell_length_b 27.760228
_cell_length_c 7.833834
_cell_angle_alpha 90.000000
_cell_angle_beta 140.639234
_cell_angle_gamma 90.000000
_cell_volume 1976.303308
_symmetry_space_group_name_H-M "C 2/C"
_symmetry_group_IT_number 15
_symmetry_cell_setting 'monoclinic'
loop_
_space_group_symop_operation_xyz
x,y,z
-x,y,1/2-z
-x,-y,-z
x,-y,1/2+z
1/2+x,1/2+y,z
1/2-x,1/2+y,1/2-z
1/2-x,1/2-y,-z
1/2+x,1/2-y,1/2+z
loop_
_atom_site_type_symbol
_atom_site_label
_atom_site_fract_x
_atom_site_fract_y
_atom_site_fract_z
Si Si1 0.813909 0.057319 0.742839
Si Si2 0.587560 0.254359 0.206426
Si Si3 0.455277 0.843601 0.379995
Si Si4 0.634766 0.344256 0.049010
Si Si5 0.000000 0.583353 0.250000
Si Si6 0.000000 0.997250 0.750000
O O1 0.828612 0.115359 0.757881
O O2 0.642270 0.047824 0.455843
O O3 0.931831 0.033520 0.788059
O O4 0.861924 0.035607 0.994073
O O5 0.500000 0.269070 0.250000
O O6 0.750000 0.250000 0.500000
O O7 0.576186 0.295653 0.050272
O O8 0.534104 0.205470 0.044364
O O9 0.500000 0.858374 0.250000
O O10 0.279429 0.835303 0.138112
O O11 0.504868 0.884583 0.584288
O O12 0.500000 0.365054 0.750000
#
# Coordination Sequence:
#
# PCOD8146950 Si02
#       6
#     8   8   8   8   4   4
#     4  10  22  43  65  94 129 161 212 265 326 388
#     4  12  23  40  61  90 130 172 218 267 314 370
#     4  11  24  43  64  93 134 175 216 267 315 372
#     4  11  24  40  61  93 126 167 220 261 313 388
#     4  10  22  46  65  98 132 168 215 264 312 394
#     4  10  22  42  67  94 126 164 203 272 332 386
#
# _framework density 20.239808
#
# number of rings (size 3 to 8) (size 9 to 14) (size 15 to 20)
#    0.000    1.200    4.000    1.800    4.200    4.000 
#    3.600    0.000    0.000    0.000    0.000    0.000 
#    0.000    0.000    0.000    0.000    0.000    0.000 
#
# Total GULP energy -247929.815931 kJ/mol
# GULP energy per Si atom -12396.490797 kJ/mol
# Density = 2.019374 g / cm^3
# Si number density = 20.239808 Si / 1000 Ang^3
#
#
#
# Elastic Constant Matrix: (Units=GPa)
#
#
# Indices 1 2 3 4 5 6 
#
# 1 129.9925 33.0198 52.8472 0.0000 2.7118 0.0000
# 2 33.0198 72.4942 27.9098 0.0000 10.5923 0.0000
# 3 52.8472 27.9098 146.0501 0.0000 27.2765 0.0000
# 4 0.0000 0.0000 0.0000 24.1229 0.0000 9.3716
# 5 2.7118 10.5923 27.2765 0.0000 40.7745 0.0000
# 6 0.0000 0.0000 0.0000 9.3716 0.0000 20.8376
#
#
#
# Elastic Compliance Matrix: (Units=1/GPa)
#
#
# Indices 1 2 3 4 5 6 
#
# 1 0.009925 -0.003590 -0.003378 0.000000 0.002532 0.000000
# 2 -0.003590 0.016370 -0.001234 0.000000 -0.003189 0.000000
# 3 -0.003378 -0.001234 0.009375 0.000000 -0.005726 0.000000
# 4 0.000000 0.000000 0.000000 0.050231 0.000000 -0.022591
# 5 0.002532 -0.003189 -0.005726 0.000000 0.029015 0.000000
# 6 0.000000 0.000000 0.000000 -0.022591 0.000000 0.058151
#
#
# Mechanical properties :
#
#
# Convention : Reuss Voigt Hill
#
# Bulk Modulus (GPa) = 51.90571 64.01006 57.95789
# Shear Modulus (GPa) = 25.52408 32.79765 29.16086
#
# Velocity S-wave (km/s) = 3.55503 4.02985 3.79986
# Velocity P-wave (km/s) = 6.52319 7.30393 6.92457
#
# Compressibility (1/GPa) = 0.01926570
#
# Stress axis : x y z
#
# Youngs Moduli (GPa) = 100.75275 61.08600 106.67197
#
# Poissons Ratio (x) = 0.21931 0.36037
# Poissons Ratio (y) = 0.36172 0.13161
# Poissons Ratio (z) = 0.34037 0.07537
#
# Static dielectric constant tensor:
#      x y z
#    x 3.656830 0.000000 0.013790 
#    y 0.000000 3.262070 0.000000 
#    z 0.013790 0.000000 4.101740 
# 
# 
# High freq. dielectric constant tensor:
#      x y z
#    x 1.786030 0.000000 0.008250 
#    y 0.000000 1.787150 0.000000 
#    z 0.008250 0.000000 1.811770 
# 
# From -- ./inp_files/42463.got.cif
#   From: 2010.06.25/outbox.cif.g09.slc.cpg/sg15_22_cif.got.tgz:42463.got - 2010.06.28 07:06:18.
