data_PCOD8146407
_publ_section_title
;
Structure prediction by ZEFSAII (Michael W. Deem and Ramdas Pophale) SiO2 
 PCOD8146407
Probable space group: C 2/C
;
_chemical_formula_sum "Si O2"
_cell_formula_units_Z 56
_cell_length_a 34.783259
_cell_length_b 13.960222
_cell_length_c 13.627465
_cell_angle_alpha 90.000000
_cell_angle_beta 24.102909
_cell_angle_gamma 90.000000
_cell_volume 2702.332215
_symmetry_space_group_name_H-M "C 2/C"
_symmetry_group_IT_number 15
_symmetry_cell_setting 'monoclinic'
loop_
_space_group_symop_operation_xyz
x,y,z
-x,y,1/2-z
-x,-y,-z
x,-y,1/2+z
1/2+x,1/2+y,z
1/2-x,1/2+y,1/2-z
1/2-x,1/2-y,-z
1/2+x,1/2-y,1/2+z
loop_
_atom_site_type_symbol
_atom_site_label
_atom_site_fract_x
_atom_site_fract_y
_atom_site_fract_z
Si Si1 0.083140 0.990518 0.981954
Si Si2 0.293073 0.001144 0.543032
Si Si3 0.840725 0.364216 0.262884
Si Si4 0.394432 0.971755 0.510181
Si Si5 0.628545 0.666416 0.225920
Si Si6 0.014582 0.194330 0.103133
Si Si7 0.330390 0.170579 0.316784
O O1 0.078813 0.919639 0.899752
O O2 0.181209 0.985303 0.812091
O O3 0.000000 0.964138 0.250000
O O4 0.074084 0.096959 0.960516
O O5 0.318267 0.105993 0.441646
O O6 0.335525 0.916505 0.379150
O O7 0.340442 0.989883 0.536505
O O8 0.905359 0.426660 0.040293
O O9 0.738008 0.354478 0.452966
O O10 0.886622 0.260779 0.172255
O O11 0.329544 0.898534 0.723517
O O12 0.500000 0.930765 0.250000
O O13 0.584718 0.678135 0.219734
O O14 0.000000 0.226123 0.250000
O O15 0.069565 0.275489 0.914221
O O16 0.250000 0.250000 0.500000
#
# Coordination Sequence:
#
# PCOD8146407 Si02
#       7
#     8   8   8   8   8   8   8
#     4  10  22  41  64  98 125 168 212 263 330 382
#     4  10  23  45  65  91 133 165 213 272 318 385
#     4   9  23  42  66  91 127 176 213 257 333 373
#     4  11  26  42  67  95 131 173 221 266 324 382
#     4  10  22  42  64  93 131 169 213 269 317 395
#     4  11  24  38  68  96 129 165 217 264 327 380
#     4  11  24  44  65  97 127 168 217 261 330 386
#
# _framework density 20.722840999999999
#
# number of rings (size 3 to 8) (size 9 to 14) (size 15 to 20)
#    0.000    1.714    1.429    0.857   10.000    2.857 
#    5.143    0.000    0.000    0.000    0.000    0.000 
#    0.000    0.000    0.000    0.000    0.000    0.000 
#
# Total GULP energy -347263.063441 kJ/mol
# GULP energy per Si atom -12402.252266 kJ/mol
# Density = 2.067567 g / cm^3
# Si number density = 20.722841 Si / 1000 Ang^3
#
#
#
# Elastic Constant Matrix: (Units=GPa)
#
#
# Indices 1 2 3 4 5 6 
#
# 1 134.8391 29.9221 46.5904 0.0000 7.2155 0.0000
# 2 29.9221 94.9764 29.7913 0.0000 4.6849 0.0000
# 3 46.5904 29.7913 88.8856 0.0000 6.8943 0.0000
# 4 0.0000 0.0000 0.0000 34.9965 0.0000 -3.7498
# 5 7.2155 4.6849 6.8943 0.0000 15.1088 0.0000
# 6 0.0000 0.0000 0.0000 -3.7498 0.0000 12.3911
#
#
#
# Elastic Compliance Matrix: (Units=1/GPa)
#
#
# Indices 1 2 3 4 5 6 
#
# 1 0.009319 -0.001511 -0.004219 0.000000 -0.002057 0.000000
# 2 -0.001511 0.012065 -0.003128 0.000000 -0.001592 0.000000
# 3 -0.004219 -0.003128 0.014803 0.000000 -0.003770 0.000000
# 4 0.000000 0.000000 0.000000 0.029532 0.000000 0.008937
# 5 -0.002057 -0.001592 -0.003770 0.000000 0.069383 0.000000
# 6 0.000000 0.000000 0.000000 0.008937 0.000000 0.083407
#
#
# Mechanical properties :
#
#
# Convention : Reuss Voigt Hill
#
# Bulk Modulus (GPa) = 54.14048 59.03429 56.58739
# Shear Modulus (GPa) = 20.62863 26.65911 23.64387
#
# Velocity S-wave (km/s) = 3.15850 3.59062 3.38147
# Velocity P-wave (km/s) = 6.28365 6.76309 6.52777
#
# Compressibility (1/GPa) = 0.01847047
#
# Stress axis : x y z
#
# Youngs Moduli (GPa) = 107.30326 82.88600 67.55583
#
# Poissons Ratio (x) = 0.12526 0.28500
# Poissons Ratio (y) = 0.16216 0.21132
# Poissons Ratio (z) = 0.45269 0.25927
#
# Static dielectric constant tensor:
#      x y z
#    x 3.534380 0.000000 -0.038260 
#    y 0.000000 4.067100 0.000000 
#    z -0.038260 0.000000 3.754040 
# 
# 
# High freq. dielectric constant tensor:
#      x y z
#    x 1.803170 0.000000 -0.003890 
#    y 0.000000 1.830830 0.000000 
#    z -0.003890 0.000000 1.806890 
# 
# From -- ./inp_files/126961.got.cif
#   From: 2010.06.25/outbox.cif.g09.slc.cpg/sg15_64_cif.got.tgz:126961.got - 2010.06.28 07:06:18.
