data_PCOD8146534
_publ_section_title
;
Structure prediction by ZEFSAII (Michael W. Deem and Ramdas Pophale) SiO2 
 PCOD8146534
Probable space group: C 2/C
;
_chemical_formula_sum "Si O2"
_cell_formula_units_Z 40
_cell_length_a 8.426530
_cell_length_b 24.062334
_cell_length_c 17.153983
_cell_angle_alpha 90.000000
_cell_angle_beta 147.290999
_cell_angle_gamma 90.000000
_cell_volume 1879.510460
_symmetry_space_group_name_H-M "C 2/C"
_symmetry_group_IT_number 15
_symmetry_cell_setting 'monoclinic'
loop_
_space_group_symop_operation_xyz
x,y,z
-x,y,1/2-z
-x,-y,-z
x,-y,1/2+z
1/2+x,1/2+y,z
1/2-x,1/2+y,1/2-z
1/2-x,1/2-y,-z
1/2+x,1/2-y,1/2+z
loop_
_atom_site_type_symbol
_atom_site_label
_atom_site_fract_x
_atom_site_fract_y
_atom_site_fract_z
Si Si1 0.313861 0.414364 0.978263
Si Si2 0.643887 0.395627 0.679721
Si Si3 0.827604 0.003595 0.107363
Si Si4 0.886533 0.816154 0.121103
Si Si5 0.226668 0.282565 0.686813
O O1 0.447090 0.404795 0.947888
O O2 0.964959 0.418894 0.829402
O O3 0.409399 0.471186 0.061064
O O4 0.436624 0.362583 0.077174
O O5 0.412310 0.431486 0.633414
O O6 0.638410 0.331442 0.703263
O O7 0.000000 0.975609 0.250000
O O8 0.500000 0.000000 0.000000
O O9 0.000000 0.839799 0.250000
O O10 0.091496 0.763256 0.188017
O O11 0.538308 0.801896 0.979712
O O12 0.500000 0.258746 0.750000
#
# Coordination Sequence:
#
# PCOD8146534 Si02
#       5
#     8   8   8   8   8
#     4  10  22  42  65  95 134 168 215 266 322 385
#     4  10  22  41  67  95 131 177 209 260 333 389
#     4  12  23  41  68  98 129 170 219 264 322 389
#     4  10  23  42  66  98 129 169 222 275 317 379
#     4  10  23  41  69  93 130 176 219 262 330 393
#
# _framework density 21.282138
#
# number of rings (size 3 to 8) (size 9 to 14) (size 15 to 20)
#    0.000    1.600    2.000    1.800   11.200    0.800 
#    0.000    0.000    0.000    0.000    0.000    0.000 
#    0.000    0.000    0.000    0.000    0.000    0.000 
#
# Total GULP energy -247939.149718 kJ/mol
# GULP energy per Si atom -12396.957486 kJ/mol
# Density = 2.123370 g / cm^3
# Si number density = 21.282138 Si / 1000 Ang^3
#
#
#
# Elastic Constant Matrix: (Units=GPa)
#
#
# Indices 1 2 3 4 5 6 
#
# 1 109.2860 36.8369 61.4341 0.0015 -5.0928 -0.0010
# 2 36.8369 120.4208 40.5663 -0.0037 -4.5236 -0.0078
# 3 61.4341 40.5663 109.2889 0.0698 -21.9172 0.0373
# 4 0.0015 -0.0037 0.0698 35.6580 0.0128 -0.2447
# 5 -5.0928 -4.5236 -21.9172 0.0128 49.0739 0.0073
# 6 -0.0010 -0.0078 0.0373 -0.2447 0.0073 28.4443
#
#
#
# Elastic Compliance Matrix: (Units=1/GPa)
#
#
# Indices 1 2 3 4 5 6 
#
# 1 0.013916 -0.001781 -0.007584 0.000015 -0.002107 0.000011
# 2 -0.001781 0.009745 -0.002716 0.000007 -0.000500 0.000006
# 3 -0.007584 -0.002716 0.015612 -0.000033 0.005935 -0.000023
# 4 0.000015 0.000007 -0.000033 0.028046 -0.000020 0.000241
# 5 -0.002107 -0.000500 0.005935 -0.000020 0.022763 -0.000014
# 6 0.000011 0.000006 -0.000023 0.000241 -0.000014 0.035159
#
#
# Mechanical properties :
#
#
# Convention : Reuss Voigt Hill
#
# Bulk Modulus (GPa) = 66.18094 68.51892 67.34993
# Shear Modulus (GPa) = 32.37512 35.97913 34.17712
#
# Velocity S-wave (km/s) = 3.90453 4.11613 4.01172
# Velocity P-wave (km/s) = 7.17577 7.40644 7.29202
#
# Compressibility (1/GPa) = 0.01511009
#
# Stress axis : x y z
#
# Youngs Moduli (GPa) = 71.86155 102.61307 64.05500
#
# Poissons Ratio (x) = 0.18278 0.48578
# Poissons Ratio (y) = 0.12800 0.17399
# Poissons Ratio (z) = 0.54498 0.27872
#
# Static dielectric constant tensor:
#      x y z
#    x 3.793160 0.000030 -0.266630 
#    y 0.000030 3.875650 -0.000060 
#    z -0.266630 -0.000060 3.978450 
# 
# 
# High freq. dielectric constant tensor:
#      x y z
#    x 1.831080 0.000000 -0.014350 
#    y 0.000000 1.833080 0.000000 
#    z -0.014350 0.000000 1.836850 
# 
# From -- ./inp_files/23482.got.cif
#   From: 2010.06.25/outbox.cif.g09.slc.cpg/sg15_12_cif.got.tgz:23482.got - 2010.06.28 07:06:18.
