data_PCOD8146172
_publ_section_title
;
Structure prediction by ZEFSAII (Michael W. Deem and Ramdas Pophale) SiO2 
 PCOD8146172
Probable space group: C 2/C
;
_chemical_formula_sum "Si O2"
_cell_formula_units_Z 56
_cell_length_a 24.819579
_cell_length_b 6.365812
_cell_length_c 19.241426
_cell_angle_alpha 90.000000
_cell_angle_beta 108.075407
_cell_angle_gamma 90.000000
_cell_volume 2890.052070
_symmetry_space_group_name_H-M "C 2/C"
_symmetry_group_IT_number 15
_symmetry_cell_setting 'monoclinic'
loop_
_space_group_symop_operation_xyz
x,y,z
-x,y,1/2-z
-x,-y,-z
x,-y,1/2+z
1/2+x,1/2+y,z
1/2-x,1/2+y,1/2-z
1/2-x,1/2-y,-z
1/2+x,1/2-y,1/2+z
loop_
_atom_site_type_symbol
_atom_site_label
_atom_site_fract_x
_atom_site_fract_y
_atom_site_fract_z
Si Si1 0.333722 0.449556 0.270149
Si Si2 0.826814 0.780968 0.639463
Si Si3 0.766662 0.395068 0.681811
Si Si4 0.923992 0.072075 0.927793
Si Si5 0.031287 0.689658 0.476396
Si Si6 0.381281 0.118397 0.531015
Si Si7 0.765311 0.596312 0.944814
O O1 0.354578 0.612541 0.219127
O O2 0.272171 0.524229 0.271421
O O3 0.322970 0.218727 0.234149
O O4 0.378682 0.429402 0.348860
O O5 0.788382 0.582071 0.642489
O O6 0.876577 0.718086 0.605877
O O7 0.787194 0.941222 0.583011
O O8 0.727964 0.234301 0.622099
O O9 0.983064 0.166622 0.920471
O O10 0.903554 0.208337 0.985544
O O11 0.934229 0.832497 0.954896
O O12 0.076614 0.581736 0.443011
O O13 0.000000 0.500000 0.500000
O O14 0.321386 0.036582 0.479678
O O15 0.750000 0.750000 0.000000
#
# Coordination Sequence:
#
# PCOD8146172 Si02
#       7
#     8   8   8   8   8   8   8
#     4  11  23  37  60  86 128 170 199 245 311 377
#     4  11  24  37  54  91 130 163 209 249 307 380
#     4  11  22  37  54  86 129 168 206 243 299 385
#     4  10  22  40  68  91 121 157 212 265 313 368
#     4   9  21  41  65  95 112 152 212 266 310 364
#     4  11  22  36  64  90 124 159 206 266 313 355
#     4  11  23  35  58  92 124 163 206 249 313 372
#
# _framework density 19.376812000000001
#
# number of rings (size 3 to 8) (size 9 to 14) (size 15 to 20)
#    0.000    1.429    2.857    2.143    6.000    2.286 
#    0.000    0.000    0.000   20.571    0.000    0.000 
#    0.000    0.000    0.000    0.000    0.000    0.000 
#
# Total GULP energy -347156.429104 kJ/mol
# GULP energy per Si atom -12398.443897 kJ/mol
# Density = 1.933271 g / cm^3
# Si number density = 19.376812 Si / 1000 Ang^3
#
#
#
# Elastic Constant Matrix: (Units=GPa)
#
#
# Indices 1 2 3 4 5 6 
#
# 1 82.0158 37.8093 50.5224 0.0000 -9.0532 0.0000
# 2 37.8093 117.0620 51.3130 0.0000 -6.6584 0.0000
# 3 50.5224 51.3130 109.1267 0.0000 -5.9946 0.0000
# 4 0.0000 0.0000 0.0000 29.0782 0.0000 -7.2840
# 5 -9.0532 -6.6584 -5.9946 0.0000 26.6565 0.0000
# 6 0.0000 0.0000 0.0000 -7.2840 0.0000 38.1128
#
#
#
# Elastic Compliance Matrix: (Units=1/GPa)
#
#
# Indices 1 2 3 4 5 6 
#
# 1 0.018096 -0.002574 -0.006951 0.000000 0.003940 0.000000
# 2 -0.002574 0.011192 -0.004015 0.000000 0.001019 0.000000
# 3 -0.006951 -0.004015 0.014261 0.000000 -0.000157 0.000000
# 4 0.000000 0.000000 0.000000 0.036119 0.000000 0.006903
# 5 0.003940 0.001019 -0.000157 0.000000 0.039072 0.000000
# 6 0.000000 0.000000 0.000000 0.006903 0.000000 0.027557
#
#
# Mechanical properties :
#
#
# Convention : Reuss Voigt Hill
#
# Bulk Modulus (GPa) = 60.72015 65.27712 62.99863
# Shear Modulus (GPa) = 27.95374 30.00681 28.98027
#
# Velocity S-wave (km/s) = 3.80233 3.93949 3.87152
# Velocity P-wave (km/s) = 7.11909 7.37930 7.25037
#
# Compressibility (1/GPa) = 0.01646900
#
# Stress axis : x y z
#
# Youngs Moduli (GPa) = 55.26000 89.35280 70.11989
#
# Poissons Ratio (x) = 0.22996 0.48744
# Poissons Ratio (y) = 0.14222 0.28153
# Poissons Ratio (z) = 0.38414 0.35875
#
# Static dielectric constant tensor:
#      x y z
#    x 3.245840 0.000000 -0.247630 
#    y 0.000000 4.004760 0.000000 
#    z -0.247630 0.000000 3.395720 
# 
# 
# High freq. dielectric constant tensor:
#      x y z
#    x 1.742530 0.000000 -0.003600 
#    y 0.000000 1.782630 0.000000 
#    z -0.003600 0.000000 1.739730 
# 
# From -- ./inp_files/221283.got.cif
#   From: 2010.06.25/outbox.cif.g09.slc.cpg/sg15_111_cif.got.tgz:221283.got - 2010.06.28 07:06:18.
