data_PCOD8146615
_publ_section_title
;
Structure prediction by ZEFSAII (Michael W. Deem and Ramdas Pophale) SiO2 
 PCOD8146615
Probable space group: C 2/C
;
_chemical_formula_sum "Si O2"
_cell_formula_units_Z 36
_cell_length_a 18.346030
_cell_length_b 5.256609
_cell_length_c 19.225055
_cell_angle_alpha 90.000000
_cell_angle_beta 123.614741
_cell_angle_gamma 90.000000
_cell_volume 1543.991996
_symmetry_space_group_name_H-M "C 2/C"
_symmetry_group_IT_number 15
_symmetry_cell_setting 'monoclinic'
loop_
_space_group_symop_operation_xyz
x,y,z
-x,y,1/2-z
-x,-y,-z
x,-y,1/2+z
1/2+x,1/2+y,z
1/2-x,1/2+y,1/2-z
1/2-x,1/2-y,-z
1/2+x,1/2-y,1/2+z
loop_
_atom_site_type_symbol
_atom_site_label
_atom_site_fract_x
_atom_site_fract_y
_atom_site_fract_z
Si Si1 0.004926 0.981249 0.113841
Si Si2 0.377609 0.137246 0.113455
Si Si3 0.272061 0.955980 0.429774
Si Si4 0.000000 0.288493 0.250000
Si Si5 0.638073 0.437351 0.069043
O O1 0.022466 0.127981 0.194057
O O2 0.961031 0.712006 0.110301
O O3 0.937816 0.130354 0.027218
O O4 0.096747 0.933053 0.124169
O O5 0.332043 0.391407 0.122760
O O6 0.412319 0.955447 0.192234
O O7 0.304773 0.999347 0.026797
O O8 0.320295 0.712750 0.421512
O O9 0.289338 0.213039 0.395601
#
# Coordination Sequence:
#
# PCOD8146615 Si02
#       5
#     8   8   8   4   8
#     4  10  23  38  67  96 131 174 224 275 337 404
#     4  10  23  38  67  96 131 174 224 275 337 404
#     4  10  22  41  69  99 128 170 231 279 323 395
#     4  12  22  40  64  98 136 184 216 288 342 420
#     4  10  22  41  69  99 128 170 231 279 323 395
#
# _framework density 23.316184
#
# number of rings (size 3 to 8) (size 9 to 14) (size 15 to 20)
#    0.000    1.778    2.222    0.667    6.222    5.333 
#    0.000    0.000    9.778    0.000    0.000    0.000 
#    0.000    0.000    0.000    0.000    0.000    0.000 
#
# Total GULP energy -223198.656472 kJ/mol
# GULP energy per Si atom -12399.925360 kJ/mol
# Density = 2.326312 g / cm^3
# Si number density = 23.316184 Si / 1000 Ang^3
#
#
#
# Elastic Constant Matrix: (Units=GPa)
#
#
# Indices 1 2 3 4 5 6 
#
# 1 84.1991 9.9062 32.3296 -0.0005 -27.0960 -0.0015
# 2 9.9062 87.8131 32.9536 -0.0017 -9.0869 -0.0004
# 3 32.3296 32.9536 107.9720 -0.0002 -21.3571 -0.0003
# 4 -0.0005 -0.0017 -0.0002 25.6367 0.0000 4.7880
# 5 -27.0960 -9.0869 -21.3571 0.0000 30.6411 0.0000
# 6 -0.0015 -0.0004 -0.0003 4.7880 0.0000 41.0316
#
#
#
# Elastic Compliance Matrix: (Units=1/GPa)
#
#
# Indices 1 2 3 4 5 6 
#
# 1 0.017169 0.000437 -0.002605 0.000000 0.013497 0.000001
# 2 0.000437 0.012913 -0.003756 0.000001 0.001598 0.000000
# 3 -0.002605 -0.003756 0.012193 0.000000 0.005082 0.000000
# 4 0.000000 0.000001 0.000000 0.039876 0.000000 -0.004653
# 5 0.013497 0.001598 0.005082 0.000000 0.048587 0.000000
# 6 0.000001 0.000000 0.000000 -0.004653 0.000000 0.024914
#
#
# Mechanical properties :
#
#
# Convention : Reuss Voigt Hill
#
# Bulk Modulus (GPa) = 32.86407 47.81812 40.34110
# Shear Modulus (GPa) = 28.14663 33.11487 30.63075
#
# Velocity S-wave (km/s) = 3.47821 3.77271 3.62845
# Velocity P-wave (km/s) = 5.50056 6.28736 5.90707
#
# Compressibility (1/GPa) = 0.03042836
#
# Stress axis : x y z
#
# Youngs Moduli (GPa) = 58.24612 77.43889 82.01414
#
# Poissons Ratio (x) = -0.03386 0.21361
# Poissons Ratio (y) = -0.02547 0.30805
# Poissons Ratio (z) = 0.15170 0.29086
#
# Static dielectric constant tensor:
#      x y z
#    x 4.395730 0.000000 -0.037060 
#    y 0.000000 4.010940 0.000000 
#    z -0.037060 0.000000 4.019970 
# 
# 
# High freq. dielectric constant tensor:
#      x y z
#    x 1.926190 0.000000 -0.003200 
#    y 0.000000 1.920030 0.000000 
#    z -0.003200 0.000000 1.892590 
# 
# From -- ./inp_files/184146.got.cif
#   From: 2010.06.25/outbox.cif.g09.slc.cpg/sg15_93_cif.got.tgz:184146.got - 2010.06.28 07:06:18.
