data_PCOD8146812
_publ_section_title
;
Structure prediction by ZEFSAII (Michael W. Deem and Ramdas Pophale) SiO2 
 PCOD8146812
Probable space group: C 2/C
;
_chemical_formula_sum "Si O2"
_cell_formula_units_Z 52
_cell_length_a 18.955413
_cell_length_b 11.373185
_cell_length_c 21.073993
_cell_angle_alpha 90.000000
_cell_angle_beta 150.943566
_cell_angle_gamma 90.000000
_cell_volume 2206.501484
_symmetry_space_group_name_H-M "C 2/C"
_symmetry_group_IT_number 15
_symmetry_cell_setting 'monoclinic'
loop_
_space_group_symop_operation_xyz
x,y,z
-x,y,1/2-z
-x,-y,-z
x,-y,1/2+z
1/2+x,1/2+y,z
1/2-x,1/2+y,1/2-z
1/2-x,1/2-y,-z
1/2+x,1/2-y,1/2+z
loop_
_atom_site_type_symbol
_atom_site_label
_atom_site_fract_x
_atom_site_fract_y
_atom_site_fract_z
Si Si1 0.661530 0.060985 0.455685
Si Si2 0.725943 0.807498 0.338771
Si Si3 0.800108 0.952223 0.684315
Si Si4 0.500000 0.111363 0.750000
Si Si5 0.492431 0.246874 0.084015
Si Si6 0.697450 0.839166 0.176343
Si Si7 0.394915 0.495482 0.035682
O O1 0.581315 0.184037 0.411872
O O2 0.760991 0.024927 0.591689
O O3 0.537094 0.967411 0.340946
O O4 0.764097 0.059880 0.474527
O O5 0.781502 0.673176 0.379055
O O6 0.625934 0.805696 0.322966
O O7 0.646460 0.834688 0.209456
O O8 0.848544 0.905244 0.448197
O O9 0.976000 0.942970 0.822653
O O10 0.745971 0.026580 0.702145
O O11 0.668356 0.246358 0.229008
O O12 0.452483 0.382771 0.044204
O O13 0.439047 0.188290 0.976526
#
# Coordination Sequence:
#
# PCOD8146812 Si02
#       7
#     8   8   8   4   8   8   8
#     4  10  22  42  65 100 131 171 218 275 326 389
#     4  11  26  41  68  94 134 174 219 274 323 396
#     4  10  24  42  65  96 132 176 221 267 334 395
#     4  10  26  40  64  98 132 172 220 264 336 390
#     4  10  23  43  69  99 134 171 225 272 336 391
#     4  10  25  43  68  98 132 177 220 277 331 396
#     4  10  23  41  67  97 132 179 216 272 330 395
#
# _framework density 23.566718999999999
#
# number of rings (size 3 to 8) (size 9 to 14) (size 15 to 20)
#    0.000    1.846    0.000    0.923   12.923    2.462 
#    2.769    3.077    0.000    0.000    0.000    0.000 
#    0.000    0.000    0.000    0.000    0.000    0.000 
#
# Total GULP energy -322178.979909 kJ/mol
# GULP energy per Si atom -12391.499227 kJ/mol
# Density = 2.351308 g / cm^3
# Si number density = 23.566719 Si / 1000 Ang^3
#
#
#
# Elastic Constant Matrix: (Units=GPa)
#
#
# Indices 1 2 3 4 5 6 
#
# 1 67.3766 29.1139 7.5899 0.0011 -9.0168 0.0009
# 2 29.1139 132.5723 18.6937 0.0020 -6.7485 0.0023
# 3 7.5899 18.6937 71.3150 0.0017 -7.2157 0.0021
# 4 0.0011 0.0020 0.0017 35.3167 0.0014 -9.5541
# 5 -9.0168 -6.7485 -7.2157 0.0014 25.0171 0.0013
# 6 0.0009 0.0023 0.0021 -9.5541 0.0013 15.2807
#
#
#
# Elastic Compliance Matrix: (Units=1/GPa)
#
#
# Indices 1 2 3 4 5 6 
#
# 1 0.017052 -0.003428 -0.000399 -0.000001 0.005106 -0.000001
# 2 -0.003428 0.008582 -0.001829 -0.000001 0.000552 -0.000001
# 3 -0.000399 -0.001829 0.014915 -0.000002 0.003665 -0.000003
# 4 -0.000001 -0.000001 -0.000002 0.034079 -0.000004 0.021308
# 5 0.005106 0.000552 0.003665 -0.000004 0.043019 -0.000007
# 6 -0.000001 -0.000001 -0.000003 0.021308 -0.000007 0.078765
#
#
# Mechanical properties :
#
#
# Convention : Reuss Voigt Hill
#
# Bulk Modulus (GPa) = 34.20550 42.45100 38.32825
# Shear Modulus (GPa) = 22.99167 29.51399 26.25283
#
# Velocity S-wave (km/s) = 3.12685 3.54271 3.34125
# Velocity P-wave (km/s) = 5.25186 5.89802 5.58429
#
# Compressibility (1/GPa) = 0.02923506
#
# Stress axis : x y z
#
# Youngs Moduli (GPa) = 58.64520 116.52380 67.04661
#
# Poissons Ratio (x) = 0.39950 0.02678
# Poissons Ratio (y) = 0.20106 0.12262
# Poissons Ratio (z) = 0.02343 0.21311
#
# Static dielectric constant tensor:
#      x y z
#    x 4.081150 0.000000 0.088110 
#    y 0.000000 4.338960 0.000000 
#    z 0.088110 0.000000 4.312840 
# 
# 
# High freq. dielectric constant tensor:
#      x y z
#    x 1.923980 0.000000 -0.001020 
#    y 0.000000 1.934420 0.000000 
#    z -0.001020 0.000000 1.934860 
# 
# From -- ./inp_files/110936.got.cif
#   From: 2010.06.25/outbox.cif.g09.slc.cpg/sg15_56_cif.got.tgz:110936.got - 2010.06.28 07:06:18.
