data_PCOD8146537
_publ_section_title
;
Structure prediction by ZEFSAII (Michael W. Deem and Ramdas Pophale) SiO2 
 PCOD8146537
Probable space group: C 2/C
;
_chemical_formula_sum "Si O2"
_cell_formula_units_Z 44
_cell_length_a 12.094013
_cell_length_b 16.328333
_cell_length_c 12.222811
_cell_angle_alpha 90.000000
_cell_angle_beta 117.695195
_cell_angle_gamma 90.000000
_cell_volume 2137.169103
_symmetry_space_group_name_H-M "C 2/C"
_symmetry_group_IT_number 15
_symmetry_cell_setting 'monoclinic'
loop_
_space_group_symop_operation_xyz
x,y,z
-x,y,1/2-z
-x,-y,-z
x,-y,1/2+z
1/2+x,1/2+y,z
1/2-x,1/2+y,1/2-z
1/2-x,1/2-y,-z
1/2+x,1/2-y,1/2+z
loop_
_atom_site_type_symbol
_atom_site_label
_atom_site_fract_x
_atom_site_fract_y
_atom_site_fract_z
Si Si1 0.733187 0.126933 0.937809
Si Si2 0.693355 0.348038 0.781010
Si Si3 0.640572 0.467416 0.571521
Si Si4 0.650710 0.683653 0.923165
Si Si5 0.500000 0.783008 0.250000
Si Si6 0.377339 0.277494 0.325882
O O1 0.588625 0.156949 0.864037
O O2 0.818226 0.190066 0.910500
O O3 0.755390 0.037805 0.895263
O O4 0.784319 0.126681 0.083958
O O5 0.653008 0.428683 0.697524
O O6 0.587766 0.276920 0.718098
O O7 0.820655 0.313663 0.784444
O O8 0.500000 0.500000 0.500000
O O9 0.669628 0.402358 0.490586
O O10 0.654328 0.666496 0.794534
O O11 0.524498 0.726952 0.906033
O O12 0.750000 0.750000 0.000000
#
# Coordination Sequence:
#
# PCOD8146537 Si02
#       6
#     8   8   8   8   4   8
#     4  11  25  42  69 102 135 170 223 281 337 387
#     4  11  24  42  72  98 130 176 227 274 326 403
#     4  12  25  43  66  98 138 172 220 277 339 387
#     4  11  23  41  64  94 128 180 218 266 323 401
#     4  10  22  44  70  96 128 178 224 264 330 400
#     4  10  22  41  67  96 127 170 227 269 321 395
#
# _framework density 20.587982
#
# number of rings (size 3 to 8) (size 9 to 14) (size 15 to 20)
#    0.000    1.091    3.636    3.273    5.091    0.000 
#    3.273    0.909    0.000    0.000    0.000    0.000 
#    0.000    0.000    0.000    0.000    0.000    0.000 
#
# Total GULP energy -272750.912324 kJ/mol
# GULP energy per Si atom -12397.768742 kJ/mol
# Density = 2.054112 g / cm^3
# Si number density = 20.587982 Si / 1000 Ang^3
#
#
#
# Elastic Constant Matrix: (Units=GPa)
#
#
# Indices 1 2 3 4 5 6 
#
# 1 87.4494 46.1782 52.5035 0.0000 12.5646 0.0000
# 2 46.1782 130.9312 55.0977 0.0000 17.0994 0.0000
# 3 52.5035 55.0977 147.9206 0.0000 -4.6151 0.0000
# 4 0.0000 0.0000 0.0000 41.2346 0.0000 -2.4607
# 5 12.5646 17.0994 -4.6151 0.0000 38.3737 0.0000
# 6 0.0000 0.0000 0.0000 -2.4607 0.0000 38.2020
#
#
#
# Elastic Compliance Matrix: (Units=1/GPa)
#
#
# Indices 1 2 3 4 5 6 
#
# 1 0.016743 -0.003249 -0.004877 0.000000 -0.004621 0.000000
# 2 -0.003249 0.010517 -0.002888 0.000000 -0.003970 0.000000
# 3 -0.004877 -0.002888 0.009693 0.000000 0.004049 0.000000
# 4 0.000000 0.000000 0.000000 0.024345 0.000000 0.001568
# 5 -0.004621 -0.003970 0.004049 0.000000 0.029828 0.000000
# 6 0.000000 0.000000 0.000000 0.001568 0.000000 0.026278
#
#
# Mechanical properties :
#
#
# Convention : Reuss Voigt Hill
#
# Bulk Modulus (GPa) = 66.99942 74.87333 70.93638
# Shear Modulus (GPa) = 34.62410 37.73017 36.17713
#
# Velocity S-wave (km/s) = 4.10538 4.28557 4.19644
# Velocity P-wave (km/s) = 7.42198 7.80606 7.61644
#
# Compressibility (1/GPa) = 0.01492550
#
# Stress axis : x y z
#
# Youngs Moduli (GPa) = 59.72724 95.07995 103.16328
#
# Poissons Ratio (x) = 0.30896 0.50308
# Poissons Ratio (y) = 0.19408 0.29794
# Poissons Ratio (z) = 0.29126 0.27460
#
# Static dielectric constant tensor:
#      x y z
#    x 3.960590 0.000000 0.061730 
#    y 0.000000 6.400450 0.000000 
#    z 0.061730 0.000000 3.949680 
# 
# 
# High freq. dielectric constant tensor:
#      x y z
#    x 1.807080 0.000000 -0.001190 
#    y 0.000000 1.795980 0.000000 
#    z -0.001190 0.000000 1.818350 
# 
# From -- ./inp_files/87971.got.cif
#   From: 2010.06.25/outbox.cif.g09.slc.cpg/sg15_44_cif.got.tgz:87971.got - 2010.06.28 07:06:18.
