data_PCOD8146424
_publ_section_title
;
Structure prediction by ZEFSAII (Michael W. Deem and Ramdas Pophale) SiO2 
 PCOD8146424
Probable space group: C 2/C
;
_chemical_formula_sum "Si O2"
_cell_formula_units_Z 56
_cell_length_a 23.220988
_cell_length_b 6.180422
_cell_length_c 19.161710
_cell_angle_alpha 90.000000
_cell_angle_beta 79.269481
_cell_angle_gamma 90.000000
_cell_volume 2701.915287
_symmetry_space_group_name_H-M "C 2/C"
_symmetry_group_IT_number 15
_symmetry_cell_setting 'monoclinic'
loop_
_space_group_symop_operation_xyz
x,y,z
-x,y,1/2-z
-x,-y,-z
x,-y,1/2+z
1/2+x,1/2+y,z
1/2-x,1/2+y,1/2-z
1/2-x,1/2-y,-z
1/2+x,1/2-y,1/2+z
loop_
_atom_site_type_symbol
_atom_site_label
_atom_site_fract_x
_atom_site_fract_y
_atom_site_fract_z
Si Si1 0.832023 0.161591 0.719814
Si Si2 0.634691 0.868339 0.925731
Si Si3 0.753503 0.345610 0.075290
Si Si4 0.149327 0.101312 0.156669
Si Si5 0.458472 0.807524 0.032256
Si Si6 0.566999 0.418018 0.553569
Si Si7 0.780943 0.496336 0.317939
O O1 0.865318 0.201871 0.639417
O O2 0.832216 0.380948 0.764525
O O3 0.861286 0.970292 0.759804
O O4 0.762489 0.120997 0.725998
O O5 0.699398 0.960734 0.927392
O O6 0.595645 0.079768 0.915623
O O7 0.608318 0.736471 0.996774
O O8 0.689235 0.429405 0.107748
O O9 0.763052 0.144113 0.125456
O O10 0.750000 0.250000 0.000000
O O11 0.088298 0.101605 0.128481
O O12 0.182451 0.329151 0.143591
O O13 0.498546 0.652550 0.071134
O O14 0.431661 0.665553 0.974493
O O15 0.500000 0.000000 0.000000
#
# Coordination Sequence:
#
# PCOD8146424 Si02
#       7
#     8   8   8   8   8   8   8
#     4  11  22  36  56  86 121 169 202 238 299 384
#     4  11  22  36  62  91 121 158 206 256 311 373
#     4  11  23  33  55  94 124 151 200 253 301 371
#     4  11  23  37  60  87 127 162 200 248 307 371
#     4   9  21  41  65  87 116 150 203 258 319 365
#     4  10  22  41  65  90 115 160 204 260 318 365
#     4  11  21  38  54  82 129 166 198 237 307 370
#
# _framework density 20.726040000000001
#
# number of rings (size 3 to 8) (size 9 to 14) (size 15 to 20)
#    0.000    1.429    2.857    2.571    4.000    4.571 
#    0.000    0.000    0.000   20.571    0.000    0.000 
#    0.000    0.000    0.000    0.000    0.000    0.000 
#
# Total GULP energy -347063.371236 kJ/mol
# GULP energy per Si atom -12395.120401 kJ/mol
# Density = 2.067887 g / cm^3
# Si number density = 20.726040 Si / 1000 Ang^3
#
#
#
# Elastic Constant Matrix: (Units=GPa)
#
#
# Indices 1 2 3 4 5 6 
#
# 1 77.6199 17.7137 22.9323 0.0000 24.7406 0.0000
# 2 17.7137 91.1365 20.1606 0.0000 11.6727 0.0000
# 3 22.9323 20.1606 83.0719 0.0000 18.3935 0.0000
# 4 0.0000 0.0000 0.0000 31.9061 0.0000 -3.8040
# 5 24.7406 11.6727 18.3935 0.0000 31.5576 0.0000
# 6 0.0000 0.0000 0.0000 -3.8040 0.0000 33.9200
#
#
#
# Elastic Compliance Matrix: (Units=1/GPa)
#
#
# Indices 1 2 3 4 5 6 
#
# 1 0.017654 -0.001463 -0.001807 0.000000 -0.012246 0.000000
# 2 -0.001463 0.011976 -0.002039 0.000000 -0.002094 0.000000
# 3 -0.001807 -0.002039 0.014410 0.000000 -0.006228 0.000000
# 4 0.000000 0.000000 0.000000 0.031767 0.000000 0.003563
# 5 -0.012246 -0.002094 -0.006228 0.000000 0.045694 0.000000
# 6 0.000000 0.000000 0.000000 0.003563 0.000000 0.029881
#
#
# Mechanical properties :
#
#
# Convention : Reuss Voigt Hill
#
# Bulk Modulus (GPa) = 29.91927 41.49351 35.70639
# Shear Modulus (GPa) = 28.87810 32.21152 30.54481
#
# Velocity S-wave (km/s) = 3.73678 3.94656 3.84310
# Velocity P-wave (km/s) = 5.75195 6.38988 6.07929
#
# Compressibility (1/GPa) = 0.03342328
#
# Stress axis : x y z
#
# Youngs Moduli (GPa) = 56.64281 83.49892 69.39402
#
# Poissons Ratio (x) = 0.12217 0.12539
# Poissons Ratio (y) = 0.08288 0.14148
# Poissons Ratio (z) = 0.10235 0.17024
#
# Static dielectric constant tensor:
#      x y z
#    x 3.772520 0.000000 0.058590 
#    y 0.000000 4.158280 0.000000 
#    z 0.058590 0.000000 3.629630 
# 
# 
# High freq. dielectric constant tensor:
#      x y z
#    x 1.791980 0.000000 0.010720 
#    y 0.000000 1.832920 0.000000 
#    z 0.010720 0.000000 1.790670 
# 
# From -- ./inp_files/254008.got.cif
#   From: 2010.06.25/outbox.cif.g09.slc.cpg/sg15_128_cif.got.tgz:254008.got - 2010.06.28 07:06:18.
