data_PCOD8146566
_publ_section_title
;
Structure prediction by ZEFSAII (Michael W. Deem and Ramdas Pophale) SiO2 
 PCOD8146566
Probable space group: C 2/C
;
_chemical_formula_sum "Si O2"
_cell_formula_units_Z 60
_cell_length_a 10.806618
_cell_length_b 28.494315
_cell_length_c 9.127585
_cell_angle_alpha 90.000000
_cell_angle_beta 93.878508
_cell_angle_gamma 90.000000
_cell_volume 2804.194357
_symmetry_space_group_name_H-M "C 2/C"
_symmetry_group_IT_number 15
_symmetry_cell_setting 'monoclinic'
loop_
_space_group_symop_operation_xyz
x,y,z
-x,y,1/2-z
-x,-y,-z
x,-y,1/2+z
1/2+x,1/2+y,z
1/2-x,1/2+y,1/2-z
1/2-x,1/2-y,-z
1/2+x,1/2-y,1/2+z
loop_
_atom_site_type_symbol
_atom_site_label
_atom_site_fract_x
_atom_site_fract_y
_atom_site_fract_z
Si Si1 0.760277 0.303964 0.039552
Si Si2 0.023231 0.645871 0.083036
Si Si3 0.128567 0.646224 0.685458
Si Si4 0.183192 0.053554 0.259837
Si Si5 0.500000 0.475246 0.250000
Si Si6 0.042755 0.860047 0.901989
Si Si7 0.440878 0.040671 0.400718
Si Si8 0.664165 0.591608 0.955067
O O1 0.811624 0.313437 0.207862
O O2 0.750000 0.250000 0.000000
O O3 0.848188 0.327993 0.928220
O O4 0.628444 0.328163 0.009552
O O5 0.032805 0.591903 0.029847
O O6 0.000000 0.651077 0.250000
O O7 0.913476 0.668531 0.974630
O O8 0.233479 0.606705 0.658707
O O9 0.000000 0.626427 0.750000
O O10 0.104304 0.090746 0.350712
O O11 0.292892 0.034822 0.372311
O O12 0.104560 0.009636 0.193796
O O13 0.235055 0.074704 0.109706
O O14 0.433593 0.445082 0.119679
O O15 0.000000 0.832939 0.750000
O O16 0.924044 0.866519 0.997015
O O17 0.500000 0.035749 0.250000
O O18 0.500000 0.000000 0.500000
#
# Coordination Sequence:
#
# PCOD8146566 Si02
#       8
#     8   8   8   8   4   8   8   8
#     4  11  24  46  70 101 136 170 218 289 347 410
#     4  10  22  45  71  95 137 183 225 280 346 404
#     4  10  24  44  72  99 131 174 223 281 349 401
#     4  11  23  41  62  95 138 180 234 277 346 395
#     4  12  24  36  64  96 138 184 230 286 334 394
#     4  10  22  41  68  94 131 180 219 277 343 405
#     4  11  25  40  63  97 134 185 233 277 331 405
#     4  11  22  42  66  98 136 180 232 279 336 410
#
# _framework density 21.396519000000001
#
# number of rings (size 3 to 8) (size 9 to 14) (size 15 to 20)
#    0.000    1.333    3.333    2.800    5.600    3.200 
#    2.400    0.667    0.000    0.000    0.000    0.000 
#    0.000    0.000    0.000    0.000    0.000    0.000 
#
# Total GULP energy -371689.467884 kJ/mol
# GULP energy per Si atom -12389.648929 kJ/mol
# Density = 2.134782 g / cm^3
# Si number density = 21.396519 Si / 1000 Ang^3
#
#
#
# Elastic Constant Matrix: (Units=GPa)
#
#
# Indices 1 2 3 4 5 6 
#
# 1 126.1276 48.0242 61.6541 0.0000 11.7252 0.0000
# 2 48.0242 102.2642 63.5765 0.0000 -2.9672 0.0000
# 3 61.6541 63.5765 134.0304 0.0000 22.6443 0.0000
# 4 0.0000 0.0000 0.0000 70.7909 0.0000 41.0839
# 5 11.7252 -2.9672 22.6443 0.0000 39.8722 0.0000
# 6 0.0000 0.0000 0.0000 41.0839 0.0000 45.6038
#
#
#
# Elastic Compliance Matrix: (Units=1/GPa)
#
#
# Indices 1 2 3 4 5 6 
#
# 1 0.010850 -0.003127 -0.003241 0.000000 -0.001583 0.000000
# 2 -0.003127 0.015850 -0.007118 0.000000 0.006141 0.000000
# 3 -0.003241 -0.007118 0.013557 0.000000 -0.007276 0.000000
# 4 0.000000 0.000000 0.000000 0.029604 0.000000 -0.026670
# 5 -0.001583 0.006141 -0.007276 0.000000 0.030135 0.000000
# 6 0.000000 0.000000 0.000000 -0.026670 0.000000 0.045955
#
#
# Mechanical properties :
#
#
# Convention : Reuss Voigt Hill
#
# Bulk Modulus (GPa) = 75.25771 78.77018 77.01394
# Shear Modulus (GPa) = 28.19277 43.86454 36.02866
#
# Velocity S-wave (km/s) = 3.63386 4.53269 4.10793
# Velocity P-wave (km/s) = 7.27020 8.01799 7.65323
#
# Compressibility (1/GPa) = 0.01328768
#
# Stress axis : x y z
#
# Youngs Moduli (GPa) = 92.16426 63.09116 73.76175
#
# Poissons Ratio (x) = 0.19727 0.23903
# Poissons Ratio (y) = 0.28817 0.52501
# Poissons Ratio (z) = 0.29866 0.44906
#
# Static dielectric constant tensor:
#      x y z
#    x 4.183520 0.000000 0.191810 
#    y 0.000000 3.563680 0.000000 
#    z 0.191810 0.000000 4.032640 
# 
# 
# High freq. dielectric constant tensor:
#      x y z
#    x 1.857400 0.000000 0.015420 
#    y 0.000000 1.795810 0.000000 
#    z 0.015420 0.000000 1.855390 
# 
# From -- ./inp_files/35266.got.cif
#   From: 2010.06.25/outbox.cif.g09.slc.cpg/sg15_18_cif.got.tgz:35266.got - 2010.06.28 07:06:18.
