data_PCOD8146489
_publ_section_title
;
Structure prediction by ZEFSAII (Michael W. Deem and Ramdas Pophale) SiO2 
 PCOD8146489
Probable space group: C 2/C
;
_chemical_formula_sum "Si O2"
_cell_formula_units_Z 36
_cell_length_a 21.679752
_cell_length_b 16.798572
_cell_length_c 10.382310
_cell_angle_alpha 90.000000
_cell_angle_beta 151.656920
_cell_angle_gamma 90.000000
_cell_volume 1795.087933
_symmetry_space_group_name_H-M "C 2/C"
_symmetry_group_IT_number 15
_symmetry_cell_setting 'monoclinic'
loop_
_space_group_symop_operation_xyz
x,y,z
-x,y,1/2-z
-x,-y,-z
x,-y,1/2+z
1/2+x,1/2+y,z
1/2-x,1/2+y,1/2-z
1/2-x,1/2-y,-z
1/2+x,1/2-y,1/2+z
loop_
_atom_site_type_symbol
_atom_site_label
_atom_site_fract_x
_atom_site_fract_y
_atom_site_fract_z
Si Si1 0.823224 0.949539 0.092131
Si Si2 0.000000 0.240094 0.250000
Si Si3 0.423073 0.378476 0.829239
Si Si4 0.208908 0.365948 0.634112
Si Si5 0.921641 0.490965 0.724808
O O1 0.942548 0.895596 0.352113
O O2 0.866289 0.041800 0.158025
O O3 0.768373 0.919200 0.856707
O O4 0.710485 0.941632 0.993058
O O5 0.052544 0.187374 0.231504
O O6 0.124766 0.290970 0.528433
O O7 0.325823 0.340231 0.754902
O O8 0.108659 0.419078 0.370087
O O9 0.000000 0.449323 0.750000
O O10 0.000000 0.500000 0.000000
#
# Coordination Sequence:
#
# PCOD8146489 Si02
#       5
#     8   4   8   8   8
#     4  10  22  41  66  93 126 172 224 268 322 390
#     4  12  24  40  62  98 130 174 212 278 336 396
#     4  10  25  38  66  93 128 167 224 267 326 398
#     4  11  22  42  63  89 137 170 211 276 337 382
#     4  11  20  36  62  95 129 171 215 266 320 384
#
# _framework density 20.054729999999999
#
# number of rings (size 3 to 8) (size 9 to 14) (size 15 to 20)
#    0.000    1.333    3.333    1.333    9.333    0.889 
#    0.000    2.222    0.000    0.000    0.000    0.000 
#    0.000    0.000    0.000    0.000    0.000    0.000 
#
# Total GULP energy -223168.337294 kJ/mol
# GULP energy per Si atom -12398.240961 kJ/mol
# Density = 2.000908 g / cm^3
# Si number density = 20.054730 Si / 1000 Ang^3
#
#
#
# Elastic Constant Matrix: (Units=GPa)
#
#
# Indices 1 2 3 4 5 6 
#
# 1 185.2709 48.9501 62.2165 0.0000 15.4068 0.0000
# 2 48.9501 70.4352 50.2761 0.0000 2.5807 0.0000
# 3 62.2165 50.2761 130.7781 0.0000 0.4861 0.0000
# 4 0.0000 0.0000 0.0000 16.7045 0.0000 -8.9422
# 5 15.4068 2.5807 0.4861 0.0000 41.1213 0.0000
# 6 0.0000 0.0000 0.0000 -8.9422 0.0000 2.4669
#
#
#
# Elastic Compliance Matrix: (Units=1/GPa)
#
#
# Indices 1 2 3 4 5 6 
#
# 1 0.007213 -0.003418 -0.002109 0.000000 -0.002463 0.000000
# 2 -0.003418 0.021240 -0.006539 0.000000 0.000025 0.000000
# 3 -0.002109 -0.006539 0.011160 0.000000 0.001069 0.000000
# 4 0.000000 0.000000 0.000000 -0.063655 0.000000 -0.230740
# 5 -0.002463 0.000025 0.001069 0.000000 0.025227 0.000000
# 6 0.000000 0.000000 0.000000 -0.230740 0.000000 -0.431032
#
#
# Mechanical properties :
#
#
# Convention : Reuss Voigt Hill
#
# Bulk Modulus (GPa) = 64.59491 78.81886 71.70688
# Shear Modulus (GPa) = -12.48267 27.06129 7.28931
#
# Velocity S-wave (km/s) = -2.49756 3.67737 1.90856
# Velocity P-wave (km/s) = 4.89512 7.57746 6.37887
#
# Compressibility (1/GPa) = 0.01548110
#
# Stress axis : x y z
#
# Youngs Moduli (GPa) = 138.62994 47.08206 89.60761
#
# Poissons Ratio (x) = 0.16091 0.18895
# Poissons Ratio (y) = 0.47379 0.58598
# Poissons Ratio (z) = 0.29233 0.30789
#
# Static dielectric constant tensor:
#      x y z
#    x 4.114120 0.000000 0.427600 
#    y 0.000000 3.509960 0.000000 
#    z 0.427600 0.000000 3.665230 
# 
# 
# High freq. dielectric constant tensor:
#      x y z
#    x 1.808640 0.000000 0.018440 
#    y 0.000000 1.751720 0.000000 
#    z 0.018440 0.000000 1.794070 
# 
# From -- ./inp_files/28795.got.cif
#   From: 2010.06.25/outbox.cif.g09.slc.cpg/sg15_15_cif.got.tgz:28795.got - 2010.06.28 07:06:18.
