data_PCOD8146092
_publ_section_title
;
Structure prediction by ZEFSAII (Michael W. Deem and Ramdas Pophale) SiO2 
 PCOD8146092
Probable space group: C 2/C
;
_chemical_formula_sum "Si O2"
_cell_formula_units_Z 32
_cell_length_a 13.898280
_cell_length_b 5.020290
_cell_length_c 17.557210
_cell_angle_alpha 90.000000
_cell_angle_beta 69.054940
_cell_angle_gamma 90.000000
_cell_volume 1144.080886
_symmetry_space_group_name_H-M "C 2/C"
_symmetry_group_IT_number 15
_symmetry_cell_setting 'monoclinic'
loop_
_space_group_symop_operation_xyz
x,y,z
-x,y,1/2-z
-x,-y,-z
x,-y,1/2+z
1/2+x,1/2+y,z
1/2-x,1/2+y,1/2-z
1/2-x,1/2-y,-z
1/2+x,1/2-y,1/2+z
loop_
_atom_site_type_symbol
_atom_site_label
_atom_site_fract_x
_atom_site_fract_y
_atom_site_fract_z
Si Si1 0.355059 0.211957 0.347481
Si Si2 0.932862 0.144183 0.662588
Si Si3 0.468657 0.250016 0.959067
Si Si4 0.729754 0.795340 0.915021
O O1 0.460201 0.184005 0.366581
O O2 0.376678 0.340204 0.259089
O O3 0.273511 0.408556 0.408851
O O4 0.309841 0.918394 0.359976
O O5 0.968277 0.831188 0.636463
O O6 0.862944 0.288512 0.620329
O O7 0.339718 0.251525 0.985844
O O8 0.500000 0.500000 0.000000
O O9 0.500000 0.000000 0.000000
#
# Coordination Sequence:
#
# PCOD8146092 Si02
#       4
#     8   8   8   8
#     4  11  25  40  66  96 125 173 217 266 329 386
#     4  10  24  43  64  94 133 166 217 273 323 386
#     4  10  22  40  66  94 128 174 214 265 328 382
#     4  11  23  42  64  93 129 169 217 266 324 387
#
# _framework density 27.970051000000002
#
# number of rings (size 3 to 8) (size 9 to 14) (size 15 to 20)
#    0.000    1.500    0.000    4.500    0.000   16.000 
#    0.000    0.000    0.000    0.000    0.000    0.000 
#    0.000    0.000    0.000    0.000    0.000    0.000 
#
# Total GULP energy -198270.353696 kJ/mol
# GULP energy per Si atom -12391.897106 kJ/mol
# Density = 2.790639 g / cm^3
# Si number density = 27.970051 Si / 1000 Ang^3
#
#
#
# Elastic Constant Matrix: (Units=GPa)
#
#
# Indices 1 2 3 4 5 6 
#
# 1 92.0048 45.8345 34.4306 0.0002 -31.5014 0.0002
# 2 45.8345 117.7833 9.1058 0.0033 -13.3609 0.0004
# 3 34.4306 9.1058 134.3196 0.0003 -0.8294 0.0003
# 4 0.0002 0.0033 0.0003 51.4811 0.0011 -7.0783
# 5 -31.5014 -13.3609 -0.8294 0.0011 43.5120 0.0016
# 6 0.0002 0.0004 0.0003 -7.0783 0.0016 54.1359
#
#
#
# Elastic Compliance Matrix: (Units=1/GPa)
#
#
# Indices 1 2 3 4 5 6 
#
# 1 0.019803 -0.005941 -0.004597 0.000000 0.012425 0.000000
# 2 -0.005941 0.010625 0.000796 -0.000001 -0.001024 0.000000
# 3 -0.004597 0.000796 0.008551 0.000000 -0.002920 0.000000
# 4 0.000000 -0.000001 0.000000 0.019780 -0.000001 0.002586
# 5 0.012425 -0.001024 -0.002920 -0.000001 0.031607 -0.000001
# 6 0.000000 0.000000 0.000000 0.002586 -0.000001 0.018810
#
#
# Mechanical properties :
#
#
# Convention : Reuss Voigt Hill
#
# Bulk Modulus (GPa) = 51.29409 58.09436 54.69423
# Shear Modulus (GPa) = 36.99351 46.80827 41.90089
#
# Velocity S-wave (km/s) = 3.64072 4.09530 3.87468
# Velocity P-wave (km/s) = 6.00432 6.57094 6.29401
#
# Compressibility (1/GPa) = 0.01949542
#
# Stress axis : x y z
#
# Youngs Moduli (GPa) = 50.49669 94.12178 116.94263
#
# Poissons Ratio (x) = 0.55922 0.53755
# Poissons Ratio (y) = 0.30003 -0.09314
# Poissons Ratio (z) = 0.23212 -0.07496
#
# Static dielectric constant tensor:
#      x y z
#    x 6.420920 -0.000020 -0.289290 
#    y -0.000020 5.236220 0.000000 
#    z -0.289290 0.000000 6.391350 
# 
# 
# High freq. dielectric constant tensor:
#      x y z
#    x 2.179160 0.000000 -0.001370 
#    y 0.000000 2.131400 0.000000 
#    z -0.001370 0.000000 2.152050 
# 
# From -- ./inp_files/275445.got.cif
#   From: 2010.06.25/outbox.cif.g09.slc.cpg/sg15_138_cif.got.tgz:275445.got - 2010.06.28 07:06:18.
