data_PCOD8146171
_publ_section_title
;
Structure prediction by ZEFSAII (Michael W. Deem and Ramdas Pophale) SiO2 
 PCOD8146171
Probable space group: C 2/C
;
_chemical_formula_sum "Si O2"
_cell_formula_units_Z 44
_cell_length_a 5.016136
_cell_length_b 22.588059
_cell_length_c 19.213177
_cell_angle_alpha 90.000000
_cell_angle_beta 66.971652
_cell_angle_gamma 90.000000
_cell_volume 2003.467082
_symmetry_space_group_name_H-M "C 2/C"
_symmetry_group_IT_number 15
_symmetry_cell_setting 'monoclinic'
loop_
_space_group_symop_operation_xyz
x,y,z
-x,y,1/2-z
-x,-y,-z
x,-y,1/2+z
1/2+x,1/2+y,z
1/2-x,1/2+y,1/2-z
1/2-x,1/2-y,-z
1/2+x,1/2-y,1/2+z
loop_
_atom_site_type_symbol
_atom_site_label
_atom_site_fract_x
_atom_site_fract_y
_atom_site_fract_z
Si Si1 0.113381 0.866058 0.951252
Si Si2 0.000000 0.997540 0.250000
Si Si3 0.809309 0.747669 0.636821
Si Si4 0.774649 0.404646 0.628935
Si Si5 0.000000 0.413811 0.250000
Si Si6 0.829193 0.828498 0.115603
Si Si7 0.000000 0.808728 0.750000
O O1 0.205044 0.801095 0.916238
O O2 0.381010 0.911451 0.914201
O O3 0.849741 0.892395 0.934515
O O4 0.029224 0.863523 0.040672
O O5 0.872965 0.037145 0.325143
O O6 0.750926 0.955982 0.249135
O O7 0.534323 0.705688 0.649665
O O8 0.118444 0.715274 0.594255
O O9 0.804548 0.769075 0.718136
O O10 0.723282 0.348710 0.684468
O O11 0.881145 0.373449 0.323758
#
# Coordination Sequence:
#
# PCOD8146171 Si02
#       7
#     8   4   8   8   4   8   4
#     4  11  22  40  63  97 127 160 204 254 307 366
#     4  11  24  48  67  90 117 158 208 265 328 360
#     4  11  22  38  61  92 133 172 200 244 297 367
#     4  10  22  40  68  91 119 154 206 273 316 355
#     4  12  27  44  63  86 123 166 209 256 304 376
#     4  12  25  41  60  91 131 173 207 241 298 374
#     4   9  21  36  60  96 124 160 211 249 302 366
#
# _framework density 21.961929000000001
#
# number of rings (size 3 to 8) (size 9 to 14) (size 15 to 20)
#    0.000    1.091    0.000    7.091    0.000   12.364 
#    0.000    5.455    0.000    0.000    0.000    0.000 
#    0.000    0.000    0.000    0.000    0.000    0.000 
#
# Total GULP energy -272892.510410 kJ/mol
# GULP energy per Si atom -12404.205019 kJ/mol
# Density = 2.191194 g / cm^3
# Si number density = 21.961929 Si / 1000 Ang^3
#
#
#
# Elastic Constant Matrix: (Units=GPa)
#
#
# Indices 1 2 3 4 5 6 
#
# 1 132.8461 26.4366 32.4053 0.0000 -15.1287 0.0000
# 2 26.4366 62.7040 36.0304 0.0000 -11.2441 0.0000
# 3 32.4053 36.0304 133.2910 0.0000 -6.9606 0.0000
# 4 0.0000 0.0000 0.0000 2.1606 0.0000 -10.4850
# 5 -15.1287 -11.2441 -6.9606 0.0000 23.7682 0.0000
# 6 0.0000 0.0000 0.0000 -10.4850 0.0000 36.9540
#
#
#
# Elastic Compliance Matrix: (Units=1/GPa)
#
#
# Indices 1 2 3 4 5 6 
#
# 1 0.008758 -0.002189 -0.001321 0.000000 0.004152 0.000000
# 2 -0.002189 0.020864 -0.004738 0.000000 0.007090 0.000000
# 3 -0.001321 -0.004738 0.009082 0.000000 -0.000422 0.000000
# 4 0.000000 0.000000 0.000000 -1.227934 0.000000 -0.348405
# 5 0.004152 0.007090 -0.000422 0.000000 0.047946 0.000000
# 6 0.000000 0.000000 0.000000 -0.348405 0.000000 -0.071793
#
#
# Mechanical properties :
#
#
# Convention : Reuss Voigt Hill
#
# Bulk Modulus (GPa) = 45.02459 57.62065 51.32262
# Shear Modulus (GPa) = -4.20458 28.17447 11.98494
#
# Velocity S-wave (km/s) = -1.38515 3.58561 2.33859
# Velocity P-wave (km/s) = 4.24117 6.59058 5.54181
#
# Compressibility (1/GPa) = 0.02221009
#
# Stress axis : x y z
#
# Youngs Moduli (GPa) = 114.17919 47.92849 110.10743
#
# Poissons Ratio (x) = 0.10492 0.14542
# Poissons Ratio (y) = 0.24994 0.52164
# Poissons Ratio (z) = 0.15079 0.22706
#
# Static dielectric constant tensor:
#      x y z
#    x 4.081620 0.000000 -0.025070 
#    y 0.000000 4.155290 0.000000 
#    z -0.025070 0.000000 3.887710 
# 
# 
# High freq. dielectric constant tensor:
#      x y z
#    x 1.885310 0.000000 -0.003480 
#    y 0.000000 1.848410 0.000000 
#    z -0.003480 0.000000 1.863560 
# 
# From -- ./inp_files/185199.got.cif
#   From: 2010.06.25/outbox.cif.g09.slc.cpg/sg15_93_cif.got.tgz:185199.got - 2010.06.28 07:06:18.
