data_PCOD8146149
_publ_section_title
;
Structure prediction by ZEFSAII (Michael W. Deem and Ramdas Pophale) SiO2 
 PCOD8146149
Probable space group: C 2/C
;
_chemical_formula_sum "Si O2"
_cell_formula_units_Z 64
_cell_length_a 25.501750
_cell_length_b 11.092709
_cell_length_c 11.164499
_cell_angle_alpha 90.000000
_cell_angle_beta 82.606359
_cell_angle_gamma 90.000000
_cell_volume 3131.993015
_symmetry_space_group_name_H-M "C 2/C"
_symmetry_group_IT_number 15
_symmetry_cell_setting 'monoclinic'
loop_
_space_group_symop_operation_xyz
x,y,z
-x,y,1/2-z
-x,-y,-z
x,-y,1/2+z
1/2+x,1/2+y,z
1/2-x,1/2+y,1/2-z
1/2-x,1/2-y,-z
1/2+x,1/2-y,1/2+z
loop_
_atom_site_type_symbol
_atom_site_label
_atom_site_fract_x
_atom_site_fract_y
_atom_site_fract_z
Si Si1 0.856648 0.748664 0.942115
Si Si2 0.176861 0.790693 0.814659
Si Si3 0.777257 0.840213 0.351573
Si Si4 0.971544 0.640728 0.381317
Si Si5 0.817918 0.944009 0.117958
Si Si6 0.286504 0.969863 0.487178
Si Si7 0.143559 0.316964 0.541271
Si Si8 0.472880 0.144794 0.884878
O O1 0.833136 0.777442 0.820889
O O2 0.916146 0.705263 0.912317
O O3 0.855601 0.874272 0.014246
O O4 0.817922 0.650945 0.018740
O O5 0.238878 0.765726 0.818666
O O6 0.160731 0.922210 0.868033
O O7 0.140653 0.691950 0.896656
O O8 0.820826 0.872989 0.241081
O O9 0.813561 0.789177 0.447352
O O10 0.744785 0.961234 0.397179
O O11 0.913772 0.700576 0.385331
O O12 0.966136 0.497773 0.385297
O O13 0.000000 0.683390 0.250000
O O14 0.996802 0.683885 0.500864
O O15 0.755946 0.937762 0.101097
O O16 0.332206 0.056770 0.420642
O O17 0.500000 0.186399 0.750000
#
# Coordination Sequence:
#
# PCOD8146149 Si02
#       8
#     8   8   8   8   8   8   8   8
#     4  12  25  40  68  96 129 177 215 267 327 385
#     4  11  23  40  60  93 132 176 211 257 321 392
#     4  11  23  37  62  90 134 172 210 261 313 388
#     4  10  22  40  67  98 131 160 219 280 337 391
#     4  12  24  39  58  92 134 171 220 256 303 393
#     4  11  21  40  59  98 130 167 215 248 320 401
#     4  11  21  41  65  92 130 175 201 268 336 381
#     4  10  22  44  66  99 129 166 217 282 335 390
#
# _framework density 20.434273000000001
#
# number of rings (size 3 to 8) (size 9 to 14) (size 15 to 20)
#    0.000    1.000    5.000    2.625    3.500    0.000 
#    0.000    0.000    0.000    3.750    0.000    0.000 
#    0.000    0.000    0.000    0.000    0.000    0.000 
#
# Total GULP energy -396579.323198 kJ/mol
# GULP energy per Si atom -12393.103850 kJ/mol
# Density = 2.038776 g / cm^3
# Si number density = 20.434273 Si / 1000 Ang^3
#
#
#
# Elastic Constant Matrix: (Units=GPa)
#
#
# Indices 1 2 3 4 5 6 
#
# 1 111.4890 29.8740 46.8566 0.0000 -11.5139 0.0000
# 2 29.8740 79.0389 29.9104 0.0000 -0.9698 0.0000
# 3 46.8566 29.9104 121.8210 0.0000 -1.6646 0.0000
# 4 0.0000 0.0000 0.0000 26.0501 0.0000 -3.4061
# 5 -11.5139 -0.9698 -1.6646 0.0000 25.9789 0.0000
# 6 0.0000 0.0000 0.0000 -3.4061 0.0000 23.4111
#
#
#
# Elastic Compliance Matrix: (Units=1/GPa)
#
#
# Indices 1 2 3 4 5 6 
#
# 1 0.011859 -0.003000 -0.003758 0.000000 0.004903 0.000000
# 2 -0.003000 0.014709 -0.002470 0.000000 -0.000939 0.000000
# 3 -0.003758 -0.002470 0.010246 0.000000 -0.001101 0.000000
# 4 0.000000 0.000000 0.000000 0.039132 0.000000 0.005693
# 5 0.004903 -0.000939 -0.001101 0.000000 0.040560 0.000000
# 6 0.000000 0.000000 0.000000 0.005693 0.000000 0.043543
#
#
# Mechanical properties :
#
#
# Convention : Reuss Voigt Hill
#
# Bulk Modulus (GPa) = 54.47406 58.40343 56.43875
# Shear Modulus (GPa) = 27.08189 28.80188 27.94189
#
# Velocity S-wave (km/s) = 3.64444 3.75839 3.70185
# Velocity P-wave (km/s) = 6.66523 6.89037 6.77873
#
# Compressibility (1/GPa) = 0.01835736
#
# Stress axis : x y z
#
# Youngs Moduli (GPa) = 84.32349 67.98430 97.60233
#
# Poissons Ratio (x) = 0.20396 0.36677
# Poissons Ratio (y) = 0.25298 0.24112
# Poissons Ratio (z) = 0.31687 0.16795
#
# Static dielectric constant tensor:
#      x y z
#    x 3.558100 0.000000 0.071310 
#    y 0.000000 3.644120 0.000000 
#    z 0.071310 0.000000 3.886920 
# 
# 
# High freq. dielectric constant tensor:
#      x y z
#    x 1.779370 0.000000 0.001050 
#    y 0.000000 1.785880 0.000000 
#    z 0.001050 0.000000 1.811870 
# 
# From -- ./inp_files/122440.got.cif
#   From: 2010.06.25/outbox.cif.g09.slc.cpg/sg15_62_cif.got.tgz:122440.got - 2010.06.28 07:06:18.
