data_PCOD8146773
_publ_section_title
;
Structure prediction by ZEFSAII (Michael W. Deem and Ramdas Pophale) SiO2 
 PCOD8146773
Probable space group: C 2/C
;
_chemical_formula_sum "Si O2"
_cell_formula_units_Z 56
_cell_length_a 13.164583
_cell_length_b 8.219413
_cell_length_c 28.604404
_cell_angle_alpha 90.000000
_cell_angle_beta 62.677058
_cell_angle_gamma 90.000000
_cell_volume 2749.829363
_symmetry_space_group_name_H-M "C 2/C"
_symmetry_group_IT_number 15
_symmetry_cell_setting 'monoclinic'
loop_
_space_group_symop_operation_xyz
x,y,z
-x,y,1/2-z
-x,-y,-z
x,-y,1/2+z
1/2+x,1/2+y,z
1/2-x,1/2+y,1/2-z
1/2-x,1/2-y,-z
1/2+x,1/2-y,1/2+z
loop_
_atom_site_type_symbol
_atom_site_label
_atom_site_fract_x
_atom_site_fract_y
_atom_site_fract_z
Si Si1 0.000000 0.738754 0.250000
Si Si2 0.976438 0.190449 0.496931
Si Si3 0.815342 0.998067 0.810490
Si Si4 0.933323 0.640235 0.911135
Si Si5 0.097453 0.485224 0.299751
Si Si6 0.260522 0.851491 0.582142
Si Si7 0.329985 0.890930 0.998503
Si Si8 0.500000 0.254520 0.750000
O O1 0.035132 0.639896 0.289344
O O2 0.113401 0.835027 0.209413
O O3 0.955394 0.225379 0.446719
O O4 0.874392 0.241949 0.553357
O O5 0.078761 0.312968 0.486207
O O6 0.000000 0.000000 0.500000
O O7 0.730814 0.979325 0.783540
O O8 0.738675 0.971312 0.873078
O O9 0.911974 0.862863 0.797117
O O10 0.843799 0.724556 0.894980
O O11 0.886312 0.471625 0.941406
O O12 0.042786 0.584119 0.858829
O O13 0.086384 0.345279 0.263965
O O14 0.254477 0.970428 0.539023
O O15 0.250000 0.750000 0.000000
#
# Coordination Sequence:
#
# PCOD8146773 Si02
#       8
#     4   8   8   8   8   8   8   4
#     4  10  26  42  68  94 128 166 222 270 336 398
#     4  11  22  41  60  96 130 173 214 261 328 394
#     4  11  22  43  65  94 126 168 214 268 332 388
#     4  11  22  40  62  92 127 168 211 266 321 385
#     4  11  22  43  65  94 126 168 214 268 332 388
#     4  11  22  40  62  92 127 168 211 266 321 385
#     4  11  22  37  62  88 128 167 206 261 310 383
#     4  10  22  42  64  90 128 162 214 278 328 378
#
# _framework density 20.364898
#
# number of rings (size 3 to 8) (size 9 to 14) (size 15 to 20)
#    0.000    1.143    1.429    7.714    2.000    0.000 
#    5.143    1.429    0.000    0.000    0.000    0.000 
#    0.000    0.000    0.000    0.000    0.000    0.000 
#
# Total GULP energy -346975.603292 kJ/mol
# GULP energy per Si atom -12391.985832 kJ/mol
# Density = 2.031855 g / cm^3
# Si number density = 20.364898 Si / 1000 Ang^3
#
#
#
# Elastic Constant Matrix: (Units=GPa)
#
#
# Indices 1 2 3 4 5 6 
#
# 1 114.6226 36.5638 16.0902 0.0000 -2.8395 0.0000
# 2 36.5638 125.1556 31.7162 0.0000 -4.1840 0.0000
# 3 16.0902 31.7162 88.5564 0.0000 -1.3040 0.0000
# 4 0.0000 0.0000 0.0000 20.2097 0.0000 -1.2678
# 5 -2.8395 -4.1840 -1.3040 0.0000 25.4793 0.0000
# 6 0.0000 0.0000 0.0000 -1.2678 0.0000 40.8064
#
#
#
# Elastic Compliance Matrix: (Units=1/GPa)
#
#
# Indices 1 2 3 4 5 6 
#
# 1 0.009684 -0.002601 -0.000819 0.000000 0.000610 0.000000
# 2 -0.002601 0.009528 -0.002923 0.000000 0.001125 0.000000
# 3 -0.000819 -0.002923 0.012489 0.000000 0.000068 0.000000
# 4 0.000000 0.000000 0.000000 0.049578 0.000000 0.001540
# 5 0.000610 0.001125 0.000068 0.000000 0.039504 0.000000
# 6 0.000000 0.000000 0.000000 0.001540 0.000000 0.024554
#
#
# Mechanical properties :
#
#
# Convention : Reuss Voigt Hill
#
# Bulk Modulus (GPa) = 52.59155 55.23057 53.91106
# Shear Modulus (GPa) = 30.42059 33.56337 31.99198
#
# Velocity S-wave (km/s) = 3.86913 4.06408 3.96780
# Velocity P-wave (km/s) = 6.77059 7.01439 6.89357
#
# Compressibility (1/GPa) = 0.01901446
#
# Stress axis : x y z
#
# Youngs Moduli (GPa) = 103.26161 104.94889 80.07021
#
# Poissons Ratio (x) = 0.27300 0.06557
# Poissons Ratio (y) = 0.26861 0.23408
# Poissons Ratio (z) = 0.08456 0.30681
#
# Static dielectric constant tensor:
#      x y z
#    x 3.642840 0.000000 -0.000360 
#    y 0.000000 3.379040 0.000000 
#    z -0.000360 0.000000 3.628920 
# 
# 
# High freq. dielectric constant tensor:
#      x y z
#    x 1.806250 0.000000 -0.002960 
#    y 0.000000 1.806010 0.000000 
#    z -0.002960 0.000000 1.789680 
# 
# From -- ./inp_files/288088.got.cif
#   From: 2010.06.25/outbox.cif.g09.slc.cpg/sg15_145_cif.got.tgz:288088.got - 2010.06.28 07:06:18.
