data_PCOD8146843
_publ_section_title
;
Structure prediction by ZEFSAII (Michael W. Deem and Ramdas Pophale) SiO2 
 PCOD8146843
Probable space group: C 2/C
;
_chemical_formula_sum "Si O2"
_cell_formula_units_Z 48
_cell_length_a 10.829778
_cell_length_b 9.596283
_cell_length_c 23.086527
_cell_angle_alpha 90.000000
_cell_angle_beta 52.345734
_cell_angle_gamma 90.000000
_cell_volume 1899.538537
_symmetry_space_group_name_H-M "C 2/C"
_symmetry_group_IT_number 15
_symmetry_cell_setting 'monoclinic'
loop_
_space_group_symop_operation_xyz
x,y,z
-x,y,1/2-z
-x,-y,-z
x,-y,1/2+z
1/2+x,1/2+y,z
1/2-x,1/2+y,1/2-z
1/2-x,1/2-y,-z
1/2+x,1/2-y,1/2+z
loop_
_atom_site_type_symbol
_atom_site_label
_atom_site_fract_x
_atom_site_fract_y
_atom_site_fract_z
Si Si1 0.500000 0.312232 0.750000
Si Si2 0.021364 0.165909 0.033646
Si Si3 0.707885 0.551665 0.742510
Si Si4 0.959422 0.869792 0.094277
Si Si5 0.674115 0.152120 0.095096
Si Si6 0.054817 0.629641 0.627308
Si Si7 0.000000 0.270687 0.750000
O O1 0.631023 0.404275 0.745893
O O2 0.585289 0.217380 0.677410
O O3 0.842436 0.200003 0.067700
O O4 0.075360 0.273352 0.065892
O O5 0.046846 0.011966 0.051831
O O6 0.117153 0.186075 0.944712
O O7 0.668041 0.593917 0.820485
O O8 0.890411 0.548595 0.680060
O O9 0.647748 0.673385 0.719032
O O10 0.099070 0.765662 0.073099
O O11 0.550929 0.133727 0.183041
O O12 0.679869 0.990251 0.074362
#
# Coordination Sequence:
#
# PCOD8146843 Si02
#       7
#     4   8   8   8   8   8   4
#     4  11  25  40  62 100 134 164 216 274 326 388
#     4  11  24  47  65  94 135 176 219 264 326 394
#     4  10  22  42  65  95 128 169 214 270 327 379
#     4  10  24  44  69  90 134 183 212 264 331 393
#     4  11  24  41  65  98 128 167 218 270 323 383
#     4  12  26  38  70 102 127 167 222 277 324 383
#     4   9  19  38  62  92 120 164 206 258 326 372
#
# _framework density 25.269295
#
# number of rings (size 3 to 8) (size 9 to 14) (size 15 to 20)
#    0.000    1.333    3.333    1.000    9.333    0.667 
#    0.000    5.000    0.000    0.000    0.000    0.000 
#    0.000    0.000    0.000    0.000    0.000    0.000 
#
# Total GULP energy -297419.377168 kJ/mol
# GULP energy per Si atom -12392.474049 kJ/mol
# Density = 2.521178 g / cm^3
# Si number density = 25.269295 Si / 1000 Ang^3
#
#
#
# Elastic Constant Matrix: (Units=GPa)
#
#
# Indices 1 2 3 4 5 6 
#
# 1 53.4492 39.8452 33.2176 0.0000 31.4656 0.0000
# 2 39.8452 126.9755 30.9211 0.0000 30.9520 0.0000
# 3 33.2176 30.9211 75.5858 0.0000 11.4867 0.0000
# 4 0.0000 0.0000 0.0000 18.9133 0.0000 19.3388
# 5 31.4656 30.9520 11.4867 0.0000 37.3703 0.0000
# 6 0.0000 0.0000 0.0000 19.3388 0.0000 40.6805
#
#
#
# Elastic Compliance Matrix: (Units=1/GPa)
#
#
# Indices 1 2 3 4 5 6 
#
# 1 0.053260 -0.003807 -0.016273 0.000000 -0.036690 0.000000
# 2 -0.003807 0.010801 -0.001965 0.000000 -0.005137 0.000000
# 3 -0.016273 -0.001965 0.019780 0.000000 0.009249 0.000000
# 4 0.000000 0.000000 0.000000 0.102881 0.000000 -0.048908
# 5 -0.036690 -0.005137 0.009249 0.000000 0.059063 0.000000
# 6 0.000000 0.000000 0.000000 -0.048908 0.000000 0.047832
#
#
# Mechanical properties :
#
#
# Convention : Reuss Voigt Hill
#
# Bulk Modulus (GPa) = 25.15671 51.55315 38.35493
# Shear Modulus (GPa) = 14.24684 29.52792 21.88738
#
# Velocity S-wave (km/s) = 2.37702 3.42209 2.94626
# Velocity P-wave (km/s) = 4.18458 6.00500 5.17546
#
# Compressibility (1/GPa) = 0.03975083
#
# Stress axis : x y z
#
# Youngs Moduli (GPa) = 18.77595 92.58699 50.55685
#
# Poissons Ratio (x) = 0.35244 0.82271
# Poissons Ratio (y) = 0.07147 0.09934
# Poissons Ratio (z) = 0.30554 0.18193
#
# Static dielectric constant tensor:
#      x y z
#    x 4.199220 0.000000 0.168610 
#    y 0.000000 4.564700 0.000000 
#    z 0.168610 0.000000 4.746730 
# 
# 
# High freq. dielectric constant tensor:
#      x y z
#    x 2.013390 0.000000 0.002680 
#    y 0.000000 2.015690 0.000000 
#    z 0.002680 0.000000 2.024610 
# 
# From -- ./inp_files/291086.got.cif
#   From: 2010.06.25/outbox.cif.g09.slc.cpg/sg15_146_cif.got.tgz:291086.got - 2010.06.28 07:06:18.
