data_PCOD8146564
_publ_section_title
;
Structure prediction by ZEFSAII (Michael W. Deem and Ramdas Pophale) SiO2 
 PCOD8146564
Probable space group: C 2/C
;
_chemical_formula_sum "Si O2"
_cell_formula_units_Z 48
_cell_length_a 10.972685
_cell_length_b 17.244615
_cell_length_c 10.930684
_cell_angle_alpha 90.000000
_cell_angle_beta 73.781006
_cell_angle_gamma 90.000000
_cell_volume 1985.985044
_symmetry_space_group_name_H-M "C 2/C"
_symmetry_group_IT_number 15
_symmetry_cell_setting 'monoclinic'
loop_
_space_group_symop_operation_xyz
x,y,z
-x,y,1/2-z
-x,-y,-z
x,-y,1/2+z
1/2+x,1/2+y,z
1/2-x,1/2+y,1/2-z
1/2-x,1/2-y,-z
1/2+x,1/2-y,1/2+z
loop_
_atom_site_type_symbol
_atom_site_label
_atom_site_fract_x
_atom_site_fract_y
_atom_site_fract_z
Si Si1 0.800766 0.050835 0.591403
Si Si2 0.212940 0.783214 0.840317
Si Si3 0.925711 0.895504 0.465186
Si Si4 0.207642 0.675154 0.435844
Si Si5 0.214991 0.607209 0.853160
Si Si6 0.448723 0.142218 0.391512
O O1 0.731542 0.093190 0.497421
O O2 0.705021 0.052320 0.736131
O O3 0.924627 0.100812 0.589417
O O4 0.850530 0.965311 0.554051
O O5 0.212895 0.827492 0.711281
O O6 0.178259 0.694242 0.825444
O O7 0.345141 0.792804 0.879971
O O8 0.098605 0.818817 0.949532
O O9 0.862979 0.892506 0.349391
O O10 0.250000 0.750000 0.500000
O O11 0.060193 0.682007 0.438223
O O12 0.124360 0.581897 0.994736
O O13 0.500000 0.102168 0.250000
#
# Coordination Sequence:
#
# PCOD8146564 Si02
#       6
#     8   8   8   8   8   8
#     4  11  25  41  63 102 137 175 212 278 340 394
#     4  10  22  41  68  94 127 177 226 271 323 396
#     4  10  24  43  67  94 136 176 222 267 332 403
#     4  11  23  39  62 100 137 168 215 277 329 387
#     4  11  22  41  69  94 128 178 228 264 326 403
#     4   9  21  40  65  91 127 169 222 269 328 379
#
# _framework density 24.169367000000001
#
# number of rings (size 3 to 8) (size 9 to 14) (size 15 to 20)
#    0.000    1.667    1.667    2.500    7.000    2.667 
#    0.000    3.333    7.333    0.000    0.000    0.000 
#    0.000    0.000    0.000    0.000    0.000    0.000 
#
# Total GULP energy -297371.383387 kJ/mol
# GULP energy per Si atom -12390.474308 kJ/mol
# Density = 2.411436 g / cm^3
# Si number density = 24.169367 Si / 1000 Ang^3
#
#
#
# Elastic Constant Matrix: (Units=GPa)
#
#
# Indices 1 2 3 4 5 6 
#
# 1 79.3362 6.2506 27.7870 0.0000 5.1088 0.0000
# 2 6.2506 49.3703 14.1948 0.0000 2.0807 0.0000
# 3 27.7870 14.1948 152.1899 0.0000 4.7915 0.0000
# 4 0.0000 0.0000 0.0000 14.6355 0.0000 -5.7406
# 5 5.1088 2.0807 4.7915 0.0000 32.2879 0.0000
# 6 0.0000 0.0000 0.0000 -5.7406 0.0000 29.4954
#
#
#
# Elastic Compliance Matrix: (Units=1/GPa)
#
#
# Indices 1 2 3 4 5 6 
#
# 1 0.013613 -0.000977 -0.002339 0.000000 -0.001744 0.000000
# 2 -0.000977 0.020919 -0.001743 0.000000 -0.000935 0.000000
# 3 -0.002339 -0.001743 0.007179 0.000000 -0.000583 0.000000
# 4 0.000000 0.000000 0.000000 0.073974 0.000000 0.014397
# 5 -0.001744 -0.000935 -0.000583 0.000000 0.031394 0.000000
# 6 0.000000 0.000000 0.000000 0.014397 0.000000 0.036706
#
#
# Mechanical properties :
#
#
# Convention : Reuss Voigt Hill
#
# Bulk Modulus (GPa) = 31.65430 41.92900 36.79165
# Shear Modulus (GPa) = 24.45753 30.79469 27.62611
#
# Velocity S-wave (km/s) = 3.18452 3.57335 3.38453
# Velocity P-wave (km/s) = 5.16206 5.86607 5.52529
#
# Compressibility (1/GPa) = 0.03159128
#
# Stress axis : x y z
#
# Youngs Moduli (GPa) = 73.45775 47.80237 139.29853
#
# Poissons Ratio (x) = 0.04672 0.32588
# Poissons Ratio (y) = 0.07180 0.24284
# Poissons Ratio (z) = 0.17185 0.08333
#
# Static dielectric constant tensor:
#      x y z
#    x 4.422380 0.000000 0.036510 
#    y 0.000000 3.914440 0.000000 
#    z 0.036510 0.000000 4.796640 
# 
# 
# High freq. dielectric constant tensor:
#      x y z
#    x 1.950990 0.000000 0.003240 
#    y 0.000000 1.930950 0.000000 
#    z 0.003240 0.000000 1.979950 
# 
# From -- ./inp_files/87806.got.cif
#   From: 2010.06.25/outbox.cif.g09.slc.cpg/sg15_44_cif.got.tgz:87806.got - 2010.06.28 07:06:18.
