data_PCOD8146970
_publ_section_title
;
Structure prediction by ZEFSAII (Michael W. Deem and Ramdas Pophale) SiO2 
 PCOD8146970
Probable space group: C 2/C
;
_chemical_formula_sum "Si O2"
_cell_formula_units_Z 64
_cell_length_a 18.087789
_cell_length_b 15.273035
_cell_length_c 13.822559
_cell_angle_alpha 90.000000
_cell_angle_beta 48.023230
_cell_angle_gamma 90.000000
_cell_volume 2838.776618
_symmetry_space_group_name_H-M "C 2/C"
_symmetry_group_IT_number 15
_symmetry_cell_setting 'monoclinic'
loop_
_space_group_symop_operation_xyz
x,y,z
-x,y,1/2-z
-x,-y,-z
x,-y,1/2+z
1/2+x,1/2+y,z
1/2-x,1/2+y,1/2-z
1/2-x,1/2-y,-z
1/2+x,1/2-y,1/2+z
loop_
_atom_site_type_symbol
_atom_site_label
_atom_site_fract_x
_atom_site_fract_y
_atom_site_fract_z
Si Si1 0.584406 0.614199 0.387939
Si Si2 0.124385 0.079918 0.844560
Si Si3 0.682379 0.644968 0.598751
Si Si4 0.155851 0.526730 0.127311
Si Si5 0.366750 0.761908 0.020719
Si Si6 0.485874 0.063088 0.418852
Si Si7 0.106328 0.799425 0.678899
Si Si8 0.247981 0.351144 0.109504
O O1 0.474784 0.622161 0.527205
O O2 0.633671 0.521102 0.369581
O O3 0.644218 0.695386 0.380628
O O4 0.584320 0.621541 0.272031
O O5 0.121151 0.088800 0.731059
O O6 0.218919 0.128921 0.809631
O O7 0.743517 0.582529 0.471951
O O8 0.608088 0.705990 0.599923
O O9 0.757345 0.701504 0.597883
O O10 0.097574 0.521087 0.076729
O O11 0.179315 0.427516 0.129923
O O12 0.089980 0.569966 0.270271
O O13 0.448634 0.837344 0.974091
O O14 0.500000 0.000000 0.500000
O O15 0.181204 0.734465 0.666596
O O16 0.153446 0.839356 0.541093
O O17 0.000000 0.753319 0.750000
#
# Coordination Sequence:
#
# PCOD8146970 Si02
#       8
#     8   8   8   8   8   8   8   8
#     4  11  24  41  66  97 134 181 232 289 343 423
#     4  11  24  42  65  99 133 179 233 286 357 408
#     4  10  22  42  67  98 136 177 231 290 347 426
#     4  10  23  41  68 101 135 181 231 288 359 415
#     4  10  23  43  67  97 135 181 228 290 347 420
#     4  10  24  43  67 103 139 184 232 291 355 426
#     4  11  24  44  67  98 136 179 233 285 350 419
#     4  11  24  43  70  97 138 183 227 294 352 423
#
# _framework density 22.544923000000001
#
# number of rings (size 3 to 8) (size 9 to 14) (size 15 to 20)
#    0.000    1.500    1.250    2.250    7.000    5.500 
#    2.250    0.000    0.000    0.000    0.000    0.000 
#    0.000    0.000    0.000    0.000    0.000    0.000 
#
# Total GULP energy -396725.394723 kJ/mol
# GULP energy per Si atom -12397.668585 kJ/mol
# Density = 2.249361 g / cm^3
# Si number density = 22.544923 Si / 1000 Ang^3
#
#
#
# Elastic Constant Matrix: (Units=GPa)
#
#
# Indices 1 2 3 4 5 6 
#
# 1 73.1689 26.1944 32.8121 0.0000 17.5007 0.0000
# 2 26.1944 79.7114 23.6959 0.0000 14.0467 0.0000
# 3 32.8121 23.6959 109.5837 0.0000 12.8676 0.0000
# 4 0.0000 0.0000 0.0000 13.4662 0.0000 11.8670
# 5 17.5007 14.0467 12.8676 0.0000 33.5365 0.0000
# 6 0.0000 0.0000 0.0000 11.8670 0.0000 47.2906
#
#
#
# Elastic Compliance Matrix: (Units=1/GPa)
#
#
# Indices 1 2 3 4 5 6 
#
# 1 0.018304 -0.003706 -0.003916 0.000000 -0.006497 0.000000
# 2 -0.003706 0.014909 -0.001684 0.000000 -0.003665 0.000000
# 3 -0.003916 -0.001684 0.010827 0.000000 -0.001405 0.000000
# 4 0.000000 0.000000 0.000000 0.095344 0.000000 -0.023925
# 5 -0.006497 -0.003665 -0.001405 0.000000 0.035283 0.000000
# 6 0.000000 0.000000 0.000000 -0.023925 0.000000 0.027150
#
#
# Mechanical properties :
#
#
# Convention : Reuss Voigt Hill
#
# Bulk Modulus (GPa) = 39.32658 47.54099 43.43379
# Shear Modulus (GPa) = 21.84308 30.84278 26.34293
#
# Velocity S-wave (km/s) = 3.11604 3.70274 3.42199
# Velocity P-wave (km/s) = 5.51614 6.27801 5.90937
#
# Compressibility (1/GPa) = 0.02542809
#
# Stress axis : x y z
#
# Youngs Moduli (GPa) = 54.63308 67.07143 92.35936
#
# Poissons Ratio (x) = 0.24856 0.36172
# Poissons Ratio (y) = 0.20246 0.15553
# Poissons Ratio (z) = 0.21397 0.11295
#
# Static dielectric constant tensor:
#      x y z
#    x 3.990380 0.000000 0.125850 
#    y 0.000000 4.025880 0.000000 
#    z 0.125850 0.000000 4.075870 
# 
# 
# High freq. dielectric constant tensor:
#      x y z
#    x 1.887460 0.000000 0.009040 
#    y 0.000000 1.889210 0.000000 
#    z 0.009040 0.000000 1.892230 
# 
# From -- ./inp_files/162540.got.cif
#   From: 2010.06.25/outbox.cif.g09.slc.cpg/sg15_82_cif.got.tgz:162540.got - 2010.06.28 07:06:18.
