data_PCOD8146685
_publ_section_title
;
Structure prediction by ZEFSAII (Michael W. Deem and Ramdas Pophale) SiO2 
 PCOD8146685
Probable space group: C 2/C
;
_chemical_formula_sum "Si O2"
_cell_formula_units_Z 64
_cell_length_a 18.463602
_cell_length_b 13.970289
_cell_length_c 15.708332
_cell_angle_alpha 90.000000
_cell_angle_beta 52.205441
_cell_angle_gamma 90.000000
_cell_volume 3201.814587
_symmetry_space_group_name_H-M "C 2/C"
_symmetry_group_IT_number 15
_symmetry_cell_setting 'monoclinic'
loop_
_space_group_symop_operation_xyz
x,y,z
-x,y,1/2-z
-x,-y,-z
x,-y,1/2+z
1/2+x,1/2+y,z
1/2-x,1/2+y,1/2-z
1/2-x,1/2-y,-z
1/2+x,1/2-y,1/2+z
loop_
_atom_site_type_symbol
_atom_site_label
_atom_site_fract_x
_atom_site_fract_y
_atom_site_fract_z
Si Si1 0.704478 0.995186 0.502495
Si Si2 0.646870 0.350351 0.270651
Si Si3 0.851144 0.557089 0.776694
Si Si4 0.009211 0.454219 0.586609
Si Si5 0.270158 0.546558 0.278801
Si Si6 0.333098 0.321650 0.426600
Si Si7 0.832475 0.258474 0.194476
Si Si8 0.481121 0.254196 0.450710
O O1 0.688457 0.053970 0.599998
O O2 0.723559 0.060283 0.405267
O O3 0.613071 0.938592 0.542949
O O4 0.789628 0.927033 0.461437
O O5 0.651830 0.465294 0.271353
O O6 0.614920 0.312210 0.201288
O O7 0.747210 0.303132 0.205557
O O8 0.572080 0.319800 0.395153
O O9 0.798583 0.488873 0.746058
O O10 0.846188 0.670884 0.764246
O O11 0.955148 0.518584 0.694595
O O12 0.974257 0.345222 0.613148
O O13 0.000000 0.500000 0.500000
O O14 0.315069 0.648218 0.227329
O O15 0.250000 0.250000 0.500000
O O16 0.409883 0.308426 0.441657
O O17 0.928740 0.264917 0.075977
#
# Coordination Sequence:
#
# PCOD8146685 Si02
#       8
#     8   8   8   8   8   8   8   8
#     4  11  23  39  62  88 129 164 202 264 310 374
#     4  10  23  37  58  95 121 162 215 256 316 381
#     4  11  23  38  61  94 120 164 215 251 319 382
#     4  12  21  37  59  93 130 157 201 263 323 370
#     4  10  22  42  61  84 127 166 207 263 308 366
#     4  11  20  37  57  91 126 157 199 256 328 371
#     4  11  22  40  61  86 126 166 210 257 307 374
#     4  12  22  36  65  91 125 165 203 264 317 379
#
# _framework density 19.988665000000001
#
# number of rings (size 3 to 8) (size 9 to 14) (size 15 to 20)
#    0.000    1.000    5.000    3.000    1.750    2.000 
#    0.000    0.000    0.000    6.000    0.000    0.000 
#    0.000    0.000    0.000    0.000    0.000    0.000 
#
# Total GULP energy -396538.081224 kJ/mol
# GULP energy per Si atom -12391.815038 kJ/mol
# Density = 1.994317 g / cm^3
# Si number density = 19.988665 Si / 1000 Ang^3
#
#
#
# Elastic Constant Matrix: (Units=GPa)
#
#
# Indices 1 2 3 4 5 6 
#
# 1 50.6731 22.3467 30.7804 0.0000 5.0066 0.0000
# 2 22.3467 133.5105 38.0924 0.0000 -3.0678 0.0000
# 3 30.7804 38.0924 108.0253 0.0000 1.8910 0.0000
# 4 0.0000 0.0000 0.0000 29.9881 0.0000 0.6594
# 5 5.0066 -3.0678 1.8910 0.0000 35.8657 0.0000
# 6 0.0000 0.0000 0.0000 0.6594 0.0000 25.4323
#
#
#
# Elastic Compliance Matrix: (Units=1/GPa)
#
#
# Indices 1 2 3 4 5 6 
#
# 1 0.024906 -0.002488 -0.006160 0.000000 -0.003365 0.000000
# 2 -0.002488 0.008604 -0.002346 0.000000 0.001207 0.000000
# 3 -0.006160 -0.002346 0.011839 0.000000 0.000035 0.000000
# 4 0.000000 0.000000 0.000000 0.033366 0.000000 -0.000865
# 5 -0.003365 0.001207 0.000035 0.000000 0.028453 0.000000
# 6 0.000000 0.000000 0.000000 -0.000865 0.000000 0.039342
#
#
# Mechanical properties :
#
#
# Convention : Reuss Voigt Hill
#
# Bulk Modulus (GPa) = 42.80925 52.73867 47.77396
# Shear Modulus (GPa) = 28.36308 31.65652 30.00980
#
# Velocity S-wave (km/s) = 3.77099 3.98392 3.87892
# Velocity P-wave (km/s) = 6.35797 6.89954 6.63429
#
# Compressibility (1/GPa) = 0.02335944
#
# Stress axis : x y z
#
# Youngs Moduli (GPa) = 40.15074 116.23019 84.46655
#
# Poissons Ratio (x) = 0.28923 0.52034
# Poissons Ratio (y) = 0.09991 0.19815
# Poissons Ratio (z) = 0.24734 0.27267
#
# Static dielectric constant tensor:
#      x y z
#    x 3.669290 0.000000 -0.036000 
#    y 0.000000 3.638090 0.000000 
#    z -0.036000 0.000000 3.861080 
# 
# 
# High freq. dielectric constant tensor:
#      x y z
#    x 1.764960 0.000000 -0.004420 
#    y 0.000000 1.775030 0.000000 
#    z -0.004420 0.000000 1.788530 
# 
# From -- ./inp_files/162543.got.cif
#   From: 2010.06.25/outbox.cif.g09.slc.cpg/sg15_82_cif.got.tgz:162543.got - 2010.06.28 07:06:18.
