data_PCOD8146280
_publ_section_title
;
Structure prediction by ZEFSAII (Michael W. Deem and Ramdas Pophale) SiO2 
 PCOD8146280
Probable space group: C 2/C
;
_chemical_formula_sum "Si O2"
_cell_formula_units_Z 44
_cell_length_a 31.642223
_cell_length_b 8.645672
_cell_length_c 8.295339
_cell_angle_alpha 90.000000
_cell_angle_beta 60.067215
_cell_angle_gamma 90.000000
_cell_volume 1966.637261
_symmetry_space_group_name_H-M "C 2/C"
_symmetry_group_IT_number 15
_symmetry_cell_setting 'monoclinic'
loop_
_space_group_symop_operation_xyz
x,y,z
-x,y,1/2-z
-x,-y,-z
x,-y,1/2+z
1/2+x,1/2+y,z
1/2-x,1/2+y,1/2-z
1/2-x,1/2-y,-z
1/2+x,1/2-y,1/2+z
loop_
_atom_site_type_symbol
_atom_site_label
_atom_site_fract_x
_atom_site_fract_y
_atom_site_fract_z
Si Si1 0.934083 0.133646 0.647844
Si Si2 0.785426 0.834250 0.110604
Si Si3 0.858222 0.325835 0.937980
Si Si4 0.342423 0.555105 0.206047
Si Si5 0.000000 0.058268 0.250000
Si Si6 0.305104 0.037021 0.246582
O O1 0.910489 0.298115 0.751163
O O2 0.974230 0.167432 0.432507
O O3 0.894211 0.018389 0.649622
O O4 0.959505 0.052142 0.749661
O O5 0.780624 0.654083 0.165198
O O6 0.804744 0.919381 0.234215
O O7 0.732705 0.895983 0.154299
O O8 0.824196 0.846961 0.892769
O O9 0.816798 0.372757 0.887971
O O10 0.845828 0.160094 0.039466
O O11 0.855529 0.461407 0.078236
#
# Coordination Sequence:
#
# PCOD8146280 Si02
#       6
#     8   8   8   8   4   8
#     4  11  21  42  71 111 130 171 220 293 355 411
#     4  12  24  41  65  98 140 191 241 282 324 390
#     4  12  25  45  66 101 139 186 228 283 345 409
#     4  12  22  41  70  99 140 180 231 289 338 406
#     4  10  22  40  76 112 130 158 226 302 352 426
#     4  12  27  44  65  99 145 194 240 280 328 399
#
# _framework density 22.373218000000001
#
# number of rings (size 3 to 8) (size 9 to 14) (size 15 to 20)
#    0.000    0.364    5.455    3.273    0.000    4.364 
#    0.000    1.818    0.000    3.273    0.000    0.000 
#    0.000    0.000    0.000    0.000    0.000    0.000 
#
# Total GULP energy -272788.777914 kJ/mol
# GULP energy per Si atom -12399.489905 kJ/mol
# Density = 2.232230 g / cm^3
# Si number density = 22.373218 Si / 1000 Ang^3
#
#
#
# Elastic Constant Matrix: (Units=GPa)
#
#
# Indices 1 2 3 4 5 6 
#
# 1 106.1111 24.1158 9.1857 0.0000 0.8766 0.0000
# 2 24.1158 84.5942 23.7240 0.0000 -5.9738 0.0000
# 3 9.1857 23.7240 96.5389 0.0000 -5.6712 0.0000
# 4 0.0000 0.0000 0.0000 30.6087 0.0000 -13.6914
# 5 0.8766 -5.9738 -5.6712 0.0000 29.7900 0.0000
# 6 0.0000 0.0000 0.0000 -13.6914 0.0000 29.1492
#
#
#
# Elastic Compliance Matrix: (Units=1/GPa)
#
#
# Indices 1 2 3 4 5 6 
#
# 1 0.010109 -0.002859 -0.000314 0.000000 -0.000931 0.000000
# 2 -0.002859 0.013621 -0.002943 0.000000 0.002255 0.000000
# 3 -0.000314 -0.002943 0.011203 0.000000 0.001552 0.000000
# 4 0.000000 0.000000 0.000000 0.041360 0.000000 0.019427
# 5 -0.000931 0.002255 0.001552 0.000000 0.034343 0.000000
# 6 0.000000 0.000000 0.000000 0.019427 0.000000 0.043431
#
#
# Mechanical properties :
#
#
# Convention : Reuss Voigt Hill
#
# Bulk Modulus (GPa) = 44.05219 44.58837 44.32028
# Shear Modulus (GPa) = 28.75778 33.25749 31.00763
#
# Velocity S-wave (km/s) = 3.58909 3.85968 3.72684
# Velocity P-wave (km/s) = 6.07518 6.31153 6.19449
#
# Compressibility (1/GPa) = 0.02270035
#
# Stress axis : x y z
#
# Youngs Moduli (GPa) = 98.92362 73.41693 89.26424
#
# Poissons Ratio (x) = 0.20993 0.02801
# Poissons Ratio (y) = 0.28287 0.26268
# Poissons Ratio (z) = 0.03104 0.21604
#
# Static dielectric constant tensor:
#      x y z
#    x 3.903980 0.000000 0.061110 
#    y 0.000000 3.949340 0.000000 
#    z 0.061110 0.000000 4.424220 
# 
# 
# High freq. dielectric constant tensor:
#      x y z
#    x 1.867830 0.000000 0.020140 
#    y 0.000000 1.861690 0.000000 
#    z 0.020140 0.000000 1.907340 
# 
# From -- ./inp_files/68388.got.cif
#   From: 2010.06.25/outbox.cif.g09.slc.cpg/sg15_35_cif.got.tgz:68388.got - 2010.06.28 07:06:18.
