data_PCOD8146081
_publ_section_title
;
Structure prediction by ZEFSAII (Michael W. Deem and Ramdas Pophale) SiO2 
 PCOD8146081
Probable space group: C 2/C
;
_chemical_formula_sum "Si O2"
_cell_formula_units_Z 52
_cell_length_a 15.782400
_cell_length_b 9.506650
_cell_length_c 23.268997
_cell_angle_alpha 90.000000
_cell_angle_beta 135.598287
_cell_angle_gamma 90.000000
_cell_volume 2442.758836
_symmetry_space_group_name_H-M "C 2/C"
_symmetry_group_IT_number 15
_symmetry_cell_setting 'monoclinic'
loop_
_space_group_symop_operation_xyz
x,y,z
-x,y,1/2-z
-x,-y,-z
x,-y,1/2+z
1/2+x,1/2+y,z
1/2-x,1/2+y,1/2-z
1/2-x,1/2-y,-z
1/2+x,1/2-y,1/2+z
loop_
_atom_site_type_symbol
_atom_site_label
_atom_site_fract_x
_atom_site_fract_y
_atom_site_fract_z
Si Si1 0.773047 0.067934 0.843181
Si Si2 0.323908 0.541980 0.994814
Si Si3 0.606691 0.852073 0.459770
Si Si4 0.760075 0.119830 0.143783
Si Si5 0.000000 0.037036 0.750000
Si Si6 0.014838 0.845307 0.135322
Si Si7 0.893454 0.459668 0.828718
O O1 0.716083 0.218828 0.829369
O O2 0.884603 0.074408 0.853154
O O3 0.666136 0.974910 0.763211
O O4 0.819306 0.001276 0.925194
O O5 0.400712 0.682580 0.047020
O O6 0.383643 0.406658 0.054149
O O7 0.188636 0.575100 0.950588
O O8 0.655798 0.897079 0.545731
O O9 0.471656 0.905002 0.383662
O O10 0.884783 0.059479 0.179153
O O11 0.716652 0.040251 0.179564
O O12 0.033976 0.133093 0.712297
O O13 0.023084 0.679071 0.126960
#
# Coordination Sequence:
#
# PCOD8146081 Si02
#       7
#     8   8   8   8   4   8   8
#     4  10  23  41  64  95 130 166 216 263 318 385
#     4  10  22  41  65  93 126 172 218 262 317 387
#     4  10  22  40  66  92 126 168 222 261 316 386
#     4  10  22  42  65  95 121 173 218 262 318 382
#     4  12  22  42  70  88 130 168 220 264 310 388
#     4  11  24  42  63  96 130 167 211 268 329 375
#     4  11  24  41  64  98 131 163 213 272 328 374
#
# _framework density 21.287406000000001
#
# number of rings (size 3 to 8) (size 9 to 14) (size 15 to 20)
#    0.000    1.538    3.077    0.923    2.154    2.462 
#    2.769    0.000    0.000    0.000    0.000    0.000 
#    0.000    0.000    0.000    0.000    0.000    0.000 
#
# Total GULP energy -322461.578483 kJ/mol
# GULP energy per Si atom -12402.368403 kJ/mol
# Density = 2.123896 g / cm^3
# Si number density = 21.287406 Si / 1000 Ang^3
#
#
#
# Elastic Constant Matrix: (Units=GPa)
#
#
# Indices 1 2 3 4 5 6 
#
# 1 83.0870 28.8666 28.8656 0.0000 -25.4655 0.0000
# 2 28.8666 63.1670 36.5555 0.0000 6.4376 0.0000
# 3 28.8656 36.5555 99.7497 0.0000 -12.2667 0.0000
# 4 0.0000 0.0000 0.0000 36.6141 0.0000 0.0756
# 5 -25.4655 6.4376 -12.2667 0.0000 37.4610 0.0000
# 6 0.0000 0.0000 0.0000 0.0756 0.0000 31.0998
#
#
#
# Elastic Compliance Matrix: (Units=1/GPa)
#
#
# Indices 1 2 3 4 5 6 
#
# 1 0.020847 -0.011200 0.000053 0.000000 0.016113 0.000000
# 2 -0.011200 0.027547 -0.008724 0.000000 -0.015204 0.000000
# 3 0.000053 -0.008724 0.013958 0.000000 0.006106 0.000000
# 4 0.000000 0.000000 0.000000 0.027312 0.000000 -0.000066
# 5 0.016113 -0.015204 0.006106 0.000000 0.042260 0.000000
# 6 0.000000 0.000000 0.000000 -0.000066 0.000000 0.032155
#
#
# Mechanical properties :
#
#
# Convention : Reuss Voigt Hill
#
# Bulk Modulus (GPa) = 44.22670 48.28657 46.25664
# Shear Modulus (GPa) = 23.65665 31.14940 27.40303
#
# Velocity S-wave (km/s) = 3.33723 3.82943 3.59177
# Velocity P-wave (km/s) = 5.97248 6.50270 6.24322
#
# Compressibility (1/GPa) = 0.02261077
#
# Stress axis : x y z
#
# Youngs Moduli (GPa) = 47.96904 36.30096 71.64506
#
# Poissons Ratio (x) = 0.40656 -0.00382
# Poissons Ratio (y) = 0.53724 0.62504
# Poissons Ratio (z) = -0.00256 0.31669
#
# Static dielectric constant tensor:
#      x y z
#    x 4.016760 0.000000 -0.253200 
#    y 0.000000 3.619250 0.000000 
#    z -0.253200 0.000000 3.698590 
# 
# 
# High freq. dielectric constant tensor:
#      x y z
#    x 1.843520 0.000000 -0.013470 
#    y 0.000000 1.818440 0.000000 
#    z -0.013470 0.000000 1.835300 
# 
# From -- ./inp_files/298432.got.cif
#   From: 2010.06.25/outbox.cif.g09.slc.cpg/sg15_150_cif.got.tgz:298432.got - 2010.06.28 07:06:18.
