data_PCOD8146992
_publ_section_title
;
Structure prediction by ZEFSAII (Michael W. Deem and Ramdas Pophale) SiO2 
 PCOD8146992
Probable space group: C 2/C
;
_chemical_formula_sum "Si O2"
_cell_formula_units_Z 44
_cell_length_a 16.940400
_cell_length_b 24.341726
_cell_length_c 5.036100
_cell_angle_alpha 90.000000
_cell_angle_beta 79.822068
_cell_angle_gamma 90.000000
_cell_volume 2043.999861
_symmetry_space_group_name_H-M "C 2/C"
_symmetry_group_IT_number 15
_symmetry_cell_setting 'monoclinic'
loop_
_space_group_symop_operation_xyz
x,y,z
-x,y,1/2-z
-x,-y,-z
x,-y,1/2+z
1/2+x,1/2+y,z
1/2-x,1/2+y,1/2-z
1/2-x,1/2-y,-z
1/2+x,1/2-y,1/2+z
loop_
_atom_site_type_symbol
_atom_site_label
_atom_site_fract_x
_atom_site_fract_y
_atom_site_fract_z
Si Si1 0.554549 0.088606 0.975100
Si Si2 0.095779 0.817109 0.713908
Si Si3 0.644128 0.620888 0.685504
Si Si4 0.722800 0.964018 0.348404
Si Si5 0.052713 0.290498 0.469523
Si Si6 0.000000 0.961509 0.250000
O O1 0.500000 0.085835 0.750000
O O2 0.628515 0.047858 0.899074
O O3 0.590192 0.150153 0.021677
O O4 0.500000 0.068053 0.250000
O O5 0.132735 0.828553 0.401023
O O6 0.114312 0.756254 0.825850
O O7 0.000000 0.825141 0.750000
O O8 0.138144 0.858813 0.887808
O O9 0.730347 0.593681 0.681664
O O10 0.576748 0.575464 0.758921
O O11 0.748333 0.999568 0.584767
O O12 0.000000 0.305557 0.250000
O O13 0.000000 0.267353 0.750000
O O14 0.000000 0.000000 0.500000
#
# Coordination Sequence:
#
# PCOD8146992 Si02
#       6
#     8   8   8   8   8   4
#     4  10  22  42  68  94 119 153 203 251 308 384
#     4  11  19  36  59  89 120 161 204 245 291 355
#     4  12  23  38  57  88 122 163 207 248 298 349
#     4  12  26  44  62  87 125 163 200 260 316 351
#     4   9  18  34  60  92 122 153 194 250 309 359
#     4  12  22  36  54  76 112 160 210 248 278 338
#
# _framework density 21.526418
#
# number of rings (size 3 to 8) (size 9 to 14) (size 15 to 20)
#    0.000    1.091    1.818    6.545    0.000    2.182 
#    0.000    1.818    0.000    0.000    0.000    0.000 
#    0.000    0.000    0.000    0.000    0.000    0.000 
#
# Total GULP energy -272688.971519 kJ/mol
# GULP energy per Si atom -12394.953251 kJ/mol
# Density = 2.147742 g / cm^3
# Si number density = 21.526418 Si / 1000 Ang^3
#
#
#
# Elastic Constant Matrix: (Units=GPa)
#
#
# Indices 1 2 3 4 5 6 
#
# 1 69.3355 2.4961 16.7156 0.0000 3.3507 0.0000
# 2 2.4961 44.8902 12.8160 0.0000 0.7603 0.0000
# 3 16.7156 12.8160 131.1823 0.0000 13.8519 0.0000
# 4 0.0000 0.0000 0.0000 27.3297 0.0000 -6.8336
# 5 3.3507 0.7603 13.8519 0.0000 34.8183 0.0000
# 6 0.0000 0.0000 0.0000 -6.8336 0.0000 25.1800
#
#
#
# Elastic Compliance Matrix: (Units=1/GPa)
#
#
# Indices 1 2 3 4 5 6 
#
# 1 0.014900 -0.000304 -0.001794 0.000000 -0.000714 0.000000
# 2 -0.000304 0.022927 -0.002246 0.000000 0.000422 0.000000
# 3 -0.001794 -0.002246 0.008400 0.000000 -0.003120 0.000000
# 4 0.000000 0.000000 0.000000 0.039254 0.000000 0.010653
# 5 -0.000714 0.000422 -0.003120 0.000000 0.030021 0.000000
# 6 0.000000 0.000000 0.000000 0.010653 0.000000 0.042605
#
#
# Mechanical properties :
#
#
# Convention : Reuss Voigt Hill
#
# Bulk Modulus (GPa) = 26.63750 34.38482 30.51116
# Shear Modulus (GPa) = 27.88468 31.69094 29.78781
#
# Velocity S-wave (km/s) = 3.60303 3.84107 3.72395
# Velocity P-wave (km/s) = 5.45071 5.97326 5.71796
#
# Compressibility (1/GPa) = 0.03754106
#
# Stress axis : x y z
#
# Youngs Moduli (GPa) = 67.11192 43.61577 119.04189
#
# Poissons Ratio (x) = 0.01328 0.21351
# Poissons Ratio (y) = 0.02043 0.26733
# Poissons Ratio (z) = 0.12037 0.09795
#
# Static dielectric constant tensor:
#      x y z
#    x 3.514120 0.000000 0.142840 
#    y 0.000000 4.230280 0.000000 
#    z 0.142840 0.000000 3.880640 
# 
# 
# High freq. dielectric constant tensor:
#      x y z
#    x 1.810410 0.000000 0.022350 
#    y 0.000000 1.859920 0.000000 
#    z 0.022350 0.000000 1.860580 
# 
# From -- ./inp_files/7979.got.cif
#   From: 2010.06.25/outbox.cif.g09.slc.cpg/sg15_4_cif.got.tgz:7979.got - 2010.06.28 07:06:18.
