data_PCOD8146052
_publ_section_title
;
Structure prediction by ZEFSAII (Michael W. Deem and Ramdas Pophale) SiO2 
 PCOD8146052
Probable space group: C 2/C
;
_chemical_formula_sum "Si O2"
_cell_formula_units_Z 64
_cell_length_a 14.310358
_cell_length_b 11.631027
_cell_length_c 30.119154
_cell_angle_alpha 90.000000
_cell_angle_beta 141.568033
_cell_angle_gamma 90.000000
_cell_volume 3116.103023
_symmetry_space_group_name_H-M "C 2/C"
_symmetry_group_IT_number 15
_symmetry_cell_setting 'monoclinic'
loop_
_space_group_symop_operation_xyz
x,y,z
-x,y,1/2-z
-x,-y,-z
x,-y,1/2+z
1/2+x,1/2+y,z
1/2-x,1/2+y,1/2-z
1/2-x,1/2-y,-z
1/2+x,1/2-y,1/2+z
loop_
_atom_site_type_symbol
_atom_site_label
_atom_site_fract_x
_atom_site_fract_y
_atom_site_fract_z
Si Si1 0.872594 0.761323 0.325130
Si Si2 0.390506 0.616722 0.307102
Si Si3 0.832372 0.512131 0.455700
Si Si4 0.291128 0.966569 0.202747
Si Si5 0.352657 0.860170 0.546858
Si Si6 0.188831 0.758174 0.928234
Si Si7 0.033210 0.082444 0.811884
Si Si8 0.385538 0.018861 0.639990
O O1 0.766159 0.676336 0.259577
O O2 0.978221 0.685837 0.396267
O O3 0.974548 0.827537 0.326633
O O4 0.767083 0.835793 0.318162
O O5 0.354369 0.537011 0.335692
O O6 0.515054 0.707560 0.367286
O O7 0.447107 0.538779 0.286992
O O8 0.822392 0.463949 0.501952
O O9 0.785554 0.646144 0.437873
O O10 0.713086 0.437371 0.382882
O O11 0.000000 0.500000 0.500000
O O12 0.433117 0.972775 0.289429
O O13 0.328108 0.009538 0.167643
O O14 0.250000 0.750000 0.500000
O O15 0.334136 0.913986 0.589292
O O16 0.193773 0.636413 0.905258
O O17 0.250000 0.750000 0.000000
O O18 0.000000 0.128566 0.750000
#
# Coordination Sequence:
#
# PCOD8146052 Si02
#       8
#     8   8   8   8   8   8   8   8
#     4  11  22  40  67  95 132 171 216 271 330 396
#     4  10  22  40  65  97 130 174 216 270 328 398
#     4  11  26  44  66  97 134 175 222 270 334 403
#     4  10  23  41  65 103 128 170 226 272 335 386
#     4  12  25  46  65  93 138 180 214 271 341 395
#     4  11  23  44  67  96 132 173 221 276 330 395
#     4  10  24  41  63  95 130 167 222 271 320 388
#     4  11  23  42  68  97 135 172 221 278 328 397
#
# _framework density 20.538474000000001
#
# number of rings (size 3 to 8) (size 9 to 14) (size 15 to 20)
#    0.000    1.250    5.000    0.000    3.500    3.000 
#    2.250    1.250    0.000    0.000    0.000    0.000 
#    0.000    0.000    0.000    0.000    0.000    0.000 
#
# Total GULP energy -396722.292219 kJ/mol
# GULP energy per Si atom -12397.571632 kJ/mol
# Density = 2.049173 g / cm^3
# Si number density = 20.538474 Si / 1000 Ang^3
#
#
#
# Elastic Constant Matrix: (Units=GPa)
#
#
# Indices 1 2 3 4 5 6 
#
# 1 87.8246 23.4127 36.1131 0.0000 9.5906 0.0000
# 2 23.4127 95.9365 37.5003 0.0000 6.3100 0.0000
# 3 36.1131 37.5003 121.9683 0.0000 7.6951 0.0000
# 4 0.0000 0.0000 0.0000 41.1656 0.0000 6.9733
# 5 9.5906 6.3100 7.6951 0.0000 40.0924 0.0000
# 6 0.0000 0.0000 0.0000 6.9733 0.0000 22.5830
#
#
#
# Elastic Compliance Matrix: (Units=1/GPa)
#
#
# Indices 1 2 3 4 5 6 
#
# 1 0.013480 -0.001858 -0.003275 0.000000 -0.002304 0.000000
# 2 -0.001858 0.012159 -0.003133 0.000000 -0.000868 0.000000
# 3 -0.003275 -0.003133 0.010174 0.000000 -0.000676 0.000000
# 4 0.000000 0.000000 0.000000 0.025633 0.000000 -0.007915
# 5 -0.002304 -0.000868 -0.000676 0.000000 0.025760 0.000000
# 6 0.000000 0.000000 0.000000 -0.007915 0.000000 0.046725
#
#
# Mechanical properties :
#
#
# Convention : Reuss Voigt Hill
#
# Bulk Modulus (GPa) = 51.86490 55.53129 53.69810
# Shear Modulus (GPa) = 31.86939 34.68174 33.27557
#
# Velocity S-wave (km/s) = 3.94343 4.11374 4.02948
# Velocity P-wave (km/s) = 6.78539 7.04700 6.91743
#
# Compressibility (1/GPa) = 0.01928086
#
# Stress axis : x y z
#
# Youngs Moduli (GPa) = 74.18558 82.24406 98.28518
#
# Poissons Ratio (x) = 0.15282 0.32184
# Poissons Ratio (y) = 0.13785 0.30797
# Poissons Ratio (z) = 0.24292 0.25771
#
# Static dielectric constant tensor:
#      x y z
#    x 3.502870 0.000000 0.125280 
#    y 0.000000 3.939930 0.000000 
#    z 0.125280 0.000000 3.768030 
# 
# 
# High freq. dielectric constant tensor:
#      x y z
#    x 1.790530 0.000000 0.010510 
#    y 0.000000 1.814230 0.000000 
#    z 0.010510 0.000000 1.811310 
# 
# From -- ./inp_files/313615.got.cif
#   From: 2010.06.25/outbox.cif.g09.slc.cpg/sg15_157_cif.got.tgz:313615.got - 2010.06.28 07:06:18.
