data_PCOD8146794
_publ_section_title
;
Structure prediction by ZEFSAII (Michael W. Deem and Ramdas Pophale) SiO2 
 PCOD8146794
Probable space group: C 2/C
;
_chemical_formula_sum "Si O2"
_cell_formula_units_Z 60
_cell_length_a 19.063388
_cell_length_b 8.505440
_cell_length_c 19.472036
_cell_angle_alpha 90.000000
_cell_angle_beta 61.954574
_cell_angle_gamma 90.000000
_cell_volume 2786.505523
_symmetry_space_group_name_H-M "C 2/C"
_symmetry_group_IT_number 15
_symmetry_cell_setting 'monoclinic'
loop_
_space_group_symop_operation_xyz
x,y,z
-x,y,1/2-z
-x,-y,-z
x,-y,1/2+z
1/2+x,1/2+y,z
1/2-x,1/2+y,1/2-z
1/2-x,1/2-y,-z
1/2+x,1/2-y,1/2+z
loop_
_atom_site_type_symbol
_atom_site_label
_atom_site_fract_x
_atom_site_fract_y
_atom_site_fract_z
Si Si1 0.762855 0.321110 0.421556
Si Si2 0.857579 0.136070 0.273188
Si Si3 0.500000 0.196869 0.750000
Si Si4 0.461587 0.153245 0.484647
Si Si5 0.381992 0.664211 0.613162
Si Si6 0.605142 0.943840 0.631810
Si Si7 0.838197 0.233116 0.780852
Si Si8 0.164264 0.811288 0.860643
O O1 0.750000 0.250000 0.500000
O O2 0.823298 0.205617 0.357806
O O3 0.679128 0.315684 0.420924
O O4 0.803515 0.492681 0.411878
O O5 0.822599 0.237012 0.225116
O O6 0.949872 0.181022 0.227680
O O7 0.838942 0.953199 0.286229
O O8 0.547813 0.088208 0.675125
O O9 0.529173 0.287309 0.450010
O O10 0.422124 0.128070 0.428270
O O11 0.390689 0.201361 0.568214
O O12 0.500000 0.000000 0.500000
O O13 0.359198 0.769803 0.691022
O O14 0.379020 0.479227 0.629666
O O15 0.598736 0.812848 0.695766
O O16 0.754376 0.305190 0.846015
#
# Coordination Sequence:
#
# PCOD8146794 Si02
#       8
#     8   8   4   8   8   8   8   8
#     4  11  23  41  66  96 136 178 226 275 350 413
#     4  10  24  41  68  97 133 182 226 284 347 423
#     4  10  22  42  64  94 142 174 226 282 358 406
#     4  12  27  42  69 102 141 181 233 286 353 410
#     4  11  24  45  68  99 135 180 229 280 350 412
#     4  11  24  44  67 103 137 182 231 293 344 421
#     4  11  24  42  75  99 133 179 239 286 343 415
#     4  11  24  44  68  97 136 181 225 286 345 415
#
# _framework density 21.532344999999999
#
# number of rings (size 3 to 8) (size 9 to 14) (size 15 to 20)
#    0.000    1.067    2.667    2.800    3.733    6.400 
#    0.000    0.000    0.000    0.000    0.000    0.000 
#    0.000    0.000    0.000    0.000    0.000    0.000 
#
# Total GULP energy -371715.001289 kJ/mol
# GULP energy per Si atom -12390.500043 kJ/mol
# Density = 2.148334 g / cm^3
# Si number density = 21.532345 Si / 1000 Ang^3
#
#
#
# Elastic Constant Matrix: (Units=GPa)
#
#
# Indices 1 2 3 4 5 6 
#
# 1 132.8700 39.9349 50.7042 -0.0001 19.6859 0.0002
# 2 39.9349 61.8454 31.3944 -0.0005 5.9398 0.0007
# 3 50.7042 31.3944 125.4470 0.0000 16.1087 0.0001
# 4 -0.0001 -0.0005 0.0000 28.8744 0.0001 -2.8550
# 5 19.6859 5.9398 16.1087 0.0001 45.3003 -0.0001
# 6 0.0002 0.0007 0.0001 -2.8550 -0.0001 39.0049
#
#
#
# Elastic Compliance Matrix: (Units=1/GPa)
#
#
# Indices 1 2 3 4 5 6 
#
# 1 0.010507 -0.005198 -0.002564 0.000000 -0.002973 0.000000
# 2 -0.005198 0.021122 -0.003269 0.000000 0.000652 0.000000
# 3 -0.002564 -0.003269 0.010089 0.000000 -0.002044 0.000000
# 4 0.000000 0.000000 0.000000 0.034885 0.000000 0.002553
# 5 -0.002973 0.000652 -0.002044 0.000000 0.024008 0.000000
# 6 0.000000 0.000000 0.000000 0.002553 0.000000 0.025825
#
#
# Mechanical properties :
#
#
# Convention : Reuss Voigt Hill
#
# Bulk Modulus (GPa) = 50.87403 62.69216 56.78309
# Shear Modulus (GPa) = 32.24753 35.84453 34.04603
#
# Velocity S-wave (km/s) = 3.87412 4.08448 3.98069
# Velocity P-wave (km/s) = 6.60983 7.17095 6.89610
#
# Compressibility (1/GPa) = 0.01965639
#
# Stress axis : x y z
#
# Youngs Moduli (GPa) = 95.17145 47.34324 99.12124
#
# Poissons Ratio (x) = 0.24607 0.25420
# Poissons Ratio (y) = 0.49465 0.32403
# Poissons Ratio (z) = 0.24407 0.15476
#
# Static dielectric constant tensor:
#      x y z
#    x 4.433700 0.000000 0.175690 
#    y 0.000000 3.755780 0.000000 
#    z 0.175690 0.000000 4.041000 
# 
# 
# High freq. dielectric constant tensor:
#      x y z
#    x 1.861570 0.000000 0.005450 
#    y 0.000000 1.840690 0.000000 
#    z 0.005450 0.000000 1.851440 
# 
# From -- ./inp_files/247798.got.cif
#   From: 2010.06.25/outbox.cif.g09.slc.cpg/sg15_124_cif.got.tgz:247798.got - 2010.06.28 07:06:18.
