data_PCOD8146421
_publ_section_title
;
Structure prediction by ZEFSAII (Michael W. Deem and Ramdas Pophale) SiO2 
 PCOD8146421
Probable space group: C 2/C
;
_chemical_formula_sum "Si O2"
_cell_formula_units_Z 44
_cell_length_a 9.435660
_cell_length_b 11.258028
_cell_length_c 22.681305
_cell_angle_alpha 90.000000
_cell_angle_beta 54.251394
_cell_angle_gamma 90.000000
_cell_volume 1955.412417
_symmetry_space_group_name_H-M "C 2/C"
_symmetry_group_IT_number 15
_symmetry_cell_setting 'monoclinic'
loop_
_space_group_symop_operation_xyz
x,y,z
-x,y,1/2-z
-x,-y,-z
x,-y,1/2+z
1/2+x,1/2+y,z
1/2-x,1/2+y,1/2-z
1/2-x,1/2-y,-z
1/2+x,1/2-y,1/2+z
loop_
_atom_site_type_symbol
_atom_site_label
_atom_site_fract_x
_atom_site_fract_y
_atom_site_fract_z
Si Si1 0.740094 0.319605 0.793294
Si Si2 0.098069 0.944644 0.626116
Si Si3 0.500000 0.383549 0.250000
Si Si4 0.270748 0.041365 0.398860
Si Si5 0.020095 0.874345 0.049408
Si Si6 0.094516 0.366345 0.871264
O O1 0.528315 0.328665 0.849594
O O2 0.820818 0.192359 0.790908
O O3 0.819324 0.412529 0.821460
O O4 0.787493 0.349341 0.714651
O O5 0.114993 0.017296 0.561399
O O6 0.999898 0.035234 0.693001
O O7 0.288315 0.905809 0.602064
O O8 0.135224 0.135902 0.462102
O O9 0.449805 0.033118 0.392611
O O10 0.179817 0.912276 0.417009
O O11 0.013957 0.752324 0.086698
#
# Coordination Sequence:
#
# PCOD8146421 Si02
#       6
#     8   8   4   8   8   8
#     4  11  21  39  62  92 119 159 203 254 304 362
#     4  11  24  39  61  93 125 151 210 255 301 370
#     4  12  20  38  62  86 120 158 192 254 312 348
#     4  10  22  41  65  89 127 166 205 246 306 375
#     4  10  23  43  62  90 127 167 201 252 306 361
#     4  12  21  39  65  91 121 160 206 255 304 359
#
# _framework density 22.501647999999999
#
# number of rings (size 3 to 8) (size 9 to 14) (size 15 to 20)
#    0.000    1.091    5.455    0.545    0.000    2.182 
#    0.000   10.000    0.000    0.000    0.000    0.000 
#    0.000    0.000    0.000    0.000    0.000    0.000 
#
# Total GULP energy -272702.137224 kJ/mol
# GULP energy per Si atom -12395.551692 kJ/mol
# Density = 2.245043 g / cm^3
# Si number density = 22.501648 Si / 1000 Ang^3
#
#
#
# Elastic Constant Matrix: (Units=GPa)
#
#
# Indices 1 2 3 4 5 6 
#
# 1 160.7738 27.5641 -1.2726 0.0000 -2.0638 0.0000
# 2 27.5641 47.7551 5.1545 0.0000 2.4712 0.0000
# 3 -1.2726 5.1545 40.5201 0.0000 18.4504 0.0000
# 4 0.0000 0.0000 0.0000 23.0930 0.0000 0.9163
# 5 -2.0638 2.4712 18.4504 0.0000 20.0046 0.0000
# 6 0.0000 0.0000 0.0000 0.9163 0.0000 32.8757
#
#
#
# Elastic Compliance Matrix: (Units=1/GPa)
#
#
# Indices 1 2 3 4 5 6 
#
# 1 0.006935 -0.004085 0.000314 0.000000 0.000931 0.000000
# 2 -0.004085 0.023638 -0.002782 0.000000 -0.000775 0.000000
# 3 0.000314 -0.002782 0.042879 0.000000 -0.039172 0.000000
# 4 0.000000 0.000000 0.000000 0.043351 0.000000 -0.001208
# 5 0.000931 -0.000775 -0.039172 0.000000 0.086309 0.000000
# 6 0.000000 0.000000 0.000000 -0.001208 0.000000 0.030451
#
#
# Mechanical properties :
#
#
# Convention : Reuss Voigt Hill
#
# Bulk Modulus (GPa) = 16.57117 34.66011 25.61564
# Shear Modulus (GPa) = 18.74165 29.70153 24.22159
#
# Velocity S-wave (km/s) = 2.88913 3.63708 3.28447
# Velocity P-wave (km/s) = 4.30231 5.75105 5.07861
#
# Compressibility (1/GPa) = 0.06034579
#
# Stress axis : x y z
#
# Youngs Moduli (GPa) = 144.20343 42.30431 23.32122
#
# Poissons Ratio (x) = 0.17280 -0.00731
# Poissons Ratio (y) = 0.58902 0.06488
# Poissons Ratio (z) = -0.04522 0.11770
#
# Static dielectric constant tensor:
#      x y z
#    x 4.191820 0.000000 0.106020 
#    y 0.000000 3.773730 0.000000 
#    z 0.106020 0.000000 4.153810 
# 
# 
# High freq. dielectric constant tensor:
#      x y z
#    x 1.899010 0.000000 0.011360 
#    y 0.000000 1.851700 0.000000 
#    z 0.011360 0.000000 1.891440 
# 
# From -- ./inp_files/230294.got.cif
#   From: 2010.06.25/outbox.cif.g09.slc.cpg/sg15_116_cif.got.tgz:230294.got - 2010.06.28 07:06:18.
