data_PCOD8146740
_publ_section_title
;
Structure prediction by ZEFSAII (Michael W. Deem and Ramdas Pophale) SiO2 
 PCOD8146740
Probable space group: C 2/C
;
_chemical_formula_sum "Si O2"
_cell_formula_units_Z 40
_cell_length_a 11.137284
_cell_length_b 14.942568
_cell_length_c 17.104492
_cell_angle_alpha 90.000000
_cell_angle_beta 135.120691
_cell_angle_gamma 90.000000
_cell_volume 2008.551473
_symmetry_space_group_name_H-M "C 2/C"
_symmetry_group_IT_number 15
_symmetry_cell_setting 'monoclinic'
loop_
_space_group_symop_operation_xyz
x,y,z
-x,y,1/2-z
-x,-y,-z
x,-y,1/2+z
1/2+x,1/2+y,z
1/2-x,1/2+y,1/2-z
1/2-x,1/2-y,-z
1/2+x,1/2-y,1/2+z
loop_
_atom_site_type_symbol
_atom_site_label
_atom_site_fract_x
_atom_site_fract_y
_atom_site_fract_z
Si Si1 0.643957 0.841020 0.954638
Si Si2 0.693273 0.550368 0.841788
Si Si3 0.340432 0.131558 0.425387
Si Si4 0.085271 0.389420 0.177971
Si Si5 0.000000 0.763633 0.750000
Si Si6 0.500000 0.047026 0.250000
O O1 0.470469 0.821312 0.924346
O O2 0.612821 0.884849 0.854718
O O3 0.750000 0.750000 0.000000
O O4 0.762568 0.912127 0.053092
O O5 0.500000 0.523188 0.750000
O O6 0.806564 0.464807 0.872378
O O7 0.745266 0.619323 0.797278
O O8 0.417763 0.113054 0.546500
O O9 0.159090 0.179513 0.355368
O O10 0.084691 0.297679 0.223991
O O11 0.100647 0.478619 0.239100
#
# Coordination Sequence:
#
# PCOD8146740 Si02
#       6
#     8   8   8   8   4   4
#     4  11  25  39  66  95 129 169 210 269 316 378
#     4  11  22  43  67  90 130 171 211 254 326 384
#     4  11  21  44  63  92 130 167 214 254 328 376
#     4  10  22  42  63  90 130 170 207 261 316 380
#     4  11  24  36  69  96 126 164 213 270 306 379
#     4  11  20  42  65  90 126 170 211 258 320 373
#
# _framework density 19.914850000000001
#
# number of rings (size 3 to 8) (size 9 to 14) (size 15 to 20)
#    0.000    1.200    5.000    1.800    4.200    1.600 
#    0.000    1.000    0.000    0.000    0.000    0.000 
#    0.000    0.000    0.000    0.000    0.000    0.000 
#
# Total GULP energy -247813.233773 kJ/mol
# GULP energy per Si atom -12390.661689 kJ/mol
# Density = 1.986952 g / cm^3
# Si number density = 19.914850 Si / 1000 Ang^3
#
#
#
# Elastic Constant Matrix: (Units=GPa)
#
#
# Indices 1 2 3 4 5 6 
#
# 1 71.2748 39.9861 46.5084 0.0000 -7.7664 0.0000
# 2 39.9861 107.0920 42.2112 0.0000 -1.6792 0.0000
# 3 46.5084 42.2112 99.0946 0.0000 -10.9855 0.0000
# 4 0.0000 0.0000 0.0000 39.3279 0.0000 3.6060
# 5 -7.7664 -1.6792 -10.9855 0.0000 37.7070 0.0000
# 6 0.0000 0.0000 0.0000 3.6060 0.0000 23.1458
#
#
#
# Elastic Compliance Matrix: (Units=1/GPa)
#
#
# Indices 1 2 3 4 5 6 
#
# 1 0.022431 -0.005147 -0.008110 0.000000 0.002028 0.000000
# 2 -0.005147 0.012434 -0.003035 0.000000 -0.001391 0.000000
# 3 -0.008110 -0.003035 0.015491 0.000000 0.002707 0.000000
# 4 0.000000 0.000000 0.000000 0.025796 0.000000 -0.004019
# 5 0.002028 -0.001391 0.002707 0.000000 0.027665 0.000000
# 6 0.000000 0.000000 0.000000 -0.004019 0.000000 0.043830
#
#
# Mechanical properties :
#
#
# Convention : Reuss Voigt Hill
#
# Bulk Modulus (GPa) = 56.27075 59.43031 57.85053
# Shear Modulus (GPa) = 26.85940 29.95319 28.40629
#
# Velocity S-wave (km/s) = 3.67647 3.88243 3.78085
# Velocity P-wave (km/s) = 6.80727 7.07140 6.94059
#
# Compressibility (1/GPa) = 0.01777122
#
# Stress axis : x y z
#
# Youngs Moduli (GPa) = 44.58172 80.42502 64.55419
#
# Poissons Ratio (x) = 0.41392 0.52356
# Poissons Ratio (y) = 0.22945 0.19593
# Poissons Ratio (z) = 0.36157 0.24410
#
# Static dielectric constant tensor:
#      x y z
#    x 3.527240 0.000000 -0.209580 
#    y 0.000000 3.682180 0.000000 
#    z -0.209580 0.000000 3.926930 
# 
# 
# High freq. dielectric constant tensor:
#      x y z
#    x 1.774150 0.000000 -0.009560 
#    y 0.000000 1.783480 0.000000 
#    z -0.009560 0.000000 1.778920 
# 
# From -- ./inp_files/85586.got.cif
#   From: 2010.06.25/outbox.cif.g09.slc.cpg/sg15_43_cif.got.tgz:85586.got - 2010.06.28 07:06:18.
