data_PCOD8146116
_publ_section_title
;
Structure prediction by ZEFSAII (Michael W. Deem and Ramdas Pophale) SiO2 
 PCOD8146116
Probable space group: C 2/C
;
_chemical_formula_sum "Si O2"
_cell_formula_units_Z 52
_cell_length_a 11.440502
_cell_length_b 25.427940
_cell_length_c 9.039303
_cell_angle_alpha 90.000000
_cell_angle_beta 119.983245
_cell_angle_gamma 90.000000
_cell_volume 2277.692724
_symmetry_space_group_name_H-M "C 2/C"
_symmetry_group_IT_number 15
_symmetry_cell_setting 'monoclinic'
loop_
_space_group_symop_operation_xyz
x,y,z
-x,y,1/2-z
-x,-y,-z
x,-y,1/2+z
1/2+x,1/2+y,z
1/2-x,1/2+y,1/2-z
1/2-x,1/2-y,-z
1/2+x,1/2-y,1/2+z
loop_
_atom_site_type_symbol
_atom_site_label
_atom_site_fract_x
_atom_site_fract_y
_atom_site_fract_z
Si Si1 0.146165 0.195272 0.684954
Si Si2 0.269761 0.662685 0.452739
Si Si3 0.500000 0.781504 0.750000
Si Si4 0.639864 0.725407 0.249325
Si Si5 0.364926 0.046489 0.575700
Si Si6 0.865935 0.871912 0.584328
Si Si7 0.860811 0.561538 0.226447
O O1 0.053440 0.246336 0.648114
O O2 0.282130 0.219190 0.694405
O O3 0.076056 0.155034 0.528091
O O4 0.163885 0.160820 0.843967
O O5 0.359935 0.705615 0.421504
O O6 0.257908 0.605008 0.367591
O O7 0.119490 0.683276 0.387834
O O8 0.500000 0.732772 0.250000
O O9 0.710433 0.674287 0.371393
O O10 0.500000 0.064735 0.750000
O O11 0.240432 0.084496 0.531248
O O12 0.386784 0.045516 0.413080
O O13 0.320041 0.989492 0.605696
O O14 0.000000 0.895002 0.750000
O O15 0.000000 0.584764 0.250000
#
# Coordination Sequence:
#
# PCOD8146116 Si02
#       7
#     8   8   4   8   8   8   8
#     4  11  26  40  69  99 134 198 234 280 349 428
#     4  11  23  42  71  99 137 185 236 293 351 420
#     4  10  22  40  66  98 140 172 238 286 348 410
#     4  10  22  44  65  98 145 186 230 292 347 420
#     4  11  25  45  77 104 138 179 239 296 363 420
#     4  11  26  45  68  98 147 182 229 289 352 419
#     4  11  23  44  71 105 136 176 235 308 354 414
#
# _framework density 22.830120000000001
#
# number of rings (size 3 to 8) (size 9 to 14) (size 15 to 20)
#    0.000    1.231    2.308    4.154   12.923    0.615 
#    0.000    0.769    1.692    0.000    0.000    0.000 
#    0.000    0.000    0.000    0.000    0.000    0.000 
#
# Total GULP energy -322138.347146 kJ/mol
# GULP energy per Si atom -12389.936429 kJ/mol
# Density = 2.277816 g / cm^3
# Si number density = 22.830120 Si / 1000 Ang^3
#
#
#
# Elastic Constant Matrix: (Units=GPa)
#
#
# Indices 1 2 3 4 5 6 
#
# 1 100.2823 32.8641 37.0112 0.0000 -4.0694 0.0000
# 2 32.8641 100.2444 55.3145 0.0000 12.2764 0.0000
# 3 37.0112 55.3145 136.0454 0.0000 -0.7004 0.0000
# 4 0.0000 0.0000 0.0000 32.7770 0.0000 -0.5553
# 5 -4.0694 12.2764 -0.7004 0.0000 37.1994 0.0000
# 6 0.0000 0.0000 0.0000 -0.5553 0.0000 39.9091
#
#
#
# Elastic Compliance Matrix: (Units=1/GPa)
#
#
# Indices 1 2 3 4 5 6 
#
# 1 0.011788 -0.003067 -0.001948 0.000000 0.002265 0.000000
# 2 -0.003067 0.014401 -0.005048 0.000000 -0.005183 0.000000
# 3 -0.001948 -0.005048 0.009941 0.000000 0.001640 0.000000
# 4 0.000000 0.000000 0.000000 0.030516 0.000000 0.000425
# 5 0.002265 -0.005183 0.001640 0.000000 0.028871 0.000000
# 6 0.000000 0.000000 0.000000 0.000425 0.000000 0.025063
#
#
# Mechanical properties :
#
#
# Convention : Reuss Voigt Hill
#
# Bulk Modulus (GPa) = 62.48189 65.21684 63.84937
# Shear Modulus (GPa) = 34.23691 36.06927 35.15309
#
# Velocity S-wave (km/s) = 3.87672 3.97911 3.92824
# Velocity P-wave (km/s) = 6.88957 7.05260 6.97156
#
# Compressibility (1/GPa) = 0.01600464
#
# Stress axis : x y z
#
# Youngs Moduli (GPa) = 84.83302 69.43924 100.59063
#
# Poissons Ratio (x) = 0.21296 0.19598
# Poissons Ratio (y) = 0.26017 0.50775
# Poissons Ratio (z) = 0.16528 0.35051
#
# Static dielectric constant tensor:
#      x y z
#    x 4.251260 0.000000 -0.117150 
#    y 0.000000 4.026270 0.000000 
#    z -0.117150 0.000000 4.236830 
# 
# 
# High freq. dielectric constant tensor:
#      x y z
#    x 1.906450 0.000000 -0.011720 
#    y 0.000000 1.882110 0.000000 
#    z -0.011720 0.000000 1.914900 
# 
# From -- ./inp_files/34420.got.cif
#   From: 2010.06.25/outbox.cif.g09.slc.cpg/sg15_18_cif.got.tgz:34420.got - 2010.06.28 07:06:18.
