data_PCOD8146777
_publ_section_title
;
Structure prediction by ZEFSAII (Michael W. Deem and Ramdas Pophale) SiO2 
 PCOD8146777
Probable space group: C 2/C
;
_chemical_formula_sum "Si O2"
_cell_formula_units_Z 44
_cell_length_a 15.168835
_cell_length_b 25.325193
_cell_length_c 5.045689
_cell_angle_alpha 90.000000
_cell_angle_beta 84.969751
_cell_angle_gamma 90.000000
_cell_volume 1930.854617
_symmetry_space_group_name_H-M "C 2/C"
_symmetry_group_IT_number 15
_symmetry_cell_setting 'monoclinic'
loop_
_space_group_symop_operation_xyz
x,y,z
-x,y,1/2-z
-x,-y,-z
x,-y,1/2+z
1/2+x,1/2+y,z
1/2-x,1/2+y,1/2-z
1/2-x,1/2-y,-z
1/2+x,1/2-y,1/2+z
loop_
_atom_site_type_symbol
_atom_site_label
_atom_site_fract_x
_atom_site_fract_y
_atom_site_fract_z
Si Si1 0.297986 0.466422 0.523065
Si Si2 0.147288 0.286359 0.765705
Si Si3 0.500000 0.870141 0.750000
Si Si4 0.595849 0.964328 0.536249
Si Si5 0.151383 0.782056 0.757254
Si Si6 0.944612 0.116515 0.026147
O O1 0.317240 0.513393 0.313074
O O2 0.198099 0.446906 0.504611
O O3 0.361952 0.417786 0.452766
O O4 0.079919 0.334393 0.840767
O O5 0.138342 0.265360 0.469355
O O6 0.248483 0.304729 0.781412
O O7 0.124143 0.239610 0.976374
O O8 0.540717 0.909793 0.516494
O O9 0.572830 0.007695 0.322455
O O10 0.086165 0.828686 0.842310
O O11 0.000000 0.088304 0.250000
O O12 0.000000 0.127693 0.750000
#
# Coordination Sequence:
#
# PCOD8146777 Si02
#       6
#     8   8   4   8   8   8
#     4  10  22  42  64  91 127 168 210 258 319 379
#     4  10  24  40  68  87 126 163 214 269 306 379
#     4  12  24  40  68 104 122 166 214 268 308 382
#     4  10  23  42  65  93 134 168 201 257 319 386
#     4  10  23  46  58  90 125 171 209 256 330 375
#     4  12  25  38  64  92 124 170 209 271 314 382
#
# _framework density 22.787837
#
# number of rings (size 3 to 8) (size 9 to 14) (size 15 to 20)
#    0.000    1.455    0.000    3.818    3.818    5.091 
#    0.000   10.909    0.000    0.000    0.000    0.000 
#    0.000    0.000    0.000    0.000    0.000    0.000 
#
# Total GULP energy -272838.324267 kJ/mol
# GULP energy per Si atom -12401.742012 kJ/mol
# Density = 2.273597 g / cm^3
# Si number density = 22.787837 Si / 1000 Ang^3
#
#
#
# Elastic Constant Matrix: (Units=GPa)
#
#
# Indices 1 2 3 4 5 6 
#
# 1 139.9522 85.2441 47.5470 0.0000 -13.0903 0.0000
# 2 85.2441 103.4288 20.9470 0.0000 -18.9187 0.0000
# 3 47.5470 20.9470 115.1436 0.0000 -16.0315 0.0000
# 4 0.0000 0.0000 0.0000 -83.0340 0.0000 -5.7071
# 5 -13.0903 -18.9187 -16.0315 0.0000 36.9437 0.0000
# 6 0.0000 0.0000 0.0000 -5.7071 0.0000 38.5275
#
#
#
# Elastic Compliance Matrix: (Units=1/GPa)
#
#
# Indices 1 2 3 4 5 6 
#
# 1 0.016565 -0.013220 -0.004854 0.000000 -0.003007 0.000000
# 2 -0.013220 0.021391 0.002597 0.000000 0.007397 0.000000
# 3 -0.004854 0.002597 0.010816 0.000000 0.004304 0.000000
# 4 0.000000 0.000000 0.000000 -0.011922 0.000000 -0.001766
# 5 -0.003007 0.007397 0.004304 0.000000 0.031659 0.000000
# 6 0.000000 0.000000 0.000000 -0.001766 0.000000 0.025694
#
#
# Mechanical properties :
#
#
# Convention : Reuss Voigt Hill
#
# Bulk Modulus (GPa) = 56.11890 74.00008 65.05949
# Shear Modulus (GPa) = 38.14039 12.13986 25.14012
#
# Velocity S-wave (km/s) = 4.09555 2.31061 3.32509
# Velocity P-wave (km/s) = 6.85892 6.29782 6.58435
#
# Compressibility (1/GPa) = 0.01781931
#
# Stress axis : x y z
#
# Youngs Moduli (GPa) = 60.36782 46.74909 92.45642
#
# Poissons Ratio (x) = 0.61800 0.44879
# Poissons Ratio (y) = 0.79803 -0.24014
# Poissons Ratio (z) = 0.29303 -0.12142
#
# Static dielectric constant tensor:
#      x y z
#    x 4.481940 0.000000 -0.116770 
#    y 0.000000 3.774620 0.000000 
#    z -0.116770 0.000000 4.128850 
# 
# 
# High freq. dielectric constant tensor:
#      x y z
#    x 1.926290 0.000000 -0.011160 
#    y 0.000000 1.884050 0.000000 
#    z -0.011160 0.000000 1.904330 
# 
# From -- ./inp_files/7554.got.cif
#   From: 2010.06.25/outbox.cif.g09.slc.cpg/sg15_4_cif.got.tgz:7554.got - 2010.06.28 07:06:18.
