data_PCOD8146435
_publ_section_title
;
Structure prediction by ZEFSAII (Michael W. Deem and Ramdas Pophale) SiO2 
 PCOD8146435
Probable space group: C 2/C
;
_chemical_formula_sum "Si O2"
_cell_formula_units_Z 64
_cell_length_a 9.664118
_cell_length_b 13.186770
_cell_length_c 23.136734
_cell_angle_alpha 90.000000
_cell_angle_beta 106.494559
_cell_angle_gamma 90.000000
_cell_volume 2827.169765
_symmetry_space_group_name_H-M "C 2/C"
_symmetry_group_IT_number 15
_symmetry_cell_setting 'monoclinic'
loop_
_space_group_symop_operation_xyz
x,y,z
-x,y,1/2-z
-x,-y,-z
x,-y,1/2+z
1/2+x,1/2+y,z
1/2-x,1/2+y,1/2-z
1/2-x,1/2-y,-z
1/2+x,1/2-y,1/2+z
loop_
_atom_site_type_symbol
_atom_site_label
_atom_site_fract_x
_atom_site_fract_y
_atom_site_fract_z
Si Si1 0.833856 0.620386 0.218249
Si Si2 0.057031 0.415466 0.466376
Si Si3 0.067658 0.213369 0.045976
Si Si4 0.609646 0.674472 0.814215
Si Si5 0.284409 0.669915 0.081977
Si Si6 0.743076 0.476658 0.598616
Si Si7 0.064935 0.833692 0.087443
Si Si8 0.344557 0.546175 0.201106
O O1 0.787997 0.726235 0.180165
O O2 0.787047 0.528877 0.170941
O O3 0.761860 0.608806 0.271552
O O4 0.000000 0.611518 0.250000
O O5 0.923132 0.335577 0.438428
O O6 0.184392 0.360353 0.516300
O O7 0.121096 0.472760 0.418088
O O8 0.000000 0.500000 0.500000
O O9 0.936968 0.185762 0.071545
O O10 0.203033 0.137842 0.072462
O O11 0.040869 0.205224 0.974569
O O12 0.500000 0.690493 0.750000
O O13 0.521883 0.675432 0.863510
O O14 0.697566 0.571665 0.812507
O O15 0.213655 0.767981 0.105034
O O16 0.322690 0.587297 0.134325
O O17 0.603697 0.549209 0.578854
O O18 0.500000 0.557557 0.250000
#
# Coordination Sequence:
#
# PCOD8146435 Si02
#       8
#     8   8   8   8   8   8   8   8
#     4  11  26  46  65  98 134 175 225 283 354 405
#     4  11  26  41  63 102 141 174 222 282 350 411
#     4  11  23  43  66 102 132 179 230 272 341 417
#     4  10  22  41  65  92 128 176 225 270 334 405
#     4  11  21  42  68  97 135 174 219 284 338 405
#     4  12  24  43  70  96 136 179 229 283 341 419
#     4  11  21  41  69  98 135 177 222 283 338 410
#     4  11  24  44  71  98 129 177 236 281 331 417
#
# _framework density 22.63748
#
# number of rings (size 3 to 8) (size 9 to 14) (size 15 to 20)
#    0.000    1.000    2.500    5.625    7.000    1.500 
#    0.000    1.250    0.000    0.000    0.000    0.000 
#    0.000    0.000    0.000    0.000    0.000    0.000 
#
# Total GULP energy -396437.745915 kJ/mol
# GULP energy per Si atom -12388.679560 kJ/mol
# Density = 2.258596 g / cm^3
# Si number density = 22.637480 Si / 1000 Ang^3
#
#
#
# Elastic Constant Matrix: (Units=GPa)
#
#
# Indices 1 2 3 4 5 6 
#
# 1 46.4775 30.6126 2.5061 0.0000 -26.0239 0.0000
# 2 30.6126 121.9448 13.9831 0.0000 -9.4304 0.0000
# 3 2.5061 13.9831 83.3691 0.0000 -26.0125 0.0000
# 4 0.0000 0.0000 0.0000 40.0247 0.0000 -5.0812
# 5 -26.0239 -9.4304 -26.0125 0.0000 45.0066 0.0000
# 6 0.0000 0.0000 0.0000 -5.0812 0.0000 28.7678
#
#
#
# Elastic Compliance Matrix: (Units=1/GPa)
#
#
# Indices 1 2 3 4 5 6 
#
# 1 0.043245 -0.009720 0.009146 0.000000 0.028255 0.000000
# 2 -0.009720 0.010595 -0.003106 0.000000 -0.005195 0.000000
# 3 0.009146 -0.003106 0.016699 0.000000 0.014290 0.000000
# 4 0.000000 0.000000 0.000000 0.025558 0.000000 0.004514
# 5 0.028255 -0.005195 0.014290 0.000000 0.045727 0.000000
# 6 0.000000 0.000000 0.000000 0.004514 0.000000 0.035558
#
#
# Mechanical properties :
#
#
# Convention : Reuss Voigt Hill
#
# Bulk Modulus (GPa) = 15.82759 38.44392 27.13575
# Shear Modulus (GPa) = 24.29520 36.40578 30.35049
#
# Velocity S-wave (km/s) = 3.27957 4.01460 3.66555
# Velocity P-wave (km/s) = 4.62036 6.20553 5.47066
#
# Compressibility (1/GPa) = 0.06318080
#
# Stress axis : x y z
#
# Youngs Moduli (GPa) = 23.12387 94.38551 59.88225
#
# Poissons Ratio (x) = 0.91742 -0.54770
# Poissons Ratio (y) = 0.22476 0.18599
# Poissons Ratio (z) = -0.21150 0.29315
#
# Static dielectric constant tensor:
#      x y z
#    x 2.947130 0.000000 0.064330 
#    y 0.000000 5.388130 0.000000 
#    z 0.064330 0.000000 4.097600 
# 
# 
# High freq. dielectric constant tensor:
#      x y z
#    x 1.873570 0.000000 -0.015310 
#    y 0.000000 1.913430 0.000000 
#    z -0.015310 0.000000 1.907490 
# 
# From -- ./inp_files/268896.got.cif
#   From: 2010.06.25/outbox.cif.g09.slc.cpg/sg15_135_cif.got.tgz:268896.got - 2010.06.28 07:06:18.
