data_PCOD8146261
_publ_section_title
;
Structure prediction by ZEFSAII (Michael W. Deem and Ramdas Pophale) SiO2 
 PCOD8146261
Probable space group: C 2/C
;
_chemical_formula_sum "Si O2"
_cell_formula_units_Z 36
_cell_length_a 4.893174
_cell_length_b 13.874317
_cell_length_c 22.938969
_cell_angle_alpha 90.000000
_cell_angle_beta 85.712745
_cell_angle_gamma 90.000000
_cell_volume 1552.956229
_symmetry_space_group_name_H-M "C 2/C"
_symmetry_group_IT_number 15
_symmetry_cell_setting 'monoclinic'
loop_
_space_group_symop_operation_xyz
x,y,z
-x,y,1/2-z
-x,-y,-z
x,-y,1/2+z
1/2+x,1/2+y,z
1/2-x,1/2+y,1/2-z
1/2-x,1/2-y,-z
1/2+x,1/2-y,1/2+z
loop_
_atom_site_type_symbol
_atom_site_label
_atom_site_fract_x
_atom_site_fract_y
_atom_site_fract_z
Si Si1 0.373090 0.212642 0.127256
Si Si2 0.402682 0.431193 0.124787
Si Si3 0.079181 0.477484 0.933345
Si Si4 0.663249 0.719132 0.298434
Si Si5 0.500000 0.610847 0.750000
O O1 0.474081 0.319756 0.109216
O O2 0.548985 0.176412 0.181715
O O3 0.049610 0.222462 0.144485
O O4 0.439790 0.138111 0.074765
O O5 0.608036 0.495929 0.084253
O O6 0.426988 0.452846 0.193954
O O7 0.101633 0.461676 0.109070
O O8 0.000000 0.500000 0.000000
O O9 0.500000 0.659946 0.250000
O O10 0.734623 0.823467 0.269320
#
# Coordination Sequence:
#
# PCOD8146261 Si02
#       5
#     8   8   8   8   4
#     4  11  24  42  70  98 133 179 223 272 351 386
#     4  11  24  45  72  99 139 178 218 288 351 398
#     4  12  28  48  67 101 137 179 248 282 313 410
#     4  11  18  38  68  98 138 172 206 276 335 414
#     4  10  22  40  72 104 142 168 226 276 346 432
#
# _framework density 23.181591000000001
#
# number of rings (size 3 to 8) (size 9 to 14) (size 15 to 20)
#    0.000    0.889    4.444    4.667    0.000    1.778 
#   12.000    0.000    0.000    0.000    0.000    0.000 
#    0.000    0.000    0.000    0.000    0.000    0.000 
#
# Total GULP energy -223066.097126 kJ/mol
# GULP energy per Si atom -12392.560951 kJ/mol
# Density = 2.312883 g / cm^3
# Si number density = 23.181591 Si / 1000 Ang^3
#
#
#
# Elastic Constant Matrix: (Units=GPa)
#
#
# Indices 1 2 3 4 5 6 
#
# 1 111.0443 6.4755 14.1777 0.0000 -1.8871 0.0000
# 2 6.4755 84.9362 27.7885 0.0000 8.7838 0.0000
# 3 14.1777 27.7885 113.0137 0.0000 -6.3575 0.0000
# 4 0.0000 0.0000 0.0000 37.6232 0.0000 1.2351
# 5 -1.8871 8.7838 -6.3575 0.0000 25.2712 0.0000
# 6 0.0000 0.0000 0.0000 1.2351 0.0000 11.3120
#
#
#
# Elastic Compliance Matrix: (Units=1/GPa)
#
#
# Indices 1 2 3 4 5 6 
#
# 1 0.009169 -0.000428 -0.001013 0.000000 0.000579 0.000000
# 2 -0.000428 0.013569 -0.003601 0.000000 -0.005654 0.000000
# 3 -0.001013 -0.003601 0.010070 0.000000 0.003709 0.000000
# 4 0.000000 0.000000 0.000000 0.026675 0.000000 -0.002912
# 5 0.000579 -0.005654 0.003709 0.000000 0.042512 0.000000
# 6 0.000000 0.000000 0.000000 -0.002912 0.000000 0.088720
#
#
# Mechanical properties :
#
#
# Convention : Reuss Voigt Hill
#
# Bulk Modulus (GPa) = 44.00277 45.09751 44.55014
# Shear Modulus (GPa) = 23.99547 32.21144 28.10345
#
# Velocity S-wave (km/s) = 3.22080 3.73168 3.48561
# Velocity P-wave (km/s) = 5.73188 6.16956 5.95474
#
# Compressibility (1/GPa) = 0.02272584
#
# Stress axis : x y z
#
# Youngs Moduli (GPa) = 109.05751 73.69770 99.30917
#
# Poissons Ratio (x) = 0.03151 0.10056
# Poissons Ratio (y) = 0.04663 0.35760
# Poissons Ratio (z) = 0.11043 0.26537
#
# Static dielectric constant tensor:
#      x y z
#    x 4.586070 0.000000 0.073810 
#    y 0.000000 3.904320 0.000000 
#    z 0.073810 0.000000 4.039820 
# 
# 
# High freq. dielectric constant tensor:
#      x y z
#    x 1.943750 0.000000 0.003960 
#    y 0.000000 1.887200 0.000000 
#    z 0.003960 0.000000 1.894150 
# 
# From -- ./inp_files/226456.got.cif
#   From: 2010.06.25/outbox.cif.g09.slc.cpg/sg15_114_cif.got.tgz:226456.got - 2010.06.28 07:06:18.
