data_PCOD8146169
_publ_section_title
;
Structure prediction by ZEFSAII (Michael W. Deem and Ramdas Pophale) SiO2 
 PCOD8146169
Probable space group: C 2/C
;
_chemical_formula_sum "Si O2"
_cell_formula_units_Z 48
_cell_length_a 30.136472
_cell_length_b 16.374829
_cell_length_c 9.805534
_cell_angle_alpha 90.000000
_cell_angle_beta 27.228721
_cell_angle_gamma 90.000000
_cell_volume 2213.976590
_symmetry_space_group_name_H-M "C 2/C"
_symmetry_group_IT_number 15
_symmetry_cell_setting 'monoclinic'
loop_
_space_group_symop_operation_xyz
x,y,z
-x,y,1/2-z
-x,-y,-z
x,-y,1/2+z
1/2+x,1/2+y,z
1/2-x,1/2+y,1/2-z
1/2-x,1/2-y,-z
1/2+x,1/2-y,1/2+z
loop_
_atom_site_type_symbol
_atom_site_label
_atom_site_fract_x
_atom_site_fract_y
_atom_site_fract_z
Si Si1 0.257768 0.799700 0.839293
Si Si2 0.092690 0.909500 0.188164
Si Si3 0.425876 0.921177 0.330977
Si Si4 0.443682 0.102139 0.266063
Si Si5 0.886111 0.060172 0.178372
Si Si6 0.743202 0.191472 0.648230
O O1 0.330032 0.876261 0.648617
O O2 0.300345 0.736149 0.613537
O O3 0.250000 0.750000 0.000000
O O4 0.153519 0.829765 0.064908
O O5 0.979354 0.887162 0.474822
O O6 0.107371 0.971286 0.273302
O O7 0.124409 0.948996 0.956547
O O8 0.500000 0.926039 0.250000
O O9 0.396857 0.012732 0.359909
O O10 0.479223 0.873062 0.062028
O O11 0.500000 0.093183 0.250000
O O12 0.364702 0.173112 0.501370
O O13 0.789986 0.104571 0.490500
O O14 0.750000 0.250000 0.500000
#
# Coordination Sequence:
#
# PCOD8146169 Si02
#       6
#     8   8   8   8   8   8
#     4  12  26  41  64 100 139 171 213 270 338 403
#     4  10  23  45  68  96 125 174 227 273 325 387
#     4  10  22  44  64  93 126 167 220 266 318 382
#     4  10  22  40  68  90 122 169 218 268 313 381
#     4  10  23  44  70  93 128 172 228 276 323 391
#     4  12  24  41  62  97 133 173 212 267 340 395
#
# _framework density 21.680446
#
# number of rings (size 3 to 8) (size 9 to 14) (size 15 to 20)
#    0.000    1.333    1.667    3.000    2.333    4.000 
#    6.000    0.000    0.000    0.000    0.000    0.000 
#    0.000    0.000    0.000    0.000    0.000    0.000 
#
# Total GULP energy -297500.011080 kJ/mol
# GULP energy per Si atom -12395.833795 kJ/mol
# Density = 2.163110 g / cm^3
# Si number density = 21.680446 Si / 1000 Ang^3
#
#
#
# Elastic Constant Matrix: (Units=GPa)
#
#
# Indices 1 2 3 4 5 6 
#
# 1 112.0503 31.6577 36.7027 0.0000 27.6577 0.0000
# 2 31.6577 72.7544 38.2788 0.0000 5.1072 0.0000
# 3 36.7027 38.2788 103.4285 0.0000 11.5754 0.0000
# 4 0.0000 0.0000 0.0000 44.5934 0.0000 0.4132
# 5 27.6577 5.1072 11.5754 0.0000 41.8998 0.0000
# 6 0.0000 0.0000 0.0000 0.4132 0.0000 40.4039
#
#
#
# Elastic Compliance Matrix: (Units=1/GPa)
#
#
# Indices 1 2 3 4 5 6 
#
# 1 0.012487 -0.003752 -0.002241 0.000000 -0.007167 0.000000
# 2 -0.003752 0.018200 -0.005607 0.000000 0.001807 0.000000
# 3 -0.002241 -0.005607 0.012689 0.000000 -0.001343 0.000000
# 4 0.000000 0.000000 0.000000 0.022427 0.000000 -0.000229
# 5 -0.007167 0.001807 -0.001343 0.000000 0.028748 0.000000
# 6 0.000000 0.000000 0.000000 -0.000229 0.000000 0.024752
#
#
# Mechanical properties :
#
#
# Convention : Reuss Voigt Hill
#
# Bulk Modulus (GPa) = 49.55794 55.72349 52.64072
# Shear Modulus (GPa) = 33.50556 37.48568 35.49562
#
# Velocity S-wave (km/s) = 3.93546 4.16265 4.05064
# Velocity P-wave (km/s) = 6.59988 6.99010 6.79779
#
# Compressibility (1/GPa) = 0.02017840
#
# Stress axis : x y z
#
# Youngs Moduli (GPa) = 80.08050 54.94358 78.80788
#
# Poissons Ratio (x) = 0.20613 0.17659
# Poissons Ratio (y) = 0.30043 0.44187
# Poissons Ratio (z) = 0.17944 0.30806
#
# Static dielectric constant tensor:
#      x y z
#    x 3.953630 0.000000 -0.048920 
#    y 0.000000 4.434120 0.000000 
#    z -0.048920 0.000000 4.033720 
# 
# 
# High freq. dielectric constant tensor:
#      x y z
#    x 1.858400 0.000000 0.011740 
#    y 0.000000 1.844420 0.000000 
#    z 0.011740 0.000000 1.857240 
# 
# From -- ./inp_files/70547.got.cif
#   From: 2010.06.25/outbox.cif.g09.slc.cpg/sg15_36_cif.got.tgz:70547.got - 2010.06.28 07:06:18.
