data_PCOD8146036
_publ_section_title
;
Structure prediction by ZEFSAII (Michael W. Deem and Ramdas Pophale) SiO2 
 PCOD8146036
Probable space group: C 2/C
;
_chemical_formula_sum "Si O2"
_cell_formula_units_Z 52
_cell_length_a 8.454305
_cell_length_b 15.668325
_cell_length_c 29.038938
_cell_angle_alpha 90.000000
_cell_angle_beta 141.285797
_cell_angle_gamma 90.000000
_cell_volume 2405.825675
_symmetry_space_group_name_H-M "C 2/C"
_symmetry_group_IT_number 15
_symmetry_cell_setting 'monoclinic'
loop_
_space_group_symop_operation_xyz
x,y,z
-x,y,1/2-z
-x,-y,-z
x,-y,1/2+z
1/2+x,1/2+y,z
1/2-x,1/2+y,1/2-z
1/2-x,1/2-y,-z
1/2+x,1/2-y,1/2+z
loop_
_atom_site_type_symbol
_atom_site_label
_atom_site_fract_x
_atom_site_fract_y
_atom_site_fract_z
Si Si1 0.000000 0.379479 0.750000
Si Si2 0.251026 0.482541 0.723222
Si Si3 0.658672 0.651737 0.520696
Si Si4 0.335369 0.653577 0.529726
Si Si5 0.131979 0.242644 0.120325
Si Si6 0.479244 0.000208 0.569275
Si Si7 0.931216 0.106352 0.650764
O O1 0.884944 0.426708 0.768380
O O2 0.754517 0.325282 0.681645
O O3 0.500000 0.447789 0.750000
O O4 0.323777 0.569472 0.767239
O O5 0.032678 0.497243 0.636228
O O6 0.543129 0.618382 0.541752
O O7 0.430570 0.698808 0.442576
O O8 0.763198 0.572775 0.514154
O O9 0.871923 0.721222 0.582140
O O10 0.250000 0.750000 0.500000
O O11 0.095603 0.590294 0.470006
O O12 0.477291 0.645477 0.610886
O O13 0.326367 0.319869 0.159320
O O14 0.729971 0.029196 0.599101
#
# Coordination Sequence:
#
# PCOD8146036 Si02
#       7
#     4   8   8   8   8   8   8
#     4  12  26  42  74  92 136 176 226 270 344 394
#     4  10  25  45  66  96 132 178 229 272 330 404
#     4  10  22  40  65  94 131 167 224 269 330 393
#     4  12  23  38  65 102 129 166 224 282 331 397
#     4  10  23  43  64  98 131 175 213 277 338 389
#     4  10  23  42  67  88 136 176 219 276 334 395
#     4  10  23  43  66  92 135 177 220 271 342 394
#
# _framework density 21.6142
#
# number of rings (size 3 to 8) (size 9 to 14) (size 15 to 20)
#    0.000    1.538    1.538    1.846    9.692    2.462 
#    0.000    0.000    0.000    0.000    0.000    0.000 
#    0.000    0.000    0.000    0.000    0.000    0.000 
#
# Total GULP energy -322194.177705 kJ/mol
# GULP energy per Si atom -12392.083758 kJ/mol
# Density = 2.156501 g / cm^3
# Si number density = 21.614200 Si / 1000 Ang^3
#
#
#
# Elastic Constant Matrix: (Units=GPa)
#
#
# Indices 1 2 3 4 5 6 
#
# 1 67.0214 3.1893 0.1768 0.0002 -12.9233 0.0001
# 2 3.1893 103.2470 33.6276 0.0000 0.4149 0.0000
# 3 0.1768 33.6276 87.0749 0.0004 -8.8222 0.0002
# 4 0.0002 0.0000 0.0004 35.8632 0.0001 -4.8180
# 5 -12.9233 0.4149 -8.8222 0.0001 26.2808 0.0001
# 6 0.0001 0.0000 0.0002 -4.8180 0.0001 17.9088
#
#
#
# Elastic Compliance Matrix: (Units=1/GPa)
#
#
# Indices 1 2 3 4 5 6 
#
# 1 0.016618 -0.000938 0.001199 0.000000 0.008589 0.000000
# 2 -0.000938 0.011203 -0.004544 0.000000 -0.002164 0.000000
# 3 0.001199 -0.004544 0.013772 0.000000 0.005284 0.000000
# 4 0.000000 0.000000 0.000000 0.028929 0.000000 0.007783
# 5 0.008589 -0.002164 0.005284 0.000000 0.044082 0.000000
# 6 0.000000 0.000000 0.000000 0.007783 0.000000 0.057932
#
#
# Mechanical properties :
#
#
# Convention : Reuss Voigt Hill
#
# Bulk Modulus (GPa) = 30.27835 36.81451 33.54643
# Shear Modulus (GPa) = 26.02634 30.70054 28.36344
#
# Velocity S-wave (km/s) = 3.47382 3.77289 3.62644
# Velocity P-wave (km/s) = 5.48898 6.00409 5.75231
#
# Compressibility (1/GPa) = 0.03302690
#
# Stress axis : x y z
#
# Youngs Moduli (GPa) = 60.17471 89.26082 72.61042
#
# Poissons Ratio (x) = 0.08376 -0.08705
# Poissons Ratio (y) = 0.05646 0.32993
# Poissons Ratio (z) = -0.07214 0.40559
#
# Static dielectric constant tensor:
#      x y z
#    x 3.892190 0.000000 -0.041480 
#    y 0.000000 3.942930 0.000000 
#    z -0.041480 0.000000 3.968480 
# 
# 
# High freq. dielectric constant tensor:
#      x y z
#    x 1.845090 0.000000 -0.008450 
#    y 0.000000 1.848100 0.000000 
#    z -0.008450 0.000000 1.849620 
# 
# From -- ./inp_files/308321.got.cif
#   From: 2010.06.25/outbox.cif.g09.slc.cpg/sg15_155_cif.got.tgz:308321.got - 2010.06.28 07:06:18.
