data_PCOD8146224
_publ_section_title
;
Structure prediction by ZEFSAII (Michael W. Deem and Ramdas Pophale) SiO2 
 PCOD8146224
Probable space group: C 2/C
;
_chemical_formula_sum "Si O2"
_cell_formula_units_Z 48
_cell_length_a 14.713158
_cell_length_b 10.979148
_cell_length_c 26.020078
_cell_angle_alpha 90.000000
_cell_angle_beta 148.733828
_cell_angle_gamma 90.000000
_cell_volume 2181.537372
_symmetry_space_group_name_H-M "C 2/C"
_symmetry_group_IT_number 15
_symmetry_cell_setting 'monoclinic'
loop_
_space_group_symop_operation_xyz
x,y,z
-x,y,1/2-z
-x,-y,-z
x,-y,1/2+z
1/2+x,1/2+y,z
1/2-x,1/2+y,1/2-z
1/2-x,1/2-y,-z
1/2+x,1/2-y,1/2+z
loop_
_atom_site_type_symbol
_atom_site_label
_atom_site_fract_x
_atom_site_fract_y
_atom_site_fract_z
Si Si1 0.150611 0.573579 0.602424
Si Si2 0.987579 0.224563 0.081464
Si Si3 0.500000 0.678743 0.750000
Si Si4 0.746913 0.647926 0.293529
Si Si5 0.162699 0.587023 0.918456
Si Si6 0.000000 0.729417 0.750000
Si Si7 0.076171 0.692507 0.392688
O O1 0.098185 0.713506 0.589421
O O2 0.331934 0.591349 0.659529
O O3 0.201102 0.494767 0.677190
O O4 0.000000 0.500000 0.500000
O O5 0.103794 0.160710 0.180559
O O6 0.874795 0.340022 0.047099
O O7 0.864523 0.116165 0.000775
O O8 0.501345 0.758368 0.698602
O O9 0.667101 0.691231 0.310385
O O10 0.925239 0.716008 0.362579
O O11 0.123634 0.447214 0.906845
O O12 0.040669 0.640311 0.815847
O O13 0.250000 0.750000 0.500000
#
# Coordination Sequence:
#
# PCOD8146224 Si02
#       7
#     8   8   4   8   8   4   8
#     4  12  24  43  70 104 145 186 242 302 362 437
#     4  10  22  40  70 100 131 185 230 283 354 428
#     4  12  28  44  70 112 146 185 249 296 370 434
#     4  11  23  44  69  98 141 182 235 293 355 426
#     4  10  22  42  68  96 136 174 233 282 349 427
#     4  10  22  44  70  98 128 185 239 286 350 422
#     4  12  26  46  70 105 146 190 232 299 371 428
#
# _framework density 22.002831
#
# number of rings (size 3 to 8) (size 9 to 14) (size 15 to 20)
#    0.000    1.000    3.333    3.000    2.333    1.333 
#    0.000    1.667    0.000    0.000    0.000    0.000 
#    0.000    0.000    0.000    0.000    0.000    0.000 
#
# Total GULP energy -297404.528822 kJ/mol
# GULP energy per Si atom -12391.855368 kJ/mol
# Density = 2.195275 g / cm^3
# Si number density = 22.002831 Si / 1000 Ang^3
#
#
#
# Elastic Constant Matrix: (Units=GPa)
#
#
# Indices 1 2 3 4 5 6 
#
# 1 116.4127 35.7094 38.1800 0.0000 22.3406 0.0000
# 2 35.7094 101.8782 58.6629 0.0000 9.2724 0.0000
# 3 38.1800 58.6629 116.0502 0.0000 24.0338 0.0000
# 4 0.0000 0.0000 0.0000 37.2965 0.0000 -0.6067
# 5 22.3406 9.2724 24.0338 0.0000 38.2815 0.0000
# 6 0.0000 0.0000 0.0000 -0.6067 0.0000 29.6646
#
#
#
# Elastic Compliance Matrix: (Units=1/GPa)
#
#
# Indices 1 2 3 4 5 6 
#
# 1 0.010722 -0.002630 -0.001189 0.000000 -0.004874 0.000000
# 2 -0.002630 0.014539 -0.006980 0.000000 0.002396 0.000000
# 3 -0.001189 -0.006980 0.013842 0.000000 -0.006306 0.000000
# 4 0.000000 0.000000 0.000000 0.026821 0.000000 0.000549
# 5 -0.004874 0.002396 -0.006306 0.000000 0.032346 0.000000
# 6 0.000000 0.000000 0.000000 0.000549 0.000000 0.033721
#
#
# Mechanical properties :
#
#
# Convention : Reuss Voigt Hill
#
# Bulk Modulus (GPa) = 57.12484 66.60508 61.86496
# Shear Modulus (GPa) = 31.36285 34.50111 32.93198
#
# Velocity S-wave (km/s) = 3.77954 3.96413 3.87294
# Velocity P-wave (km/s) = 6.71308 7.16166 6.94099
#
# Compressibility (1/GPa) = 0.01750552
#
# Stress axis : x y z
#
# Youngs Moduli (GPa) = 93.26517 68.78162 72.24179
#
# Poissons Ratio (x) = 0.18091 0.08586
# Poissons Ratio (y) = 0.24531 0.50425
# Poissons Ratio (z) = 0.11085 0.48010
#
# Static dielectric constant tensor:
#      x y z
#    x 4.264020 0.000000 0.399260 
#    y 0.000000 4.044200 0.000000 
#    z 0.399260 0.000000 4.193210 
# 
# 
# High freq. dielectric constant tensor:
#      x y z
#    x 1.863070 0.000000 0.015600 
#    y 0.000000 1.858900 0.000000 
#    z 0.015600 0.000000 1.881180 
# 
# From -- ./inp_files/151885.got.cif
#   From: 2010.06.25/outbox.cif.g09.slc.cpg/sg15_76_cif.got.tgz:151885.got - 2010.06.28 07:06:18.
