data_PCOD8146923
_publ_section_title
;
Structure prediction by ZEFSAII (Michael W. Deem and Ramdas Pophale) SiO2 
 PCOD8146923
Probable space group: C 2/C
;
_chemical_formula_sum "Si O2"
_cell_formula_units_Z 52
_cell_length_a 10.603872
_cell_length_b 23.179986
_cell_length_c 11.497771
_cell_angle_alpha 90.000000
_cell_angle_beta 131.164012
_cell_angle_gamma 90.000000
_cell_volume 2127.587090
_symmetry_space_group_name_H-M "C 2/C"
_symmetry_group_IT_number 15
_symmetry_cell_setting 'monoclinic'
loop_
_space_group_symop_operation_xyz
x,y,z
-x,y,1/2-z
-x,-y,-z
x,-y,1/2+z
1/2+x,1/2+y,z
1/2-x,1/2+y,1/2-z
1/2-x,1/2-y,-z
1/2+x,1/2-y,1/2+z
loop_
_atom_site_type_symbol
_atom_site_label
_atom_site_fract_x
_atom_site_fract_y
_atom_site_fract_z
Si Si1 0.742778 0.513413 0.879102
Si Si2 0.243284 0.251214 0.718904
Si Si3 0.437146 0.173125 0.009070
Si Si4 0.872621 0.878090 0.076490
Si Si5 0.511657 0.072087 0.623918
Si Si6 0.465273 0.328893 0.555937
Si Si7 0.500000 0.580066 0.250000
O O1 0.638985 0.552488 0.909264
O O2 0.800873 0.552852 0.804650
O O3 0.632349 0.460497 0.764095
O O4 0.899114 0.484592 0.039955
O O5 0.302405 0.212282 0.860472
O O6 0.398735 0.293364 0.783705
O O7 0.078637 0.287696 0.655090
O O8 0.191760 0.210885 0.577375
O O9 0.321035 0.142868 0.034533
O O10 0.532351 0.127570 0.982474
O O11 0.000000 0.851707 0.250000
O O12 0.940780 0.858621 0.994539
O O13 0.500000 0.092273 0.750000
O O14 0.398698 0.381141 0.595092
#
# Coordination Sequence:
#
# PCOD8146923 Si02
#       7
#     8   8   8   8   8   8   4
#     4  10  24  43  65  99 134 169 225 271 338 404
#     4  10  23  45  65  99 129 182 222 281 334 395
#     4  10  22  42  66  97 135 172 228 272 336 397
#     4  11  22  42  67 101 136 174 224 282 336 405
#     4  10  23  43  67  93 131 179 215 272 334 407
#     4  11  26  42  68  98 136 178 228 279 340 394
#     4  12  26  42  68 100 136 174 226 278 336 410
#
# _framework density 24.440833999999999
#
# number of rings (size 3 to 8) (size 9 to 14) (size 15 to 20)
#    0.000    1.538    2.308    0.923    4.308    5.538 
#    5.538    0.000    0.000    0.000    0.000    0.000 
#    0.000    0.000    0.000    0.000    0.000    0.000 
#
# Total GULP energy -322240.371430 kJ/mol
# GULP energy per Si atom -12393.860440 kJ/mol
# Density = 2.438521 g / cm^3
# Si number density = 24.440834 Si / 1000 Ang^3
#
#
#
# Elastic Constant Matrix: (Units=GPa)
#
#
# Indices 1 2 3 4 5 6 
#
# 1 68.1317 36.0549 19.6741 0.0000 -9.9869 0.0000
# 2 36.0549 131.8655 36.6257 0.0000 -1.7403 0.0000
# 3 19.6741 36.6257 82.5877 0.0000 15.8478 0.0000
# 4 0.0000 0.0000 0.0000 33.7936 0.0000 0.7593
# 5 -9.9869 -1.7403 15.8478 0.0000 33.9607 0.0000
# 6 0.0000 0.0000 0.0000 0.7593 0.0000 19.4568
#
#
#
# Elastic Compliance Matrix: (Units=1/GPa)
#
#
# Indices 1 2 3 4 5 6 
#
# 1 0.019059 -0.003947 -0.004203 0.000000 0.007364 0.000000
# 2 -0.003947 0.009656 -0.003530 0.000000 0.000982 0.000000
# 3 -0.004203 -0.003530 0.016417 0.000000 -0.009078 0.000000
# 4 0.000000 0.000000 0.000000 0.029617 0.000000 -0.001156
# 5 0.007364 0.000982 -0.009078 0.000000 0.035898 0.000000
# 6 0.000000 0.000000 0.000000 -0.001156 0.000000 0.051441
#
#
# Mechanical properties :
#
#
# Convention : Reuss Voigt Hill
#
# Bulk Modulus (GPa) = 45.93024 51.92156 48.92590
# Shear Modulus (GPa) = 25.94617 30.12424 28.03520
#
# Velocity S-wave (km/s) = 3.26174 3.51456 3.39051
# Velocity P-wave (km/s) = 5.74617 6.14487 5.94886
#
# Compressibility (1/GPa) = 0.02177215
#
# Stress axis : x y z
#
# Youngs Moduli (GPa) = 52.46836 103.56137 60.91137
#
# Poissons Ratio (x) = 0.40871 0.25602
# Poissons Ratio (y) = 0.20707 0.21505
# Poissons Ratio (z) = 0.22053 0.36562
#
# Static dielectric constant tensor:
#      x y z
#    x 4.337360 0.000000 0.337690 
#    y 0.000000 4.773690 0.000000 
#    z 0.337690 0.000000 4.187760 
# 
# 
# High freq. dielectric constant tensor:
#      x y z
#    x 1.963730 0.000000 0.022050 
#    y 0.000000 1.994920 0.000000 
#    z 0.022050 0.000000 1.946100 
# 
# From -- ./inp_files/91334.got.cif
#   From: 2010.06.25/outbox.cif.g09.slc.cpg/sg15_46_cif.got.tgz:91334.got - 2010.06.28 07:06:18.
