data_PCOD8146240
_publ_section_title
;
Structure prediction by ZEFSAII (Michael W. Deem and Ramdas Pophale) SiO2 
 PCOD8146240
Probable space group: C 2/C
;
_chemical_formula_sum "Si O2"
_cell_formula_units_Z 44
_cell_length_a 28.368135
_cell_length_b 10.450436
_cell_length_c 10.085249
_cell_angle_alpha 90.000000
_cell_angle_beta 134.802585
_cell_angle_gamma 90.000000
_cell_volume 2121.426834
_symmetry_space_group_name_H-M "C 2/C"
_symmetry_group_IT_number 15
_symmetry_cell_setting 'monoclinic'
loop_
_space_group_symop_operation_xyz
x,y,z
-x,y,1/2-z
-x,-y,-z
x,-y,1/2+z
1/2+x,1/2+y,z
1/2-x,1/2+y,1/2-z
1/2-x,1/2-y,-z
1/2+x,1/2-y,1/2+z
loop_
_atom_site_type_symbol
_atom_site_label
_atom_site_fract_x
_atom_site_fract_y
_atom_site_fract_z
Si Si1 0.158772 0.291264 0.930461
Si Si2 0.955122 0.502317 0.282481
Si Si3 0.306519 0.642305 0.761411
Si Si4 0.600702 0.724244 0.326851
Si Si5 0.380318 0.386282 0.909600
Si Si6 0.500000 0.466333 0.750000
O O1 0.104495 0.400736 0.813733
O O2 0.165023 0.230565 0.798319
O O3 0.227358 0.353936 0.113835
O O4 0.137473 0.181587 0.989000
O O5 0.925608 0.364065 0.191402
O O6 0.000000 0.550773 0.250000
O O7 0.000000 0.500000 0.500000
O O8 0.326581 0.496243 0.774336
O O9 0.335551 0.694271 0.956843
O O10 0.621547 0.714877 0.214230
O O11 0.543385 0.621011 0.238824
O O12 0.453651 0.446175 0.066212
#
# Coordination Sequence:
#
# PCOD8146240 Si02
#       6
#     8   8   8   8   8   4
#     4  11  26  45  69  96 136 178 222 275 338 401
#     4  12  26  44  67  99 139 175 220 274 341 403
#     4  10  24  47  67  96 134 175 224 279 332 391
#     4  11  23  43  68  99 131 173 222 275 330 399
#     4  11  24  42  70 101 127 174 225 274 329 394
#     4  10  22  40  70  94 140 164 218 270 332 394
#
# _framework density 20.740756999999999
#
# number of rings (size 3 to 8) (size 9 to 14) (size 15 to 20)
#    0.000    1.091    0.909    4.909    8.909    0.727 
#    6.545    0.000    0.000    0.000    0.000    0.000 
#    0.000    0.000    0.000    0.000    0.000    0.000 
#
# Total GULP energy -272970.536187 kJ/mol
# GULP energy per Si atom -12407.751645 kJ/mol
# Density = 2.069355 g / cm^3
# Si number density = 20.740757 Si / 1000 Ang^3
#
#
#
# Elastic Constant Matrix: (Units=GPa)
#
#
# Indices 1 2 3 4 5 6 
#
# 1 103.3490 48.3126 64.8821 0.0000 15.4329 0.0000
# 2 48.3126 89.2886 58.5204 0.0000 19.8208 0.0000
# 3 64.8821 58.5204 124.5644 0.0000 19.1355 0.0000
# 4 0.0000 0.0000 0.0000 20.7591 0.0000 -0.5368
# 5 15.4329 19.8208 19.1355 0.0000 35.6011 0.0000
# 6 0.0000 0.0000 0.0000 -0.5368 0.0000 23.0265
#
#
#
# Elastic Compliance Matrix: (Units=1/GPa)
#
#
# Indices 1 2 3 4 5 6 
#
# 1 0.015569 -0.004285 -0.005914 0.000000 -0.001184 0.000000
# 2 -0.004285 0.018360 -0.005569 0.000000 -0.005371 0.000000
# 3 -0.005914 -0.005569 0.014012 0.000000 -0.001867 0.000000
# 4 0.000000 0.000000 0.000000 0.048201 0.000000 0.001124
# 5 -0.001184 -0.005371 -0.001867 0.000000 0.032597 0.000000
# 6 0.000000 0.000000 0.000000 0.001124 0.000000 0.043454
#
#
# Mechanical properties :
#
#
# Convention : Reuss Voigt Hill
#
# Bulk Modulus (GPa) = 60.95718 73.40356 67.18037
# Shear Modulus (GPa) = 23.90098 25.57646 24.73872
#
# Velocity S-wave (km/s) = 3.39834 3.51543 3.45738
# Velocity P-wave (km/s) = 6.69717 7.20732 6.95692
#
# Compressibility (1/GPa) = 0.01640496
#
# Stress axis : x y z
#
# Youngs Moduli (GPa) = 64.23054 54.46575 71.36927
#
# Poissons Ratio (x) = 0.23337 0.42211
# Poissons Ratio (y) = 0.27521 0.39743
# Poissons Ratio (z) = 0.37989 0.30330
#
# Static dielectric constant tensor:
#      x y z
#    x 3.573320 0.000000 -0.189820 
#    y 0.000000 3.847090 0.000000 
#    z -0.189820 0.000000 3.543660 
# 
# 
# High freq. dielectric constant tensor:
#      x y z
#    x 1.818400 0.000000 -0.000730 
#    y 0.000000 1.819650 0.000000 
#    z -0.000730 0.000000 1.827060 
# 
# From -- ./inp_files/65636.got.cif
#   From: 2010.06.25/outbox.cif.g09.slc.cpg/sg15_33_cif.got.tgz:65636.got - 2010.06.28 07:06:18.
