data_PCOD8146734
_publ_section_title
;
Structure prediction by ZEFSAII (Michael W. Deem and Ramdas Pophale) SiO2 
 PCOD8146734
Probable space group: C 2/C
;
_chemical_formula_sum "Si O2"
_cell_formula_units_Z 48
_cell_length_a 8.307112
_cell_length_b 22.441869
_cell_length_c 20.867681
_cell_angle_alpha 90.000000
_cell_angle_beta 140.974132
_cell_angle_gamma 90.000000
_cell_volume 2449.610888
_symmetry_space_group_name_H-M "C 2/C"
_symmetry_group_IT_number 15
_symmetry_cell_setting 'monoclinic'
loop_
_space_group_symop_operation_xyz
x,y,z
-x,y,1/2-z
-x,-y,-z
x,-y,1/2+z
1/2+x,1/2+y,z
1/2-x,1/2+y,1/2-z
1/2-x,1/2-y,-z
1/2+x,1/2-y,1/2+z
loop_
_atom_site_type_symbol
_atom_site_label
_atom_site_fract_x
_atom_site_fract_y
_atom_site_fract_z
Si Si1 0.579359 0.103943 0.663173
Si Si2 0.836582 0.983064 0.764219
Si Si3 0.500000 0.684419 0.750000
Si Si4 0.500000 0.194360 0.750000
Si Si5 0.549461 0.447463 0.965788
Si Si6 0.562343 0.882322 0.840587
Si Si7 0.504982 0.240817 0.380293
O O1 0.754023 0.141428 0.668670
O O2 0.490323 0.151186 0.687242
O O3 0.337461 0.076170 0.552548
O O4 0.744268 0.050743 0.745154
O O5 0.588251 0.941200 0.683803
O O6 0.000000 0.975174 0.750000
O O7 0.998214 0.967422 0.877135
O O8 0.473589 0.725206 0.679976
O O9 0.253044 0.236507 0.665972
O O10 0.365372 0.394863 0.933917
O O11 0.500000 0.500000 0.000000
O O12 0.500000 0.861745 0.750000
O O13 0.484946 0.829829 0.864309
O O14 0.750000 0.250000 0.500000
#
# Coordination Sequence:
#
# PCOD8146734 Si02
#       7
#     8   8   4   4   8   8   8
#     4  11  21  43  62  92 129 160 213 261 317 372
#     4  11  24  39  62  96 131 163 204 271 321 369
#     4  10  24  44  62  90 128 166 206 276 306 374
#     4  10  24  40  68  94 122 170 216 264 308 392
#     4  11  22  39  66  95 122 173 210 248 326 395
#     4  10  22  42  63  88 132 165 205 264 318 379
#     4  11  23  44  66  91 124 170 216 261 323 377
#
# _framework density 19.594949
#
# number of rings (size 3 to 8) (size 9 to 14) (size 15 to 20)
#    0.000    1.333    3.333    2.000    2.333    3.333 
#    3.000    2.500    0.000    0.000    0.000    0.000 
#    0.000    0.000    0.000    0.000    0.000    0.000 
#
# Total GULP energy -297552.410141 kJ/mol
# GULP energy per Si atom -12398.017089 kJ/mol
# Density = 1.955035 g / cm^3
# Si number density = 19.594949 Si / 1000 Ang^3
#
#
#
# Elastic Constant Matrix: (Units=GPa)
#
#
# Indices 1 2 3 4 5 6 
#
# 1 117.3567 41.6300 50.5215 -0.0001 6.1067 0.0000
# 2 41.6300 110.1811 34.9914 0.0001 -0.0307 0.0000
# 3 50.5215 34.9914 115.7030 0.0002 14.1217 -0.0001
# 4 -0.0001 0.0001 0.0002 17.8300 0.0000 1.5675
# 5 6.1067 -0.0307 14.1217 0.0000 28.7002 0.0000
# 6 0.0000 0.0000 -0.0001 1.5675 0.0000 57.6450
#
#
#
# Elastic Compliance Matrix: (Units=1/GPa)
#
#
# Indices 1 2 3 4 5 6 
#
# 1 0.011327 -0.003017 -0.003978 0.000000 -0.000456 0.000000
# 2 -0.003017 0.010913 -0.002195 0.000000 0.001733 0.000000
# 3 -0.003978 -0.002195 0.011640 0.000000 -0.004883 0.000000
# 4 0.000000 0.000000 0.000000 0.056220 0.000000 -0.001529
# 5 -0.000456 0.001733 -0.004883 0.000000 0.037345 0.000000
# 6 0.000000 0.000000 0.000000 -0.001529 0.000000 0.017389
#
#
# Mechanical properties :
#
#
# Convention : Reuss Voigt Hill
#
# Bulk Modulus (GPa) = 64.51130 66.39184 65.45157
# Shear Modulus (GPa) = 29.69477 35.24155 32.46816
#
# Velocity S-wave (km/s) = 3.89708 4.24548 4.07500
# Velocity P-wave (km/s) = 7.29681 7.61497 7.45759
#
# Compressibility (1/GPa) = 0.01550116
#
# Stress axis : x y z
#
# Youngs Moduli (GPa) = 88.28142 91.63169 85.91341
#
# Poissons Ratio (x) = 0.27642 0.34178
# Poissons Ratio (y) = 0.26631 0.18856
# Poissons Ratio (z) = 0.35120 0.20111
#
# Static dielectric constant tensor:
#      x y z
#    x 3.423330 0.000000 0.044480 
#    y 0.000000 3.747040 0.000000 
#    z 0.044480 0.000000 3.452660 
# 
# 
# High freq. dielectric constant tensor:
#      x y z
#    x 1.770430 0.000000 0.009280 
#    y 0.000000 1.779300 0.000000 
#    z 0.009280 0.000000 1.762270 
# 
# From -- ./inp_files/79309.got.cif
#   From: 2010.06.25/outbox.cif.g09.slc.cpg/sg15_40_cif.got.tgz:79309.got - 2010.06.28 07:06:18.
