data_PCOD8146044
_publ_section_title
;
Structure prediction by ZEFSAII (Michael W. Deem and Ramdas Pophale) SiO2 
 PCOD8146044
Probable space group: C 2/C
;
_chemical_formula_sum "Si O2"
_cell_formula_units_Z 56
_cell_length_a 19.071247
_cell_length_b 10.312139
_cell_length_c 20.867137
_cell_angle_alpha 90.000000
_cell_angle_beta 43.981292
_cell_angle_gamma 90.000000
_cell_volume 2849.804706
_symmetry_space_group_name_H-M "C 2/C"
_symmetry_group_IT_number 15
_symmetry_cell_setting 'monoclinic'
loop_
_space_group_symop_operation_xyz
x,y,z
-x,y,1/2-z
-x,-y,-z
x,-y,1/2+z
1/2+x,1/2+y,z
1/2-x,1/2+y,1/2-z
1/2-x,1/2-y,-z
1/2+x,1/2-y,1/2+z
loop_
_atom_site_type_symbol
_atom_site_label
_atom_site_fract_x
_atom_site_fract_y
_atom_site_fract_z
Si Si1 0.110196 0.736099 0.954122
Si Si2 0.883933 0.267474 0.576898
Si Si3 0.109385 0.131570 0.193261
Si Si4 0.612637 0.925544 0.159301
Si Si5 0.310390 0.334574 0.721582
Si Si6 0.698059 0.500516 0.388238
Si Si7 0.815471 0.515656 0.027207
O O1 0.137740 0.728748 0.859899
O O2 0.167456 0.624921 0.954341
O O3 0.146770 0.876021 0.957864
O O4 0.990747 0.720340 0.041562
O O5 0.799082 0.283270 0.686601
O O6 0.870369 0.126045 0.553203
O O7 0.874328 0.375775 0.528763
O O8 0.119515 0.270380 0.152286
O O9 0.119032 0.145278 0.263435
O O10 0.195337 0.039861 0.107375
O O11 0.000000 0.070167 0.250000
O O12 0.500000 0.972712 0.250000
O O13 0.687846 0.979866 0.163577
O O14 0.643875 0.984371 0.071059
O O15 0.297933 0.470010 0.690982
#
# Coordination Sequence:
#
# PCOD8146044 Si02
#       7
#     8   8   8   8   8   8   8
#     4  10  25  39  64  97 130 167 206 269 317 384
#     4  11  22  40  69  92 127 170 209 269 315 377
#     4  10  22  40  65  96 122 170 208 273 313 380
#     4  11  24  40  67  92 128 172 214 266 324 375
#     4   9  23  38  67  91 131 150 226 252 323 366
#     4  10  23  42  64  93 130 167 213 261 317 389
#     4  11  24  40  64  97 130 162 221 263 315 379
#
# _framework density 19.650469000000001
#
# number of rings (size 3 to 8) (size 9 to 14) (size 15 to 20)
#    0.857    0.857    2.857    1.286   10.000    0.571 
#    0.000    0.714    0.000    0.000    0.000    0.000 
#    0.000    0.000    0.000    0.000    0.000    0.000 
#
# Total GULP energy -347163.842365 kJ/mol
# GULP energy per Si atom -12398.708656 kJ/mol
# Density = 1.960574 g / cm^3
# Si number density = 19.650469 Si / 1000 Ang^3
#
#
#
# Elastic Constant Matrix: (Units=GPa)
#
#
# Indices 1 2 3 4 5 6 
#
# 1 101.1165 25.5861 56.2067 0.0000 -30.5757 0.0000
# 2 25.5861 101.9568 26.5108 0.0000 -7.6758 0.0000
# 3 56.2067 26.5108 93.9557 0.0000 -10.0205 0.0000
# 4 0.0000 0.0000 0.0000 7.2461 0.0000 2.7024
# 5 -30.5757 -7.6758 -10.0205 0.0000 47.7328 0.0000
# 6 0.0000 0.0000 0.0000 2.7024 0.0000 32.4202
#
#
#
# Elastic Compliance Matrix: (Units=1/GPa)
#
#
# Indices 1 2 3 4 5 6 
#
# 1 0.018520 -0.001414 -0.009655 0.000000 0.009609 0.000000
# 2 -0.001414 0.010749 -0.002148 0.000000 0.000372 0.000000
# 3 -0.009655 -0.002148 0.016703 0.000000 -0.003024 0.000000
# 4 0.000000 0.000000 0.000000 0.142433 0.000000 -0.011873
# 5 0.009609 0.000372 -0.003024 0.000000 0.026530 0.000000
# 6 0.000000 0.000000 0.000000 -0.011873 0.000000 0.031835
#
#
# Mechanical properties :
#
#
# Convention : Reuss Voigt Hill
#
# Bulk Modulus (GPa) = 51.18047 57.07069 54.12558
# Shear Modulus (GPa) = 17.87530 30.06154 23.96842
#
# Velocity S-wave (km/s) = 3.01933 3.91553 3.49626
# Velocity P-wave (km/s) = 6.18523 7.03902 6.62589
#
# Compressibility (1/GPa) = 0.01953870
#
# Stress axis : x y z
#
# Youngs Moduli (GPa) = 53.99612 93.02948 59.86975
#
# Poissons Ratio (x) = 0.13150 0.57807
# Poissons Ratio (y) = 0.07633 0.12858
# Poissons Ratio (z) = 0.52135 0.19980
#
# Static dielectric constant tensor:
#      x y z
#    x 3.594670 0.000000 -0.137480 
#    y 0.000000 3.482580 0.000000 
#    z -0.137480 0.000000 3.480760 
# 
# 
# High freq. dielectric constant tensor:
#      x y z
#    x 1.767970 0.000000 -0.010870 
#    y 0.000000 1.755440 0.000000 
#    z -0.010870 0.000000 1.762150 
# 
# From -- ./inp_files/248319.got.cif
#   From: 2010.06.25/outbox.cif.g09.slc.cpg/sg15_125_cif.got.tgz:248319.got - 2010.06.28 07:06:18.
