data_PCOD8146053
_publ_section_title
;
Structure prediction by ZEFSAII (Michael W. Deem and Ramdas Pophale) SiO2 
 PCOD8146053
Probable space group: C 2/C
;
_chemical_formula_sum "Si O2"
_cell_formula_units_Z 32
_cell_length_a 9.250451
_cell_length_b 10.071925
_cell_length_c 15.374508
_cell_angle_alpha 90.000000
_cell_angle_beta 120.527978
_cell_angle_gamma 90.000000
_cell_volume 1233.877422
_symmetry_space_group_name_H-M "C 2/C"
_symmetry_group_IT_number 15
_symmetry_cell_setting 'monoclinic'
loop_
_space_group_symop_operation_xyz
x,y,z
-x,y,1/2-z
-x,-y,-z
x,-y,1/2+z
1/2+x,1/2+y,z
1/2-x,1/2+y,1/2-z
1/2-x,1/2-y,-z
1/2+x,1/2-y,1/2+z
loop_
_atom_site_type_symbol
_atom_site_label
_atom_site_fract_x
_atom_site_fract_y
_atom_site_fract_z
Si Si1 0.534061 0.651076 0.483528
Si Si2 0.139433 0.931915 0.728567
Si Si3 0.017830 0.395063 0.582699
Si Si4 0.156332 0.583693 0.843640
O O1 0.500000 0.500000 0.500000
O O2 0.455824 0.675464 0.363907
O O3 0.448338 0.755385 0.524084
O O4 0.740161 0.667217 0.552034
O O5 0.289081 0.866356 0.829966
O O6 0.000000 0.993837 0.750000
O O7 0.214465 0.050854 0.694253
O O8 0.000000 0.500000 0.500000
O O9 0.913498 0.446951 0.634028
O O10 0.000000 0.662357 0.750000
#
# Coordination Sequence:
#
# PCOD8146053 Si02
#       4
#     8   8   8   8
#     4  10  23  42  66  94 129 170 219 270 324 391
#     4  10  22  40  65  97 131 170 218 272 330 393
#     4  11  24  42  67  97 131 173 219 273 335 393
#     4   9  21  43  67  96 135 176 220 273 333 397
#
# _framework density 25.934505999999999
#
# number of rings (size 3 to 8) (size 9 to 14) (size 15 to 20)
#    0.000    2.000    0.000    1.500    0.000   15.000 
#    0.000   15.000    0.000    0.000    0.000    0.000 
#    0.000    0.000    0.000    0.000    0.000    0.000 
#
# Total GULP energy -198220.118772 kJ/mol
# GULP energy per Si atom -12388.757423 kJ/mol
# Density = 2.587548 g / cm^3
# Si number density = 25.934506 Si / 1000 Ang^3
#
#
#
# Elastic Constant Matrix: (Units=GPa)
#
#
# Indices 1 2 3 4 5 6 
#
# 1 130.3726 4.3327 67.4135 0.0000 -8.1814 0.0000
# 2 4.3327 92.2882 49.9302 0.0000 -7.5510 0.0000
# 3 67.4135 49.9302 221.9957 0.0000 31.9276 0.0000
# 4 0.0000 0.0000 0.0000 48.5470 0.0000 -12.7734
# 5 -8.1814 -7.5510 31.9276 0.0000 51.8410 0.0000
# 6 0.0000 0.0000 0.0000 -12.7734 0.0000 13.2720
#
#
#
# Elastic Compliance Matrix: (Units=1/GPa)
#
#
# Indices 1 2 3 4 5 6 
#
# 1 0.010038 0.002153 -0.004175 0.000000 0.004469 0.000000
# 2 0.002153 0.013540 -0.004424 0.000000 0.005036 0.000000
# 3 -0.004175 -0.004424 0.007631 0.000000 -0.006003 0.000000
# 4 0.000000 0.000000 0.000000 0.027584 0.000000 0.026547
# 5 0.004469 0.005036 -0.006003 0.000000 0.024426 0.000000
# 6 0.000000 0.000000 0.000000 0.026547 0.000000 0.100897
#
#
# Mechanical properties :
#
#
# Convention : Reuss Voigt Hill
#
# Bulk Modulus (GPa) = 54.59182 76.44546 65.51864
# Shear Modulus (GPa) = 24.61692 44.26400 34.44046
#
# Velocity S-wave (km/s) = 3.08424 4.13578 3.64810
# Velocity P-wave (km/s) = 5.81197 7.23509 6.56222
#
# Compressibility (1/GPa) = 0.01831776
#
# Stress axis : x y z
#
# Youngs Moduli (GPa) = 99.61849 73.85595 131.04728
#
# Poissons Ratio (x) = -0.15904 0.54718
# Poissons Ratio (y) = -0.21452 0.57970
# Poissons Ratio (z) = 0.41595 0.32671
#
# Static dielectric constant tensor:
#      x y z
#    x 4.891320 0.000000 0.808110 
#    y 0.000000 4.162840 0.000000 
#    z 0.808110 0.000000 6.428670 
# 
# 
# High freq. dielectric constant tensor:
#      x y z
#    x 2.028980 0.000000 0.017560 
#    y 0.000000 2.011220 0.000000 
#    z 0.017560 0.000000 2.085500 
# 
# From -- ./inp_files/132070.got.cif
#   From: 2010.06.25/outbox.cif.g09.slc.cpg/sg15_67_cif.got.tgz:132070.got - 2010.06.28 07:06:18.
