data_PCOD8146289
_publ_section_title
;
Structure prediction by ZEFSAII (Michael W. Deem and Ramdas Pophale) SiO2 
 PCOD8146289
Probable space group: C 2/C
;
_chemical_formula_sum "Si O2"
_cell_formula_units_Z 44
_cell_length_a 25.204784
_cell_length_b 8.822965
_cell_length_c 12.373231
_cell_angle_alpha 90.000000
_cell_angle_beta 49.351022
_cell_angle_gamma 90.000000
_cell_volume 2087.657131
_symmetry_space_group_name_H-M "C 2/C"
_symmetry_group_IT_number 15
_symmetry_cell_setting 'monoclinic'
loop_
_space_group_symop_operation_xyz
x,y,z
-x,y,1/2-z
-x,-y,-z
x,-y,1/2+z
1/2+x,1/2+y,z
1/2-x,1/2+y,1/2-z
1/2-x,1/2-y,-z
1/2+x,1/2-y,1/2+z
loop_
_atom_site_type_symbol
_atom_site_label
_atom_site_fract_x
_atom_site_fract_y
_atom_site_fract_z
Si Si1 0.606410 0.462727 0.926928
Si Si2 0.407708 0.943138 0.540660
Si Si3 0.500000 0.123653 0.250000
Si Si4 0.957931 0.197064 0.624918
Si Si5 0.334162 0.703314 0.500459
Si Si6 0.327660 0.200616 0.771887
O O1 0.601720 0.578325 0.830630
O O2 0.623523 0.555723 0.013405
O O3 0.665447 0.339142 0.822169
O O4 0.533154 0.379561 0.035088
O O5 0.460583 0.832044 0.533355
O O6 0.348046 0.847928 0.558087
O O7 0.455349 0.026974 0.391500
O O8 0.370139 0.055317 0.674377
O O9 0.556505 0.228635 0.238992
O O10 0.358383 0.745564 0.347006
O O11 0.253106 0.657983 0.610816
#
# Coordination Sequence:
#
# PCOD8146289 Si02
#       6
#     8   8   4   8   8   8
#     4  10  22  41  59  86 128 155 202 253 305 366
#     4  11  23  40  62  92 126 160 207 254 308 369
#     4  12  22  36  64  90 122 162 198 258 310 370
#     4  10  23  39  57  91 121 162 198 248 313 368
#     4  10  24  41  62  91 122 167 205 255 308 360
#     4  11  22  41  66  89 123 163 211 251 304 370
#
# _framework density 21.076256999999998
#
# number of rings (size 3 to 8) (size 9 to 14) (size 15 to 20)
#    0.000    1.455    1.818    2.727    5.091    0.000 
#    0.000    0.000    0.000   12.000    0.000    0.000 
#    0.000    0.000    0.000    0.000    0.000    0.000 
#
# Total GULP energy -272745.240029 kJ/mol
# GULP energy per Si atom -12397.510910 kJ/mol
# Density = 2.102829 g / cm^3
# Si number density = 21.076257 Si / 1000 Ang^3
#
#
#
# Elastic Constant Matrix: (Units=GPa)
#
#
# Indices 1 2 3 4 5 6 
#
# 1 108.3179 52.5716 34.8348 0.0000 16.7190 0.0000
# 2 52.5716 128.2712 42.5697 0.0000 9.0406 0.0000
# 3 34.8348 42.5697 80.4778 0.0000 5.4991 0.0000
# 4 0.0000 0.0000 0.0000 13.8623 0.0000 5.6066
# 5 16.7190 9.0406 5.4991 0.0000 32.7949 0.0000
# 6 0.0000 0.0000 0.0000 5.6066 0.0000 38.8785
#
#
#
# Elastic Compliance Matrix: (Units=1/GPa)
#
#
# Indices 1 2 3 4 5 6 
#
# 1 0.012911 -0.003880 -0.003196 0.000000 -0.004977 0.000000
# 2 -0.003880 0.010727 -0.003973 0.000000 -0.000313 0.000000
# 3 -0.003196 -0.003973 0.015907 0.000000 0.000057 0.000000
# 4 0.000000 0.000000 0.000000 0.076606 0.000000 -0.011047
# 5 -0.004977 -0.000313 0.000057 0.000000 0.033106 0.000000
# 6 0.000000 0.000000 0.000000 -0.011047 0.000000 0.027314
#
#
# Mechanical properties :
#
#
# Convention : Reuss Voigt Hill
#
# Bulk Modulus (GPa) = 57.31927 64.11324 60.71625
# Shear Modulus (GPa) = 24.45146 29.57985 27.01566
#
# Velocity S-wave (km/s) = 3.40978 3.75035 3.58411
# Velocity P-wave (km/s) = 6.53891 7.01707 6.78220
#
# Compressibility (1/GPa) = 0.01744614
#
# Stress axis : x y z
#
# Youngs Moduli (GPa) = 77.45115 93.22333 62.86540
#
# Poissons Ratio (x) = 0.36173 0.20093
# Poissons Ratio (y) = 0.30053 0.24978
# Poissons Ratio (z) = 0.24754 0.37040
#
# Static dielectric constant tensor:
#      x y z
#    x 4.081740 0.000000 0.344420 
#    y 0.000000 4.251640 0.000000 
#    z 0.344420 0.000000 3.617320 
# 
# 
# High freq. dielectric constant tensor:
#      x y z
#    x 1.833540 0.000000 0.019790 
#    y 0.000000 1.847990 0.000000 
#    z 0.019790 0.000000 1.805200 
# 
# From -- ./inp_files/109924.got.cif
#   From: 2010.06.25/outbox.cif.g09.slc.cpg/sg15_55_cif.got.tgz:109924.got - 2010.06.28 07:06:18.
