data_PCOD8146926
_publ_section_title
;
Structure prediction by ZEFSAII (Michael W. Deem and Ramdas Pophale) SiO2 
 PCOD8146926
Probable space group: C 2/C
;
_chemical_formula_sum "Si O2"
_cell_formula_units_Z 56
_cell_length_a 21.497532
_cell_length_b 11.885224
_cell_length_c 10.371778
_cell_angle_alpha 90.000000
_cell_angle_beta 108.999261
_cell_angle_gamma 90.000000
_cell_volume 2505.654472
_symmetry_space_group_name_H-M "C 2/C"
_symmetry_group_IT_number 15
_symmetry_cell_setting 'monoclinic'
loop_
_space_group_symop_operation_xyz
x,y,z
-x,y,1/2-z
-x,-y,-z
x,-y,1/2+z
1/2+x,1/2+y,z
1/2-x,1/2+y,1/2-z
1/2-x,1/2-y,-z
1/2+x,1/2-y,1/2+z
loop_
_atom_site_type_symbol
_atom_site_label
_atom_site_fract_x
_atom_site_fract_y
_atom_site_fract_z
Si Si1 0.864973 0.559998 0.408566
Si Si2 0.858578 0.061290 0.700191
Si Si3 0.221998 0.276355 0.811419
Si Si4 0.672851 0.856855 0.263694
Si Si5 0.068668 0.035185 0.488733
Si Si6 0.435799 0.217277 0.623362
Si Si7 0.238045 0.512227 0.478651
O O1 0.810924 0.648167 0.321413
O O2 0.877439 0.455458 0.320447
O O3 0.930103 0.625245 0.502982
O O4 0.834219 0.500356 0.512004
O O5 0.835573 0.190484 0.685960
O O6 0.880410 0.022591 0.857790
O O7 0.796236 0.983545 0.618193
O O8 0.912393 0.042713 0.621732
O O9 0.291753 0.220558 0.817935
O O10 0.244405 0.357143 0.943079
O O11 0.630194 0.782774 0.333446
O O12 0.738204 0.919922 0.364869
O O13 0.060185 0.161968 0.437586
O O14 0.000000 0.000000 0.500000
O O15 0.500000 0.190228 0.750000
#
# Coordination Sequence:
#
# PCOD8146926 Si02
#       7
#     8   8   8   8   8   8   8
#     4  10  22  42  66  97 142 170 230 288 343 424
#     4  12  24  44  73 103 142 184 227 289 361 419
#     4  11  22  41  67 105 141 179 225 286 371 411
#     4  10  23  40  68 101 141 179 229 294 349 430
#     4  12  28  49  69 104 140 187 245 294 342 422
#     4  11  25  45  68  94 133 192 236 289 353 408
#     4  10  23  38  63 106 137 173 223 288 353 432
#
# _framework density 22.349447999999999
#
# number of rings (size 3 to 8) (size 9 to 14) (size 15 to 20)
#    0.000    1.143    2.857    2.571    4.000    2.857 
#    0.000    0.000    3.143    0.000    0.000    0.000 
#    0.000    0.000    0.000    0.000    0.000    0.000 
#
# Total GULP energy -346957.873338 kJ/mol
# GULP energy per Si atom -12391.352619 kJ/mol
# Density = 2.229858 g / cm^3
# Si number density = 22.349448 Si / 1000 Ang^3
#
#
#
# Elastic Constant Matrix: (Units=GPa)
#
#
# Indices 1 2 3 4 5 6 
#
# 1 80.7034 51.0453 22.4863 0.0000 -2.9436 0.0000
# 2 51.0453 119.1080 42.6465 0.0000 -2.6807 0.0000
# 3 22.4863 42.6465 131.6594 0.0000 14.5657 0.0000
# 4 0.0000 0.0000 0.0000 26.9765 0.0000 -10.6091
# 5 -2.9436 -2.6807 14.5657 0.0000 39.6209 0.0000
# 6 0.0000 0.0000 0.0000 -10.6091 0.0000 35.3716
#
#
#
# Elastic Compliance Matrix: (Units=1/GPa)
#
#
# Indices 1 2 3 4 5 6 
#
# 1 0.017086 -0.007026 -0.000761 0.000000 0.001074 0.000000
# 2 -0.007026 0.012518 -0.003013 0.000000 0.001433 0.000000
# 3 -0.000761 -0.003013 0.009100 0.000000 -0.003606 0.000000
# 4 0.000000 0.000000 0.000000 0.042026 0.000000 0.012605
# 5 0.001074 0.001433 -0.003606 0.000000 0.026742 0.000000
# 6 0.000000 0.000000 0.000000 0.012605 0.000000 0.032052
#
#
# Mechanical properties :
#
#
# Convention : Reuss Voigt Hill
#
# Bulk Modulus (GPa) = 58.46651 62.64744 60.55698
# Shear Modulus (GPa) = 29.97131 34.74666 32.35899
#
# Velocity S-wave (km/s) = 3.66598 3.94724 3.80921
# Velocity P-wave (km/s) = 6.64351 6.99042 6.81917
#
# Compressibility (1/GPa) = 0.01710381
#
# Stress axis : x y z
#
# Youngs Moduli (GPa) = 58.52692 79.88571 109.88591
#
# Poissons Ratio (x) = 0.56126 0.08365
# Poissons Ratio (y) = 0.41120 0.33112
# Poissons Ratio (z) = 0.04455 0.24072
#
# Static dielectric constant tensor:
#      x y z
#    x 3.727470 0.000000 -0.117280 
#    y 0.000000 4.200260 0.000000 
#    z -0.117280 0.000000 4.594930 
# 
# 
# High freq. dielectric constant tensor:
#      x y z
#    x 1.850570 0.000000 -0.010330 
#    y 0.000000 1.889970 0.000000 
#    z -0.010330 0.000000 1.903790 
# 
# From -- ./inp_files/117674.got.cif
#   From: 2010.06.25/outbox.cif.g09.slc.cpg/sg15_59_cif.got.tgz:117674.got - 2010.06.28 07:06:18.
