data_PCOD8146514
_publ_section_title
;
Structure prediction by ZEFSAII (Michael W. Deem and Ramdas Pophale) SiO2 
 PCOD8146514
Probable space group: C 2/C
;
_chemical_formula_sum "Si O2"
_cell_formula_units_Z 44
_cell_length_a 7.134680
_cell_length_b 12.454707
_cell_length_c 25.164692
_cell_angle_alpha 90.000000
_cell_angle_beta 87.285674
_cell_angle_gamma 90.000000
_cell_volume 2233.634506
_symmetry_space_group_name_H-M "C 2/C"
_symmetry_group_IT_number 15
_symmetry_cell_setting 'monoclinic'
loop_
_space_group_symop_operation_xyz
x,y,z
-x,y,1/2-z
-x,-y,-z
x,-y,1/2+z
1/2+x,1/2+y,z
1/2-x,1/2+y,1/2-z
1/2-x,1/2-y,-z
1/2+x,1/2-y,1/2+z
loop_
_atom_site_type_symbol
_atom_site_label
_atom_site_fract_x
_atom_site_fract_y
_atom_site_fract_z
Si Si1 0.861201 0.996704 0.296080
Si Si2 0.987424 0.863327 0.615577
Si Si3 0.290568 0.867220 0.522394
Si Si4 0.500000 0.029047 0.750000
Si Si5 0.361978 0.966575 0.934991
Si Si6 0.563849 0.878015 0.353627
O O1 0.000000 0.948025 0.250000
O O2 0.961456 0.090245 0.327420
O O3 0.677514 0.043362 0.266452
O O4 0.784539 0.901680 0.336047
O O5 0.790388 0.910073 0.599482
O O6 0.963559 0.737042 0.620934
O O7 0.151444 0.891386 0.572587
O O8 0.250000 0.750000 0.500000
O O9 0.508262 0.876321 0.538172
O O10 0.254090 0.958337 0.478670
O O11 0.557311 0.105897 0.699062
O O12 0.501460 0.036916 0.898120
#
# Coordination Sequence:
#
# PCOD8146514 Si02
#       6
#     8   8   8   4   8   8
#     4  10  22  41  67  89 127 170 207 263 318 372
#     4  12  24  41  69  95 123 178 210 255 329 376
#     4  11  23  44  67  93 134 167 210 266 318 376
#     4   8  20  42  60  88 130 158 202 268 300 372
#     4  11  24  43  65  96 130 165 213 269 306 383
#     4  10  22  44  61  95 133 156 218 265 302 385
#
# _framework density 19.698837000000001
#
# number of rings (size 3 to 8) (size 9 to 14) (size 15 to 20)
#    1.091    0.364    3.636    1.636    1.273    2.182 
#    3.273    1.818    6.000    0.000    0.000    0.000 
#    0.000    0.000    0.000    0.000    0.000    0.000 
#
# Total GULP energy -272614.140408 kJ/mol
# GULP energy per Si atom -12391.551837 kJ/mol
# Density = 1.965400 g / cm^3
# Si number density = 19.698837 Si / 1000 Ang^3
#
#
#
# Elastic Constant Matrix: (Units=GPa)
#
#
# Indices 1 2 3 4 5 6 
#
# 1 115.0436 51.9586 50.4555 0.0000 13.3829 0.0000
# 2 51.9586 101.9329 48.5607 0.0000 12.2327 0.0000
# 3 50.4555 48.5607 109.4494 0.0000 -5.1734 0.0000
# 4 0.0000 0.0000 0.0000 20.8606 0.0000 3.8165
# 5 13.3829 12.2327 -5.1734 0.0000 54.0656 0.0000
# 6 0.0000 0.0000 0.0000 3.8165 0.0000 22.5849
#
#
#
# Elastic Compliance Matrix: (Units=1/GPa)
#
#
# Indices 1 2 3 4 5 6 
#
# 1 0.012693 -0.004202 -0.004109 0.000000 -0.002584 0.000000
# 2 -0.004202 0.014469 -0.004609 0.000000 -0.002675 0.000000
# 3 -0.004109 -0.004609 0.013233 0.000000 0.003326 0.000000
# 4 0.000000 0.000000 0.000000 0.049467 0.000000 -0.008359
# 5 -0.002584 -0.002675 0.003326 0.000000 0.020059 0.000000
# 6 0.000000 0.000000 0.000000 -0.008359 0.000000 0.045690
#
#
# Mechanical properties :
#
#
# Convention : Reuss Voigt Hill
#
# Bulk Modulus (GPa) = 68.70685 69.81951 69.26318
# Shear Modulus (GPa) = 26.83799 31.19895 29.01847
#
# Velocity S-wave (km/s) = 3.69510 3.98401 3.84227
# Velocity P-wave (km/s) = 7.29104 7.52885 7.41090
#
# Compressibility (1/GPa) = 0.01455459
#
# Stress axis : x y z
#
# Youngs Moduli (GPa) = 78.78281 69.11296 75.56897
#
# Poissons Ratio (x) = 0.29044 0.31052
# Poissons Ratio (y) = 0.33108 0.34828
# Poissons Ratio (z) = 0.32372 0.31853
#
# Static dielectric constant tensor:
#      x y z
#    x 3.568250 0.000000 -0.047480 
#    y 0.000000 3.219480 0.000000 
#    z -0.047480 0.000000 3.886800 
# 
# 
# High freq. dielectric constant tensor:
#      x y z
#    x 1.767630 0.000000 -0.006400 
#    y 0.000000 1.737030 0.000000 
#    z -0.006400 0.000000 1.793810 
# 
# From -- ./inp_files/262812.got.cif
#   From: 2010.06.25/outbox.cif.g09.slc.cpg/sg15_132_cif.got.tgz:262812.got - 2010.06.28 07:06:18.
