data_PCOD8146255
_publ_section_title
;
Structure prediction by ZEFSAII (Michael W. Deem and Ramdas Pophale) SiO2 
 PCOD8146255
Probable space group: C 2/C
;
_chemical_formula_sum "Si O2"
_cell_formula_units_Z 52
_cell_length_a 9.014737
_cell_length_b 26.347410
_cell_length_c 11.791447
_cell_angle_alpha 90.000000
_cell_angle_beta 56.995723
_cell_angle_gamma 90.000000
_cell_volume 2348.704832
_symmetry_space_group_name_H-M "C 2/C"
_symmetry_group_IT_number 15
_symmetry_cell_setting 'monoclinic'
loop_
_space_group_symop_operation_xyz
x,y,z
-x,y,1/2-z
-x,-y,-z
x,-y,1/2+z
1/2+x,1/2+y,z
1/2-x,1/2+y,1/2-z
1/2-x,1/2-y,-z
1/2+x,1/2-y,1/2+z
loop_
_atom_site_type_symbol
_atom_site_label
_atom_site_fract_x
_atom_site_fract_y
_atom_site_fract_z
Si Si1 0.000000 0.464427 0.250000
Si Si2 0.062431 0.898940 0.103666
Si Si3 0.000000 0.082856 0.250000
Si Si4 0.743221 0.551387 0.333145
Si Si5 0.759131 0.887251 0.044420
Si Si6 0.416869 0.217156 0.895246
Si Si7 0.182269 0.303322 0.484648
Si Si8 0.000000 0.361360 0.750000
O O1 0.856137 0.502001 0.254755
O O2 0.890312 0.431698 0.387640
O O3 0.162551 0.845695 0.090224
O O4 0.000000 0.921698 0.250000
O O5 0.898235 0.890270 0.088817
O O6 0.182532 0.942187 0.990743
O O7 0.081845 0.047293 0.313205
O O8 0.852936 0.115209 0.381098
O O9 0.844404 0.603704 0.265230
O O10 0.653299 0.837037 0.111462
O O11 0.500000 0.243962 0.750000
O O12 0.577433 0.209545 0.914834
O O13 0.250000 0.250000 0.000000
O O14 0.250000 0.250000 0.500000
O O15 0.042217 0.324659 0.630270
#
# Coordination Sequence:
#
# PCOD8146255 Si02
#       8
#     4   8   4   8   8   8   8   4
#     4  11  24  46  65  96 142 170 223 271 334 404
#     4  10  22  42  68  94 135 175 225 278 329 399
#     4  10  22  40  71  96 130 174 223 276 328 390
#     4   9  21  44  64  95 127 176 220 269 331 390
#     4  11  24  46  67  99 135 171 224 276 333 395
#     4  12  27  44  69 100 137 178 222 272 337 401
#     4  11  24  39  69  96 132 173 224 275 333 397
#     4   9  20  40  64  90 128 170 218 269 326 392
#
# _framework density 22.139861
#
# number of rings (size 3 to 8) (size 9 to 14) (size 15 to 20)
#    0.000    1.538    0.769    2.769    4.308    3.077 
#    5.538    0.000    0.000    0.000    0.000    0.000 
#    0.000    0.000    0.000    0.000    0.000    0.000 
#
# Total GULP energy -322152.341872 kJ/mol
# GULP energy per Si atom -12390.474687 kJ/mol
# Density = 2.208947 g / cm^3
# Si number density = 22.139861 Si / 1000 Ang^3
#
#
#
# Elastic Constant Matrix: (Units=GPa)
#
#
# Indices 1 2 3 4 5 6 
#
# 1 122.2698 46.3015 59.5106 0.0000 3.9369 0.0000
# 2 46.3015 104.0383 53.0698 0.0000 -6.9196 0.0000
# 3 59.5106 53.0698 187.6115 0.0000 -0.1521 0.0000
# 4 0.0000 0.0000 0.0000 19.3227 0.0000 -16.0083
# 5 3.9369 -6.9196 -0.1521 0.0000 35.5521 0.0000
# 6 0.0000 0.0000 0.0000 -16.0083 0.0000 22.0647
#
#
#
# Elastic Compliance Matrix: (Units=1/GPa)
#
#
# Indices 1 2 3 4 5 6 
#
# 1 0.010808 -0.003727 -0.002376 0.000000 -0.001932 0.000000
# 2 -0.003727 0.012688 -0.002405 0.000000 0.002872 0.000000
# 3 -0.002376 -0.002405 0.006764 0.000000 -0.000176 0.000000
# 4 0.000000 0.000000 0.000000 0.129728 0.000000 0.094119
# 5 -0.001932 0.002872 -0.000176 0.000000 0.028900 0.000000
# 6 0.000000 0.000000 0.000000 0.094119 0.000000 0.113606
#
#
# Mechanical properties :
#
#
# Convention : Reuss Voigt Hill
#
# Bulk Modulus (GPa) = 75.49541 81.29814 78.39677
# Shear Modulus (GPa) = 15.43572 32.39044 23.91308
#
# Velocity S-wave (km/s) = 2.64330 3.82906 3.29004
# Velocity P-wave (km/s) = 6.59465 7.50659 7.06535
#
# Compressibility (1/GPa) = 0.01324584
#
# Stress axis : x y z
#
# Youngs Moduli (GPa) = 92.51980 78.81431 147.84559
#
# Poissons Ratio (x) = 0.29373 0.35125
# Poissons Ratio (y) = 0.34481 0.35551
# Poissons Ratio (z) = 0.21981 0.18952
#
# Static dielectric constant tensor:
#      x y z
#    x 4.111220 0.000000 -0.150310 
#    y 0.000000 3.972430 0.000000 
#    z -0.150310 0.000000 4.289130 
# 
# 
# High freq. dielectric constant tensor:
#      x y z
#    x 1.880850 0.000000 -0.013240 
#    y 0.000000 1.866150 0.000000 
#    z -0.013240 0.000000 1.883500 
# 
# From -- ./inp_files/81207.got.cif
#   From: 2010.06.25/outbox.cif.g09.slc.cpg/sg15_41_cif.got.tgz:81207.got - 2010.06.28 07:06:18.
