data_PCOD8146901
_publ_section_title
;
Structure prediction by ZEFSAII (Michael W. Deem and Ramdas Pophale) SiO2 
 PCOD8146901
Probable space group: C 2/C
;
_chemical_formula_sum "Si O2"
_cell_formula_units_Z 48
_cell_length_a 11.846158
_cell_length_b 10.913227
_cell_length_c 24.230403
_cell_angle_alpha 90.000000
_cell_angle_beta 45.170403
_cell_angle_gamma 90.000000
_cell_volume 2221.591206
_symmetry_space_group_name_H-M "C 2/C"
_symmetry_group_IT_number 15
_symmetry_cell_setting 'monoclinic'
loop_
_space_group_symop_operation_xyz
x,y,z
-x,y,1/2-z
-x,-y,-z
x,-y,1/2+z
1/2+x,1/2+y,z
1/2-x,1/2+y,1/2-z
1/2-x,1/2-y,-z
1/2+x,1/2-y,1/2+z
loop_
_atom_site_type_symbol
_atom_site_label
_atom_site_fract_x
_atom_site_fract_y
_atom_site_fract_z
Si Si1 0.363576 0.795087 0.145780
Si Si2 0.880980 0.330348 0.841947
Si Si3 0.383707 0.315634 0.173293
Si Si4 0.155707 0.774798 0.662321
Si Si5 0.566138 0.439032 0.605338
Si Si6 0.346209 0.068194 0.923780
O O1 0.270061 0.755716 0.122306
O O2 0.238311 0.831667 0.235228
O O3 0.460285 0.677333 0.129716
O O4 0.485978 0.911189 0.100521
O O5 0.837871 0.462680 0.880541
O O6 0.000000 0.350419 0.750000
O O7 0.962519 0.261000 0.863898
O O8 0.308140 0.240571 0.148662
O O9 0.444165 0.450617 0.138588
O O10 0.132890 0.913966 0.645343
O O11 0.188779 0.691631 0.597588
O O12 0.000000 0.732547 0.750000
O O13 0.711421 0.458336 0.514363
#
# Coordination Sequence:
#
# PCOD8146901 Si02
#       6
#     8   8   8   8   8   8
#     4  10  22  42  66  94 132 172 228 271 323 402
#     4  10  24  41  64  98 133 175 222 276 326 399
#     4  11  24  41  65  97 130 175 224 272 331 397
#     4  11  21  41  68  95 127 175 225 269 326 403
#     4  11  25  41  66 102 131 168 224 282 328 393
#     4  11  23  41  69  96 132 175 221 272 339 394
#
# _framework density 21.606134999999998
#
# number of rings (size 3 to 8) (size 9 to 14) (size 15 to 20)
#    0.000    1.333    3.333    3.500    4.667    8.000 
#    0.000    1.667    0.000    0.000    0.000    0.000 
#    0.000    0.000    0.000    0.000    0.000    0.000 
#
# Total GULP energy -297411.840021 kJ/mol
# GULP energy per Si atom -12392.160001 kJ/mol
# Density = 2.155696 g / cm^3
# Si number density = 21.606135 Si / 1000 Ang^3
#
#
#
# Elastic Constant Matrix: (Units=GPa)
#
#
# Indices 1 2 3 4 5 6 
#
# 1 177.1446 32.6284 40.0070 0.0000 4.5531 0.0000
# 2 32.6284 48.0389 34.5323 0.0000 2.7486 0.0000
# 3 40.0070 34.5323 85.1337 0.0000 -10.0415 0.0000
# 4 0.0000 0.0000 0.0000 16.8196 0.0000 1.0287
# 5 4.5531 2.7486 -10.0415 0.0000 28.2160 0.0000
# 6 0.0000 0.0000 0.0000 1.0287 0.0000 26.1704
#
#
#
# Elastic Compliance Matrix: (Units=1/GPa)
#
#
# Indices 1 2 3 4 5 6 
#
# 1 0.006709 -0.002920 -0.002153 0.000000 -0.001565 0.000000
# 2 -0.002920 0.032221 -0.012538 0.000000 -0.007130 0.000000
# 3 -0.002153 -0.012538 0.018819 0.000000 0.008266 0.000000
# 4 0.000000 0.000000 0.000000 0.059598 0.000000 -0.002343
# 5 -0.001565 -0.007130 0.008266 0.000000 0.039330 0.000000
# 6 0.000000 0.000000 0.000000 -0.002343 0.000000 0.038303
#
#
# Mechanical properties :
#
#
# Convention : Reuss Voigt Hill
#
# Bulk Modulus (GPa) = 44.39237 58.29474 51.34356
# Shear Modulus (GPa) = 21.03397 27.78450 24.40923
#
# Velocity S-wave (km/s) = 3.12351 3.58991 3.36480
# Velocity P-wave (km/s) = 5.79648 6.65000 6.23786
#
# Compressibility (1/GPa) = 0.02252639
#
# Stress axis : x y z
#
# Youngs Moduli (GPa) = 149.04487 31.03608 53.13810
#
# Poissons Ratio (x) = 0.09062 0.11441
# Poissons Ratio (y) = 0.43518 0.66626
# Poissons Ratio (z) = 0.32092 0.38914
#
# Static dielectric constant tensor:
#      x y z
#    x 4.828030 0.000000 -0.045760 
#    y 0.000000 4.811740 0.000000 
#    z -0.045760 0.000000 3.591040 
# 
# 
# High freq. dielectric constant tensor:
#      x y z
#    x 1.864520 0.000000 -0.004240 
#    y 0.000000 1.842800 0.000000 
#    z -0.004240 0.000000 1.837910 
# 
# From -- ./inp_files/237403.got.cif
#   From: 2010.06.25/outbox.cif.g09.slc.cpg/sg15_119_cif.got.tgz:237403.got - 2010.06.28 07:06:18.
