data_PCOD8146170
_publ_section_title
;
Structure prediction by ZEFSAII (Michael W. Deem and Ramdas Pophale) SiO2 
 PCOD8146170
Probable space group: C 2/C
;
_chemical_formula_sum "Si O2"
_cell_formula_units_Z 48
_cell_length_a 12.239352
_cell_length_b 12.663376
_cell_length_c 19.217526
_cell_angle_alpha 90.000000
_cell_angle_beta 127.907000
_cell_angle_gamma 90.000000
_cell_volume 2350.105604
_symmetry_space_group_name_H-M "C 2/C"
_symmetry_group_IT_number 15
_symmetry_cell_setting 'monoclinic'
loop_
_space_group_symop_operation_xyz
x,y,z
-x,y,1/2-z
-x,-y,-z
x,-y,1/2+z
1/2+x,1/2+y,z
1/2-x,1/2+y,1/2-z
1/2-x,1/2-y,-z
1/2+x,1/2-y,1/2+z
loop_
_atom_site_type_symbol
_atom_site_label
_atom_site_fract_x
_atom_site_fract_y
_atom_site_fract_z
Si Si1 0.500000 0.339600 0.750000
Si Si2 0.090504 0.731405 0.923445
Si Si3 0.500000 0.330979 0.250000
Si Si4 0.429571 0.592919 0.429629
Si Si5 0.675779 0.181321 0.411961
Si Si6 0.006307 0.486035 0.167046
Si Si7 0.676514 0.496187 0.750843
O O1 0.533800 0.266893 0.827391
O O2 0.639804 0.409776 0.795438
O O3 0.057503 0.607447 0.905218
O O4 0.015783 0.797623 0.955973
O O5 0.250000 0.750000 0.000000
O O6 0.579561 0.261781 0.335551
O O7 0.382023 0.392986 0.245752
O O8 0.500000 0.500000 0.500000
O O9 0.284083 0.624129 0.404700
O O10 0.414039 0.539732 0.349411
O O11 0.750000 0.250000 0.500000
O O12 0.574539 0.086944 0.395983
O O13 0.000000 0.475237 0.250000
O O14 0.164304 0.497060 0.205776
#
# Coordination Sequence:
#
# PCOD8146170 Si02
#       7
#     4   8   4   8   8   8   8
#     4   9  22  43  62  94 130 171 214 275 332 396
#     4  11  24  40  66  98 132 173 226 275 337 401
#     4  11  22  43  64 100 128 179 224 275 344 404
#     4  11  22  41  64  97 133 179 224 279 340 403
#     4  12  25  43  65  97 135 178 231 276 343 410
#     4  12  23  43  66  95 131 176 223 276 333 405
#     4  10  22  40  68  90 130 172 220 274 335 403
#
# _framework density 20.424614999999999
#
# number of rings (size 3 to 8) (size 9 to 14) (size 15 to 20)
#    0.000    1.000    3.333    3.000    0.000    5.333 
#    0.000    2.500    0.000    0.000    0.000    0.000 
#    0.000    0.000    0.000    0.000    0.000    0.000 
#
# Total GULP energy -297393.934756 kJ/mol
# GULP energy per Si atom -12391.413948 kJ/mol
# Density = 2.037813 g / cm^3
# Si number density = 20.424615 Si / 1000 Ang^3
#
#
#
# Elastic Constant Matrix: (Units=GPa)
#
#
# Indices 1 2 3 4 5 6 
#
# 1 132.5093 54.6798 21.2318 0.0000 28.5816 0.0000
# 2 54.6798 164.1238 56.0647 0.0000 10.5523 0.0000
# 3 21.2318 56.0647 82.5368 0.0000 16.7599 0.0000
# 4 0.0000 0.0000 0.0000 9.1012 0.0000 -13.8409
# 5 28.5816 10.5523 16.7599 0.0000 36.2536 0.0000
# 6 0.0000 0.0000 0.0000 -13.8409 0.0000 27.2926
#
#
#
# Elastic Compliance Matrix: (Units=1/GPa)
#
#
# Indices 1 2 3 4 5 6 
#
# 1 0.010432 -0.003383 0.001197 0.000000 -0.007793 0.000000
# 2 -0.003383 0.009033 -0.005819 0.000000 0.002729 0.000000
# 3 0.001197 -0.005819 0.017225 0.000000 -0.007213 0.000000
# 4 0.000000 0.000000 0.000000 0.480314 0.000000 0.243583
# 5 -0.007793 0.002729 -0.007213 0.000000 0.036268 0.000000
# 6 0.000000 0.000000 0.000000 0.243583 0.000000 0.160169
#
#
# Mechanical properties :
#
#
# Convention : Reuss Voigt Hill
#
# Bulk Modulus (GPa) = 48.35853 71.45806 59.90829
# Shear Modulus (GPa) = 6.79030 31.00903 18.89967
#
# Velocity S-wave (km/s) = 1.82532 3.90066 3.04524
# Velocity P-wave (km/s) = 5.30758 7.43969 6.46218
#
# Compressibility (1/GPa) = 0.02067888
#
# Stress axis : x y z
#
# Youngs Moduli (GPa) = 95.86001 110.70980 58.05372
#
# Poissons Ratio (x) = 0.37458 -0.06950
# Poissons Ratio (y) = 0.32433 0.33783
# Poissons Ratio (z) = -0.11476 0.64425
#
# Static dielectric constant tensor:
#      x y z
#    x 3.965890 0.000000 -0.070260 
#    y 0.000000 4.357960 0.000000 
#    z -0.070260 0.000000 3.624020 
# 
# 
# High freq. dielectric constant tensor:
#      x y z
#    x 1.806910 0.000000 0.008560 
#    y 0.000000 1.822850 0.000000 
#    z 0.008560 0.000000 1.797130 
# 
# From -- ./inp_files/196176.got.cif
#   From: 2010.06.25/outbox.cif.g09.slc.cpg/sg15_99_cif.got.tgz:196176.got - 2010.06.28 07:06:18.
