data_PCOD8146503
_publ_section_title
;
Structure prediction by ZEFSAII (Michael W. Deem and Ramdas Pophale) SiO2 
 PCOD8146503
Probable space group: C 2/C
;
_chemical_formula_sum "Si O2"
_cell_formula_units_Z 44
_cell_length_a 6.891600
_cell_length_b 20.759396
_cell_length_c 18.699730
_cell_angle_alpha 90.000000
_cell_angle_beta 131.623682
_cell_angle_gamma 90.000000
_cell_volume 1999.838956
_symmetry_space_group_name_H-M "C 2/C"
_symmetry_group_IT_number 15
_symmetry_cell_setting 'monoclinic'
loop_
_space_group_symop_operation_xyz
x,y,z
-x,y,1/2-z
-x,-y,-z
x,-y,1/2+z
1/2+x,1/2+y,z
1/2-x,1/2+y,1/2-z
1/2-x,1/2-y,-z
1/2+x,1/2-y,1/2+z
loop_
_atom_site_type_symbol
_atom_site_label
_atom_site_fract_x
_atom_site_fract_y
_atom_site_fract_z
Si Si1 0.730335 0.127999 0.148723
Si Si2 0.136923 0.734530 0.395265
Si Si3 0.472510 0.892897 0.163601
Si Si4 0.500000 0.659333 0.750000
Si Si5 0.062795 0.138445 0.455306
Si Si6 0.873081 0.458253 0.644429
O O1 0.620818 0.192032 0.159220
O O2 0.760476 0.138730 0.071879
O O3 0.531132 0.069753 0.115353
O O4 0.000000 0.108916 0.250000
O O5 0.250000 0.750000 0.500000
O O6 0.354300 0.696199 0.402732
O O7 0.050518 0.797936 0.332448
O O8 0.500000 0.865204 0.250000
O O9 0.755413 0.887849 0.197711
O O10 0.368132 0.965409 0.137471
O O11 0.261080 0.850418 0.069576
O O12 0.918967 0.069612 0.428335
O O13 0.000000 0.435152 0.750000
#
# Coordination Sequence:
#
# PCOD8146503 Si02
#       6
#     8   8   8   4   8   8
#     4  11  22  38  68  94 124 168 211 274 326 378
#     4  11  25  42  62  93 131 166 224 269 316 393
#     4  11  26  43  65  93 135 175 216 268 332 390
#     4  12  26  42  64  96 134 176 218 266 328 392
#     4  11  23  42  68  96 125 174 220 271 329 385
#     4  10  22  41  66  97 131 164 218 274 325 395
#
# _framework density 22.001771999999999
#
# number of rings (size 3 to 8) (size 9 to 14) (size 15 to 20)
#    0.000    1.091    1.818    3.818    3.818    8.727 
#    0.000    0.000    0.000    0.000    0.000    0.000 
#    0.000    0.000    0.000    0.000    0.000    0.000 
#
# Total GULP energy -272905.955858 kJ/mol
# GULP energy per Si atom -12404.816175 kJ/mol
# Density = 2.195170 g / cm^3
# Si number density = 22.001772 Si / 1000 Ang^3
#
#
#
# Elastic Constant Matrix: (Units=GPa)
#
#
# Indices 1 2 3 4 5 6 
#
# 1 129.7188 11.7320 27.3830 0.0000 -4.0093 0.0000
# 2 11.7320 42.3966 -1.2312 0.0000 -3.2131 0.0000
# 3 27.3830 -1.2312 115.9103 0.0000 -7.9770 0.0000
# 4 0.0000 0.0000 0.0000 25.2310 0.0000 -0.6120
# 5 -4.0093 -3.2131 -7.9770 0.0000 43.9765 0.0000
# 6 0.0000 0.0000 0.0000 -0.6120 0.0000 22.8553
#
#
#
# Elastic Compliance Matrix: (Units=1/GPa)
#
#
# Indices 1 2 3 4 5 6 
#
# 1 0.008347 -0.002350 -0.001981 0.000000 0.000230 0.000000
# 2 -0.002350 0.024396 0.000934 0.000000 0.001738 0.000000
# 3 -0.001981 0.000934 0.009213 0.000000 0.001559 0.000000
# 4 0.000000 0.000000 0.000000 0.039659 0.000000 0.001062
# 5 0.000230 0.001738 0.001559 0.000000 0.023170 0.000000
# 6 0.000000 0.000000 0.000000 0.001062 0.000000 0.043782
#
#
# Mechanical properties :
#
#
# Convention : Reuss Voigt Hill
#
# Bulk Modulus (GPa) = 28.44040 40.42147 34.43094
# Shear Modulus (GPa) = 29.92560 35.08870 32.50715
#
# Velocity S-wave (km/s) = 3.69202 3.99784 3.84797
# Velocity P-wave (km/s) = 5.57935 6.30255 5.95194
#
# Compressibility (1/GPa) = 0.03516125
#
# Stress axis : x y z
#
# Youngs Moduli (GPa) = 119.80649 40.99057 108.54752
#
# Poissons Ratio (x) = 0.09632 0.21503
# Poissons Ratio (y) = 0.28152 -0.10137
# Poissons Ratio (z) = 0.23734 -0.03828
#
# Static dielectric constant tensor:
#      x y z
#    x 4.137550 0.000000 -0.018910 
#    y 0.000000 3.748110 0.000000 
#    z -0.018910 0.000000 4.059830 
# 
# 
# High freq. dielectric constant tensor:
#      x y z
#    x 1.878540 0.000000 0.002760 
#    y 0.000000 1.853590 0.000000 
#    z 0.002760 0.000000 1.874990 
# 
# From -- ./inp_files/129372.got.cif
#   From: 2010.06.25/outbox.cif.g09.slc.cpg/sg15_65_cif.got.tgz:129372.got - 2010.06.28 07:06:18.
