data_PCOD8146061
_publ_section_title
;
Structure prediction by ZEFSAII (Michael W. Deem and Ramdas Pophale) SiO2 
 PCOD8146061
Probable space group: C 2/C
;
_chemical_formula_sum "Si O2"
_cell_formula_units_Z 44
_cell_length_a 16.514063
_cell_length_b 6.875655
_cell_length_c 19.614659
_cell_angle_alpha 90.000000
_cell_angle_beta 103.314374
_cell_angle_gamma 90.000000
_cell_volume 2167.283270
_symmetry_space_group_name_H-M "C 2/C"
_symmetry_group_IT_number 15
_symmetry_cell_setting 'monoclinic'
loop_
_space_group_symop_operation_xyz
x,y,z
-x,y,1/2-z
-x,-y,-z
x,-y,1/2+z
1/2+x,1/2+y,z
1/2-x,1/2+y,1/2-z
1/2-x,1/2-y,-z
1/2+x,1/2-y,1/2+z
loop_
_atom_site_type_symbol
_atom_site_label
_atom_site_fract_x
_atom_site_fract_y
_atom_site_fract_z
Si Si1 0.670859 0.026801 0.292461
Si Si2 0.680779 0.192049 0.660595
Si Si3 0.282723 0.052260 0.973711
Si Si4 0.851157 0.262011 0.090656
Si Si5 0.515739 0.614404 0.177898
Si Si6 0.000000 0.742250 0.250000
O O1 0.734560 0.188124 0.330669
O O2 0.578109 0.107824 0.280249
O O3 0.692915 0.974272 0.219255
O O4 0.679205 0.835777 0.341165
O O5 0.664781 0.092183 0.584642
O O6 0.604808 0.330683 0.665373
O O7 0.203276 0.919770 0.942595
O O8 0.250000 0.250000 0.000000
O O9 0.345065 0.940378 0.036565
O O10 0.946109 0.188800 0.112040
O O11 0.500000 0.710570 0.250000
O O12 0.514470 0.379593 0.186249
#
# Coordination Sequence:
#
# PCOD8146061 Si02
#       6
#     8   8   8   8   8   4
#     4  12  21  39  69  98 133 170 228 280 325 395
#     4  12  23  38  67 100 130 176 231 275 334 400
#     4  11  25  44  68  96 137 180 222 273 343 401
#     4  11  23  45  68  94 137 180 218 276 340 398
#     4  10  22  41  61  99 133 169 223 278 330 392
#     4  10  22  40  66 102 140 172 210 292 344 374
#
# _framework density 20.301915999999999
#
# number of rings (size 3 to 8) (size 9 to 14) (size 15 to 20)
#    0.545    0.364    3.636    4.364    0.000    0.727 
#    0.000    0.909    0.000    0.000    0.000    0.000 
#    0.000    0.000    0.000    0.000    0.000    0.000 
#
# Total GULP energy -272858.839867 kJ/mol
# GULP energy per Si atom -12402.674539 kJ/mol
# Density = 2.025571 g / cm^3
# Si number density = 20.301916 Si / 1000 Ang^3
#
#
#
# Elastic Constant Matrix: (Units=GPa)
#
#
# Indices 1 2 3 4 5 6 
#
# 1 99.5799 28.4404 32.1736 0.0000 15.6405 0.0000
# 2 28.4404 109.6586 46.3704 0.0000 4.8931 0.0000
# 3 32.1736 46.3704 116.6615 0.0000 -3.5765 0.0000
# 4 0.0000 0.0000 0.0000 39.5413 0.0000 -0.1475
# 5 15.6405 4.8931 -3.5765 0.0000 42.3223 0.0000
# 6 0.0000 0.0000 0.0000 -0.1475 0.0000 27.0384
#
#
#
# Elastic Compliance Matrix: (Units=1/GPa)
#
#
# Indices 1 2 3 4 5 6 
#
# 1 0.012160 -0.001773 -0.002787 0.000000 -0.004524 0.000000
# 2 -0.001773 0.011335 -0.004047 0.000000 -0.000997 0.000000
# 3 -0.002787 -0.004047 0.011024 0.000000 0.002430 0.000000
# 4 0.000000 0.000000 0.000000 0.025291 0.000000 0.000138
# 5 -0.004524 -0.000997 0.002430 0.000000 0.025621 0.000000
# 6 0.000000 0.000000 0.000000 0.000138 0.000000 0.036985
#
#
# Mechanical properties :
#
#
# Convention : Reuss Voigt Hill
#
# Bulk Modulus (GPa) = 57.79242 59.98542 58.88892
# Shear Modulus (GPa) = 34.38847 36.37476 35.38162
#
# Velocity S-wave (km/s) = 4.12011 4.23743 4.17918
# Velocity P-wave (km/s) = 7.15276 7.31792 7.23581
#
# Compressibility (1/GPa) = 0.01730331
#
# Stress axis : x y z
#
# Youngs Moduli (GPa) = 82.23813 88.22339 90.71453
#
# Poissons Ratio (x) = 0.15643 0.25286
# Poissons Ratio (y) = 0.14582 0.36712
# Poissons Ratio (z) = 0.22923 0.35703
#
# Static dielectric constant tensor:
#      x y z
#    x 3.424140 0.000000 0.054850 
#    y 0.000000 3.741690 0.000000 
#    z 0.054850 0.000000 3.898600 
# 
# 
# High freq. dielectric constant tensor:
#      x y z
#    x 1.783290 0.000000 0.010790 
#    y 0.000000 1.805580 0.000000 
#    z 0.010790 0.000000 1.795160 
# 
# From -- ./inp_files/246535.got.cif
#   From: 2010.06.25/outbox.cif.g09.slc.cpg/sg15_124_cif.got.tgz:246535.got - 2010.06.28 07:06:18.
