data_PCOD8146879
_publ_section_title
;
Structure prediction by ZEFSAII (Michael W. Deem and Ramdas Pophale) SiO2 
 PCOD8146879
Probable space group: C 2/C
;
_chemical_formula_sum "Si O2"
_cell_formula_units_Z 60
_cell_length_a 25.896745
_cell_length_b 24.097993
_cell_length_c 8.754897
_cell_angle_alpha 90.000000
_cell_angle_beta 32.960569
_cell_angle_gamma 90.000000
_cell_volume 2972.523354
_symmetry_space_group_name_H-M "C 2/C"
_symmetry_group_IT_number 15
_symmetry_cell_setting 'monoclinic'
loop_
_space_group_symop_operation_xyz
x,y,z
-x,y,1/2-z
-x,-y,-z
x,-y,1/2+z
1/2+x,1/2+y,z
1/2-x,1/2+y,1/2-z
1/2-x,1/2-y,-z
1/2+x,1/2-y,1/2+z
loop_
_atom_site_type_symbol
_atom_site_label
_atom_site_fract_x
_atom_site_fract_y
_atom_site_fract_z
Si Si1 0.929431 0.366572 0.164193
Si Si2 0.651703 0.748133 0.656980
Si Si3 0.769666 0.051255 0.636087
Si Si4 0.875335 0.639820 0.457719
Si Si5 0.982069 0.941105 0.618696
Si Si6 0.911240 0.860080 0.357582
Si Si7 0.741471 0.937176 0.870923
Si Si8 0.000000 0.713834 0.750000
O O1 0.861535 0.411430 0.417685
O O2 0.944469 0.320814 0.257765
O O3 0.878894 0.346402 0.131324
O O4 0.030959 0.388358 0.850467
O O5 0.750000 0.750000 0.500000
O O6 0.644562 0.802249 0.571720
O O7 0.636557 0.696045 0.583899
O O8 0.572937 0.746084 0.984221
O O9 0.874008 0.077010 0.363185
O O10 0.725559 0.042077 0.580778
O O11 0.769829 0.990419 0.705176
O O12 0.706726 0.096206 0.882564
O O13 0.000000 0.948355 0.750000
O O14 0.052049 0.895357 0.376802
O O15 0.000000 0.000000 0.500000
O O16 0.826934 0.892905 0.650782
O O17 0.000000 0.848173 0.250000
#
# Coordination Sequence:
#
# PCOD8146879 Si02
#       8
#     8   8   8   8   8   8   8   4
#     4   9  20  42  65  91 127 165 216 270 328 390
#     4  11  26  43  66  95 129 168 223 270 327 397
#     4  11  23  39  65  93 129 167 215 265 321 383
#     4   9  22  43  66  89 127 172 214 268 331 386
#     4  12  24  41  65  95 136 171 213 268 320 389
#     4  12  26  43  65  97 134 175 219 267 333 392
#     4  11  23  41  63  97 127 169 218 262 325 392
#     4  10  22  42  66  90 128 164 216 272 328 388
#
# _framework density 20.184868999999999
#
# number of rings (size 3 to 8) (size 9 to 14) (size 15 to 20)
#    0.000    1.333    2.667    2.000    6.533    2.667 
#    0.000    4.667    0.000    0.000    0.000    0.000 
#    0.000    0.000    0.000    0.000    0.000    0.000 
#
# Total GULP energy -371848.442098 kJ/mol
# GULP energy per Si atom -12394.948070 kJ/mol
# Density = 2.013893 g / cm^3
# Si number density = 20.184869 Si / 1000 Ang^3
#
#
#
# Elastic Constant Matrix: (Units=GPa)
#
#
# Indices 1 2 3 4 5 6 
#
# 1 89.8821 42.9616 28.4782 0.0000 -2.2443 0.0000
# 2 42.9616 112.6404 57.2442 0.0000 -10.2348 0.0000
# 3 28.4782 57.2442 106.0470 0.0000 -8.6704 0.0000
# 4 0.0000 0.0000 0.0000 91.1588 0.0000 4.9370
# 5 -2.2443 -10.2348 -8.6704 0.0000 37.6034 0.0000
# 6 0.0000 0.0000 0.0000 4.9370 0.0000 26.4165
#
#
#
# Elastic Compliance Matrix: (Units=1/GPa)
#
#
# Indices 1 2 3 4 5 6 
#
# 1 0.013733 -0.004685 -0.001219 0.000000 -0.000737 0.000000
# 2 -0.004685 0.013959 -0.006104 0.000000 0.002112 0.000000
# 3 -0.001219 -0.006104 0.013158 0.000000 0.001300 0.000000
# 4 0.000000 0.000000 0.000000 0.011082 0.000000 -0.002071
# 5 -0.000737 0.002112 0.001300 0.000000 0.027424 0.000000
# 6 0.000000 0.000000 0.000000 -0.002071 0.000000 0.038242
#
#
# Mechanical properties :
#
#
# Convention : Reuss Voigt Hill
#
# Bulk Modulus (GPa) = 59.40548 62.88195 61.14372
# Shear Modulus (GPa) = 33.96130 43.02810 38.49470
#
# Velocity S-wave (km/s) = 4.10629 4.62204 4.37178
# Velocity P-wave (km/s) = 7.20949 7.72690 7.47268
#
# Compressibility (1/GPa) = 0.01683346
#
# Stress axis : x y z
#
# Youngs Moduli (GPa) = 72.81751 71.63923 75.99697
#
# Poissons Ratio (x) = 0.33565 0.09264
# Poissons Ratio (y) = 0.34117 0.46389
# Poissons Ratio (z) = 0.08877 0.43729
#
# Static dielectric constant tensor:
#      x y z
#    x 3.812410 0.000000 0.038640 
#    y 0.000000 3.578780 0.000000 
#    z 0.038640 0.000000 4.280790 
# 
# 
# High freq. dielectric constant tensor:
#      x y z
#    x 1.797950 0.000000 0.000650 
#    y 0.000000 1.774530 0.000000 
#    z 0.000650 0.000000 1.810850 
# 
# From -- ./inp_files/67721.got.cif
#   From: 2010.06.25/outbox.cif.g09.slc.cpg/sg15_34_cif.got.tgz:67721.got - 2010.06.28 07:06:18.
