data_PCOD8146327
_publ_section_title
;
Structure prediction by ZEFSAII (Michael W. Deem and Ramdas Pophale) SiO2 
 PCOD8146327
Probable space group: C 2/C
;
_chemical_formula_sum "Si O2"
_cell_formula_units_Z 48
_cell_length_a 26.123029
_cell_length_b 8.602985
_cell_length_c 17.028955
_cell_angle_alpha 90.000000
_cell_angle_beta 36.576070
_cell_angle_gamma 90.000000
_cell_volume 2280.480924
_symmetry_space_group_name_H-M "C 2/C"
_symmetry_group_IT_number 15
_symmetry_cell_setting 'monoclinic'
loop_
_space_group_symop_operation_xyz
x,y,z
-x,y,1/2-z
-x,-y,-z
x,-y,1/2+z
1/2+x,1/2+y,z
1/2-x,1/2+y,1/2-z
1/2-x,1/2-y,-z
1/2+x,1/2-y,1/2+z
loop_
_atom_site_type_symbol
_atom_site_label
_atom_site_fract_x
_atom_site_fract_y
_atom_site_fract_z
Si Si1 0.774603 0.447791 0.282945
Si Si2 0.902393 0.403006 0.881400
Si Si3 0.117539 0.690325 0.264798
Si Si4 0.357120 0.514435 0.186258
Si Si5 0.231596 0.319508 0.939442
Si Si6 0.428979 0.215570 0.513657
O O1 0.802059 0.591130 0.304208
O O2 0.726286 0.507966 0.266633
O O3 0.712629 0.324659 0.403585
O O4 0.865363 0.375904 0.147812
O O5 0.871376 0.303396 0.843622
O O6 0.000000 0.461075 0.750000
O O7 0.846061 0.557743 0.964286
O O8 0.894432 0.287759 0.966029
O O9 0.113714 0.851874 0.315606
O O10 0.021306 0.629250 0.402379
O O11 0.322994 0.606929 0.303634
O O12 0.430800 0.606145 0.045510
O O13 0.250000 0.250000 0.000000
#
# Coordination Sequence:
#
# PCOD8146327 Si02
#       6
#     8   8   8   8   8   8
#     4  11  22  39  63  91 125 170 209 259 310 369
#     4  10  22  41  66  92 127 171 210 261 323 384
#     4  11  22  40  65  92 126 168 205 260 321 374
#     4  11  24  39  62  96 125 164 213 265 312 370
#     4  11  22  41  60  92 124 161 219 260 309 376
#     4  10  22  41  62  92 129 164 211 254 314 384
#
# _framework density 21.048192
#
# number of rings (size 3 to 8) (size 9 to 14) (size 15 to 20)
#    0.000    1.333    3.333    3.000    0.000    2.000 
#    0.000    1.667    0.000    0.000    0.000    0.000 
#    0.000    0.000    0.000    0.000    0.000    0.000 
#
# Total GULP energy -297384.030732 kJ/mol
# GULP energy per Si atom -12391.001280 kJ/mol
# Density = 2.100029 g / cm^3
# Si number density = 21.048192 Si / 1000 Ang^3
#
#
#
# Elastic Constant Matrix: (Units=GPa)
#
#
# Indices 1 2 3 4 5 6 
#
# 1 90.6806 32.5150 38.1250 0.0009 18.5635 -0.0028
# 2 32.5150 89.0054 40.9435 0.0054 13.5072 -0.0065
# 3 38.1250 40.9435 103.2740 0.0013 16.1934 -0.0004
# 4 0.0009 0.0054 0.0013 30.3891 -0.0002 7.6490
# 5 18.5635 13.5072 16.1934 -0.0002 33.2493 0.0017
# 6 -0.0028 -0.0065 -0.0004 7.6490 0.0017 35.5085
#
#
#
# Elastic Compliance Matrix: (Units=1/GPa)
#
#
# Indices 1 2 3 4 5 6 
#
# 1 0.014600 -0.002975 -0.003380 0.000000 -0.005297 0.000001
# 2 -0.002975 0.014663 -0.004376 -0.000003 -0.002165 0.000003
# 3 -0.003380 -0.004376 0.013090 0.000001 -0.002711 -0.000001
# 4 0.000000 -0.000003 0.000001 0.034793 0.000002 -0.007495
# 5 -0.005297 -0.002165 -0.002711 0.000002 0.035233 -0.000003
# 6 0.000001 0.000003 -0.000001 -0.007495 -0.000003 0.029777
#
#
# Mechanical properties :
#
#
# Convention : Reuss Voigt Hill
#
# Bulk Modulus (GPa) = 47.86331 56.23633 52.04982
# Shear Modulus (GPa) = 29.31158 31.25450 30.28304
#
# Velocity S-wave (km/s) = 3.73580 3.85762 3.79720
# Velocity P-wave (km/s) = 6.43409 6.82771 6.63382
#
# Compressibility (1/GPa) = 0.02089283
#
# Stress axis : x y z
#
# Youngs Moduli (GPa) = 68.49479 68.19671 76.39137
#
# Poissons Ratio (x) = 0.20288 0.25818
# Poissons Ratio (y) = 0.20377 0.33427
# Poissons Ratio (z) = 0.23149 0.29841
#
# Static dielectric constant tensor:
#      x y z
#    x 4.202640 0.000000 -0.179760 
#    y 0.000000 4.053710 0.000010 
#    z -0.179760 0.000010 4.356680 
# 
# 
# High freq. dielectric constant tensor:
#      x y z
#    x 1.824860 0.000000 0.011730 
#    y 0.000000 1.815330 0.000000 
#    z 0.011730 0.000000 1.837440 
# 
# From -- ./inp_files/176865.got.cif
#   From: 2010.06.25/outbox.cif.g09.slc.cpg/sg15_89_cif.got.tgz:176865.got - 2010.06.28 07:06:18.
