data_PCOD8146583
_publ_section_title
;
Structure prediction by ZEFSAII (Michael W. Deem and Ramdas Pophale) SiO2 
 PCOD8146583
Probable space group: C 2/C
;
_chemical_formula_sum "Si O2"
_cell_formula_units_Z 44
_cell_length_a 11.141142
_cell_length_b 22.852229
_cell_length_c 11.255528
_cell_angle_alpha 90.000000
_cell_angle_beta 45.462429
_cell_angle_gamma 90.000000
_cell_volume 2042.613341
_symmetry_space_group_name_H-M "C 2/C"
_symmetry_group_IT_number 15
_symmetry_cell_setting 'monoclinic'
loop_
_space_group_symop_operation_xyz
x,y,z
-x,y,1/2-z
-x,-y,-z
x,-y,1/2+z
1/2+x,1/2+y,z
1/2-x,1/2+y,1/2-z
1/2-x,1/2-y,-z
1/2+x,1/2-y,1/2+z
loop_
_atom_site_type_symbol
_atom_site_label
_atom_site_fract_x
_atom_site_fract_y
_atom_site_fract_z
Si Si1 0.328991 0.733700 0.821165
Si Si2 0.668255 0.120320 0.871867
Si Si3 0.692875 0.926117 0.603085
Si Si4 0.300886 0.849125 0.691746
Si Si5 0.500000 0.377673 0.750000
Si Si6 0.350954 0.459690 0.052665
O O1 0.500000 0.705373 0.750000
O O2 0.227286 0.687110 0.812294
O O3 0.357418 0.789287 0.715565
O O4 0.250000 0.750000 0.000000
O O5 0.744488 0.077647 0.720775
O O6 0.753023 0.099211 0.935981
O O7 0.463346 0.120439 0.015420
O O8 0.500000 0.909182 0.750000
O O9 0.781515 0.893064 0.652615
O O10 0.719064 0.995442 0.586053
O O11 0.150376 0.838029 0.701272
O O12 0.582166 0.417655 0.593942
O O13 0.500000 0.500000 0.000000
#
# Coordination Sequence:
#
# PCOD8146583 Si02
#       6
#     8   8   8   8   4   8
#     4  12  23  44  77 106 136 173 240 300 344 405
#     4  11  26  43  75 101 137 182 238 291 349 410
#     4  10  22  41  68  98 134 174 235 287 336 402
#     4  11  24  47  65 107 138 184 226 288 352 414
#     4  12  28  44  66  96 154 180 234 288 350 432
#     4  12  26  44  66 102 140 187 234 280 351 420
#
# _framework density 21.541032000000001
#
# number of rings (size 3 to 8) (size 9 to 14) (size 15 to 20)
#    0.000    0.727    5.455    1.636    7.636    1.455 
#    0.000    3.636    0.000    0.000    0.000    0.000 
#    0.000    0.000    0.000    0.000    0.000    0.000 
#
# Total GULP energy -272683.777073 kJ/mol
# GULP energy per Si atom -12394.717140 kJ/mol
# Density = 2.149200 g / cm^3
# Si number density = 21.541032 Si / 1000 Ang^3
#
#
#
# Elastic Constant Matrix: (Units=GPa)
#
#
# Indices 1 2 3 4 5 6 
#
# 1 115.5152 26.9377 38.5050 0.0000 -6.7555 0.0000
# 2 26.9377 102.9795 40.3179 0.0000 -0.6443 0.0000
# 3 38.5050 40.3179 126.6070 0.0000 7.7669 0.0000
# 4 0.0000 0.0000 0.0000 22.6799 0.0000 21.1365
# 5 -6.7555 -0.6443 7.7669 0.0000 20.5559 0.0000
# 6 0.0000 0.0000 0.0000 21.1365 0.0000 10.8206
#
#
#
# Elastic Compliance Matrix: (Units=1/GPa)
#
#
# Indices 1 2 3 4 5 6 
#
# 1 0.010235 -0.001514 -0.002901 0.000000 0.004413 0.000000
# 2 -0.001514 0.011378 -0.003229 0.000000 0.001079 0.000000
# 3 -0.002901 -0.003229 0.010108 0.000000 -0.004874 0.000000
# 4 0.000000 0.000000 0.000000 -0.053743 0.000000 0.104979
# 5 0.004413 0.001079 -0.004874 0.000000 0.051973 0.000000
# 6 0.000000 0.000000 0.000000 0.104979 0.000000 -0.112644
#
#
# Mechanical properties :
#
#
# Convention : Reuss Voigt Hill
#
# Bulk Modulus (GPa) = 60.85535 61.84700 61.35118
# Shear Modulus (GPa) = -80.74047 26.76737 -26.98655
#
# Velocity S-wave (km/s) = -6.12891 3.52891 -3.54333
# Velocity P-wave (km/s) = 4.66610 6.73631 3.43550
#
# Compressibility (1/GPa) = 0.01643241
#
# Stress axis : x y z
#
# Youngs Moduli (GPa) = 97.70332 87.89206 98.93011
#
# Poissons Ratio (x) = 0.13305 0.28704
# Poissons Ratio (y) = 0.14790 0.31945
# Poissons Ratio (z) = 0.28348 0.28380
#
# Static dielectric constant tensor:
#      x y z
#    x 3.930590 0.000000 -0.128930 
#    y 0.000000 4.593910 0.000000 
#    z -0.128930 0.000000 3.732460 
# 
# 
# High freq. dielectric constant tensor:
#      x y z
#    x 1.841410 0.000000 -0.008110 
#    y 0.000000 1.844960 0.000000 
#    z -0.008110 0.000000 1.855550 
# 
# From -- ./inp_files/31857.got.cif
#   From: 2010.06.25/outbox.cif.g09.slc.cpg/sg15_16_cif.got.tgz:31857.got - 2010.06.28 07:06:18.
