data_PCOD8146684
_publ_section_title
;
Structure prediction by ZEFSAII (Michael W. Deem and Ramdas Pophale) SiO2 
 PCOD8146684
Probable space group: C 2/C
;
_chemical_formula_sum "Si O2"
_cell_formula_units_Z 36
_cell_length_a 12.640893
_cell_length_b 12.244192
_cell_length_c 9.475953
_cell_angle_alpha 90.000000
_cell_angle_beta 111.559634
_cell_angle_gamma 90.000000
_cell_volume 1364.050220
_symmetry_space_group_name_H-M "C 2/C"
_symmetry_group_IT_number 15
_symmetry_cell_setting 'monoclinic'
loop_
_space_group_symop_operation_xyz
x,y,z
-x,y,1/2-z
-x,-y,-z
x,-y,1/2+z
1/2+x,1/2+y,z
1/2-x,1/2+y,1/2-z
1/2-x,1/2-y,-z
1/2+x,1/2-y,1/2+z
loop_
_atom_site_type_symbol
_atom_site_label
_atom_site_fract_x
_atom_site_fract_y
_atom_site_fract_z
Si Si1 0.866708 0.224256 0.744277
Si Si2 0.691314 0.859019 0.531646
Si Si3 0.114418 0.020391 0.226970
Si Si4 0.882962 0.778518 0.942942
Si Si5 0.500000 0.158137 0.750000
O O1 0.737236 0.218668 0.624636
O O2 0.887014 0.105329 0.823025
O O3 0.880147 0.321393 0.864108
O O4 0.061527 0.238249 0.871228
O O5 0.750000 0.750000 0.500000
O O6 0.780671 0.952021 0.615836
O O7 0.605649 0.909976 0.369518
O O8 0.128109 0.091490 0.090727
O O9 0.000000 0.053018 0.250000
O O10 0.963728 0.733374 0.861704
#
# Coordination Sequence:
#
# PCOD8146684 Si02
#       5
#     8   8   8   8   4
#     4  10  24  40  67 101 145 174 227 291 342 406
#     4  11  23  44  66 100 142 182 221 284 344 415
#     4  11  23  41  71 107 133 177 234 285 348 399
#     4  10  22  42  61 101 142 179 222 281 352 402
#     4  12  22  42  72  90 140 196 222 262 358 414
#
# _framework density 26.391988999999999
#
# number of rings (size 3 to 8) (size 9 to 14) (size 15 to 20)
#    0.000    1.333    5.556    0.000    6.222    0.889 
#    0.000    1.111    0.000    0.000    0.000    0.000 
#    0.000    0.000    0.000    0.000    0.000    0.000 
#
# Total GULP energy -223136.590003 kJ/mol
# GULP energy per Si atom -12396.477222 kJ/mol
# Density = 2.633192 g / cm^3
# Si number density = 26.391989 Si / 1000 Ang^3
#
#
#
# Elastic Constant Matrix: (Units=GPa)
#
#
# Indices 1 2 3 4 5 6 
#
# 1 114.9410 35.5193 40.0301 0.0000 -14.4305 0.0000
# 2 35.5193 56.7303 9.3685 0.0000 2.8987 0.0000
# 3 40.0301 9.3685 224.6462 0.0000 7.7100 0.0000
# 4 0.0000 0.0000 0.0000 17.4460 0.0000 2.1610
# 5 -14.4305 2.8987 7.7100 0.0000 42.2084 0.0000
# 6 0.0000 0.0000 0.0000 2.1610 0.0000 25.7476
#
#
#
# Elastic Compliance Matrix: (Units=1/GPa)
#
#
# Indices 1 2 3 4 5 6 
#
# 1 0.012458 -0.007721 -0.002075 0.000000 0.005169 0.000000
# 2 -0.007721 0.022585 0.000581 0.000000 -0.004297 0.000000
# 3 -0.002075 0.000581 0.004853 0.000000 -0.001636 0.000000
# 4 0.000000 0.000000 0.000000 0.057922 0.000000 -0.004861
# 5 0.005169 -0.004297 -0.001636 0.000000 0.026053 0.000000
# 6 0.000000 0.000000 0.000000 -0.004861 0.000000 0.039247
#
#
# Mechanical properties :
#
#
# Convention : Reuss Voigt Hill
#
# Bulk Modulus (GPa) = 46.58545 62.90592 54.74569
# Shear Modulus (GPa) = 26.49664 37.84037 32.16850
#
# Velocity S-wave (km/s) = 3.17198 3.79064 3.49502
# Velocity P-wave (km/s) = 5.57718 6.56091 6.08895
#
# Compressibility (1/GPa) = 0.02146593
#
# Stress axis : x y z
#
# Youngs Moduli (GPa) = 80.27102 44.27683 206.05236
#
# Poissons Ratio (x) = 0.34187 0.42761
# Poissons Ratio (y) = 0.61980 -0.11981
# Poissons Ratio (z) = 0.16658 -0.02575
#
# Static dielectric constant tensor:
#      x y z
#    x 5.315530 0.000000 0.084830 
#    y 0.000000 4.088630 0.000000 
#    z 0.084830 0.000000 5.825860 
# 
# 
# High freq. dielectric constant tensor:
#      x y z
#    x 2.086890 0.000000 0.011540 
#    y 0.000000 2.000580 0.000000 
#    z 0.011540 0.000000 2.101780 
# 
# From -- ./inp_files/151561.got.cif
#   From: 2010.06.25/outbox.cif.g09.slc.cpg/sg15_76_cif.got.tgz:151561.got - 2010.06.28 07:06:18.
