data_PCOD8146634
_publ_section_title
;
Structure prediction by ZEFSAII (Michael W. Deem and Ramdas Pophale) SiO2 
 PCOD8146634
Probable space group: C 2/C
;
_chemical_formula_sum "Si O2"
_cell_formula_units_Z 56
_cell_length_a 8.801902
_cell_length_b 18.509609
_cell_length_c 24.090289
_cell_angle_alpha 90.000000
_cell_angle_beta 138.299978
_cell_angle_gamma 90.000000
_cell_volume 2610.886717
_symmetry_space_group_name_H-M "C 2/C"
_symmetry_group_IT_number 15
_symmetry_cell_setting 'monoclinic'
loop_
_space_group_symop_operation_xyz
x,y,z
-x,y,1/2-z
-x,-y,-z
x,-y,1/2+z
1/2+x,1/2+y,z
1/2-x,1/2+y,1/2-z
1/2-x,1/2-y,-z
1/2+x,1/2-y,1/2+z
loop_
_atom_site_type_symbol
_atom_site_label
_atom_site_fract_x
_atom_site_fract_y
_atom_site_fract_z
Si Si1 0.454019 0.426020 0.395807
Si Si2 0.122709 0.327057 0.973760
Si Si3 0.867275 0.083731 0.364087
Si Si4 0.230591 0.936389 0.277743
Si Si5 0.935245 0.413903 0.823410
Si Si6 0.072069 0.668161 0.833054
Si Si7 0.222525 0.202277 0.439969
O O1 0.699683 0.389504 0.463012
O O2 0.479199 0.509813 0.417299
O O3 0.332406 0.432709 0.303573
O O4 0.299300 0.381686 0.397345
O O5 0.959370 0.352463 0.877693
O O6 0.966419 0.325195 0.985397
O O7 0.250000 0.250000 0.000000
O O8 0.779423 0.093263 0.276699
O O9 0.664844 0.097302 0.351626
O O10 0.070824 0.138986 0.422787
O O11 0.389862 0.865438 0.327297
O O12 0.000000 0.931911 0.250000
O O13 0.387054 0.006292 0.336119
O O14 0.111527 0.750750 0.860508
O O15 0.000000 0.670363 0.750000
O O16 0.250000 0.250000 0.500000
#
# Coordination Sequence:
#
# PCOD8146634 Si02
#       7
#     8   8   8   8   8   8   8
#     4  10  22  44  68  95 134 175 218 276 339 404
#     4  12  26  42  67  98 138 181 227 277 343 410
#     4  10  23  45  68  96 135 175 225 277 339 404
#     4  10  22  41  71 100 128 168 233 276 332 403
#     4  10  23  43  69  97 133 177 222 276 339 409
#     4  10  22  45  71  95 134 185 221 276 344 416
#     4  12  28  43  64  98 140 175 231 279 343 407
#
# _framework density 21.448651999999999
#
# number of rings (size 3 to 8) (size 9 to 14) (size 15 to 20)
#    0.000    1.429    2.857    0.857    8.000    2.286 
#    2.571    0.000    0.000    0.000    0.000    0.000 
#    0.000    0.000    0.000    0.000    0.000    0.000 
#
# Total GULP energy -346883.406668 kJ/mol
# GULP energy per Si atom -12388.693095 kJ/mol
# Density = 2.139983 g / cm^3
# Si number density = 21.448652 Si / 1000 Ang^3
#
#
#
# Elastic Constant Matrix: (Units=GPa)
#
#
# Indices 1 2 3 4 5 6 
#
# 1 121.2512 38.4948 28.3115 0.0001 22.8386 0.0000
# 2 38.4948 92.4022 26.9515 0.0006 10.7782 0.0000
# 3 28.3115 26.9515 55.6604 -0.0002 12.6173 -0.0003
# 4 0.0001 0.0006 -0.0002 44.6618 -0.0002 12.2688
# 5 22.8386 10.7782 12.6173 -0.0002 34.7908 0.0000
# 6 0.0000 0.0000 -0.0003 12.2688 0.0000 35.3437
#
#
#
# Elastic Compliance Matrix: (Units=1/GPa)
#
#
# Indices 1 2 3 4 5 6 
#
# 1 0.010865 -0.003092 -0.002865 0.000000 -0.005136 0.000000
# 2 -0.003092 0.013591 -0.004918 0.000000 -0.000397 0.000000
# 3 -0.002865 -0.004918 0.022917 0.000000 -0.004907 0.000000
# 4 0.000000 0.000000 0.000000 0.024751 0.000000 -0.008592
# 5 -0.005136 -0.000397 -0.004907 0.000000 0.034017 0.000000
# 6 0.000000 0.000000 0.000000 -0.008592 0.000000 0.031276
#
#
# Mechanical properties :
#
#
# Convention : Reuss Voigt Hill
#
# Bulk Modulus (GPa) = 39.02764 50.75882 44.89323
# Shear Modulus (GPa) = 29.81350 34.66300 32.23825
#
# Velocity S-wave (km/s) = 3.73231 4.02443 3.88112
# Velocity P-wave (km/s) = 6.06703 6.73137 6.40781
#
# Compressibility (1/GPa) = 0.02562287
#
# Stress axis : x y z
#
# Youngs Moduli (GPa) = 92.03643 73.57731 43.63507
#
# Poissons Ratio (x) = 0.22748 0.12503
# Poissons Ratio (y) = 0.28455 0.21461
# Poissons Ratio (z) = 0.26372 0.36188
#
# Static dielectric constant tensor:
#      x y z
#    x 3.791710 0.000020 0.125340 
#    y 0.000020 8.375700 0.000000 
#    z 0.125340 0.000000 3.836990 
# 
# 
# High freq. dielectric constant tensor:
#      x y z
#    x 1.846670 0.000000 0.007480 
#    y 0.000000 1.849580 0.000000 
#    z 0.007480 0.000000 1.837300 
# 
# From -- ./inp_files/289744.got.cif
#   From: 2010.06.25/outbox.cif.g09.slc.cpg/sg15_145_cif.got.tgz:289744.got - 2010.06.28 07:06:18.
