data_PCOD8146192
_publ_section_title
;
Structure prediction by ZEFSAII (Michael W. Deem and Ramdas Pophale) SiO2 
 PCOD8146192
Probable space group: C 2/C
;
_chemical_formula_sum "Si O2"
_cell_formula_units_Z 56
_cell_length_a 9.151181
_cell_length_b 17.786874
_cell_length_c 17.216684
_cell_angle_alpha 90.000000
_cell_angle_beta 68.243622
_cell_angle_gamma 90.000000
_cell_volume 2602.757252
_symmetry_space_group_name_H-M "C 2/C"
_symmetry_group_IT_number 15
_symmetry_cell_setting 'monoclinic'
loop_
_space_group_symop_operation_xyz
x,y,z
-x,y,1/2-z
-x,-y,-z
x,-y,1/2+z
1/2+x,1/2+y,z
1/2-x,1/2+y,1/2-z
1/2-x,1/2-y,-z
1/2+x,1/2-y,1/2+z
loop_
_atom_site_type_symbol
_atom_site_label
_atom_site_fract_x
_atom_site_fract_y
_atom_site_fract_z
Si Si1 0.142222 0.801880 0.625138
Si Si2 0.447005 0.955111 0.084731
Si Si3 0.284064 0.663629 0.839015
Si Si4 0.118736 0.893091 0.333186
Si Si5 0.713872 0.683786 0.283305
Si Si6 0.329757 0.978014 0.754975
Si Si7 0.217094 0.644738 0.553359
O O1 0.237840 0.794462 0.687463
O O2 0.121430 0.720499 0.590281
O O3 0.230974 0.856447 0.546903
O O4 0.969041 0.834940 0.670283
O O5 0.351421 0.877471 0.083658
O O6 0.608235 0.927162 0.093202
O O7 0.338143 0.008213 0.160017
O O8 0.500000 0.000000 0.000000
O O9 0.259321 0.642526 0.752981
O O10 0.444943 0.628787 0.840191
O O11 0.274517 0.754672 0.835546
O O12 0.135651 0.860517 0.416657
O O13 0.173821 0.980688 0.320865
O O14 0.813310 0.609155 0.280214
O O15 0.500000 0.007484 0.750000
#
# Coordination Sequence:
#
# PCOD8146192 Si02
#       7
#     8   8   8   8   8   8   8
#     4  10  23  37  68  96 129 176 221 278 342 406
#     4  11  23  42  67  96 129 178 224 277 332 412
#     4  10  22  40  68  97 132 178 224 278 338 401
#     4  10  22  41  66  94 130 179 220 272 338 415
#     4  11  22  41  64 101 135 175 228 289 335 407
#     4  11  24  40  66  96 131 177 231 274 341 402
#     4  11  20  41  66  98 129 173 225 269 341 408
#
# _framework density 21.515646
#
# number of rings (size 3 to 8) (size 9 to 14) (size 15 to 20)
#    0.000    1.429    4.286    0.857    2.000    5.714 
#    2.571    2.143    0.000    0.000    0.000    0.000 
#    0.000    0.000    0.000    0.000    0.000    0.000 
#
# Total GULP energy -346895.332692 kJ/mol
# GULP energy per Si atom -12389.119025 kJ/mol
# Density = 2.146668 g / cm^3
# Si number density = 21.515646 Si / 1000 Ang^3
#
#
#
# Elastic Constant Matrix: (Units=GPa)
#
#
# Indices 1 2 3 4 5 6 
#
# 1 105.3445 42.0398 28.7235 0.0000 4.1102 0.0000
# 2 42.0398 126.9577 32.9220 0.0000 -5.7154 0.0000
# 3 28.7235 32.9220 96.9331 0.0000 -2.7051 0.0000
# 4 0.0000 0.0000 0.0000 31.3584 0.0000 -2.9557
# 5 4.1102 -5.7154 -2.7051 0.0000 21.1020 0.0000
# 6 0.0000 0.0000 0.0000 -2.9557 0.0000 32.4031
#
#
#
# Elastic Compliance Matrix: (Units=1/GPa)
#
#
# Indices 1 2 3 4 5 6 
#
# 1 0.011634 -0.003389 -0.002394 0.000000 -0.003491 0.000000
# 2 -0.003389 0.009707 -0.002209 0.000000 0.003006 0.000000
# 3 -0.002394 -0.002209 0.011815 0.000000 0.001383 0.000000
# 4 0.000000 0.000000 0.000000 0.032166 0.000000 0.002934
# 5 -0.003491 0.003006 0.001383 0.000000 0.049060 0.000000
# 6 0.000000 0.000000 0.000000 0.002934 0.000000 0.031129
#
#
# Mechanical properties :
#
#
# Convention : Reuss Voigt Hill
#
# Bulk Modulus (GPa) = 58.23247 59.62286 58.92767
# Shear Modulus (GPa) = 29.90123 32.00938 30.95530
#
# Velocity S-wave (km/s) = 3.73197 3.86129 3.79718
# Velocity P-wave (km/s) = 6.75974 6.90297 6.83173
#
# Compressibility (1/GPa) = 0.01717255
#
# Stress axis : x y z
#
# Youngs Moduli (GPa) = 85.95543 103.02005 84.64172
#
# Poissons Ratio (x) = 0.34911 0.20262
# Poissons Ratio (y) = 0.29128 0.18695
# Poissons Ratio (z) = 0.20577 0.22754
#
# Static dielectric constant tensor:
#      x y z
#    x 3.579040 0.000000 -0.038810 
#    y 0.000000 3.820570 0.000000 
#    z -0.038810 0.000000 3.893150 
# 
# 
# High freq. dielectric constant tensor:
#      x y z
#    x 1.832960 0.000000 -0.003490 
#    y 0.000000 1.842560 0.000000 
#    z -0.003490 0.000000 1.832440 
# 
# From -- ./inp_files/190910.got.cif
#   From: 2010.06.25/outbox.cif.g09.slc.cpg/sg15_96_cif.got.tgz:190910.got - 2010.06.28 07:06:18.
