data_PCOD8146125
_publ_section_title
;
Structure prediction by ZEFSAII (Michael W. Deem and Ramdas Pophale) SiO2 
 PCOD8146125
Probable space group: C 2/C
;
_chemical_formula_sum "Si O2"
_cell_formula_units_Z 56
_cell_length_a 11.219934
_cell_length_b 8.892742
_cell_length_c 27.935562
_cell_angle_alpha 90.000000
_cell_angle_beta 66.308706
_cell_angle_gamma 90.000000
_cell_volume 2552.394747
_symmetry_space_group_name_H-M "C 2/C"
_symmetry_group_IT_number 15
_symmetry_cell_setting 'monoclinic'
loop_
_space_group_symop_operation_xyz
x,y,z
-x,y,1/2-z
-x,-y,-z
x,-y,1/2+z
1/2+x,1/2+y,z
1/2-x,1/2+y,1/2-z
1/2-x,1/2-y,-z
1/2+x,1/2-y,1/2+z
loop_
_atom_site_type_symbol
_atom_site_label
_atom_site_fract_x
_atom_site_fract_y
_atom_site_fract_z
Si Si1 0.854842 0.229126 0.552860
Si Si2 0.582179 0.717768 0.062461
Si Si3 0.011719 0.252031 0.674590
Si Si4 0.129255 0.991734 0.366566
Si Si5 0.739583 0.428727 0.189699
Si Si6 0.983655 0.458997 0.596973
Si Si7 0.761265 0.646160 0.264421
O O1 0.719078 0.317506 0.566350
O O2 0.910789 0.165834 0.493841
O O3 0.963226 0.341394 0.557051
O O4 0.826447 0.086294 0.591532
O O5 0.468623 0.629577 0.107522
O O6 0.563247 0.898023 0.066328
O O7 0.060108 0.379173 0.628847
O O8 0.913933 0.331469 0.727820
O O9 0.126297 0.165732 0.682829
O O10 0.936392 0.129662 0.656313
O O11 0.251662 0.055603 0.316575
O O12 0.838323 0.492720 0.135420
O O13 0.687426 0.564615 0.231990
O O14 0.806926 0.308948 0.215605
#
# Coordination Sequence:
#
# PCOD8146125 Si02
#       7
#     8   8   8   8   8   8   8
#     4  10  24  42  61  91 124 153 202 256 301 357
#     4  11  22  41  66  89 118 161 201 250 308 354
#     4  10  23  41  63  88 127 163 197 247 300 351
#     4  11  22  41  61  90 124 160 202 250 298 357
#     4  11  22  42  61  90 124 160 199 246 295 359
#     4  10  22  40  67  92 119 159 203 247 300 360
#     4  11  22  37  61  86 123 160 199 243 294 354
#
# _framework density 21.940180999999999
#
# number of rings (size 3 to 8) (size 9 to 14) (size 15 to 20)
#    0.000    1.429    2.857    2.143    2.000    0.000 
#    0.000    0.000    3.143    9.429    0.000    0.000 
#    0.000    0.000    0.000    0.000    0.000    0.000 
#
# Total GULP energy -347036.006597 kJ/mol
# GULP energy per Si atom -12394.143093 kJ/mol
# Density = 2.189024 g / cm^3
# Si number density = 21.940181 Si / 1000 Ang^3
#
#
#
# Elastic Constant Matrix: (Units=GPa)
#
#
# Indices 1 2 3 4 5 6 
#
# 1 73.6125 19.7290 34.4085 0.0000 11.1072 0.0000
# 2 19.7290 70.4634 16.7784 0.0000 0.8857 0.0000
# 3 34.4085 16.7784 102.3234 0.0000 2.3130 0.0000
# 4 0.0000 0.0000 0.0000 34.3179 0.0000 -2.9192
# 5 11.1072 0.8857 2.3130 0.0000 13.9648 0.0000
# 6 0.0000 0.0000 0.0000 -2.9192 0.0000 35.7368
#
#
#
# Elastic Compliance Matrix: (Units=1/GPa)
#
#
# Indices 1 2 3 4 5 6 
#
# 1 0.019381 -0.003926 -0.005552 0.000000 -0.014247 0.000000
# 2 -0.003926 0.015567 -0.001286 0.000000 0.002348 0.000000
# 3 -0.005552 -0.001286 0.011793 0.000000 0.002544 0.000000
# 4 0.000000 0.000000 0.000000 0.029343 0.000000 0.002397
# 5 -0.014247 0.002348 0.002544 0.000000 0.082370 0.000000
# 6 0.000000 0.000000 0.000000 0.002397 0.000000 0.028178
#
#
# Mechanical properties :
#
#
# Convention : Reuss Voigt Hill
#
# Bulk Modulus (GPa) = 39.65704 43.13678 41.39691
# Shear Modulus (GPa) = 23.08779 28.50281 25.79530
#
# Velocity S-wave (km/s) = 3.24745 3.60823 3.43258
# Velocity P-wave (km/s) = 5.67235 6.08793 5.88381
#
# Compressibility (1/GPa) = 0.02521620
#
# Stress axis : x y z
#
# Youngs Moduli (GPa) = 51.59570 64.23640 84.79513
#
# Poissons Ratio (x) = 0.25216 0.47076
# Poissons Ratio (y) = 0.20254 0.10902
# Poissons Ratio (z) = 0.28644 0.08259
#
# Static dielectric constant tensor:
#      x y z
#    x 3.690990 0.000000 0.282880 
#    y 0.000000 4.392960 0.000000 
#    z 0.282880 0.000000 4.163290 
# 
# 
# High freq. dielectric constant tensor:
#      x y z
#    x 1.832540 0.000000 0.016820 
#    y 0.000000 1.876540 0.000000 
#    z 0.016820 0.000000 1.877680 
# 
# From -- ./inp_files/310226.got.cif
#   From: 2010.06.25/outbox.cif.g09.slc.cpg/sg15_156_cif.got.tgz:310226.got - 2010.06.28 07:06:18.
