data_PCOD8146174
_publ_section_title
;
Structure prediction by ZEFSAII (Michael W. Deem and Ramdas Pophale) SiO2 
 PCOD8146174
Probable space group: C 2/C
;
_chemical_formula_sum "Si O2"
_cell_formula_units_Z 48
_cell_length_a 18.337583
_cell_length_b 12.355449
_cell_length_c 11.850602
_cell_angle_alpha 90.000000
_cell_angle_beta 132.164633
_cell_angle_gamma 90.000000
_cell_volume 1990.158348
_symmetry_space_group_name_H-M "C 2/C"
_symmetry_group_IT_number 15
_symmetry_cell_setting 'monoclinic'
loop_
_space_group_symop_operation_xyz
x,y,z
-x,y,1/2-z
-x,-y,-z
x,-y,1/2+z
1/2+x,1/2+y,z
1/2-x,1/2+y,1/2-z
1/2-x,1/2-y,-z
1/2+x,1/2-y,1/2+z
loop_
_atom_site_type_symbol
_atom_site_label
_atom_site_fract_x
_atom_site_fract_y
_atom_site_fract_z
Si Si1 0.611200 0.531467 0.136818
Si Si2 0.782747 0.221795 0.159142
Si Si3 0.262669 0.868344 0.375185
Si Si4 0.111633 0.567911 0.995589
Si Si5 0.259565 0.125810 0.136737
Si Si6 0.609493 0.067516 0.724532
O O1 0.626274 0.635396 0.237469
O O2 0.660126 0.426007 0.241991
O O3 0.662067 0.557791 0.068732
O O4 0.500000 0.500000 0.000000
O O5 0.816353 0.338432 0.247952
O O6 0.750000 0.250000 0.000000
O O7 0.690742 0.157394 0.124181
O O8 0.270343 0.858298 0.516834
O O9 0.257052 0.744756 0.321952
O O10 0.356175 0.944248 0.433181
O O11 0.117146 0.574796 0.866908
O O12 0.002554 0.590234 0.928519
O O13 0.355951 0.054379 0.277591
#
# Coordination Sequence:
#
# PCOD8146174 Si02
#       6
#     8   8   8   8   8   8
#     4  11  25  42  64 101 136 174 231 287 343 417
#     4   9  19  38  60  88 132 169 211 278 341 402
#     4   9  21  44  63  92 133 176 224 270 349 407
#     4   8  16  34  59  87 122 162 213 267 318 406
#     4  10  22  40  68  91 131 180 217 285 335 414
#     4   9  17  32  60  92 116 163 219 260 331 393
#
# _framework density 24.118684999999999
#
# number of rings (size 3 to 8) (size 9 to 14) (size 15 to 20)
#    0.000    2.667    0.000    1.000    2.333    3.333 
#    3.000   15.000    0.000    0.000    0.000    0.000 
#    0.000    0.000    0.000    0.000    0.000    0.000 
#
# Total GULP energy -297523.129381 kJ/mol
# GULP energy per Si atom -12396.797058 kJ/mol
# Density = 2.406379 g / cm^3
# Si number density = 24.118685 Si / 1000 Ang^3
#
#
#
# Elastic Constant Matrix: (Units=GPa)
#
#
# Indices 1 2 3 4 5 6 
#
# 1 108.1906 87.7263 62.1087 0.0000 19.4903 0.0000
# 2 87.7263 219.0254 112.8042 0.0000 17.1486 0.0000
# 3 62.1087 112.8042 163.6150 0.0000 34.4566 0.0000
# 4 0.0000 0.0000 0.0000 40.7364 0.0000 -12.9046
# 5 19.4903 17.1486 34.4566 0.0000 54.0200 0.0000
# 6 0.0000 0.0000 0.0000 -12.9046 0.0000 43.8932
#
#
#
# Elastic Compliance Matrix: (Units=1/GPa)
#
#
# Indices 1 2 3 4 5 6 
#
# 1 0.014539 -0.004747 -0.001686 0.000000 -0.002664 0.000000
# 2 -0.004747 0.008676 -0.004575 0.000000 0.001877 0.000000
# 3 -0.001686 -0.004575 0.010942 0.000000 -0.004919 0.000000
# 4 0.000000 0.000000 0.000000 0.027069 0.000000 0.007958
# 5 -0.002664 0.001877 -0.004919 0.000000 0.022014 0.000000
# 6 0.000000 0.000000 0.000000 0.007958 0.000000 0.025122
#
#
# Mechanical properties :
#
#
# Convention : Reuss Voigt Hill
#
# Bulk Modulus (GPa) = 82.35444 112.90104 97.62774
# Shear Modulus (GPa) = 37.19511 42.94269 40.06890
#
# Velocity S-wave (km/s) = 3.93131 4.22414 4.08035
# Velocity P-wave (km/s) = 7.40449 8.40853 7.92243
#
# Compressibility (1/GPa) = 0.01214264
#
# Stress axis : x y z
#
# Youngs Moduli (GPa) = 68.77876 115.25585 91.39105
#
# Poissons Ratio (x) = 0.54710 0.15404
# Poissons Ratio (y) = 0.32648 0.41813
# Poissons Ratio (z) = 0.11593 0.52732
#
# Static dielectric constant tensor:
#      x y z
#    x 4.585110 0.000000 -0.438980 
#    y 0.000000 5.019320 0.000000 
#    z -0.438980 0.000000 4.720210 
# 
# 
# High freq. dielectric constant tensor:
#      x y z
#    x 1.985520 0.000000 -0.058300 
#    y 0.000000 1.987180 0.000000 
#    z -0.058300 0.000000 1.984070 
# 
# From -- ./inp_files/167940.got.cif
#   From: 2010.06.25/outbox.cif.g09.slc.cpg/sg15_84_cif.got.tgz:167940.got - 2010.06.28 07:06:18.
