data_PCOD8146828
_publ_section_title
;
Structure prediction by ZEFSAII (Michael W. Deem and Ramdas Pophale) SiO2 
 PCOD8146828
Probable space group: C 2/C
;
_chemical_formula_sum "Si O2"
_cell_formula_units_Z 40
_cell_length_a 12.437965
_cell_length_b 24.237717
_cell_length_c 10.814575
_cell_angle_alpha 90.000000
_cell_angle_beta 35.595403
_cell_angle_gamma 90.000000
_cell_volume 1897.651943
_symmetry_space_group_name_H-M "C 2/C"
_symmetry_group_IT_number 15
_symmetry_cell_setting 'monoclinic'
loop_
_space_group_symop_operation_xyz
x,y,z
-x,y,1/2-z
-x,-y,-z
x,-y,1/2+z
1/2+x,1/2+y,z
1/2-x,1/2+y,1/2-z
1/2-x,1/2-y,-z
1/2+x,1/2-y,1/2+z
loop_
_atom_site_type_symbol
_atom_site_label
_atom_site_fract_x
_atom_site_fract_y
_atom_site_fract_z
Si Si1 0.500000 0.451097 0.750000
Si Si2 0.339337 0.557434 0.820616
Si Si3 0.775638 0.118557 0.638068
Si Si4 0.440055 0.174443 0.048156
Si Si5 0.457010 0.713188 0.148287
Si Si6 0.500000 0.882979 0.750000
O O1 0.377928 0.491236 0.775793
O O2 0.658450 0.411338 0.547483
O O3 0.500000 0.586806 0.750000
O O4 0.346652 0.577629 0.675637
O O5 0.153705 0.574100 0.063568
O O6 0.876707 0.176767 0.558589
O O7 0.555408 0.129626 0.857987
O O8 0.234772 0.179533 0.184129
O O9 0.438073 0.156381 0.193974
O O10 0.545885 0.232733 0.934872
O O11 0.500000 0.729875 0.250000
#
# Coordination Sequence:
#
# PCOD8146828 Si02
#       6
#     4   8   8   8   8   4
#     4  10  22  42  65  92 123 172 216 266 320 376
#     4   9  21  41  65  88 131 161 216 266 315 378
#     4  11  22  43  62  95 127 170 212 263 323 373
#     4  11  25  41  68  94 135 169 213 260 318 388
#     4  12  24  42  64  95 133 173 211 260 318 384
#     4  10  22  46  63 100 129 168 210 266 324 376
#
# _framework density 21.078681
#
# number of rings (size 3 to 8) (size 9 to 14) (size 15 to 20)
#    0.600    0.800    3.000    2.400    0.000    0.800 
#    5.400    2.000    0.000    0.000    0.000    0.000 
#    0.000    0.000    0.000    0.000    0.000    0.000 
#
# Total GULP energy -247812.265279 kJ/mol
# GULP energy per Si atom -12390.613264 kJ/mol
# Density = 2.103070 g / cm^3
# Si number density = 21.078681 Si / 1000 Ang^3
#
#
#
# Elastic Constant Matrix: (Units=GPa)
#
#
# Indices 1 2 3 4 5 6 
#
# 1 54.8774 -3.8994 10.4242 0.0000 -3.7211 0.0000
# 2 -3.8994 68.8585 -0.7397 0.0000 17.8152 0.0000
# 3 10.4242 -0.7397 71.2402 0.0001 11.6100 0.0001
# 4 0.0000 0.0000 0.0001 12.9177 0.0000 -13.1133
# 5 -3.7211 17.8152 11.6100 0.0000 30.6971 0.0000
# 6 0.0000 0.0000 0.0001 -13.1133 0.0000 13.3972
#
#
#
# Elastic Compliance Matrix: (Units=1/GPa)
#
#
# Indices 1 2 3 4 5 6 
#
# 1 0.019110 0.000138 -0.003367 -0.000005 0.003510 -0.000005
# 2 0.000138 0.017337 0.001915 -0.000016 -0.010769 -0.000015
# 3 -0.003367 0.001915 0.015769 -0.000027 -0.007484 -0.000027
# 4 -0.000005 -0.000016 -0.000027 12.167499 0.000038 11.909672
# 5 0.003510 -0.010769 -0.007484 0.000038 0.042082 0.000037
# 6 -0.000005 -0.000015 -0.000027 11.909672 0.000037 11.731951
#
#
# Mechanical properties :
#
#
# Convention : Reuss Voigt Hill
#
# Bulk Modulus (GPa) = 20.16611 22.94958 21.55785
# Shear Modulus (GPa) = 0.20822 24.01512 12.11167
#
# Velocity S-wave (km/s) = 0.31464 3.37903 2.39967
# Velocity P-wave (km/s) = 3.11766 5.11224 4.23408
#
# Compressibility (1/GPa) = 0.04958814
#
# Stress axis : x y z
#
# Youngs Moduli (GPa) = 52.32925 57.67962 63.41499
#
# Poissons Ratio (x) = -0.00796 0.21350
# Poissons Ratio (y) = -0.00722 -0.12143
# Poissons Ratio (z) = 0.17618 -0.11045
#
# Static dielectric constant tensor:
#      x y z
#    x 3.634430 0.000000 -0.032710 
#    y 0.000000 3.770910 0.000000 
#    z -0.032710 0.000000 3.977760 
# 
# 
# High freq. dielectric constant tensor:
#      x y z
#    x 1.807650 0.000000 -0.005070 
#    y 0.000000 1.829320 0.000000 
#    z -0.005070 0.000000 1.846390 
# 
# From -- ./inp_files/100604.got.cif
#   From: 2010.06.25/outbox.cif.g09.slc.cpg/sg15_51_cif.got.tgz:100604.got - 2010.06.28 07:06:18.
