data_PCOD8146964
_publ_section_title
;
Structure prediction by ZEFSAII (Michael W. Deem and Ramdas Pophale) SiO2 
 PCOD8146964
Probable space group: C 2/C
;
_chemical_formula_sum "Si O2"
_cell_formula_units_Z 56
_cell_length_a 10.158025
_cell_length_b 26.354599
_cell_length_c 11.449998
_cell_angle_alpha 90.000000
_cell_angle_beta 60.328598
_cell_angle_gamma 90.000000
_cell_volume 2663.362335
_symmetry_space_group_name_H-M "C 2/C"
_symmetry_group_IT_number 15
_symmetry_cell_setting 'monoclinic'
loop_
_space_group_symop_operation_xyz
x,y,z
-x,y,1/2-z
-x,-y,-z
x,-y,1/2+z
1/2+x,1/2+y,z
1/2-x,1/2+y,1/2-z
1/2-x,1/2-y,-z
1/2+x,1/2-y,1/2+z
loop_
_atom_site_type_symbol
_atom_site_label
_atom_site_fract_x
_atom_site_fract_y
_atom_site_fract_z
Si Si1 0.267525 0.335092 0.522403
Si Si2 0.604910 0.047431 0.418111
Si Si3 0.092450 0.973458 0.603602
Si Si4 0.692458 0.440984 0.883477
Si Si5 0.500000 0.297876 0.250000
Si Si6 0.264600 0.773637 0.738467
Si Si7 0.023153 0.658574 0.491854
Si Si8 0.000000 0.290782 0.250000
O O1 0.247442 0.391096 0.580791
O O2 0.405757 0.335361 0.372864
O O3 0.300770 0.295164 0.611192
O O4 0.119556 0.317550 0.514706
O O5 0.756320 0.055801 0.427253
O O6 0.666720 0.040654 0.258826
O O7 0.508734 0.098108 0.481886
O O8 0.500000 0.000000 0.500000
O O9 0.000000 0.001023 0.750000
O O10 0.969924 0.932208 0.609336
O O11 0.153867 0.015085 0.489585
O O12 0.600735 0.264505 0.292049
O O13 0.325239 0.820761 0.635651
O O14 0.141030 0.745577 0.714144
O O15 0.026011 0.673351 0.626725
#
# Coordination Sequence:
#
# PCOD8146964 Si02
#       8
#     8   8   8   8   4   8   8   4
#     4  12  24  43  73 100 132 180 241 280 343 419
#     4  11  24  42  68  99 136 180 229 284 353 414
#     4   9  21  41  64  93 139 170 219 282 342 408
#     4  10  22  42  67  98 127 180 226 281 340 409
#     4  12  24  42  70  97 133 178 222 290 336 406
#     4  12  24  47  72  98 139 181 232 287 352 412
#     4  12  25  45  69 102 141 182 230 291 349 419
#     4  12  28  44  66 107 143 184 228 292 358 412
#
# _framework density 21.026053000000001
#
# number of rings (size 3 to 8) (size 9 to 14) (size 15 to 20)
#    0.000    0.857    4.286    2.571    1.000    5.143 
#    2.571    0.000    0.000    0.000    0.000    0.000 
#    0.000    0.000    0.000    0.000    0.000    0.000 
#
# Total GULP energy -347107.873068 kJ/mol
# GULP energy per Si atom -12396.709752 kJ/mol
# Density = 2.097820 g / cm^3
# Si number density = 21.026053 Si / 1000 Ang^3
#
#
#
# Elastic Constant Matrix: (Units=GPa)
#
#
# Indices 1 2 3 4 5 6 
#
# 1 121.4103 31.8572 40.1262 0.0000 5.2514 0.0000
# 2 31.8572 95.5485 54.7289 0.0000 0.0360 0.0000
# 3 40.1262 54.7289 159.6087 0.0000 4.0896 0.0000
# 4 0.0000 0.0000 0.0000 30.9190 0.0000 -12.6283
# 5 5.2514 0.0360 4.0896 0.0000 31.7329 0.0000
# 6 0.0000 0.0000 0.0000 -12.6283 0.0000 21.7016
#
#
#
# Elastic Compliance Matrix: (Units=1/GPa)
#
#
# Indices 1 2 3 4 5 6 
#
# 1 0.009398 -0.002239 -0.001560 0.000000 -0.001352 0.000000
# 2 -0.002239 0.013567 -0.004112 0.000000 0.000885 0.000000
# 3 -0.001560 -0.004112 0.008088 0.000000 -0.000779 0.000000
# 4 0.000000 0.000000 0.000000 0.042426 0.000000 0.024688
# 5 -0.001352 0.000885 -0.000779 0.000000 0.031836 0.000000
# 6 0.000000 0.000000 0.000000 0.024688 0.000000 0.060446
#
#
# Mechanical properties :
#
#
# Convention : Reuss Voigt Hill
#
# Bulk Modulus (GPa) = 65.65895 69.99913 67.82904
# Shear Modulus (GPa) = 26.78657 33.52770 30.15713
#
# Velocity S-wave (km/s) = 3.57314 3.99755 3.79129
# Velocity P-wave (km/s) = 6.95114 7.39399 7.17598
#
# Compressibility (1/GPa) = 0.01523022
#
# Stress axis : x y z
#
# Youngs Moduli (GPa) = 106.40280 73.70605 123.64754
#
# Poissons Ratio (x) = 0.16505 0.19293
# Poissons Ratio (y) = 0.23827 0.50843
# Poissons Ratio (z) = 0.16602 0.30307
#
# Static dielectric constant tensor:
#      x y z
#    x 4.133640 0.000000 0.088820 
#    y 0.000000 3.595580 0.000000 
#    z 0.088820 0.000000 4.047910 
# 
# 
# High freq. dielectric constant tensor:
#      x y z
#    x 1.836870 0.000000 0.001130 
#    y 0.000000 1.809530 0.000000 
#    z 0.001130 0.000000 1.840640 
# 
# From -- ./inp_files/92030.got.cif
#   From: 2010.06.25/outbox.cif.g09.slc.cpg/sg15_47_cif.got.tgz:92030.got - 2010.06.28 07:06:18.
