data_PCOD8146333
_publ_section_title
;
Structure prediction by ZEFSAII (Michael W. Deem and Ramdas Pophale) SiO2 
 PCOD8146333
Probable space group: C 2/C
;
_chemical_formula_sum "Si O2"
_cell_formula_units_Z 56
_cell_length_a 19.888894
_cell_length_b 11.819893
_cell_length_c 11.665693
_cell_angle_alpha 90.000000
_cell_angle_beta 71.324544
_cell_angle_gamma 90.000000
_cell_volume 2598.029331
_symmetry_space_group_name_H-M "C 2/C"
_symmetry_group_IT_number 15
_symmetry_cell_setting 'monoclinic'
loop_
_space_group_symop_operation_xyz
x,y,z
-x,y,1/2-z
-x,-y,-z
x,-y,1/2+z
1/2+x,1/2+y,z
1/2-x,1/2+y,1/2-z
1/2-x,1/2-y,-z
1/2+x,1/2-y,1/2+z
loop_
_atom_site_type_symbol
_atom_site_label
_atom_site_fract_x
_atom_site_fract_y
_atom_site_fract_z
Si Si1 0.500000 0.432399 0.250000
Si Si2 0.779399 0.713453 0.305513
Si Si3 0.961856 0.617622 0.534272
Si Si4 0.423167 0.280831 0.134105
Si Si5 0.089756 0.891732 0.586286
Si Si6 0.500000 0.793530 0.250000
Si Si7 0.803028 0.593323 0.529108
Si Si8 0.737269 0.641042 0.090603
O O1 0.438350 0.353805 0.237349
O O2 0.466404 0.507676 0.368887
O O3 0.856302 0.705839 0.203654
O O4 0.783863 0.627266 0.409158
O O5 0.751668 0.837069 0.360046
O O6 0.728848 0.673775 0.229113
O O7 0.883631 0.623388 0.521482
O O8 0.000000 0.500000 0.500000
O O9 0.008146 0.711282 0.443034
O O10 0.960742 0.635289 0.672206
O O11 0.399047 0.370837 0.052922
O O12 0.062787 0.778051 0.660573
O O13 0.164816 0.923101 0.599511
O O14 0.796410 0.457291 0.543311
O O15 0.750000 0.750000 0.000000
#
# Coordination Sequence:
#
# PCOD8146333 Si02
#       8
#     4   8   8   8   8   4   8   8
#     4  11  22  37  66  94 128 163 208 277 330 390
#     4  11  25  47  69  98 138 177 227 282 338 405
#     4  11  24  42  65  98 131 176 220 270 335 398
#     4  11  22  42  66  94 129 168 220 269 329 400
#     4  10  22  41  62  95 123 169 217 266 331 388
#     4   9  22  41  66  90 132 167 218 275 324 400
#     4  11  27  44  68 102 137 181 226 282 343 398
#     4  12  25  42  69  95 132 178 226 274 333 405
#
# _framework density 21.5548
#
# number of rings (size 3 to 8) (size 9 to 14) (size 15 to 20)
#    0.000    1.143    1.429    3.857    4.000    5.143 
#    0.000    0.000    0.000    0.000    0.000    0.000 
#    0.000    0.000    0.000    0.000    0.000    0.000 
#
# Total GULP energy -347120.639424 kJ/mol
# GULP energy per Si atom -12397.165694 kJ/mol
# Density = 2.150574 g / cm^3
# Si number density = 21.554800 Si / 1000 Ang^3
#
#
#
# Elastic Constant Matrix: (Units=GPa)
#
#
# Indices 1 2 3 4 5 6 
#
# 1 111.8881 19.5149 25.2656 0.0000 7.7652 0.0000
# 2 19.5149 98.6622 32.2868 0.0000 12.0788 0.0000
# 3 25.2656 32.2868 108.5075 0.0000 20.4222 0.0000
# 4 0.0000 0.0000 0.0000 22.4791 0.0000 -1.8117
# 5 7.7652 12.0788 20.4222 0.0000 41.7733 0.0000
# 6 0.0000 0.0000 0.0000 -1.8117 0.0000 9.7763
#
#
#
# Elastic Compliance Matrix: (Units=1/GPa)
#
#
# Indices 1 2 3 4 5 6 
#
# 1 0.009591 -0.001254 -0.001754 0.000000 -0.000563 0.000000
# 2 -0.001254 0.011514 -0.002810 0.000000 -0.001722 0.000000
# 3 -0.001754 -0.002810 0.011285 0.000000 -0.004378 0.000000
# 4 0.000000 0.000000 0.000000 0.045160 0.000000 0.008369
# 5 -0.000563 -0.001722 -0.004378 0.000000 0.026682 0.000000
# 6 0.000000 0.000000 0.000000 0.008369 0.000000 0.103839
#
#
# Mechanical properties :
#
#
# Convention : Reuss Voigt Hill
#
# Bulk Modulus (GPa) = 48.18464 52.57693 50.38078
# Shear Modulus (GPa) = 22.06283 30.93845 26.50064
#
# Velocity S-wave (km/s) = 3.20280 3.79270 3.51016
# Velocity P-wave (km/s) = 6.00668 6.60489 6.31288
#
# Compressibility (1/GPa) = 0.02075350
#
# Stress axis : x y z
#
# Youngs Moduli (GPa) = 104.25974 86.85044 88.61698
#
# Poissons Ratio (x) = 0.10893 0.15546
# Poissons Ratio (y) = 0.13076 0.24900
# Poissons Ratio (z) = 0.18290 0.24403
#
# Static dielectric constant tensor:
#      x y z
#    x 4.636060 0.000000 -0.602070 
#    y 0.000000 3.841690 0.000000 
#    z -0.602070 0.000000 6.050520 
# 
# 
# High freq. dielectric constant tensor:
#      x y z
#    x 1.860060 0.000000 0.009560 
#    y 0.000000 1.843470 0.000000 
#    z 0.009560 0.000000 1.855020 
# 
# From -- ./inp_files/111619.got.cif
#   From: 2010.06.25/outbox.cif.g09.slc.cpg/sg15_56_cif.got.tgz:111619.got - 2010.06.28 07:06:18.
