data_PCOD8146032
_publ_section_title
;
Structure prediction by ZEFSAII (Michael W. Deem and Ramdas Pophale) SiO2 
 PCOD8146032
Probable space group: C 2/C
;
_chemical_formula_sum "Si O2"
_cell_formula_units_Z 48
_cell_length_a 9.597034
_cell_length_b 23.831589
_cell_length_c 10.338038
_cell_angle_alpha 90.000000
_cell_angle_beta 105.451010
_cell_angle_gamma 90.000000
_cell_volume 2278.985093
_symmetry_space_group_name_H-M "C 2/C"
_symmetry_group_IT_number 15
_symmetry_cell_setting 'monoclinic'
loop_
_space_group_symop_operation_xyz
x,y,z
-x,y,1/2-z
-x,-y,-z
x,-y,1/2+z
1/2+x,1/2+y,z
1/2-x,1/2+y,1/2-z
1/2-x,1/2-y,-z
1/2+x,1/2-y,1/2+z
loop_
_atom_site_type_symbol
_atom_site_label
_atom_site_fract_x
_atom_site_fract_y
_atom_site_fract_z
Si Si1 0.153992 0.470857 0.560053
Si Si2 0.119813 0.758795 0.067236
Si Si3 0.661981 0.648004 0.779545
Si Si4 0.317627 0.304929 0.953964
Si Si5 0.326729 0.047684 0.712212
Si Si6 0.375830 0.145072 0.311075
O O1 0.233512 0.505734 0.692343
O O2 0.234367 0.473768 0.441381
O O3 0.159693 0.405557 0.601598
O O4 0.000000 0.500000 0.500000
O O5 0.168670 0.791117 0.210308
O O6 0.061740 0.697180 0.091675
O O7 0.250000 0.750000 0.000000
O O8 0.988415 0.793469 0.970364
O O9 0.500000 0.624282 0.750000
O O10 0.766557 0.609010 0.723354
O O11 0.713315 0.649850 0.940861
O O12 0.257760 0.330405 0.805556
O O13 0.250000 0.250000 0.000000
O O14 0.500000 0.050958 0.750000
O O15 0.500000 0.120759 0.250000
#
# Coordination Sequence:
#
# PCOD8146032 Si02
#       6
#     8   8   8   8   8   8
#     4  10  23  40  63 102 131 167 227 280 337 390
#     4  11  23  40  61  93 134 170 221 276 338 400
#     4  10  22  41  62  89 132 172 216 271 333 407
#     4  11  22  39  61  95 124 176 222 261 341 401
#     4  10  22  40  65  94 124 165 223 276 327 388
#     4  12  22  38  66  92 134 173 217 282 334 401
#
# _framework density 21.062007000000001
#
# number of rings (size 3 to 8) (size 9 to 14) (size 15 to 20)
#    0.000    1.333    3.333    3.000    7.000    2.000 
#    0.000    0.833    3.667    0.000    0.000    0.000 
#    0.000    0.000    0.000    0.000    0.000    0.000 
#
# Total GULP energy -297419.759195 kJ/mol
# GULP energy per Si atom -12392.489966 kJ/mol
# Density = 2.101407 g / cm^3
# Si number density = 21.062007 Si / 1000 Ang^3
#
#
#
# Elastic Constant Matrix: (Units=GPa)
#
#
# Indices 1 2 3 4 5 6 
#
# 1 75.1825 13.9881 34.6998 0.0000 -14.9710 0.0000
# 2 13.9881 119.7870 51.9269 0.0000 -5.2714 0.0000
# 3 34.6998 51.9269 132.4537 0.0000 -14.6504 0.0000
# 4 0.0000 0.0000 0.0000 36.7479 0.0000 -6.6613
# 5 -14.9710 -5.2714 -14.6504 0.0000 29.5698 0.0000
# 6 0.0000 0.0000 0.0000 -6.6613 0.0000 30.4017
#
#
#
# Elastic Compliance Matrix: (Units=1/GPa)
#
#
# Indices 1 2 3 4 5 6 
#
# 1 0.016219 -0.000093 -0.003498 0.000000 0.006462 0.000000
# 2 -0.000093 0.010059 -0.003942 0.000000 -0.000207 0.000000
# 3 -0.003498 -0.003942 0.010302 0.000000 0.002631 0.000000
# 4 0.000000 0.000000 0.000000 0.028338 0.000000 0.006209
# 5 0.006462 -0.000207 0.002631 0.000000 0.038357 0.000000
# 6 0.000000 0.000000 0.000000 0.006209 0.000000 0.034253
#
#
# Mechanical properties :
#
#
# Convention : Reuss Voigt Hill
#
# Bulk Modulus (GPa) = 46.47981 58.73920 52.60950
# Shear Modulus (GPa) = 31.29575 34.46444 32.88010
#
# Velocity S-wave (km/s) = 3.85890 4.04955 3.95537
# Velocity P-wave (km/s) = 6.47849 7.05793 6.77441
#
# Compressibility (1/GPa) = 0.02151472
#
# Stress axis : x y z
#
# Youngs Moduli (GPa) = 61.65419 99.41630 97.06405
#
# Poissons Ratio (x) = 0.00929 0.33951
# Poissons Ratio (y) = 0.00576 0.38261
# Poissons Ratio (z) = 0.21565 0.39188
#
# Static dielectric constant tensor:
#      x y z
#    x 3.791240 0.000000 -0.439060 
#    y 0.000000 3.737600 0.000000 
#    z -0.439060 0.000000 4.757710 
# 
# 
# High freq. dielectric constant tensor:
#      x y z
#    x 1.796900 0.000000 -0.015570 
#    y 0.000000 1.823310 0.000000 
#    z -0.015570 0.000000 1.839710 
# 
# From -- ./inp_files/79872.got.cif
#   From: 2010.06.25/outbox.cif.g09.slc.cpg/sg15_40_cif.got.tgz:79872.got - 2010.06.28 07:06:18.
