data_PCOD8146815
_publ_section_title
;
Structure prediction by ZEFSAII (Michael W. Deem and Ramdas Pophale) SiO2 
 PCOD8146815
Probable space group: C 2/C
;
_chemical_formula_sum "Si O2"
_cell_formula_units_Z 44
_cell_length_a 17.641701
_cell_length_b 16.645257
_cell_length_c 7.959235
_cell_angle_alpha 90.000000
_cell_angle_beta 58.493283
_cell_angle_gamma 90.000000
_cell_volume 1992.676835
_symmetry_space_group_name_H-M "C 2/C"
_symmetry_group_IT_number 15
_symmetry_cell_setting 'monoclinic'
loop_
_space_group_symop_operation_xyz
x,y,z
-x,y,1/2-z
-x,-y,-z
x,-y,1/2+z
1/2+x,1/2+y,z
1/2-x,1/2+y,1/2-z
1/2-x,1/2-y,-z
1/2+x,1/2-y,1/2+z
loop_
_atom_site_type_symbol
_atom_site_label
_atom_site_fract_x
_atom_site_fract_y
_atom_site_fract_z
Si Si1 0.156845 0.250146 0.517120
Si Si2 0.811543 0.961286 0.098184
Si Si3 0.000000 0.458947 0.250000
Si Si4 0.114390 0.580910 0.914922
Si Si5 0.445614 0.624205 0.664328
Si Si6 0.126195 0.884838 0.818212
O O1 0.250000 0.250000 0.500000
O O2 0.125263 0.339000 0.509925
O O3 0.083628 0.210646 0.726454
O O4 0.166781 0.200275 0.330940
O O5 0.706896 0.953236 0.239480
O O6 0.858888 0.922490 0.205552
O O7 0.842158 0.054097 0.068449
O O8 0.837720 0.913375 0.901149
O O9 0.047407 0.403689 0.335893
O O10 0.923866 0.513572 0.418717
O O11 0.500000 0.577632 0.750000
O O12 0.518925 0.627621 0.430096
#
# Coordination Sequence:
#
# PCOD8146815 Si02
#       6
#     8   8   4   8   8   8
#     4  11  24  46  68 100 138 186 235 286 359 411
#     4  12  23  45  70 101 143 183 239 283 356 440
#     4  10  26  48  74 104 132 190 248 298 352 416
#     4  11  25  48  73 102 138 186 242 301 353 424
#     4  10  22  42  65 101 138 183 225 277 354 414
#     4  11  25  40  69 105 138 187 224 294 349 427
#
# _framework density 22.080850999999999
#
# number of rings (size 3 to 8) (size 9 to 14) (size 15 to 20)
#    0.000    1.091    1.818    4.364    6.364    2.182 
#    6.545    0.000    0.000    0.000    0.000    0.000 
#    0.000    0.000    0.000    0.000    0.000    0.000 
#
# Total GULP energy -272679.196847 kJ/mol
# GULP energy per Si atom -12394.508948 kJ/mol
# Density = 2.203059 g / cm^3
# Si number density = 22.080851 Si / 1000 Ang^3
#
#
#
# Elastic Constant Matrix: (Units=GPa)
#
#
# Indices 1 2 3 4 5 6 
#
# 1 144.0386 43.8176 37.6237 0.0000 -2.9385 0.0000
# 2 43.8176 81.3253 15.1341 0.0000 -7.5917 0.0000
# 3 37.6237 15.1341 128.5841 0.0000 -18.7854 0.0000
# 4 0.0000 0.0000 0.0000 29.4568 0.0000 3.9664
# 5 -2.9385 -7.5917 -18.7854 0.0000 40.4306 0.0000
# 6 0.0000 0.0000 0.0000 3.9664 0.0000 38.9345
#
#
#
# Elastic Compliance Matrix: (Units=1/GPa)
#
#
# Indices 1 2 3 4 5 6 
#
# 1 0.008866 -0.004474 -0.002249 0.000000 -0.001241 0.000000
# 2 -0.004474 0.014952 -0.000094 0.000000 0.002439 0.000000
# 3 -0.002249 -0.000094 0.009033 0.000000 0.004016 0.000000
# 4 0.000000 0.000000 0.000000 0.034420 0.000000 -0.003506
# 5 -0.001241 0.002439 0.004016 0.000000 0.026967 0.000000
# 6 0.000000 0.000000 0.000000 -0.003506 0.000000 0.026041
#
#
# Mechanical properties :
#
#
# Convention : Reuss Voigt Hill
#
# Bulk Modulus (GPa) = 52.04002 60.78872 56.41437
# Shear Modulus (GPa) = 35.63296 38.92255 37.27776
#
# Velocity S-wave (km/s) = 4.02151 4.20304 4.11328
# Velocity P-wave (km/s) = 6.72179 7.15150 6.93997
#
# Compressibility (1/GPa) = 0.01921598
#
# Stress axis : x y z
#
# Youngs Moduli (GPa) = 112.79390 66.88006 110.70771
#
# Poissons Ratio (x) = 0.29923 0.24895
# Poissons Ratio (y) = 0.50465 0.01046
# Poissons Ratio (z) = 0.25365 0.00632
#
# Static dielectric constant tensor:
#      x y z
#    x 4.366630 0.000000 -0.126500 
#    y 0.000000 3.868930 0.000000 
#    z -0.126500 0.000000 4.077960 
# 
# 
# High freq. dielectric constant tensor:
#      x y z
#    x 1.892040 0.000000 -0.004620 
#    y 0.000000 1.850820 0.000000 
#    z -0.004620 0.000000 1.876030 
# 
# From -- ./inp_files/47396.got.cif
#   From: 2010.06.25/outbox.cif.g09.slc.cpg/sg15_24_cif.got.tgz:47396.got - 2010.06.28 07:06:18.
