data_PCOD8146107
_publ_section_title
;
Structure prediction by ZEFSAII (Michael W. Deem and Ramdas Pophale) SiO2 
 PCOD8146107
Probable space group: C 2/C
;
_chemical_formula_sum "Si O2"
_cell_formula_units_Z 56
_cell_length_a 14.702678
_cell_length_b 21.518789
_cell_length_c 8.760740
_cell_angle_alpha 90.000000
_cell_angle_beta 116.926532
_cell_angle_gamma 90.000000
_cell_volume 2471.264569
_symmetry_space_group_name_H-M "C 2/C"
_symmetry_group_IT_number 15
_symmetry_cell_setting 'monoclinic'
loop_
_space_group_symop_operation_xyz
x,y,z
-x,y,1/2-z
-x,-y,-z
x,-y,1/2+z
1/2+x,1/2+y,z
1/2-x,1/2+y,1/2-z
1/2-x,1/2-y,-z
1/2+x,1/2-y,1/2+z
loop_
_atom_site_type_symbol
_atom_site_label
_atom_site_fract_x
_atom_site_fract_y
_atom_site_fract_z
Si Si1 0.093279 0.337663 0.212439
Si Si2 0.405681 0.463796 0.786306
Si Si3 0.781162 0.609674 0.425241
Si Si4 0.610897 0.290633 0.291333
Si Si5 0.956749 0.907288 0.383892
Si Si6 0.518860 0.067847 0.083557
Si Si7 0.292063 0.282834 0.823600
O O1 0.173447 0.376515 0.374735
O O2 0.141444 0.276293 0.176703
O O3 0.000000 0.317123 0.250000
O O4 0.058469 0.382972 0.050301
O O5 0.500000 0.479060 0.750000
O O6 0.303081 0.444943 0.620942
O O7 0.388098 0.530587 0.856516
O O8 0.445017 0.409468 0.929549
O O9 0.865377 0.588250 0.366222
O O10 0.715659 0.668307 0.318365
O O11 0.500000 0.263651 0.250000
O O12 0.610188 0.344210 0.156285
O O13 0.662201 0.313976 0.488788
O O14 0.675142 0.235151 0.268645
O O15 0.000000 0.896758 0.250000
O O16 0.500000 0.066159 0.250000
O O17 0.500000 0.000000 0.000000
#
# Coordination Sequence:
#
# PCOD8146107 Si02
#       7
#     8   8   8   8   8   8   8
#     4  10  25  46  69  99 140 180 232 293 343 413
#     4  10  22  40  66  97 134 175 217 275 346 406
#     4  11  24  44  66 103 139 179 236 278 344 421
#     4  10  23  39  65  96 133 171 233 280 338 406
#     4   9  19  42  61  92 135 165 218 278 332 399
#     4  11  26  51  75 102 137 184 236 298 349 406
#     4  11  25  40  66 101 132 187 230 276 355 406
#
# _framework density 22.660461999999999
#
# number of rings (size 3 to 8) (size 9 to 14) (size 15 to 20)
#    0.000    1.714    0.000    3.429   10.000    1.714 
#   15.429    0.000    0.000    0.000    0.000    0.000 
#    0.000    0.000    0.000    0.000    0.000    0.000 
#
# Total GULP energy -347043.714346 kJ/mol
# GULP energy per Si atom -12394.418369 kJ/mol
# Density = 2.260889 g / cm^3
# Si number density = 22.660462 Si / 1000 Ang^3
#
#
#
# Elastic Constant Matrix: (Units=GPa)
#
#
# Indices 1 2 3 4 5 6 
#
# 1 89.6277 38.6629 30.5442 0.0000 15.8956 0.0000
# 2 38.6629 83.9390 26.9285 0.0000 11.8981 0.0000
# 3 30.5442 26.9285 106.2413 0.0000 10.1091 0.0000
# 4 0.0000 0.0000 0.0000 41.5798 0.0000 4.8325
# 5 15.8956 11.8981 10.1091 0.0000 41.6971 0.0000
# 6 0.0000 0.0000 0.0000 4.8325 0.0000 24.1227
#
#
#
# Elastic Compliance Matrix: (Units=1/GPa)
#
#
# Indices 1 2 3 4 5 6 
#
# 1 0.015085 -0.005623 -0.002577 0.000000 -0.003522 0.000000
# 2 -0.005623 0.015434 -0.002129 0.000000 -0.001744 0.000000
# 3 -0.002577 -0.002129 0.010791 0.000000 -0.001026 0.000000
# 4 0.000000 0.000000 0.000000 0.024623 0.000000 -0.004933
# 5 -0.003522 -0.001744 -0.001026 0.000000 0.026071 0.000000
# 6 0.000000 0.000000 0.000000 -0.004933 0.000000 0.042443
#
#
# Mechanical properties :
#
#
# Convention : Reuss Voigt Hill
#
# Bulk Modulus (GPa) = 48.42118 52.45322 50.43720
# Shear Modulus (GPa) = 30.86623 33.72476 32.29550
#
# Velocity S-wave (km/s) = 3.69469 3.86199 3.77927
# Velocity P-wave (km/s) = 6.29409 6.56386 6.43039
#
# Compressibility (1/GPa) = 0.02065212
#
# Stress axis : x y z
#
# Youngs Moduli (GPa) = 66.28913 64.79365 92.67205
#
# Poissons Ratio (x) = 0.36431 0.23880
# Poissons Ratio (y) = 0.37272 0.19734
# Poissons Ratio (z) = 0.17081 0.13797
#
# Static dielectric constant tensor:
#      x y z
#    x 3.992300 0.000000 0.151610 
#    y 0.000000 4.343510 0.000000 
#    z 0.151610 0.000000 4.372230 
# 
# 
# High freq. dielectric constant tensor:
#      x y z
#    x 1.885350 0.000000 0.007380 
#    y 0.000000 1.899700 0.000000 
#    z 0.007380 0.000000 1.904530 
# 
# From -- ./inp_files/42750.got.cif
#   From: 2010.06.25/outbox.cif.g09.slc.cpg/sg15_22_cif.got.tgz:42750.got - 2010.06.28 07:06:18.
