data_PCOD8146793
_publ_section_title
;
Structure prediction by ZEFSAII (Michael W. Deem and Ramdas Pophale) SiO2 
 PCOD8146793
Probable space group: C 2/C
;
_chemical_formula_sum "Si O2"
_cell_formula_units_Z 44
_cell_length_a 24.760429
_cell_length_b 9.490697
_cell_length_c 8.638589
_cell_angle_alpha 90.000000
_cell_angle_beta 113.386161
_cell_angle_gamma 90.000000
_cell_volume 1863.249639
_symmetry_space_group_name_H-M "C 2/C"
_symmetry_group_IT_number 15
_symmetry_cell_setting 'monoclinic'
loop_
_space_group_symop_operation_xyz
x,y,z
-x,y,1/2-z
-x,-y,-z
x,-y,1/2+z
1/2+x,1/2+y,z
1/2-x,1/2+y,1/2-z
1/2-x,1/2-y,-z
1/2+x,1/2-y,1/2+z
loop_
_atom_site_type_symbol
_atom_site_label
_atom_site_fract_x
_atom_site_fract_y
_atom_site_fract_z
Si Si1 0.182875 0.888834 0.545944
Si Si2 0.752112 0.099656 0.079613
Si Si3 0.144022 0.594185 0.382257
Si Si4 0.433161 0.048029 0.930421
Si Si5 0.929977 0.142698 0.391034
Si Si6 0.000000 0.959073 0.250000
O O1 0.239370 0.879844 0.725481
O O2 0.173763 0.746880 0.435679
O O3 0.129188 0.918986 0.600965
O O4 0.193732 0.013603 0.436396
O O5 0.750000 0.250000 0.000000
O O6 0.691280 0.021879 0.982047
O O7 0.084683 0.580464 0.414975
O O8 0.115465 0.566247 0.182040
O O9 0.424807 0.195666 0.827961
O O10 0.500000 0.000000 0.000000
O O11 0.946954 0.054516 0.257595
O O12 0.978991 0.136193 0.582973
#
# Coordination Sequence:
#
# PCOD8146793 Si02
#       6
#     8   8   8   8   8   4
#     4  11  24  43  68  99 140 177 230 280 354 408
#     4  12  24  44  70 102 139 181 231 285 349 420
#     4  11  25  45  67 100 138 181 232 286 347 413
#     4  11  25  43  69  98 134 183 239 286 342 408
#     4  10  23  41  65  97 132 180 223 278 344 408
#     4  10  22  42  64  94 140 168 228 274 344 414
#
# _framework density 23.614654999999999
#
# number of rings (size 3 to 8) (size 9 to 14) (size 15 to 20)
#    0.000    1.091    0.000    6.545    7.636    1.455 
#    3.273    0.000    0.000    0.000    0.000    0.000 
#    0.000    0.000    0.000    0.000    0.000    0.000 
#
# Total GULP energy -272768.119806 kJ/mol
# GULP energy per Si atom -12398.550900 kJ/mol
# Density = 2.356091 g / cm^3
# Si number density = 23.614655 Si / 1000 Ang^3
#
#
#
# Elastic Constant Matrix: (Units=GPa)
#
#
# Indices 1 2 3 4 5 6 
#
# 1 94.9480 47.2399 -9.3450 0.0000 15.0874 0.0000
# 2 47.2399 154.1366 34.2572 0.0000 -3.9566 0.0000
# 3 -9.3450 34.2572 92.4692 0.0000 8.7460 0.0000
# 4 0.0000 0.0000 0.0000 36.4540 0.0000 0.7848
# 5 15.0874 -3.9566 8.7460 0.0000 35.8485 0.0000
# 6 0.0000 0.0000 0.0000 0.7848 0.0000 39.2132
#
#
#
# Elastic Compliance Matrix: (Units=1/GPa)
#
#
# Indices 1 2 3 4 5 6 
#
# 1 0.015175 -0.005853 0.004470 0.000000 -0.008123 0.000000
# 2 -0.005853 0.009402 -0.004510 0.000000 0.004601 0.000000
# 3 0.004470 -0.004510 0.013473 0.000000 -0.005666 0.000000
# 4 0.000000 0.000000 0.000000 0.027444 0.000000 -0.000549
# 5 -0.008123 0.004601 -0.005666 0.000000 0.033204 0.000000
# 6 0.000000 0.000000 0.000000 -0.000549 0.000000 0.025513
#
#
# Mechanical properties :
#
#
# Convention : Reuss Voigt Hill
#
# Bulk Modulus (GPa) = 38.07391 53.98421 46.02906
# Shear Modulus (GPa) = 34.54234 40.26325 37.40280
#
# Velocity S-wave (km/s) = 3.82874 4.13366 3.98412
# Velocity P-wave (km/s) = 5.97526 6.75965 6.37952
#
# Compressibility (1/GPa) = 0.02626471
#
# Stress axis : x y z
#
# Youngs Moduli (GPa) = 65.89868 106.36085 74.22327
#
# Poissons Ratio (x) = 0.62251 -0.33179
# Poissons Ratio (y) = 0.38569 0.33474
# Poissons Ratio (z) = -0.29458 0.47967
#
# Static dielectric constant tensor:
#      x y z
#    x 4.264000 0.000000 -0.059360 
#    y 0.000000 4.406260 0.000000 
#    z -0.059360 0.000000 4.252500 
# 
# 
# High freq. dielectric constant tensor:
#      x y z
#    x 1.951240 0.000000 0.001450 
#    y 0.000000 1.932310 0.000000 
#    z 0.001450 0.000000 1.934870 
# 
# From -- ./inp_files/68677.got.cif
#   From: 2010.06.25/outbox.cif.g09.slc.cpg/sg15_35_cif.got.tgz:68677.got - 2010.06.28 07:06:18.
