data_PCOD8146386
_publ_section_title
;
Structure prediction by ZEFSAII (Michael W. Deem and Ramdas Pophale) SiO2 
 PCOD8146386
Probable space group: C 2/C
;
_chemical_formula_sum "Si O2"
_cell_formula_units_Z 52
_cell_length_a 11.887534
_cell_length_b 26.619697
_cell_length_c 8.165342
_cell_angle_alpha 90.000000
_cell_angle_beta 111.019090
_cell_angle_gamma 90.000000
_cell_volume 2411.934027
_symmetry_space_group_name_H-M "C 2/C"
_symmetry_group_IT_number 15
_symmetry_cell_setting 'monoclinic'
loop_
_space_group_symop_operation_xyz
x,y,z
-x,y,1/2-z
-x,-y,-z
x,-y,1/2+z
1/2+x,1/2+y,z
1/2-x,1/2+y,1/2-z
1/2-x,1/2-y,-z
1/2+x,1/2-y,1/2+z
loop_
_atom_site_type_symbol
_atom_site_label
_atom_site_fract_x
_atom_site_fract_y
_atom_site_fract_z
Si Si1 0.341074 0.824495 0.425903
Si Si2 0.243098 0.600436 0.022034
Si Si3 0.314316 0.293707 0.442540
Si Si4 0.059597 0.221063 0.947765
Si Si5 0.690682 0.623730 0.090433
Si Si6 0.478015 0.555836 0.047361
Si Si7 0.500000 0.121854 0.750000
O O1 0.228911 0.800910 0.267727
O O2 0.391702 0.777677 0.557274
O O3 0.294838 0.873843 0.504604
O O4 0.446931 0.842927 0.363153
O O5 0.251403 0.594759 0.223243
O O6 0.335361 0.568028 0.956899
O O7 0.282273 0.657367 0.026455
O O8 0.108216 0.588492 0.885241
O O9 0.250000 0.250000 0.500000
O O10 0.454356 0.280340 0.527583
O O11 0.000000 0.200481 0.750000
O O12 0.159430 0.183452 0.077163
O O13 0.566101 0.592816 0.987880
O O14 0.500000 0.563591 0.250000
O O15 0.500000 0.500000 0.000000
#
# Coordination Sequence:
#
# PCOD8146386 Si02
#       7
#     8   8   8   8   8   8   4
#     4  11  24  37  56  86 125 174 219 261 313 377
#     4  10  22  41  64  92 128 167 211 265 322 384
#     4  11  22  36  55  82 126 174 215 259 310 375
#     4  12  23  34  54  88 126 169 223 260 315 370
#     4  11  23  40  62  93 125 165 216 272 318 379
#     4  10  23  43  71 101 126 159 208 270 334 383
#     4  10  24  42  60  90 126 174 214 254 328 382
#
# _framework density 21.559460999999999
#
# number of rings (size 3 to 8) (size 9 to 14) (size 15 to 20)
#    0.000    1.231    3.077    3.231    4.308    4.308 
#    0.000    0.000    0.000    8.308    0.000    0.000 
#    0.000    0.000    0.000    0.000    0.000    0.000 
#
# Total GULP energy -322105.664168 kJ/mol
# GULP energy per Si atom -12388.679391 kJ/mol
# Density = 2.151039 g / cm^3
# Si number density = 21.559461 Si / 1000 Ang^3
#
#
#
# Elastic Constant Matrix: (Units=GPa)
#
#
# Indices 1 2 3 4 5 6 
#
# 1 160.7433 48.4816 33.0493 0.0000 5.1544 0.0000
# 2 48.4816 89.9388 16.0031 0.0000 -5.6201 0.0000
# 3 33.0493 16.0031 68.2424 0.0000 8.6106 0.0000
# 4 0.0000 0.0000 0.0000 23.1957 0.0000 -8.8019
# 5 5.1544 -5.6201 8.6106 0.0000 35.2030 0.0000
# 6 0.0000 0.0000 0.0000 -8.8019 0.0000 39.9794
#
#
#
# Elastic Compliance Matrix: (Units=1/GPa)
#
#
# Indices 1 2 3 4 5 6 
#
# 1 0.008009 -0.003883 -0.002829 0.000000 -0.001100 0.000000
# 2 -0.003883 0.013720 -0.001739 0.000000 0.003184 0.000000
# 3 -0.002829 -0.001739 0.016937 0.000000 -0.004006 0.000000
# 4 0.000000 0.000000 0.000000 0.047042 0.000000 0.010357
# 5 -0.001100 0.003184 -0.004006 0.000000 0.030056 0.000000
# 6 0.000000 0.000000 0.000000 0.010357 0.000000 0.027293
#
#
# Mechanical properties :
#
#
# Convention : Reuss Voigt Hill
#
# Bulk Modulus (GPa) = 45.94639 57.11029 51.52834
# Shear Modulus (GPa) = 29.90189 34.43499 32.16844
#
# Velocity S-wave (km/s) = 3.72822 4.00085 3.86694
# Velocity P-wave (km/s) = 6.31590 6.92023 6.62496
#
# Compressibility (1/GPa) = 0.02176450
#
# Stress axis : x y z
#
# Youngs Moduli (GPa) = 124.85685 72.88639 59.04183
#
# Poissons Ratio (x) = 0.28299 0.16705
# Poissons Ratio (y) = 0.48478 0.10266
# Poissons Ratio (z) = 0.35327 0.12674
#
# Static dielectric constant tensor:
#      x y z
#    x 4.407230 0.000000 0.018060 
#    y 0.000000 3.721900 0.000000 
#    z 0.018060 0.000000 3.779000 
# 
# 
# High freq. dielectric constant tensor:
#      x y z
#    x 1.873350 0.000000 -0.004640 
#    y 0.000000 1.800920 0.000000 
#    z -0.004640 0.000000 1.837500 
# 
# From -- ./inp_files/33720.got.cif
#   From: 2010.06.25/outbox.cif.g09.slc.cpg/sg15_17_cif.got.tgz:33720.got - 2010.06.28 07:06:18.
