data_PCOD8146142
_publ_section_title
;
Structure prediction by ZEFSAII (Michael W. Deem and Ramdas Pophale) SiO2 
 PCOD8146142
Probable space group: C 2/C
;
_chemical_formula_sum "Si O2"
_cell_formula_units_Z 64
_cell_length_a 15.049967
_cell_length_b 11.615603
_cell_length_c 17.313051
_cell_angle_alpha 90.000000
_cell_angle_beta 87.372989
_cell_angle_gamma 90.000000
_cell_volume 3023.390642
_symmetry_space_group_name_H-M "C 2/C"
_symmetry_group_IT_number 15
_symmetry_cell_setting 'monoclinic'
loop_
_space_group_symop_operation_xyz
x,y,z
-x,y,1/2-z
-x,-y,-z
x,-y,1/2+z
1/2+x,1/2+y,z
1/2-x,1/2+y,1/2-z
1/2-x,1/2-y,-z
1/2+x,1/2-y,1/2+z
loop_
_atom_site_type_symbol
_atom_site_label
_atom_site_fract_x
_atom_site_fract_y
_atom_site_fract_z
Si Si1 0.847967 0.935539 0.577247
Si Si2 0.925422 0.896648 0.184888
Si Si3 0.242473 0.906849 0.205543
Si Si4 0.581953 0.169785 0.420601
Si Si5 0.100954 0.697148 0.001109
Si Si6 0.728707 0.986079 0.951449
Si Si7 0.409996 0.027704 0.224991
Si Si8 0.688501 0.825995 0.654883
O O1 0.883283 0.810281 0.550858
O O2 0.813563 0.011374 0.505534
O O3 0.757219 0.926558 0.631091
O O4 0.927891 0.999104 0.621158
O O5 0.834649 0.923019 0.230783
O O6 0.920940 0.782638 0.132925
O O7 0.000000 0.896049 0.250000
O O8 0.229611 0.996677 0.135404
O O9 0.250465 0.775948 0.180759
O O10 0.336407 0.931511 0.241601
O O11 0.504640 0.170125 0.488691
O O12 0.572237 0.060613 0.364220
O O13 0.676554 0.137981 0.458955
O O14 0.132084 0.724924 0.086459
O O15 0.158163 0.590242 0.968154
O O16 0.500000 0.970140 0.250000
O O17 0.382634 0.139470 0.276838
#
# Coordination Sequence:
#
# PCOD8146142 Si02
#       8
#     8   8   8   8   8   8   8   8
#     4  11  23  41  66  91 128 175 214 261 329 393
#     4  12  26  42  65  92 128 179 228 263 315 403
#     4  11  21  39  64  92 131 164 216 274 318 386
#     4  11  23  37  65  95 128 164 221 272 323 385
#     4  11  20  39  66  95 128 168 213 270 328 402
#     4  10  22  40  67  97 126 165 213 280 334 381
#     4  11  21  36  64  98 125 166 219 275 326 374
#     4  11  18  38  64  91 122 171 217 256 327 390
#
# _framework density 21.168285999999998
#
# number of rings (size 3 to 8) (size 9 to 14) (size 15 to 20)
#    0.000    1.000    6.250    2.250    0.000    1.000 
#    0.000    0.625    2.750    0.000    0.000    0.000 
#    0.000    0.000    0.000    0.000    0.000    0.000 
#
# Total GULP energy -396459.026018 kJ/mol
# GULP energy per Si atom -12389.344563 kJ/mol
# Density = 2.112011 g / cm^3
# Si number density = 21.168286 Si / 1000 Ang^3
#
#
#
# Elastic Constant Matrix: (Units=GPa)
#
#
# Indices 1 2 3 4 5 6 
#
# 1 94.1797 30.6735 20.4350 0.0000 8.6105 0.0000
# 2 30.6735 76.5959 23.1445 0.0000 22.6015 0.0000
# 3 20.4350 23.1445 59.1088 0.0000 5.1751 0.0000
# 4 0.0000 0.0000 0.0000 1.9744 0.0000 45.8169
# 5 8.6105 22.6015 5.1751 0.0000 39.2727 0.0000
# 6 0.0000 0.0000 0.0000 45.8169 0.0000 -32.3185
#
#
#
# Elastic Compliance Matrix: (Units=1/GPa)
#
#
# Indices 1 2 3 4 5 6 
#
# 1 0.012578 -0.004233 -0.002694 0.000000 0.000033 0.000000
# 2 -0.004233 0.019083 -0.005188 0.000000 -0.009371 0.000000
# 3 -0.002694 -0.005188 0.019796 0.000000 0.000968 0.000000
# 4 0.000000 0.000000 0.000000 0.014942 0.000000 0.021182
# 5 0.000033 -0.009371 0.000968 0.000000 0.030721 0.000000
# 6 0.000000 0.000000 0.000000 0.021182 0.000000 -0.000913
#
#
# Mechanical properties :
#
#
# Convention : Reuss Voigt Hill
#
# Bulk Modulus (GPa) = 36.72805 42.04339 39.38572
# Shear Modulus (GPa) = 38.60596 12.16114 25.38355
#
# Velocity S-wave (km/s) = 4.27519 2.39947 3.46660
# Velocity P-wave (km/s) = 6.46203 5.25178 5.88808
#
# Compressibility (1/GPa) = 0.02722714
#
# Stress axis : x y z
#
# Youngs Moduli (GPa) = 79.50342 52.40146 50.51487
#
# Poissons Ratio (x) = 0.22180 0.13609
# Poissons Ratio (y) = 0.33652 0.26210
# Poissons Ratio (z) = 0.21418 0.27188
#
# Static dielectric constant tensor:
#      x y z
#    x 3.920350 0.000000 0.032070 
#    y 0.000000 3.677360 0.000000 
#    z 0.032070 0.000000 4.149060 
# 
# 
# High freq. dielectric constant tensor:
#      x y z
#    x 1.822880 0.000000 -0.011220 
#    y 0.000000 1.810460 0.000000 
#    z -0.011220 0.000000 1.839760 
# 
# From -- ./inp_files/204464.got.cif
#   From: 2010.06.25/outbox.cif.g09.slc.cpg/sg15_103_cif.got.tgz:204464.got - 2010.06.28 07:06:18.
