data_PCOD8146628
_publ_section_title
;
Structure prediction by ZEFSAII (Michael W. Deem and Ramdas Pophale) SiO2 
 PCOD8146628
Probable space group: C 2/C
;
_chemical_formula_sum "Si O2"
_cell_formula_units_Z 40
_cell_length_a 29.725833
_cell_length_b 7.515120
_cell_length_c 17.033328
_cell_angle_alpha 90.000000
_cell_angle_beta 151.315832
_cell_angle_gamma 90.000000
_cell_volume 1826.390353
_symmetry_space_group_name_H-M "C 2/C"
_symmetry_group_IT_number 15
_symmetry_cell_setting 'monoclinic'
loop_
_space_group_symop_operation_xyz
x,y,z
-x,y,1/2-z
-x,-y,-z
x,-y,1/2+z
1/2+x,1/2+y,z
1/2-x,1/2+y,1/2-z
1/2-x,1/2-y,-z
1/2+x,1/2-y,1/2+z
loop_
_atom_site_type_symbol
_atom_site_label
_atom_site_fract_x
_atom_site_fract_y
_atom_site_fract_z
Si Si1 0.850639 0.261280 0.692803
Si Si2 0.012826 0.012443 0.175849
Si Si3 0.137901 0.435645 0.517759
Si Si4 0.938572 0.586218 0.765243
Si Si5 0.332275 0.392485 0.336581
O O1 0.750000 0.250000 0.500000
O O2 0.889498 0.465429 0.757021
O O3 0.850310 0.196802 0.780918
O O4 0.915164 0.141001 0.735626
O O5 0.050506 0.203712 0.199331
O O6 0.000000 0.024200 0.250000
O O7 0.914465 0.963327 0.980559
O O8 0.132402 0.438029 0.415939
O O9 0.226475 0.544829 0.683084
O O10 0.152902 0.235352 0.567251
O O11 0.039698 0.504604 0.403159
#
# Coordination Sequence:
#
# PCOD8146628 Si02
#       5
#     8   8   8   8   8
#     4  12  27  41  69 104 136 172 225 281 331 388
#     4  11  25  45  70  96 135 181 220 273 336 396
#     4  10  22  41  70  93 133 174 227 267 328 404
#     4  10  22  48  65  96 135 179 219 274 336 392
#     4  11  24  44  65 105 129 176 229 269 337 393
#
# _framework density 21.901122999999998
#
# number of rings (size 3 to 8) (size 9 to 14) (size 15 to 20)
#    0.000    1.200    6.000    0.600    8.400    4.000 
#    3.600    0.000    0.000    0.000    0.000    0.000 
#    0.000    0.000    0.000    0.000    0.000    0.000 
#
# Total GULP energy -247852.094465 kJ/mol
# GULP energy per Si atom -12392.604723 kJ/mol
# Density = 2.185127 g / cm^3
# Si number density = 21.901123 Si / 1000 Ang^3
#
#
#
# Elastic Constant Matrix: (Units=GPa)
#
#
# Indices 1 2 3 4 5 6 
#
# 1 49.7388 24.1050 31.3907 0.0000 3.4611 0.0000
# 2 24.1050 73.6604 32.4264 0.0000 15.6876 0.0000
# 3 31.3907 32.4264 182.8961 0.0000 -2.9458 0.0000
# 4 0.0000 0.0000 0.0000 41.5417 0.0000 4.8572
# 5 3.4611 15.6876 -2.9458 0.0000 26.4784 0.0000
# 6 0.0000 0.0000 0.0000 4.8572 0.0000 19.7146
#
#
#
# Elastic Compliance Matrix: (Units=1/GPa)
#
#
# Indices 1 2 3 4 5 6 
#
# 1 0.025458 -0.007073 -0.003107 0.000000 0.000517 0.000000
# 2 -0.007073 0.019216 -0.002366 0.000000 -0.010723 0.000000
# 3 -0.003107 -0.002366 0.006461 0.000000 0.002526 0.000000
# 4 0.000000 0.000000 0.000000 0.024786 0.000000 -0.006107
# 5 0.000517 -0.010723 0.002526 0.000000 0.044333 0.000000
# 6 0.000000 0.000000 0.000000 -0.006107 0.000000 0.052228
#
#
# Mechanical properties :
#
#
# Convention : Reuss Voigt Hill
#
# Bulk Modulus (GPa) = 38.39855 53.57106 45.98481
# Shear Modulus (GPa) = 24.24184 32.10514 28.17349
#
# Velocity S-wave (km/s) = 3.33058 3.83288 3.59053
# Velocity P-wave (km/s) = 5.68869 6.64089 6.18315
#
# Compressibility (1/GPa) = 0.02604265
#
# Stress axis : x y z
#
# Youngs Moduli (GPa) = 39.28057 52.04093 154.77667
#
# Poissons Ratio (x) = 0.36811 0.48089
# Poissons Ratio (y) = 0.27785 0.36613
# Poissons Ratio (z) = 0.12204 0.12310
#
# Static dielectric constant tensor:
#      x y z
#    x 3.805080 0.000000 0.114570 
#    y 0.000000 3.967460 0.000000 
#    z 0.114570 0.000000 4.808820 
# 
# 
# High freq. dielectric constant tensor:
#      x y z
#    x 1.844150 0.000000 -0.004190 
#    y 0.000000 1.849250 0.000000 
#    z -0.004190 0.000000 1.894380 
# 
# From -- ./inp_files/221961.got.cif
#   From: 2010.06.25/outbox.cif.g09.slc.cpg/sg15_111_cif.got.tgz:221961.got - 2010.06.28 07:06:18.
