data_PCOD8146762
_publ_section_title
;
Structure prediction by ZEFSAII (Michael W. Deem and Ramdas Pophale) SiO2 
 PCOD8146762
Probable space group: C 2/C
;
_chemical_formula_sum "Si O2"
_cell_formula_units_Z 40
_cell_length_a 7.206563
_cell_length_b 24.228609
_cell_length_c 17.515657
_cell_angle_alpha 90.000000
_cell_angle_beta 36.940513
_cell_angle_gamma 90.000000
_cell_volume 1838.006782
_symmetry_space_group_name_H-M "C 2/C"
_symmetry_group_IT_number 15
_symmetry_cell_setting 'monoclinic'
loop_
_space_group_symop_operation_xyz
x,y,z
-x,y,1/2-z
-x,-y,-z
x,-y,1/2+z
1/2+x,1/2+y,z
1/2-x,1/2+y,1/2-z
1/2-x,1/2-y,-z
1/2+x,1/2-y,1/2+z
loop_
_atom_site_type_symbol
_atom_site_label
_atom_site_fract_x
_atom_site_fract_y
_atom_site_fract_z
Si Si1 0.765804 0.198853 0.391083
Si Si2 0.742442 0.884036 0.491816
Si Si3 0.663458 0.318761 0.464609
Si Si4 0.647653 0.905381 0.283168
Si Si5 0.865422 0.486940 0.879158
O O1 0.475417 0.158971 0.478852
O O2 0.673544 0.262905 0.411429
O O3 0.939484 0.193367 0.415106
O O4 0.000000 0.179979 0.250000
O O5 0.565637 0.936307 0.585661
O O6 0.916795 0.857884 0.506606
O O7 0.982226 0.900476 0.345291
O O8 0.999469 0.348135 0.361226
O O9 0.500000 0.917935 0.250000
O O10 0.544089 0.961169 0.361181
O O11 0.000000 0.472938 0.750000
O O12 0.500000 0.500000 0.000000
#
# Coordination Sequence:
#
# PCOD8146762 Si02
#       5
#     8   8   8   8   8
#     4  11  25  40  60  97 126 161 217 269 319 387
#     4  11  22  39  67  91 125 172 214 260 324 392
#     4  10  22  42  64  87 129 165 207 271 325 381
#     4   9  18  37  64  93 123 170 215 259 322 392
#     4  11  19  35  65  97 126 172 219 260 326 381
#
# _framework density 21.762705
#
# number of rings (size 3 to 8) (size 9 to 14) (size 15 to 20)
#    0.000    1.600    6.000    2.400    2.800    0.800 
#    0.000    5.000    0.000    0.000    0.000    0.000 
#    0.000    0.000    0.000    0.000    0.000    0.000 
#
# Total GULP energy -247903.655099 kJ/mol
# GULP energy per Si atom -12395.182755 kJ/mol
# Density = 2.171317 g / cm^3
# Si number density = 21.762705 Si / 1000 Ang^3
#
#
#
# Elastic Constant Matrix: (Units=GPa)
#
#
# Indices 1 2 3 4 5 6 
#
# 1 40.2362 26.5842 30.8427 0.0000 -3.2348 0.0001
# 2 26.5842 174.4213 53.3578 0.0000 -11.3413 -0.0001
# 3 30.8427 53.3578 120.1726 0.0001 -9.7101 -0.0001
# 4 0.0000 0.0000 0.0001 29.9246 0.0000 -6.8783
# 5 -3.2348 -11.3413 -9.7101 0.0000 26.1437 -0.0001
# 6 0.0001 -0.0001 -0.0001 -6.8783 -0.0001 -9.7150
#
#
#
# Elastic Compliance Matrix: (Units=1/GPa)
#
#
# Indices 1 2 3 4 5 6 
#
# 1 0.032034 -0.002731 -0.006994 0.000000 0.000181 0.000000
# 2 -0.002731 0.006954 -0.002237 0.000000 0.001848 0.000000
# 3 -0.006994 -0.002237 0.011301 0.000000 0.002361 0.000000
# 4 0.000000 0.000000 0.000000 0.028740 0.000000 -0.020348
# 5 0.000181 0.001848 0.002361 0.000000 0.039951 0.000000
# 6 0.000000 0.000000 0.000000 -0.020348 0.000000 -0.088526
#
#
# Mechanical properties :
#
#
# Convention : Reuss Voigt Hill
#
# Bulk Modulus (GPa) = 37.93209 61.82218 49.87713
# Shear Modulus (GPa) = 79.15613 24.20702 51.68157
#
# Velocity S-wave (km/s) = 6.03749 3.33876 4.87846
# Velocity P-wave (km/s) = 8.12831 6.58272 7.39600
#
# Compressibility (1/GPa) = 0.02636290
#
# Stress axis : x y z
#
# Youngs Moduli (GPa) = 31.21728 143.80013 88.48984
#
# Poissons Ratio (x) = 0.39271 0.61893
# Poissons Ratio (y) = 0.08525 0.19799
# Poissons Ratio (z) = 0.21834 0.32175
#
# Static dielectric constant tensor:
#      x y z
#    x 3.520110 0.000000 0.039910 
#    y 0.000000 4.447190 0.000000 
#    z 0.039910 0.000000 4.165530 
# 
# 
# High freq. dielectric constant tensor:
#      x y z
#    x 1.824990 0.000000 0.009920 
#    y 0.000000 1.877460 0.000000 
#    z 0.009920 0.000000 1.855130 
# 
# From -- ./inp_files/234358.got.cif
#   From: 2010.06.25/outbox.cif.g09.slc.cpg/sg15_118_cif.got.tgz:234358.got - 2010.06.28 07:06:18.
