data_PCOD8146227
_publ_section_title
;
Structure prediction by ZEFSAII (Michael W. Deem and Ramdas Pophale) SiO2 
 PCOD8146227
Probable space group: C 2/C
;
_chemical_formula_sum "Si O2"
_cell_formula_units_Z 44
_cell_length_a 15.844213
_cell_length_b 8.095739
_cell_length_c 17.057038
_cell_angle_alpha 90.000000
_cell_angle_beta 57.131330
_cell_angle_gamma 90.000000
_cell_volume 1837.667909
_symmetry_space_group_name_H-M "C 2/C"
_symmetry_group_IT_number 15
_symmetry_cell_setting 'monoclinic'
loop_
_space_group_symop_operation_xyz
x,y,z
-x,y,1/2-z
-x,-y,-z
x,-y,1/2+z
1/2+x,1/2+y,z
1/2-x,1/2+y,1/2-z
1/2-x,1/2-y,-z
1/2+x,1/2-y,1/2+z
loop_
_atom_site_type_symbol
_atom_site_label
_atom_site_fract_x
_atom_site_fract_y
_atom_site_fract_z
Si Si1 0.820187 0.399262 0.282431
Si Si2 0.514114 0.057321 0.580582
Si Si3 0.701486 0.265486 0.204639
Si Si4 0.000000 0.905168 0.250000
Si Si5 0.213299 0.583071 0.983242
Si Si6 0.874484 0.831115 0.900054
O O1 0.736435 0.296356 0.276579
O O2 0.774342 0.575606 0.332980
O O3 0.859638 0.290130 0.333730
O O4 0.914037 0.448665 0.180551
O O5 0.567772 0.237843 0.558490
O O6 0.500000 0.000000 0.500000
O O7 0.598541 0.929770 0.569757
O O8 0.582296 0.295674 0.254667
O O9 0.767993 0.394194 0.119606
O O10 0.055420 0.016070 0.157984
O O11 0.269529 0.413162 0.982964
O O12 0.250000 0.750000 0.000000
#
# Coordination Sequence:
#
# PCOD8146227 Si02
#       6
#     8   8   8   4   8   8
#     4  12  25  46  73 102 142 190 251 288 351 429
#     4  12  25  44  68 106 143 184 233 303 358 413
#     4  11  25  42  69 102 138 188 236 296 348 433
#     4  10  22  40  70 102 130 178 250 284 346 416
#     4  11  25  46  69 104 146 182 234 294 371 418
#     4  11  24  46  74  96 139 197 235 288 352 437
#
# _framework density 23.943387999999999
#
# number of rings (size 3 to 8) (size 9 to 14) (size 15 to 20)
#    0.000    0.727    3.636    3.818    7.636    0.000 
#    0.000    0.909    0.000    0.000    0.000    0.000 
#    0.000    0.000    0.000    0.000    0.000    0.000 
#
# Total GULP energy -272754.453500 kJ/mol
# GULP energy per Si atom -12397.929705 kJ/mol
# Density = 2.388889 g / cm^3
# Si number density = 23.943388 Si / 1000 Ang^3
#
#
#
# Elastic Constant Matrix: (Units=GPa)
#
#
# Indices 1 2 3 4 5 6 
#
# 1 121.7214 49.1987 34.3955 0.0000 -4.6398 0.0002
# 2 49.1987 143.1308 8.7224 0.0000 15.2908 0.0005
# 3 34.3955 8.7224 70.7406 0.0000 -7.3512 0.0000
# 4 0.0000 0.0000 0.0000 33.8819 0.0000 -1.0015
# 5 -4.6398 15.2908 -7.3512 0.0000 39.7229 0.0000
# 6 0.0002 0.0005 0.0000 -1.0015 0.0000 30.3344
#
#
#
# Elastic Compliance Matrix: (Units=1/GPa)
#
#
# Indices 1 2 3 4 5 6 
#
# 1 0.011144 -0.003739 -0.004764 0.000000 0.001859 0.000000
# 2 -0.003739 0.008644 0.000368 0.000000 -0.003696 0.000000
# 3 -0.004764 0.000368 0.016655 0.000000 0.002384 0.000000
# 4 0.000000 0.000000 0.000000 0.029543 0.000000 0.000975
# 5 0.001859 -0.003696 0.002384 0.000000 0.027256 0.000000
# 6 0.000000 0.000000 0.000000 0.000975 0.000000 0.032998
#
#
# Mechanical properties :
#
#
# Convention : Reuss Voigt Hill
#
# Bulk Modulus (GPa) = 49.57123 57.80289 53.68706
# Shear Modulus (GPa) = 33.50445 37.00623 35.25534
#
# Velocity S-wave (km/s) = 3.74481 3.93564 3.84141
# Velocity P-wave (km/s) = 6.28065 6.69673 6.49203
#
# Compressibility (1/GPa) = 0.02017299
#
# Stress axis : x y z
#
# Youngs Moduli (GPa) = 89.73639 115.68469 60.04218
#
# Poissons Ratio (x) = 0.43252 0.28605
# Poissons Ratio (y) = 0.33550 -0.02209
# Poissons Ratio (z) = 0.42751 -0.04256
#
# Static dielectric constant tensor:
#      x y z
#    x 4.704720 0.000000 -0.399030 
#    y 0.000000 4.540130 0.000000 
#    z -0.399030 0.000000 5.738150 
# 
# 
# High freq. dielectric constant tensor:
#      x y z
#    x 1.955110 0.000000 -0.009760 
#    y 0.000000 1.966680 0.000000 
#    z -0.009760 0.000000 1.943890 
# 
# From -- ./inp_files/202589.got.cif
#   From: 2010.06.25/outbox.cif.g09.slc.cpg/sg15_102_cif.got.tgz:202589.got - 2010.06.28 07:06:18.
