data_PCOD8146114
_publ_section_title
;
Structure prediction by ZEFSAII (Michael W. Deem and Ramdas Pophale) SiO2 
 PCOD8146114
Probable space group: C 2/C
;
_chemical_formula_sum "Si O2"
_cell_formula_units_Z 48
_cell_length_a 21.284588
_cell_length_b 24.698195
_cell_length_c 12.583573
_cell_angle_alpha 90.000000
_cell_angle_beta 160.495942
_cell_angle_gamma 90.000000
_cell_volume 2208.597336
_symmetry_space_group_name_H-M "C 2/C"
_symmetry_group_IT_number 15
_symmetry_cell_setting 'monoclinic'
loop_
_space_group_symop_operation_xyz
x,y,z
-x,y,1/2-z
-x,-y,-z
x,-y,1/2+z
1/2+x,1/2+y,z
1/2-x,1/2+y,1/2-z
1/2-x,1/2-y,-z
1/2+x,1/2-y,1/2+z
loop_
_atom_site_type_symbol
_atom_site_label
_atom_site_fract_x
_atom_site_fract_y
_atom_site_fract_z
Si Si1 0.500000 0.396870 0.250000
Si Si2 0.000000 0.353027 0.750000
Si Si3 0.879762 0.177775 0.912030
Si Si4 0.188185 0.142838 0.249906
Si Si5 0.356578 0.932634 0.701764
Si Si6 0.825448 0.553246 0.626498
Si Si7 0.500000 0.769711 0.250000
Si Si8 0.000000 0.087632 0.250000
O O1 0.644147 0.363389 0.554822
O O2 0.639340 0.430132 0.394974
O O3 0.838934 0.310927 0.458392
O O4 0.907148 0.389088 0.693854
O O5 0.989779 0.156868 0.985409
O O6 0.976859 0.231756 0.110460
O O7 0.866625 0.127223 0.970887
O O8 0.286962 0.089535 0.460052
O O9 0.319770 0.193684 0.481151
O O10 0.377404 0.991606 0.679550
O O11 0.498150 0.923117 0.026414
O O12 0.636541 0.550892 0.396857
#
# Coordination Sequence:
#
# PCOD8146114 Si02
#       8
#     4   4   8   8   8   8   4   4
#     4  12  25  43  65 104 142 175 215 281 334 384
#     4  12  22  44  64  99 137 173 219 284 324 402
#     4  10  22  42  68  94 127 176 220 278 335 394
#     4  11  24  45  68  99 136 171 222 284 330 401
#     4  11  24  40  67  99 140 180 224 263 330 395
#     4  10  22  40  66  98 136 185 222 266 326 400
#     4  11  24  45  71  96 124 170 230 276 351 402
#     4   9  17  38  64  91 131 172 226 269 321 392
#
# _framework density 21.733250999999999
#
# number of rings (size 3 to 8) (size 9 to 14) (size 15 to 20)
#    0.000    1.333    3.333    2.000    0.000    4.667 
#    3.000    1.667    0.000    0.000    0.000    0.000 
#    0.000    0.000    0.000    0.000    0.000    0.000 
#
# Total GULP energy -297497.897332 kJ/mol
# GULP energy per Si atom -12395.745722 kJ/mol
# Density = 2.168379 g / cm^3
# Si number density = 21.733251 Si / 1000 Ang^3
#
#
#
# Elastic Constant Matrix: (Units=GPa)
#
#
# Indices 1 2 3 4 5 6 
#
# 1 77.4720 28.5770 33.1073 0.0000 -8.9871 0.0000
# 2 28.5770 90.8597 44.3911 0.0000 -12.2438 0.0000
# 3 33.1073 44.3911 144.6428 0.0001 -2.9238 0.0000
# 4 0.0000 0.0000 0.0001 18.9369 0.0000 10.1393
# 5 -8.9871 -12.2438 -2.9238 0.0000 36.5197 0.0000
# 6 0.0000 0.0000 0.0000 10.1393 0.0000 24.4689
#
#
#
# Elastic Compliance Matrix: (Units=1/GPa)
#
#
# Indices 1 2 3 4 5 6 
#
# 1 0.015480 -0.003324 -0.002473 0.000000 0.002497 0.000000
# 2 -0.003324 0.014282 -0.003548 0.000000 0.003686 0.000000
# 3 -0.002473 -0.003548 0.008546 0.000000 -0.001114 0.000000
# 4 0.000000 0.000000 0.000000 0.067864 0.000000 -0.028121
# 5 0.002497 0.003686 -0.001114 0.000000 0.029144 0.000000
# 6 0.000000 0.000000 0.000000 -0.028121 0.000000 0.052521
#
#
# Mechanical properties :
#
#
# Convention : Reuss Voigt Hill
#
# Bulk Modulus (GPa) = 50.97191 58.34726 54.65958
# Shear Modulus (GPa) = 23.46709 29.77838 26.62274
#
# Velocity S-wave (km/s) = 3.28956 3.70560 3.50376
# Velocity P-wave (km/s) = 6.15895 6.72413 6.44774
#
# Compressibility (1/GPa) = 0.01961865
#
# Stress axis : x y z
#
# Youngs Moduli (GPa) = 64.59748 70.02065 117.01668
#
# Poissons Ratio (x) = 0.23277 0.28934
# Poissons Ratio (y) = 0.21475 0.41513
# Poissons Ratio (z) = 0.15972 0.24840
#
# Static dielectric constant tensor:
#      x y z
#    x 3.923910 0.000000 -0.067790 
#    y 0.000000 3.671850 0.000000 
#    z -0.067790 0.000000 4.141510 
# 
# 
# High freq. dielectric constant tensor:
#      x y z
#    x 1.849730 0.000000 0.008450 
#    y 0.000000 1.836610 0.000000 
#    z 0.008450 0.000000 1.874400 
# 
# From -- ./inp_files/115063.got.cif
#   From: 2010.06.25/outbox.cif.g09.slc.cpg/sg15_58_cif.got.tgz:115063.got - 2010.06.28 07:06:18.
