data_PCOD8146122
_publ_section_title
;
Structure prediction by ZEFSAII (Michael W. Deem and Ramdas Pophale) SiO2 
 PCOD8146122
Probable space group: C 2/C
;
_chemical_formula_sum "Si O2"
_cell_formula_units_Z 40
_cell_length_a 16.011171
_cell_length_b 11.099770
_cell_length_c 12.887580
_cell_angle_alpha 90.000000
_cell_angle_beta 62.620341
_cell_angle_gamma 90.000000
_cell_volume 2033.812922
_symmetry_space_group_name_H-M "C 2/C"
_symmetry_group_IT_number 15
_symmetry_cell_setting 'monoclinic'
loop_
_space_group_symop_operation_xyz
x,y,z
-x,y,1/2-z
-x,-y,-z
x,-y,1/2+z
1/2+x,1/2+y,z
1/2-x,1/2+y,1/2-z
1/2-x,1/2-y,-z
1/2+x,1/2-y,1/2+z
loop_
_atom_site_type_symbol
_atom_site_label
_atom_site_fract_x
_atom_site_fract_y
_atom_site_fract_z
Si Si1 0.259342 0.387850 0.473466
Si Si2 0.269396 0.991783 0.712436
Si Si3 0.396558 0.034839 0.827330
Si Si4 0.109082 0.020938 0.956380
Si Si5 0.162768 0.714902 0.480297
O O1 0.250000 0.250000 0.500000
O O2 0.258035 0.404047 0.351495
O O3 0.164660 0.440627 0.574978
O O4 0.353987 0.453519 0.461145
O O5 0.308534 0.873266 0.631136
O O6 0.346231 0.052719 0.744863
O O7 0.173109 0.962574 0.829068
O O8 0.500000 0.981937 0.750000
O O9 0.406912 0.152836 0.895468
O O10 0.119014 0.165222 0.957078
O O11 0.000000 0.000000 0.000000
O O12 0.250000 0.750000 0.500000
#
# Coordination Sequence:
#
# PCOD8146122 Si02
#       5
#     8   8   8   8   8
#     4  10  23  42  61  92 132 162 209 263 321 385
#     4  10  22  40  67  86 128 173 207 262 325 372
#     4  10  23  39  65  95 121 168 219 261 319 383
#     4  11  25  42  66 101 124 167 221 266 324 379
#     4  11  21  44  65  91 131 168 217 266 319 393
#
# _framework density 19.667491999999999
#
# number of rings (size 3 to 8) (size 9 to 14) (size 15 to 20)
#    0.000    1.600    6.000    0.000    5.600    8.800 
#    0.000    0.000    0.000    0.000    0.000    0.000 
#    0.000    0.000    0.000    0.000    0.000    0.000 
#
# Total GULP energy -247845.279935 kJ/mol
# GULP energy per Si atom -12392.263997 kJ/mol
# Density = 1.962273 g / cm^3
# Si number density = 19.667492 Si / 1000 Ang^3
#
#
#
# Elastic Constant Matrix: (Units=GPa)
#
#
# Indices 1 2 3 4 5 6 
#
# 1 147.5150 36.8483 72.4884 0.0000 -17.2865 0.0000
# 2 36.8483 123.8533 30.1941 0.0000 11.9058 0.0000
# 3 72.4884 30.1941 107.2289 0.0000 22.1255 0.0000
# 4 0.0000 0.0000 0.0000 20.8525 0.0000 6.4871
# 5 -17.2865 11.9058 22.1255 0.0000 34.3165 0.0000
# 6 0.0000 0.0000 0.0000 6.4871 0.0000 24.0411
#
#
#
# Elastic Compliance Matrix: (Units=1/GPa)
#
#
# Indices 1 2 3 4 5 6 
#
# 1 0.016920 -0.003345 -0.014412 0.000000 0.018975 0.000000
# 2 -0.003345 0.009412 0.000729 0.000000 -0.005420 0.000000
# 3 -0.014412 0.000729 0.023546 0.000000 -0.022694 0.000000
# 4 0.000000 0.000000 0.000000 0.052350 0.000000 -0.014126
# 5 0.018975 -0.005420 -0.022694 0.000000 0.055211 0.000000
# 6 0.000000 0.000000 0.000000 -0.014126 0.000000 0.045407
#
#
# Mechanical properties :
#
#
# Convention : Reuss Voigt Hill
#
# Bulk Modulus (GPa) = 63.19713 73.07318 68.13515
# Shear Modulus (GPa) = 20.64613 31.77977 26.21295
#
# Velocity S-wave (km/s) = 3.24351 4.02413 3.65472
# Velocity P-wave (km/s) = 6.79924 7.66984 7.24763
#
# Compressibility (1/GPa) = 0.01582350
#
# Stress axis : x y z
#
# Youngs Moduli (GPa) = 59.10188 106.24210 42.47061
#
# Poissons Ratio (x) = 0.35534 0.61207
# Poissons Ratio (y) = 0.19767 -0.03096
# Poissons Ratio (z) = 0.85176 -0.07745
#
# Static dielectric constant tensor:
#      x y z
#    x 3.449230 0.000000 0.124960 
#    y 0.000000 7.415430 0.000000 
#    z 0.124960 0.000000 3.900590 
# 
# 
# High freq. dielectric constant tensor:
#      x y z
#    x 1.760210 0.000000 0.012470 
#    y 0.000000 1.765470 0.000000 
#    z 0.012470 0.000000 1.780220 
# 
# From -- ./inp_files/94880.got.cif
#   From: 2010.06.25/outbox.cif.g09.slc.cpg/sg15_48_cif.got.tgz:94880.got - 2010.06.28 07:06:18.
