data_PCOD8146934
_publ_section_title
;
Structure prediction by ZEFSAII (Michael W. Deem and Ramdas Pophale) SiO2 
 PCOD8146934
Probable space group: C 2/C
;
_chemical_formula_sum "Si O2"
_cell_formula_units_Z 48
_cell_length_a 15.392120
_cell_length_b 25.035599
_cell_length_c 9.656199
_cell_angle_alpha 90.000000
_cell_angle_beta 35.704711
_cell_angle_gamma 90.000000
_cell_volume 2171.620121
_symmetry_space_group_name_H-M "C 2/C"
_symmetry_group_IT_number 15
_symmetry_cell_setting 'monoclinic'
loop_
_space_group_symop_operation_xyz
x,y,z
-x,y,1/2-z
-x,-y,-z
x,-y,1/2+z
1/2+x,1/2+y,z
1/2-x,1/2+y,1/2-z
1/2-x,1/2-y,-z
1/2+x,1/2-y,1/2+z
loop_
_atom_site_type_symbol
_atom_site_label
_atom_site_fract_x
_atom_site_fract_y
_atom_site_fract_z
Si Si1 0.449587 0.049008 0.471172
Si Si2 0.721951 0.221730 0.891876
Si Si3 0.646534 0.351754 0.701386
Si Si4 0.479790 0.757925 0.078721
Si Si5 0.938983 0.370590 0.463549
Si Si6 0.181805 0.116207 0.849361
O O1 0.500000 0.038801 0.250000
O O2 0.532856 0.100681 0.427252
O O3 0.269755 0.060151 0.707870
O O4 0.500000 0.000000 0.500000
O O5 0.564185 0.238232 0.028427
O O6 0.745087 0.157552 0.856972
O O7 0.847934 0.244102 0.626557
O O8 0.750000 0.250000 0.000000
O O9 0.612315 0.288694 0.726713
O O10 0.761860 0.361700 0.677171
O O11 0.715441 0.369887 0.466281
O O12 0.497370 0.385407 0.936784
O O13 0.460855 0.816052 0.171094
O O14 0.000000 0.403438 0.250000
#
# Coordination Sequence:
#
# PCOD8146934 Si02
#       6
#     8   8   8   8   8   8
#     4  12  28  49  76 102 133 177 243 306 368 418
#     4  11  22  34  53  88 140 179 227 263 338 412
#     4  10  22  42  67 105 146 181 234 278 351 427
#     4  11  22  34  59  97 136 190 221 272 324 421
#     4  12  23  40  71  99 140 184 242 286 349 415
#     4  10  23  43  68  99 141 183 228 297 348 420
#
# _framework density 22.103314000000001
#
# number of rings (size 3 to 8) (size 9 to 14) (size 15 to 20)
#    0.000    1.000    5.000    1.000    7.000    1.333 
#    0.000    1.667    0.000    0.000    0.000    0.000 
#    0.000    0.000    0.000    0.000    0.000    0.000 
#
# Total GULP energy -297343.348745 kJ/mol
# GULP energy per Si atom -12389.306198 kJ/mol
# Density = 2.205301 g / cm^3
# Si number density = 22.103314 Si / 1000 Ang^3
#
#
#
# Elastic Constant Matrix: (Units=GPa)
#
#
# Indices 1 2 3 4 5 6 
#
# 1 133.2227 32.4514 43.6615 0.0000 -3.0559 0.0000
# 2 32.4514 96.6152 51.4701 0.0000 2.3822 0.0000
# 3 43.6615 51.4701 84.4101 0.0000 3.9972 0.0000
# 4 0.0000 0.0000 0.0000 23.2280 0.0000 -2.0307
# 5 -3.0559 2.3822 3.9972 0.0000 46.2389 0.0000
# 6 0.0000 0.0000 0.0000 -2.0307 0.0000 40.0439
#
#
#
# Elastic Compliance Matrix: (Units=1/GPa)
#
#
# Indices 1 2 3 4 5 6 
#
# 1 0.009128 -0.000815 -0.004273 0.000000 0.001015 0.000000
# 2 -0.000815 0.015403 -0.008967 0.000000 -0.000072 0.000000
# 3 -0.004273 -0.008967 0.019597 0.000000 -0.001514 0.000000
# 4 0.000000 0.000000 0.000000 0.043243 0.000000 0.002193
# 5 0.001015 -0.000072 -0.001514 0.000000 0.021829 0.000000
# 6 0.000000 0.000000 0.000000 0.002193 0.000000 0.025084
#
#
# Mechanical properties :
#
#
# Convention : Reuss Voigt Hill
#
# Bulk Modulus (GPa) = 62.42929 63.26823 62.84876
# Shear Modulus (GPa) = 29.80933 34.34651 32.07792
#
# Velocity S-wave (km/s) = 3.67636 3.94624 3.81369
# Velocity P-wave (km/s) = 6.80636 7.03205 6.92012
#
# Compressibility (1/GPa) = 0.01601812
#
# Stress axis : x y z
#
# Youngs Moduli (GPa) = 109.54892 64.92265 51.02891
#
# Poissons Ratio (x) = 0.05290 0.21804
# Poissons Ratio (y) = 0.08926 0.45759
# Poissons Ratio (z) = 0.46809 0.58218
#
# Static dielectric constant tensor:
#      x y z
#    x 4.314340 0.000000 -0.378130 
#    y 0.000000 3.834300 0.000000 
#    z -0.378130 0.000000 4.233740 
# 
# 
# High freq. dielectric constant tensor:
#      x y z
#    x 1.892740 0.000000 -0.014870 
#    y 0.000000 1.828260 0.000000 
#    z -0.014870 0.000000 1.863720 
# 
# From -- ./inp_files/43806.got.cif
#   From: 2010.06.25/outbox.cif.g09.slc.cpg/sg15_22_cif.got.tgz:43806.got - 2010.06.28 07:06:18.
