data_PCOD8146448
_publ_section_title
;
Structure prediction by ZEFSAII (Michael W. Deem and Ramdas Pophale) SiO2 
 PCOD8146448
Probable space group: C 2/C
;
_chemical_formula_sum "Si O2"
_cell_formula_units_Z 64
_cell_length_a 11.324001
_cell_length_b 9.055872
_cell_length_c 29.087774
_cell_angle_alpha 90.000000
_cell_angle_beta 88.632850
_cell_angle_gamma 90.000000
_cell_volume 2982.064378
_symmetry_space_group_name_H-M "C 2/C"
_symmetry_group_IT_number 15
_symmetry_cell_setting 'monoclinic'
loop_
_space_group_symop_operation_xyz
x,y,z
-x,y,1/2-z
-x,-y,-z
x,-y,1/2+z
1/2+x,1/2+y,z
1/2-x,1/2+y,1/2-z
1/2-x,1/2-y,-z
1/2+x,1/2-y,1/2+z
loop_
_atom_site_type_symbol
_atom_site_label
_atom_site_fract_x
_atom_site_fract_y
_atom_site_fract_z
Si Si1 0.626477 0.887506 0.770791
Si Si2 0.384647 0.266782 0.390380
Si Si3 0.600750 0.534955 0.886511
Si Si4 0.231509 0.604935 0.697237
Si Si5 0.657159 0.628043 0.984384
Si Si6 0.131635 0.291007 0.411648
Si Si7 0.393559 0.690760 0.993237
Si Si8 0.986161 0.476381 0.349595
O O1 0.500000 0.838496 0.750000
O O2 0.707850 0.748605 0.782216
O O3 0.707739 0.985064 0.736873
O O4 0.596973 0.983156 0.816266
O O5 0.474319 0.394990 0.375046
O O6 0.251021 0.317913 0.381222
O O7 0.388465 0.228382 0.444447
O O8 0.410623 0.121390 0.361195
O O9 0.682448 0.536821 0.841495
O O10 0.659317 0.624433 0.928499
O O11 0.576640 0.368876 0.902045
O O12 0.103532 0.638351 0.674763
O O13 0.529936 0.671324 0.005312
O O14 0.750000 0.750000 0.000000
O O15 0.679125 0.464627 0.005164
O O16 0.158907 0.299277 0.466490
O O17 0.036177 0.410786 0.396518
#
# Coordination Sequence:
#
# PCOD8146448 Si02
#       8
#     8   8   8   8   8   8   8   8
#     4  10  25  47  70  97 129 163 206 270 334 399
#     4  11  22  42  62  91 139 176 219 270 315 375
#     4  10  22  41  65  94 129 174 214 266 328 381
#     4  11  23  47  71  95 132 160 213 271 329 397
#     4   9  19  36  62  90 133 175 219 271 318 373
#     4  11  24  40  65  95 134 177 221 269 317 375
#     4   9  21  37  56  95 130 176 231 264 307 380
#     4  11  25  42  67  99 131 166 213 270 326 392
#
# _framework density 21.461642000000001
#
# number of rings (size 3 to 8) (size 9 to 14) (size 15 to 20)
#    0.000    1.750    2.500    1.125    3.500    3.500 
#    2.250    0.000    0.000    0.000    0.000    0.000 
#    0.000    0.000    0.000    0.000    0.000    0.000 
#
# Total GULP energy -396676.849314 kJ/mol
# GULP energy per Si atom -12396.151541 kJ/mol
# Density = 2.141279 g / cm^3
# Si number density = 21.461642 Si / 1000 Ang^3
#
#
#
# Elastic Constant Matrix: (Units=GPa)
#
#
# Indices 1 2 3 4 5 6 
#
# 1 110.7781 55.1686 22.1884 0.0000 -13.3911 0.0000
# 2 55.1686 66.0893 29.8763 0.0000 3.4678 0.0000
# 3 22.1884 29.8763 94.0262 0.0000 -27.2299 0.0000
# 4 0.0000 0.0000 0.0000 32.2872 0.0000 1.7533
# 5 -13.3911 3.4678 -27.2299 0.0000 38.8649 0.0000
# 6 0.0000 0.0000 0.0000 1.7533 0.0000 41.3370
#
#
#
# Elastic Compliance Matrix: (Units=1/GPa)
#
#
# Indices 1 2 3 4 5 6 
#
# 1 0.018476 -0.018116 0.004652 0.000000 0.011242 0.000000
# 2 -0.018116 0.037047 -0.012874 0.000000 -0.018567 0.000000
# 3 0.004652 -0.012874 0.018097 0.000000 0.015431 0.000000
# 4 0.000000 0.000000 0.000000 0.031044 0.000000 -0.001317
# 5 0.011242 -0.018567 0.015431 0.000000 0.042072 0.000000
# 6 0.000000 0.000000 0.000000 -0.001317 0.000000 0.024247
#
#
# Mechanical properties :
#
#
# Convention : Reuss Voigt Hill
#
# Bulk Modulus (GPa) = 47.74441 53.92891 50.83666
# Shear Modulus (GPa) = 21.67885 33.40851 27.54368
#
# Velocity S-wave (km/s) = 3.18169 3.94973 3.58633
# Velocity P-wave (km/s) = 5.98266 6.78109 6.39435
#
# Compressibility (1/GPa) = 0.02094486
#
# Stress axis : x y z
#
# Youngs Moduli (GPa) = 54.12391 26.99253 55.25826
#
# Poissons Ratio (x) = 0.48899 -0.25705
# Poissons Ratio (y) = 0.98050 0.71137
# Poissons Ratio (z) = -0.25177 0.34749
#
# Static dielectric constant tensor:
#      x y z
#    x 4.073060 0.000000 -0.186720 
#    y 0.000000 3.641230 0.000000 
#    z -0.186720 0.000000 4.118410 
# 
# 
# High freq. dielectric constant tensor:
#      x y z
#    x 1.856120 0.000000 -0.013380 
#    y 0.000000 1.820730 0.000000 
#    z -0.013380 0.000000 1.848170 
# 
# From -- ./inp_files/310326.got.cif
#   From: 2010.06.25/outbox.cif.g09.slc.cpg/sg15_156_cif.got.tgz:310326.got - 2010.06.28 07:06:18.
