data_PCOD8146400
_publ_section_title
;
Structure prediction by ZEFSAII (Michael W. Deem and Ramdas Pophale) SiO2 
 PCOD8146400
Probable space group: C 2/C
;
_chemical_formula_sum "Si O2"
_cell_formula_units_Z 64
_cell_length_a 14.281131
_cell_length_b 24.730409
_cell_length_c 8.521526
_cell_angle_alpha 90.000000
_cell_angle_beta 86.780882
_cell_angle_gamma 90.000000
_cell_volume 3004.868377
_symmetry_space_group_name_H-M "C 2/C"
_symmetry_group_IT_number 15
_symmetry_cell_setting 'monoclinic'
loop_
_space_group_symop_operation_xyz
x,y,z
-x,y,1/2-z
-x,-y,-z
x,-y,1/2+z
1/2+x,1/2+y,z
1/2-x,1/2+y,1/2-z
1/2-x,1/2-y,-z
1/2+x,1/2-y,1/2+z
loop_
_atom_site_type_symbol
_atom_site_label
_atom_site_fract_x
_atom_site_fract_y
_atom_site_fract_z
Si Si1 0.936317 0.363564 0.016474
Si Si2 0.093966 0.126069 0.055008
Si Si3 0.390525 0.647074 0.091778
Si Si4 0.090727 0.751125 0.128388
Si Si5 0.748243 0.542494 0.047582
Si Si6 0.124963 0.376545 0.132914
Si Si7 0.716099 0.291143 0.375142
Si Si8 0.777084 0.570310 0.402399
O O1 0.919815 0.383564 0.194122
O O2 0.050141 0.363875 0.999194
O O3 0.901539 0.305069 0.964958
O O4 0.883011 0.408223 0.916796
O O5 0.116883 0.153727 0.220508
O O6 0.146609 0.069065 0.025591
O O7 0.984271 0.112374 0.043471
O O8 0.127714 0.171251 0.928965
O O9 0.297493 0.616712 0.040561
O O10 0.406936 0.704244 0.007676
O O11 0.184776 0.758251 0.223448
O O12 0.000000 0.753506 0.250000
O O13 0.773344 0.552652 0.224432
O O14 0.822706 0.569280 0.923623
O O15 0.748875 0.478979 0.017562
O O16 0.194017 0.327460 0.158675
O O17 0.750000 0.250000 0.500000
#
# Coordination Sequence:
#
# PCOD8146400 Si02
#       8
#     8   8   8   8   8   8   8   8
#     4  11  26  42  65  96 129 171 220 264 321 385
#     4   9  21  41  65  94 133 168 214 262 321 388
#     4  10  22  41  64  96 131 170 214 263 318 387
#     4  12  25  39  64  99 133 171 214 265 318 383
#     4  10  23  44  68  96 129 169 217 270 330 376
#     4  10  24  44  64  92 129 170 215 267 317 387
#     4  11  23  38  62  90 129 174 209 259 320 376
#     4  11  24  42  68  95 127 171 216 274 322 385
#
# _framework density 21.298769
#
# number of rings (size 3 to 8) (size 9 to 14) (size 15 to 20)
#    0.000    1.500    1.250    2.250    8.750    4.000 
#    0.000    0.000    0.000    0.000    0.000    0.000 
#    0.000    0.000    0.000    0.000    0.000    0.000 
#
# Total GULP energy -396646.529626 kJ/mol
# GULP energy per Si atom -12395.204051 kJ/mol
# Density = 2.125029 g / cm^3
# Si number density = 21.298769 Si / 1000 Ang^3
#
#
#
# Elastic Constant Matrix: (Units=GPa)
#
#
# Indices 1 2 3 4 5 6 
#
# 1 103.4987 19.9732 27.8649 0.0000 16.7627 0.0000
# 2 19.9732 98.5610 36.6437 0.0000 3.5628 0.0000
# 3 27.8649 36.6437 70.5030 0.0000 2.1211 0.0000
# 4 0.0000 0.0000 0.0000 30.5294 0.0000 9.2486
# 5 16.7627 3.5628 2.1211 0.0000 32.4784 0.0000
# 6 0.0000 0.0000 0.0000 9.2486 0.0000 16.5457
#
#
#
# Elastic Compliance Matrix: (Units=1/GPa)
#
#
# Indices 1 2 3 4 5 6 
#
# 1 0.011844 -0.000639 -0.004175 0.000000 -0.005770 0.000000
# 2 -0.000639 0.012640 -0.006298 0.000000 -0.000645 0.000000
# 3 -0.004175 -0.006298 0.019059 0.000000 0.001601 0.000000
# 4 0.000000 0.000000 0.000000 0.039433 0.000000 -0.022042
# 5 -0.005770 -0.000645 0.001601 0.000000 0.033734 0.000000
# 6 0.000000 0.000000 0.000000 -0.022042 0.000000 0.072760
#
#
# Mechanical properties :
#
#
# Convention : Reuss Voigt Hill
#
# Bulk Modulus (GPa) = 46.90681 49.05849 47.98265
# Shear Modulus (GPa) = 22.85193 28.44944 25.65068
#
# Velocity S-wave (km/s) = 3.27910 3.65873 3.47411
# Velocity P-wave (km/s) = 6.03388 6.39780 6.21851
#
# Compressibility (1/GPa) = 0.02131887
#
# Stress axis : x y z
#
# Youngs Moduli (GPa) = 84.43136 79.11233 52.46876
#
# Poissons Ratio (x) = 0.05058 0.21907
# Poissons Ratio (y) = 0.05398 0.33043
# Poissons Ratio (z) = 0.35252 0.49822
#
# Static dielectric constant tensor:
#      x y z
#    x 4.359990 0.000000 0.117480 
#    y 0.000000 3.660830 0.000000 
#    z 0.117480 0.000000 3.864600 
# 
# 
# High freq. dielectric constant tensor:
#      x y z
#    x 1.849640 0.000000 0.004150 
#    y 0.000000 1.824040 0.000000 
#    z 0.004150 0.000000 1.841690 
# 
# From -- ./inp_files/42648.got.cif
#   From: 2010.06.25/outbox.cif.g09.slc.cpg/sg15_22_cif.got.tgz:42648.got - 2010.06.28 07:06:18.
