data_PCOD8146885
_publ_section_title
;
Structure prediction by ZEFSAII (Michael W. Deem and Ramdas Pophale) SiO2 
 PCOD8146885
Probable space group: C 2/C
;
_chemical_formula_sum "Si O2"
_cell_formula_units_Z 48
_cell_length_a 10.215074
_cell_length_b 12.753313
_cell_length_c 17.237308
_cell_angle_alpha 90.000000
_cell_angle_beta 103.598609
_cell_angle_gamma 90.000000
_cell_volume 2182.656371
_symmetry_space_group_name_H-M "C 2/C"
_symmetry_group_IT_number 15
_symmetry_cell_setting 'monoclinic'
loop_
_space_group_symop_operation_xyz
x,y,z
-x,y,1/2-z
-x,-y,-z
x,-y,1/2+z
1/2+x,1/2+y,z
1/2-x,1/2+y,1/2-z
1/2-x,1/2-y,-z
1/2+x,1/2-y,1/2+z
loop_
_atom_site_type_symbol
_atom_site_label
_atom_site_fract_x
_atom_site_fract_y
_atom_site_fract_z
Si Si1 0.714878 0.083377 0.960774
Si Si2 0.176348 0.525072 0.610543
Si Si3 0.280589 0.268338 0.854009
Si Si4 0.145920 0.862491 0.793272
Si Si5 0.066883 0.214525 0.444601
Si Si6 0.925438 0.441964 0.658087
O O1 0.591189 0.162604 0.965044
O O2 0.695644 0.026234 0.874070
O O3 0.858696 0.144024 0.979979
O O4 0.719977 0.995979 0.028767
O O5 0.211068 0.645629 0.630370
O O6 0.263761 0.464897 0.687035
O O7 0.025953 0.478643 0.603359
O O8 0.292884 0.286905 0.763815
O O9 0.409634 0.316660 0.918131
O O10 0.140950 0.325461 0.861782
O O11 0.143568 0.799551 0.873182
O O12 0.000000 0.903445 0.750000
O O13 0.000000 0.456612 0.750000
#
# Coordination Sequence:
#
# PCOD8146885 Si02
#       6
#     8   8   8   8   8   8
#     4  10  22  42  66  92 128 174 221 266 336 393
#     4  11  23  43  64  91 137 170 209 281 328 386
#     4  11  23  38  66  97 128 170 222 268 335 394
#     4   9  20  39  62  89 126 167 218 269 323 396
#     4   9  20  39  66  91 121 175 219 266 332 396
#     4  12  25  40  65  98 130 171 218 270 333 399
#
# _framework density 21.99155
#
# number of rings (size 3 to 8) (size 9 to 14) (size 15 to 20)
#    0.000    1.667    3.333    0.500    2.333    2.000 
#    0.000    0.000    7.333    0.000    0.000    0.000 
#    0.000    0.000    0.000    0.000    0.000    0.000 
#
# Total GULP energy -297360.407611 kJ/mol
# GULP energy per Si atom -12390.016984 kJ/mol
# Density = 2.194150 g / cm^3
# Si number density = 21.991550 Si / 1000 Ang^3
#
#
#
# Elastic Constant Matrix: (Units=GPa)
#
#
# Indices 1 2 3 4 5 6 
#
# 1 68.7080 62.2297 32.8679 0.0000 12.8614 0.0000
# 2 62.2297 158.4177 57.2407 0.0000 15.4139 0.0000
# 3 32.8679 57.2407 94.8931 0.0000 33.2577 0.0000
# 4 0.0000 0.0000 0.0000 39.2290 0.0000 8.6314
# 5 12.8614 15.4139 33.2577 0.0000 25.4044 0.0000
# 6 0.0000 0.0000 0.0000 8.6314 0.0000 26.3838
#
#
#
# Elastic Compliance Matrix: (Units=1/GPa)
#
#
# Indices 1 2 3 4 5 6 
#
# 1 0.023710 -0.008307 -0.001406 0.000000 -0.005123 0.000000
# 2 -0.008307 0.011086 -0.005408 0.000000 0.004559 0.000000
# 3 -0.001406 -0.005408 0.023814 0.000000 -0.027183 0.000000
# 4 0.000000 0.000000 0.000000 0.027469 0.000000 -0.008986
# 5 -0.005123 0.004559 -0.027183 0.000000 0.074777 0.000000
# 6 0.000000 0.000000 0.000000 -0.008986 0.000000 0.040842
#
#
# Mechanical properties :
#
#
# Convention : Reuss Voigt Hill
#
# Bulk Modulus (GPa) = 35.25043 69.63281 52.44162
# Shear Modulus (GPa) = 20.71298 29.51550 25.11424
#
# Velocity S-wave (km/s) = 3.07230 3.66748 3.38301
# Velocity P-wave (km/s) = 5.35250 7.04742 6.25761
#
# Compressibility (1/GPa) = 0.02836845
#
# Stress axis : x y z
#
# Youngs Moduli (GPa) = 42.17663 90.20353 41.99219
#
# Poissons Ratio (x) = 0.74935 0.05904
# Poissons Ratio (y) = 0.35037 0.22707
# Poissons Ratio (z) = 0.05930 0.48778
#
# Static dielectric constant tensor:
#      x y z
#    x 3.971710 0.000000 0.384220 
#    y 0.000000 3.878150 0.000000 
#    z 0.384220 0.000000 4.106420 
# 
# 
# High freq. dielectric constant tensor:
#      x y z
#    x 1.845950 0.000000 0.033780 
#    y 0.000000 1.859830 0.000000 
#    z 0.033780 0.000000 1.873320 
# 
# From -- ./inp_files/196583.got.cif
#   From: 2010.06.25/outbox.cif.g09.slc.cpg/sg15_99_cif.got.tgz:196583.got - 2010.06.28 07:06:18.
