data_PCOD8146846
_publ_section_title
;
Structure prediction by ZEFSAII (Michael W. Deem and Ramdas Pophale) SiO2 
 PCOD8146846
Probable space group: C 2/C
;
_chemical_formula_sum "Si O2"
_cell_formula_units_Z 52
_cell_length_a 25.304948
_cell_length_b 11.049182
_cell_length_c 9.313137
_cell_angle_alpha 90.000000
_cell_angle_beta 117.621238
_cell_angle_gamma 90.000000
_cell_volume 2307.176773
_symmetry_space_group_name_H-M "C 2/C"
_symmetry_group_IT_number 15
_symmetry_cell_setting 'monoclinic'
loop_
_space_group_symop_operation_xyz
x,y,z
-x,y,1/2-z
-x,-y,-z
x,-y,1/2+z
1/2+x,1/2+y,z
1/2-x,1/2+y,1/2-z
1/2-x,1/2-y,-z
1/2+x,1/2-y,1/2+z
loop_
_atom_site_type_symbol
_atom_site_label
_atom_site_fract_x
_atom_site_fract_y
_atom_site_fract_z
Si Si1 0.783510 0.548633 0.006648
Si Si2 0.576547 0.586616 0.098118
Si Si3 0.618163 0.212410 0.471001
Si Si4 0.457380 0.017682 0.577693
Si Si5 0.166801 0.628805 0.135638
Si Si6 0.500000 0.487936 0.750000
Si Si7 0.656757 0.631713 0.767799
O O1 0.817065 0.648591 0.949996
O O2 0.796341 0.415626 0.956960
O O3 0.713739 0.577498 0.921771
O O4 0.809642 0.551445 0.199268
O O5 0.611428 0.711832 0.110638
O O6 0.546484 0.595677 0.218457
O O7 0.621650 0.474480 0.145264
O O8 0.529557 0.572539 0.908654
O O9 0.567364 0.110746 0.395360
O O10 0.613560 0.303326 0.328933
O O11 0.500000 0.078248 0.750000
O O12 0.500000 0.000000 0.500000
O O13 0.403640 0.107174 0.471331
O O14 0.177249 0.771611 0.172876
#
# Coordination Sequence:
#
# PCOD8146846 Si02
#       7
#     8   8   8   8   8   4   8
#     4  10  23  41  72  91 137 168 217 273 327 385
#     4  11  23  43  64  95 127 170 222 256 329 387
#     4  10  22  42  65  96 127 174 215 260 326 403
#     4  11  23  41  69  93 127 174 216 271 325 381
#     4  10  22  44  60 101 127 169 223 267 323 395
#     4  10  24  40  60  86 130 164 204 274 302 378
#     4  11  23  41  71  94 131 182 212 260 337 398
#
# _framework density 22.538367999999998
#
# number of rings (size 3 to 8) (size 9 to 14) (size 15 to 20)
#    0.000    1.538    1.538    4.615    5.385    2.462 
#   11.077    0.769    0.000    0.000    0.000    0.000 
#    0.000    0.000    0.000    0.000    0.000    0.000 
#
# Total GULP energy -322383.329493 kJ/mol
# GULP energy per Si atom -12399.358827 kJ/mol
# Density = 2.248707 g / cm^3
# Si number density = 22.538368 Si / 1000 Ang^3
#
#
#
# Elastic Constant Matrix: (Units=GPa)
#
#
# Indices 1 2 3 4 5 6 
#
# 1 68.1352 -1.2774 29.1326 0.0000 9.6513 0.0000
# 2 -1.2774 52.8008 11.1493 0.0000 7.7164 0.0000
# 3 29.1326 11.1493 116.8643 0.0000 18.4046 0.0000
# 4 0.0000 0.0000 0.0000 31.7978 0.0000 -7.9283
# 5 9.6513 7.7164 18.4046 0.0000 38.8564 0.0000
# 6 0.0000 0.0000 0.0000 -7.9283 0.0000 33.2008
#
#
#
# Elastic Compliance Matrix: (Units=1/GPa)
#
#
# Indices 1 2 3 4 5 6 
#
# 1 0.016754 0.001616 -0.003917 0.000000 -0.002627 0.000000
# 2 0.001616 0.019861 -0.001743 0.000000 -0.003520 0.000000
# 3 -0.003917 -0.001743 0.010257 0.000000 -0.003539 0.000000
# 4 0.000000 0.000000 0.000000 0.033440 0.000000 0.007985
# 5 -0.002627 -0.003520 -0.003539 0.000000 0.028764 0.000000
# 6 0.000000 0.000000 0.000000 0.007985 0.000000 0.032027
#
#
# Mechanical properties :
#
#
# Convention : Reuss Voigt Hill
#
# Bulk Modulus (GPa) = 25.78405 35.08992 30.43698
# Shear Modulus (GPa) = 30.84177 34.02405 32.43291
#
# Velocity S-wave (km/s) = 3.70322 3.88958 3.79754
# Velocity P-wave (km/s) = 5.45436 5.98118 5.72383
#
# Compressibility (1/GPa) = 0.03878367
#
# Stress axis : x y z
#
# Youngs Moduli (GPa) = 59.68749 50.35061 97.49353
#
# Poissons Ratio (x) = -0.08138 0.38188
# Poissons Ratio (y) = -0.09648 0.16997
# Poissons Ratio (z) = 0.23380 0.08778
#
# Static dielectric constant tensor:
#      x y z
#    x 4.326420 0.000000 -0.178500 
#    y 0.000000 4.012890 0.000000 
#    z -0.178500 0.000000 3.904780 
# 
# 
# High freq. dielectric constant tensor:
#      x y z
#    x 1.897070 0.000000 0.000140 
#    y 0.000000 1.873350 0.000000 
#    z 0.000140 0.000000 1.881420 
# 
# From -- ./inp_files/65590.got.cif
#   From: 2010.06.25/outbox.cif.g09.slc.cpg/sg15_33_cif.got.tgz:65590.got - 2010.06.28 07:06:18.
