data_PCOD8146029
_publ_section_title
;
Structure prediction by ZEFSAII (Michael W. Deem and Ramdas Pophale) SiO2 
 PCOD8146029
Probable space group: C 2/C
;
_chemical_formula_sum "Si O2"
_cell_formula_units_Z 52
_cell_length_a 12.790628
_cell_length_b 21.631233
_cell_length_c 8.939802
_cell_angle_alpha 90.000000
_cell_angle_beta 76.358128
_cell_angle_gamma 90.000000
_cell_volume 2403.659671
_symmetry_space_group_name_H-M "C 2/C"
_symmetry_group_IT_number 15
_symmetry_cell_setting 'monoclinic'
loop_
_space_group_symop_operation_xyz
x,y,z
-x,y,1/2-z
-x,-y,-z
x,-y,1/2+z
1/2+x,1/2+y,z
1/2-x,1/2+y,1/2-z
1/2-x,1/2-y,-z
1/2+x,1/2-y,1/2+z
loop_
_atom_site_type_symbol
_atom_site_label
_atom_site_fract_x
_atom_site_fract_y
_atom_site_fract_z
Si Si1 0.654879 0.299857 0.932285
Si Si2 0.358137 0.267520 0.248993
Si Si3 0.500000 0.538291 0.750000
Si Si4 0.620992 0.386119 0.448201
Si Si5 0.299945 0.083415 0.372328
Si Si6 0.000000 0.661118 0.250000
Si Si7 0.725524 0.477793 0.595838
Si Si8 0.500000 0.334750 0.750000
O O1 0.740865 0.248544 0.855400
O O2 0.702954 0.368420 0.916594
O O3 0.563618 0.290941 0.840543
O O4 0.589483 0.291456 0.111976
O O5 0.342231 0.320255 0.131107
O O6 0.425691 0.207064 0.170045
O O7 0.470737 0.581983 0.620082
O O8 0.603348 0.496656 0.678701
O O9 0.721503 0.431387 0.451762
O O10 0.578707 0.378039 0.630166
O O11 0.414733 0.117250 0.362400
O O12 0.291378 0.050539 0.213040
O O13 0.290462 0.037060 0.514777
#
# Coordination Sequence:
#
# PCOD8146029 Si02
#       8
#     8   8   4   8   8   4   8   4
#     4  10  22  40  65  93 126 164 217 267 335 387
#     4  10  22  44  66  89 123 177 216 270 321 395
#     4  12  24  40  62  94 132 171 205 256 340 414
#     4  12  23  37  63  93 130 163 210 258 335 396
#     4  11  24  43  67  93 133 172 220 270 321 391
#     4  10  23  46  68  90 122 181 234 258 312 386
#     4  12  24  40  62 100 133 170 205 271 335 392
#     4  12  21  34  58  96 126 156 201 272 320 398
#
# _framework density 21.633678
#
# number of rings (size 3 to 8) (size 9 to 14) (size 15 to 20)
#    0.000    0.923    3.077    5.077    0.000    1.231 
#    2.769    0.000    0.000    0.000    0.000    0.000 
#    0.000    0.000    0.000    0.000    0.000    0.000 
#
# Total GULP energy -322159.533684 kJ/mol
# GULP energy per Si atom -12390.751296 kJ/mol
# Density = 2.158444 g / cm^3
# Si number density = 21.633678 Si / 1000 Ang^3
#
#
#
# Elastic Constant Matrix: (Units=GPa)
#
#
# Indices 1 2 3 4 5 6 
#
# 1 61.7531 31.0382 22.9221 0.0000 -7.1969 0.0000
# 2 31.0382 128.7589 56.2584 0.0000 -13.5831 0.0000
# 3 22.9221 56.2584 103.4212 0.0000 6.3724 0.0000
# 4 0.0000 0.0000 0.0000 24.3964 0.0000 -4.0803
# 5 -7.1969 -13.5831 6.3724 0.0000 30.7026 0.0000
# 6 0.0000 0.0000 0.0000 -4.0803 0.0000 32.4433
#
#
#
# Elastic Compliance Matrix: (Units=1/GPa)
#
#
# Indices 1 2 3 4 5 6 
#
# 1 0.019194 -0.002975 -0.002869 0.000000 0.003778 0.000000
# 2 -0.002975 0.011752 -0.006089 0.000000 0.005766 0.000000
# 3 -0.002869 -0.006089 0.014004 0.000000 -0.006273 0.000000
# 4 0.000000 0.000000 0.000000 0.041870 0.000000 0.005266
# 5 0.003778 0.005766 -0.006273 0.000000 0.037309 0.000000
# 6 0.000000 0.000000 0.000000 0.005266 0.000000 0.031485
#
#
# Mechanical properties :
#
#
# Convention : Reuss Voigt Hill
#
# Bulk Modulus (GPa) = 47.42684 57.15230 52.28957
# Shear Modulus (GPa) = 26.80862 29.75609 28.28236
#
# Velocity S-wave (km/s) = 3.52406 3.71273 3.61962
# Velocity P-wave (km/s) = 6.20717 6.69737 6.45692
#
# Compressibility (1/GPa) = 0.02108511
#
# Stress axis : x y z
#
# Youngs Moduli (GPa) = 52.09990 85.09083 71.40999
#
# Poissons Ratio (x) = 0.25313 0.20485
# Poissons Ratio (y) = 0.15499 0.43480
# Poissons Ratio (z) = 0.14946 0.51810
#
# Static dielectric constant tensor:
#      x y z
#    x 3.770270 0.000000 -0.004780 
#    y 0.000000 4.193340 0.000000 
#    z -0.004780 0.000000 3.913190 
# 
# 
# High freq. dielectric constant tensor:
#      x y z
#    x 1.830260 0.000000 -0.004610 
#    y 0.000000 1.865350 0.000000 
#    z -0.004610 0.000000 1.844280 
# 
# From -- ./inp_files/40805.got.cif
#   From: 2010.06.25/outbox.cif.g09.slc.cpg/sg15_21_cif.got.tgz:40805.got - 2010.06.28 07:06:18.
