data_PCOD8146199
_publ_section_title
;
Structure prediction by ZEFSAII (Michael W. Deem and Ramdas Pophale) SiO2 
 PCOD8146199
Probable space group: C 2/C
;
_chemical_formula_sum "Si O2"
_cell_formula_units_Z 60
_cell_length_a 18.189546
_cell_length_b 20.886014
_cell_length_c 13.569787
_cell_angle_alpha 90.000000
_cell_angle_beta 33.341043
_cell_angle_gamma 90.000000
_cell_volume 2833.440424
_symmetry_space_group_name_H-M "C 2/C"
_symmetry_group_IT_number 15
_symmetry_cell_setting 'monoclinic'
loop_
_space_group_symop_operation_xyz
x,y,z
-x,y,1/2-z
-x,-y,-z
x,-y,1/2+z
1/2+x,1/2+y,z
1/2-x,1/2+y,1/2-z
1/2-x,1/2-y,-z
1/2+x,1/2-y,1/2+z
loop_
_atom_site_type_symbol
_atom_site_label
_atom_site_fract_x
_atom_site_fract_y
_atom_site_fract_z
Si Si1 0.500000 0.392869 0.250000
Si Si2 0.354741 0.225106 0.960652
Si Si3 0.791467 0.107315 0.296658
Si Si4 0.121393 0.575933 0.933181
Si Si5 0.055233 0.188972 0.514184
Si Si6 0.659775 0.039937 0.260382
Si Si7 0.777128 0.793664 0.241598
Si Si8 0.794515 0.017269 0.905767
O O1 0.411644 0.348865 0.421750
O O2 0.578831 0.435961 0.241933
O O3 0.500000 0.227013 0.750000
O O4 0.250000 0.250000 0.000000
O O5 0.322835 0.152269 0.028268
O O6 0.346743 0.272401 0.062365
O O7 0.916539 0.149787 0.119063
O O8 0.740762 0.074110 0.254947
O O9 0.836483 0.055012 0.327678
O O10 0.116034 0.530487 0.844021
O O11 0.208794 0.637261 0.808155
O O12 0.178022 0.540281 0.964951
O O13 0.963678 0.586843 0.132467
O O14 0.155275 0.248491 0.409316
O O15 0.897315 0.207702 0.687733
O O16 0.752575 0.023675 0.065104
#
# Coordination Sequence:
#
# PCOD8146199 Si02
#       8
#     4   8   8   8   8   8   8   8
#     4  12  24  44  68  94 134 172 234 276 336 406
#     4  11  25  43  67 100 133 175 224 276 336 407
#     4  10  24  42  69  96 138 174 223 278 344 399
#     4  10  23  41  68  98 132 176 223 280 340 404
#     4  11  25  46  67 100 135 181 228 280 345 398
#     4  10  22  40  68  98 134 174 222 281 344 397
#     4  11  25  45  69  94 138 177 225 285 337 401
#     4  11  23  43  65 100 130 180 218 286 330 414
#
# _framework density 21.17567
#
# number of rings (size 3 to 8) (size 9 to 14) (size 15 to 20)
#    0.000    1.333    2.667    2.000    7.467    4.267 
#    3.600    0.000    0.000    0.000    0.000    0.000 
#    0.000    0.000    0.000    0.000    0.000    0.000 
#
# Total GULP energy -371879.259316 kJ/mol
# GULP energy per Si atom -12395.975311 kJ/mol
# Density = 2.112747 g / cm^3
# Si number density = 21.175670 Si / 1000 Ang^3
#
#
#
# Elastic Constant Matrix: (Units=GPa)
#
#
# Indices 1 2 3 4 5 6 
#
# 1 93.2324 41.2179 30.0066 -0.0002 -9.0845 -0.0011
# 2 41.2179 125.1502 55.4410 -0.0003 -0.8320 -0.0007
# 3 30.0066 55.4410 104.9151 -0.0026 -3.6081 -0.0002
# 4 -0.0002 -0.0003 -0.0026 32.6776 0.0014 0.2094
# 5 -9.0845 -0.8320 -3.6081 0.0014 40.7749 0.0005
# 6 -0.0011 -0.0007 -0.0002 0.2094 0.0005 29.2722
#
#
#
# Elastic Compliance Matrix: (Units=1/GPa)
#
#
# Indices 1 2 3 4 5 6 
#
# 1 0.013118 -0.003501 -0.001809 0.000000 0.002691 0.000000
# 2 -0.003501 0.011370 -0.005041 0.000000 -0.000994 0.000000
# 3 -0.001809 -0.005041 0.012734 0.000001 0.000621 0.000000
# 4 0.000000 0.000000 0.000001 0.030603 -0.000001 -0.000219
# 5 0.002691 -0.000994 0.000621 -0.000001 0.025159 0.000000
# 6 0.000000 0.000000 0.000000 -0.000219 0.000000 0.034164
#
#
# Mechanical properties :
#
#
# Convention : Reuss Voigt Hill
#
# Bulk Modulus (GPa) = 60.53456 64.06985 62.30221
# Shear Modulus (GPa) = 32.60333 33.65374 33.12853
#
# Velocity S-wave (km/s) = 3.92811 3.99088 3.95962
# Velocity P-wave (km/s) = 7.01586 7.18041 7.09861
#
# Compressibility (1/GPa) = 0.01651949
#
# Stress axis : x y z
#
# Youngs Moduli (GPa) = 76.22973 87.94997 78.52796
#
# Poissons Ratio (x) = 0.30792 0.14208
# Poissons Ratio (y) = 0.26688 0.39588
# Poissons Ratio (z) = 0.13792 0.44338
#
# Static dielectric constant tensor:
#      x y z
#    x 3.821240 0.000000 -0.041870 
#    y 0.000000 4.455120 -0.000060 
#    z -0.041870 -0.000060 3.871800 
# 
# 
# High freq. dielectric constant tensor:
#      x y z
#    x 1.830430 0.000000 -0.000610 
#    y 0.000000 1.835530 0.000000 
#    z -0.000610 0.000000 1.836480 
# 
# From -- ./inp_files/107615.got.cif
#   From: 2010.06.25/outbox.cif.g09.slc.cpg/sg15_54_cif.got.tgz:107615.got - 2010.06.28 07:06:18.
