data_PCOD8146298
_publ_section_title
;
Structure prediction by ZEFSAII (Michael W. Deem and Ramdas Pophale) SiO2 
 PCOD8146298
Probable space group: C 2/C
;
_chemical_formula_sum "Si O2"
_cell_formula_units_Z 52
_cell_length_a 20.231905
_cell_length_b 15.925052
_cell_length_c 9.554580
_cell_angle_alpha 90.000000
_cell_angle_beta 48.823480
_cell_angle_gamma 90.000000
_cell_volume 2317.087162
_symmetry_space_group_name_H-M "C 2/C"
_symmetry_group_IT_number 15
_symmetry_cell_setting 'monoclinic'
loop_
_space_group_symop_operation_xyz
x,y,z
-x,y,1/2-z
-x,-y,-z
x,-y,1/2+z
1/2+x,1/2+y,z
1/2-x,1/2+y,1/2-z
1/2-x,1/2-y,-z
1/2+x,1/2-y,1/2+z
loop_
_atom_site_type_symbol
_atom_site_label
_atom_site_fract_x
_atom_site_fract_y
_atom_site_fract_z
Si Si1 0.616016 0.700046 0.447022
Si Si2 0.683552 0.776400 0.784083
Si Si3 0.403642 0.707705 0.332326
Si Si4 0.662582 0.530382 0.050263
Si Si5 0.093110 0.646739 0.150533
Si Si6 0.000000 0.069198 0.750000
Si Si7 0.768450 0.913030 0.330049
O O1 0.719684 0.684352 0.330061
O O2 0.595671 0.744408 0.325419
O O3 0.578072 0.760165 0.616720
O O4 0.556178 0.617450 0.551967
O O5 0.627724 0.839429 0.762280
O O6 0.687665 0.680487 0.714692
O O7 0.637225 0.773495 0.000737
O O8 0.500000 0.680831 0.250000
O O9 0.339374 0.627485 0.401859
O O10 0.569848 0.490852 0.226763
O O11 0.731520 0.471042 0.032207
O O12 0.686960 0.531488 0.852494
O O13 0.000000 0.599240 0.250000
O O14 0.164652 0.600900 0.952298
#
# Coordination Sequence:
#
# PCOD8146298 Si02
#       7
#     8   8   8   8   8   4   8
#     4  11  22  36  61  88 125 163 203 249 307 360
#     4  10  22  41  61  88 123 164 203 252 311 363
#     4  11  23  37  57  92 127 160 202 253 301 363
#     4  11  23  37  56  85 127 162 198 242 305 367
#     4  11  21  40  65  89 112 158 214 257 302 358
#     4  12  22  34  62  92 122 164 208 238 298 368
#     4  10  23  40  59  86 123 161 200 250 304 370
#
# _framework density 22.441969
#
# number of rings (size 3 to 8) (size 9 to 14) (size 15 to 20)
#    0.000    1.231    1.538    6.000    4.308    1.231 
#    0.000    0.769    0.000    0.000    0.000    0.000 
#    0.000    0.000    0.000    0.000    0.000    0.000 
#
# Total GULP energy -322100.801397 kJ/mol
# GULP energy per Si atom -12388.492361 kJ/mol
# Density = 2.239089 g / cm^3
# Si number density = 22.441969 Si / 1000 Ang^3
#
#
#
# Elastic Constant Matrix: (Units=GPa)
#
#
# Indices 1 2 3 4 5 6 
#
# 1 129.2045 20.9609 50.5991 0.0000 -7.4175 0.0000
# 2 20.9609 41.8729 25.7307 0.0000 -6.3283 0.0000
# 3 50.5991 25.7307 111.8333 0.0000 -8.5381 0.0000
# 4 0.0000 0.0000 0.0000 28.4446 0.0000 -9.1272
# 5 -7.4175 -6.3283 -8.5381 0.0000 40.6028 0.0000
# 6 0.0000 0.0000 0.0000 -9.1272 0.0000 17.3622
#
#
#
# Elastic Compliance Matrix: (Units=1/GPa)
#
#
# Indices 1 2 3 4 5 6 
#
# 1 0.009639 -0.002426 -0.003758 0.000000 0.000593 0.000000
# 2 -0.002426 0.028799 -0.005305 0.000000 0.002930 0.000000
# 3 -0.003758 -0.005305 0.011939 0.000000 0.000997 0.000000
# 4 0.000000 0.000000 0.000000 0.042290 0.000000 0.022231
# 5 0.000593 0.002930 0.000997 0.000000 0.025403 0.000000
# 6 0.000000 0.000000 0.000000 0.022231 0.000000 0.069283
#
#
# Mechanical properties :
#
#
# Convention : Reuss Voigt Hill
#
# Bulk Modulus (GPa) = 36.49749 53.05467 44.77608
# Shear Modulus (GPa) = 22.78290 29.65659 26.21975
#
# Velocity S-wave (km/s) = 3.18966 3.63916 3.42180
# Velocity P-wave (km/s) = 5.46476 6.43041 5.96715
#
# Compressibility (1/GPa) = 0.02739915
#
# Stress axis : x y z
#
# Youngs Moduli (GPa) = 103.74644 34.72363 83.76181
#
# Poissons Ratio (x) = 0.08426 0.31474
# Poissons Ratio (y) = 0.25174 0.44432
# Poissons Ratio (z) = 0.38984 0.18419
#
# Static dielectric constant tensor:
#      x y z
#    x 4.708960 0.000000 0.264980 
#    y 0.000000 3.691470 0.000000 
#    z 0.264980 0.000000 4.435120 
# 
# 
# High freq. dielectric constant tensor:
#      x y z
#    x 1.881330 0.000000 -0.004050 
#    y 0.000000 1.844700 0.000000 
#    z -0.004050 0.000000 1.895340 
# 
# From -- ./inp_files/56932.got.cif
#   From: 2010.06.25/outbox.cif.g09.slc.cpg/sg15_29_cif.got.tgz:56932.got - 2010.06.28 07:06:18.
