data_PCOD8146847
_publ_section_title
;
Structure prediction by ZEFSAII (Michael W. Deem and Ramdas Pophale) SiO2 
 PCOD8146847
Probable space group: C 2/C
;
_chemical_formula_sum "Si O2"
_cell_formula_units_Z 60
_cell_length_a 21.651693
_cell_length_b 15.917189
_cell_length_c 8.026110
_cell_angle_alpha 90.000000
_cell_angle_beta 87.709155
_cell_angle_gamma 90.000000
_cell_volume 2763.860455
_symmetry_space_group_name_H-M "C 2/C"
_symmetry_group_IT_number 15
_symmetry_cell_setting 'monoclinic'
loop_
_space_group_symop_operation_xyz
x,y,z
-x,y,1/2-z
-x,-y,-z
x,-y,1/2+z
1/2+x,1/2+y,z
1/2-x,1/2+y,1/2-z
1/2-x,1/2-y,-z
1/2+x,1/2-y,1/2+z
loop_
_atom_site_type_symbol
_atom_site_label
_atom_site_fract_x
_atom_site_fract_y
_atom_site_fract_z
Si Si1 0.918567 0.596884 0.004298
Si Si2 0.739505 0.591566 0.767058
Si Si3 0.500000 0.006659 0.750000
Si Si4 0.222960 0.579417 0.388744
Si Si5 0.058768 0.766469 0.350128
Si Si6 0.221497 0.231343 0.326110
Si Si7 0.495132 0.405838 0.553108
Si Si8 0.868500 0.840641 0.433004
O O1 0.963326 0.553015 0.130859
O O2 0.846239 0.578772 0.031500
O O3 0.926064 0.696822 0.015147
O O4 0.945221 0.565765 0.826076
O O5 0.775171 0.507547 0.711368
O O6 0.780695 0.677989 0.763398
O O7 0.680228 0.597285 0.652621
O O8 0.726692 0.579688 0.965822
O O9 0.238627 0.660523 0.273622
O O10 0.116122 0.773214 0.214289
O O11 0.000000 0.738760 0.250000
O O12 0.047896 0.852333 0.453887
O O13 0.250000 0.250000 0.500000
O O14 0.154262 0.197337 0.386996
O O15 0.500000 0.391447 0.750000
O O16 0.500000 0.500000 0.500000
O O17 0.429624 0.386336 0.479973
#
# Coordination Sequence:
#
# PCOD8146847 Si02
#       8
#     8   8   4   8   8   8   8   8
#     4  11  22  43  61  94 130 170 213 269 319 373
#     4  11  24  42  63  98 127 175 219 264 330 393
#     4  10  24  38  64  90 128 170 220 260 316 392
#     4  12  25  41  66  96 135 172 222 274 327 394
#     4  10  22  42  66  93 128 172 211 267 330 386
#     4  10  22  42  65  96 128 170 221 264 330 392
#     4  11  25  43  66  97 127 164 219 267 330 390
#     4  10  23  43  67  91 130 173 211 274 322 389
#
# _framework density 21.708767000000002
#
# number of rings (size 3 to 8) (size 9 to 14) (size 15 to 20)
#    0.000    1.333    0.667    5.600    0.933    7.467 
#    4.800    0.000    0.000    0.000    0.000    0.000 
#    0.000    0.000    0.000    0.000    0.000    0.000 
#
# Total GULP energy -371653.552242 kJ/mol
# GULP energy per Si atom -12388.451741 kJ/mol
# Density = 2.165936 g / cm^3
# Si number density = 21.708767 Si / 1000 Ang^3
#
#
#
# Elastic Constant Matrix: (Units=GPa)
#
#
# Indices 1 2 3 4 5 6 
#
# 1 65.1994 34.3269 32.9953 0.0000 -15.8275 0.0000
# 2 34.3269 165.4183 43.6524 0.0000 -19.1497 0.0000
# 3 32.9953 43.6524 107.8262 0.0000 -14.1749 0.0000
# 4 0.0000 0.0000 0.0000 35.6290 0.0000 1.1373
# 5 -15.8275 -19.1497 -14.1749 0.0000 42.5534 0.0000
# 6 0.0000 0.0000 0.0000 1.1373 0.0000 14.0503
#
#
#
# Elastic Compliance Matrix: (Units=1/GPa)
#
#
# Indices 1 2 3 4 5 6 
#
# 1 0.020081 -0.002407 -0.004529 0.000000 0.004877 0.000000
# 2 -0.002407 0.007266 -0.001979 0.000000 0.001715 0.000000
# 3 -0.004529 -0.001979 0.011632 0.000000 0.001299 0.000000
# 4 0.000000 0.000000 0.000000 0.028140 0.000000 -0.002278
# 5 0.004877 0.001715 0.001299 0.000000 0.026518 0.000000
# 6 0.000000 0.000000 0.000000 -0.002278 0.000000 0.071357
#
#
# Mechanical properties :
#
#
# Convention : Reuss Voigt Hill
#
# Bulk Modulus (GPa) = 47.28742 62.26590 54.77666
# Shear Modulus (GPa) = 26.33310 33.61115 29.97212
#
# Velocity S-wave (km/s) = 3.48662 3.93908 3.71974
# Velocity P-wave (km/s) = 6.16754 7.03087 6.61331
#
# Compressibility (1/GPa) = 0.02114728
#
# Stress axis : x y z
#
# Youngs Moduli (GPa) = 49.79845 137.63289 85.96775
#
# Poissons Ratio (x) = 0.33133 0.38936
# Poissons Ratio (y) = 0.11988 0.17016
# Poissons Ratio (z) = 0.22554 0.27242
#
# Static dielectric constant tensor:
#      x y z
#    x 0.000000 0.000000 0.000000 
#    y 0.000000 0.000000 0.000000 
#    z 0.000000 0.000000 0.000000 
# 
# 
# High freq. dielectric constant tensor:
#      x y z
#    x 1.849560 0.000000 -0.001210 
#    y 0.000000 1.863240 0.000000 
#    z -0.001210 0.000000 1.865830 
# 
# From -- ./inp_files/61524.got.cif
#   From: 2010.06.25/outbox.cif.g09.slc.cpg/sg15_31_cif.got.tgz:61524.got - 2010.06.28 07:06:18.
