data_PCOD8146096
_publ_section_title
;
Structure prediction by ZEFSAII (Michael W. Deem and Ramdas Pophale) SiO2 
 PCOD8146096
Probable space group: C 2/C
;
_chemical_formula_sum "Si O2"
_cell_formula_units_Z 48
_cell_length_a 14.529876
_cell_length_b 25.671495
_cell_length_c 7.814578
_cell_angle_alpha 90.000000
_cell_angle_beta 46.846534
_cell_angle_gamma 90.000000
_cell_volume 2126.465766
_symmetry_space_group_name_H-M "C 2/C"
_symmetry_group_IT_number 15
_symmetry_cell_setting 'monoclinic'
loop_
_space_group_symop_operation_xyz
x,y,z
-x,y,1/2-z
-x,-y,-z
x,-y,1/2+z
1/2+x,1/2+y,z
1/2-x,1/2+y,1/2-z
1/2-x,1/2-y,-z
1/2+x,1/2-y,1/2+z
loop_
_atom_site_type_symbol
_atom_site_label
_atom_site_fract_x
_atom_site_fract_y
_atom_site_fract_z
Si Si1 0.500000 0.874606 0.250000
Si Si2 0.515842 0.598226 0.533168
Si Si3 0.287941 0.942431 0.705626
Si Si4 0.330405 0.836597 0.183204
Si Si5 0.436888 0.294528 0.995839
Si Si6 0.752671 0.056380 0.849982
Si Si7 0.500000 0.771840 0.750000
O O1 0.399322 0.910272 0.477071
O O2 0.428288 0.834864 0.215275
O O3 0.500000 0.615219 0.750000
O O4 0.650804 0.574593 0.309779
O O5 0.501472 0.649432 0.438528
O O6 0.405165 0.556006 0.636612
O O7 0.306408 0.003276 0.644077
O O8 0.293415 0.933104 0.899887
O O9 0.207578 0.802265 0.374781
O O10 0.302366 0.897360 0.193115
O O11 0.386416 0.809921 0.943272
O O12 0.454392 0.261753 0.146223
O O13 0.500000 0.267243 0.750000
#
# Coordination Sequence:
#
# PCOD8146096 Si02
#       7
#     4   8   8   8   8   8   4
#     4  12  26  43  66  94 138 180 229 272 340 410
#     4   9  19  40  66  98 135 171 221 288 343 393
#     4  11  22  38  65  98 133 182 225 274 338 412
#     4  11  26  47  66 100 138 178 226 287 339 407
#     4  11  24  45  73 103 134 175 228 285 346 408
#     4  10  22  40  66  94 134 175 227 282 340 399
#     4  12  26  47  72 102 136 178 227 286 350 408
#
# _framework density 22.572665000000001
#
# number of rings (size 3 to 8) (size 9 to 14) (size 15 to 20)
#    0.000    1.333    0.833    4.000    1.167    5.333 
#    6.000    0.833    0.000    0.000    0.000    0.000 
#    0.000    0.000    0.000    0.000    0.000    0.000 
#
# Total GULP energy -297621.597078 kJ/mol
# GULP energy per Si atom -12400.899878 kJ/mol
# Density = 2.252129 g / cm^3
# Si number density = 22.572665 Si / 1000 Ang^3
#
#
#
# Elastic Constant Matrix: (Units=GPa)
#
#
# Indices 1 2 3 4 5 6 
#
# 1 136.4555 39.5254 60.8487 0.0000 -1.3790 0.0000
# 2 39.5254 66.6515 47.3716 0.0000 -9.2529 0.0000
# 3 60.8487 47.3716 155.3626 0.0000 -14.2799 0.0000
# 4 0.0000 0.0000 0.0000 25.4105 0.0000 10.6916
# 5 -1.3790 -9.2529 -14.2799 0.0000 31.5925 0.0000
# 6 0.0000 0.0000 0.0000 10.6916 0.0000 -1.4306
#
#
#
# Elastic Compliance Matrix: (Units=1/GPa)
#
#
# Indices 1 2 3 4 5 6 
#
# 1 0.009717 -0.004092 -0.002743 0.000000 -0.002014 0.000000
# 2 -0.004092 0.021173 -0.004486 0.000000 0.003995 0.000000
# 3 -0.002743 -0.004486 0.009126 0.000000 0.002691 0.000000
# 4 0.000000 0.000000 0.000000 0.009496 0.000000 0.070964
# 5 -0.002014 0.003995 0.002691 0.000000 0.033952 0.000000
# 6 0.000000 0.000000 0.000000 0.070964 0.000000 -0.168658
#
#
# Mechanical properties :
#
#
# Convention : Reuss Voigt Hill
#
# Bulk Modulus (GPa) = 57.55895 72.66232 65.11064
# Shear Modulus (GPa) = -88.08763 25.16274 -31.46244
#
# Velocity S-wave (km/s) = -6.25370 3.34240 -3.73745
# Velocity P-wave (km/s) = 5.15657 6.86701 3.20668
#
# Compressibility (1/GPa) = 0.01737349
#
# Stress axis : x y z
#
# Youngs Moduli (GPa) = 102.91771 47.22978 109.57665
#
# Poissons Ratio (x) = 0.19327 0.30056
# Poissons Ratio (y) = 0.42116 0.49156
# Poissons Ratio (z) = 0.28229 0.21187
#
# Static dielectric constant tensor:
#      x y z
#    x 4.194560 0.000000 -0.096050 
#    y 0.000000 3.915770 0.000000 
#    z -0.096050 0.000000 4.159430 
# 
# 
# High freq. dielectric constant tensor:
#      x y z
#    x 1.896680 0.000000 0.000690 
#    y 0.000000 1.890620 0.000000 
#    z 0.000690 0.000000 1.900180 
# 
# From -- ./inp_files/43864.got.cif
#   From: 2010.06.25/outbox.cif.g09.slc.cpg/sg15_22_cif.got.tgz:43864.got - 2010.06.28 07:06:18.
