data_PCOD8146378
_publ_section_title
;
Structure prediction by ZEFSAII (Michael W. Deem and Ramdas Pophale) SiO2 
 PCOD8146378
Probable space group: C 2/C
;
_chemical_formula_sum "Si O2"
_cell_formula_units_Z 40
_cell_length_a 18.775695
_cell_length_b 8.414701
_cell_length_c 16.561020
_cell_angle_alpha 90.000000
_cell_angle_beta 130.294670
_cell_angle_gamma 90.000000
_cell_volume 1995.683946
_symmetry_space_group_name_H-M "C 2/C"
_symmetry_group_IT_number 15
_symmetry_cell_setting 'monoclinic'
loop_
_space_group_symop_operation_xyz
x,y,z
-x,y,1/2-z
-x,-y,-z
x,-y,1/2+z
1/2+x,1/2+y,z
1/2-x,1/2+y,1/2-z
1/2-x,1/2-y,-z
1/2+x,1/2-y,1/2+z
loop_
_atom_site_type_symbol
_atom_site_label
_atom_site_fract_x
_atom_site_fract_y
_atom_site_fract_z
Si Si1 0.400909 0.639640 0.640711
Si Si2 0.608538 0.166465 0.080766
Si Si3 0.708898 0.380617 0.029485
Si Si4 0.596405 0.180728 0.516887
Si Si5 0.784812 0.663042 0.175208
O O1 0.500000 0.600081 0.750000
O O2 0.367435 0.476631 0.576788
O O3 0.409757 0.779822 0.582097
O O4 0.328632 0.693386 0.656184
O O5 0.660914 0.304180 0.072193
O O6 0.501132 0.220693 0.011015
O O7 0.655659 0.134376 0.201504
O O8 0.617184 0.005758 0.036171
O O9 0.786208 0.501735 0.122531
O O10 0.750000 0.250000 0.000000
O O11 0.678452 0.285146 0.618749
#
# Coordination Sequence:
#
# PCOD8146378 Si02
#       5
#     8   8   8   8   8
#     4  11  22  43  63  90 125 169 202 249 310 370
#     4  11  22  41  63  96 123 159 207 256 302 367
#     4  11  24  42  63  94 125 160 207 258 304 367
#     4  10  22  41  64  90 127 161 203 251 310 362
#     4  11  22  41  68  89 125 166 202 250 312 367
#
# _framework density 20.043254000000001
#
# number of rings (size 3 to 8) (size 9 to 14) (size 15 to 20)
#    0.000    1.200    2.000    6.000    0.000    3.200 
#   14.400    0.000    0.000    0.000    0.000    0.000 
#    0.000    0.000    0.000    0.000    0.000    0.000 
#
# Total GULP energy -248071.978531 kJ/mol
# GULP energy per Si atom -12403.598927 kJ/mol
# Density = 1.999763 g / cm^3
# Si number density = 20.043254 Si / 1000 Ang^3
#
#
#
# Elastic Constant Matrix: (Units=GPa)
#
#
# Indices 1 2 3 4 5 6 
#
# 1 84.3159 51.4325 37.7321 0.0000 -0.5745 0.0000
# 2 51.4325 103.7640 65.3230 0.0000 0.5212 0.0000
# 3 37.7321 65.3230 123.9937 0.0000 -3.2321 0.0000
# 4 0.0000 0.0000 0.0000 18.4656 0.0000 -11.6013
# 5 -0.5745 0.5212 -3.2321 0.0000 27.9969 0.0000
# 6 0.0000 0.0000 0.0000 -11.6013 0.0000 42.1561
#
#
#
# Elastic Compliance Matrix: (Units=1/GPa)
#
#
# Indices 1 2 3 4 5 6 
#
# 1 0.017105 -0.007794 -0.001089 0.000000 0.000370 0.000000
# 2 -0.007794 0.018008 -0.007150 0.000000 -0.001321 0.000000
# 3 -0.001089 -0.007150 0.012203 0.000000 0.001519 0.000000
# 4 0.000000 0.000000 0.000000 0.065475 0.000000 0.018019
# 5 0.000370 -0.001321 0.001519 0.000000 0.035926 0.000000
# 6 0.000000 0.000000 0.000000 0.018019 0.000000 0.028680
#
#
# Mechanical properties :
#
#
# Convention : Reuss Voigt Hill
#
# Bulk Modulus (GPa) = 65.57804 69.00540 67.29172
# Shear Modulus (GPa) = 23.30498 28.22947 25.76723
#
# Velocity S-wave (km/s) = 3.41359 3.75697 3.58939
# Velocity P-wave (km/s) = 6.95170 7.30225 7.12913
#
# Compressibility (1/GPa) = 0.01524901
#
# Stress axis : x y z
#
# Youngs Moduli (GPa) = 58.46357 55.52969 81.94956
#
# Poissons Ratio (x) = 0.43282 0.08925
# Poissons Ratio (y) = 0.45569 0.58592
# Poissons Ratio (z) = 0.06367 0.39702
#
# Static dielectric constant tensor:
#      x y z
#    x 3.743150 0.000000 0.075520 
#    y 0.000000 3.640700 0.000000 
#    z 0.075520 0.000000 3.734720 
# 
# 
# High freq. dielectric constant tensor:
#      x y z
#    x 1.786460 0.000000 0.001640 
#    y 0.000000 1.787130 0.000000 
#    z 0.001640 0.000000 1.790830 
# 
# From -- ./inp_files/159093.got.cif
#   From: 2010.06.25/outbox.cif.g09.slc.cpg/sg15_80_cif.got.tgz:159093.got - 2010.06.28 07:06:18.
