data_PCOD8146997
_publ_section_title
;
Structure prediction by ZEFSAII (Michael W. Deem and Ramdas Pophale) SiO2 
 PCOD8146997
Probable space group: C 2/C
;
_chemical_formula_sum "Si O2"
_cell_formula_units_Z 44
_cell_length_a 30.040404
_cell_length_b 8.386558
_cell_length_c 25.223347
_cell_angle_alpha 90.000000
_cell_angle_beta 161.510653
_cell_angle_gamma 90.000000
_cell_volume 2015.242334
_symmetry_space_group_name_H-M "C 2/C"
_symmetry_group_IT_number 15
_symmetry_cell_setting 'monoclinic'
loop_
_space_group_symop_operation_xyz
x,y,z
-x,y,1/2-z
-x,-y,-z
x,-y,1/2+z
1/2+x,1/2+y,z
1/2-x,1/2+y,1/2-z
1/2-x,1/2-y,-z
1/2+x,1/2-y,1/2+z
loop_
_atom_site_type_symbol
_atom_site_label
_atom_site_fract_x
_atom_site_fract_y
_atom_site_fract_z
Si Si1 0.000000 0.150609 0.250000
Si Si2 0.528693 0.670527 0.583512
Si Si3 0.650063 0.344416 0.425190
Si Si4 0.123107 0.336925 0.487071
Si Si5 0.940190 0.194536 0.369866
Si Si6 0.837976 0.304821 0.454670
O O1 0.034222 0.256420 0.339611
O O2 0.134456 0.032432 0.390998
O O3 0.447008 0.737691 0.439937
O O4 0.503332 0.486192 0.569444
O O5 0.693899 0.694863 0.758729
O O6 0.470897 0.764770 0.568700
O O7 0.500000 0.257947 0.250000
O O8 0.750000 0.250000 0.500000
O O9 0.691693 0.327072 0.533590
O O10 0.282896 0.274659 0.671092
O O11 0.129154 0.524586 0.482160
O O12 0.044337 0.304182 0.453416
#
# Coordination Sequence:
#
# PCOD8146997 Si02
#       6
#     4   8   8   8   8   8
#     4  10  26  44  66  90 136 172 206 276 326 378
#     4  10  22  42  68  94 131 171 215 268 322 388
#     4  10  23  41  67  91 125 171 214 261 318 384
#     4  11  25  41  65  98 133 171 215 267 329 384
#     4  10  23  43  65  96 132 171 214 268 328 384
#     4  11  23  40  67  98 126 170 221 266 324 391
#
# _framework density 21.833601999999999
#
# number of rings (size 3 to 8) (size 9 to 14) (size 15 to 20)
#    0.545    1.091    0.000    3.273    6.364    5.818 
#    0.000    0.000    0.000    0.000    0.000    0.000 
#    0.000    0.000    0.000    0.000    0.000    0.000 
#
# Total GULP energy -272701.894771 kJ/mol
# GULP energy per Si atom -12395.540671 kJ/mol
# Density = 2.178391 g / cm^3
# Si number density = 21.833602 Si / 1000 Ang^3
#
#
#
# Elastic Constant Matrix: (Units=GPa)
#
#
# Indices 1 2 3 4 5 6 
#
# 1 123.0127 41.3137 48.7753 0.0004 -2.4245 0.0003
# 2 41.3137 78.3578 51.5401 0.0005 -9.4814 0.0004
# 3 48.7753 51.5401 93.3034 0.0010 -9.2022 0.0007
# 4 0.0004 0.0005 0.0010 36.6224 0.0007 -0.9692
# 5 -2.4245 -9.4814 -9.2022 0.0007 45.2952 0.0004
# 6 0.0003 0.0004 0.0007 -0.9692 0.0004 31.0448
#
#
#
# Elastic Compliance Matrix: (Units=1/GPa)
#
#
# Indices 1 2 3 4 5 6 
#
# 1 0.010744 -0.003174 -0.003952 0.000000 -0.000892 0.000000
# 2 -0.003174 0.021159 -0.009806 0.000000 0.002267 0.000000
# 3 -0.003952 -0.009806 0.018344 0.000000 0.001463 0.000000
# 4 0.000000 0.000000 0.000000 0.027328 0.000000 0.000853
# 5 -0.000892 0.002267 0.001463 0.000000 0.022801 0.000000
# 6 0.000000 0.000000 0.000000 0.000853 0.000000 0.032238
#
#
# Mechanical properties :
#
#
# Convention : Reuss Voigt Hill
#
# Bulk Modulus (GPa) = 61.02682 64.21469 62.62076
# Shear Modulus (GPa) = 29.08001 32.79546 30.93773
#
# Velocity S-wave (km/s) = 3.65347 3.87985 3.76836
# Velocity P-wave (km/s) = 6.76821 7.03888 6.90487
#
# Compressibility (1/GPa) = 0.01638624
#
# Stress axis : x y z
#
# Youngs Moduli (GPa) = 93.07206 47.26066 54.51298
#
# Poissons Ratio (x) = 0.14999 0.21541
# Poissons Ratio (y) = 0.29538 0.53453
# Poissons Ratio (z) = 0.36778 0.46342
#
# Static dielectric constant tensor:
#      x y z
#    x 3.702030 0.000000 -0.066090 
#    y 0.000000 3.839480 0.000000 
#    z -0.066090 0.000000 4.029330 
# 
# 
# High freq. dielectric constant tensor:
#      x y z
#    x 1.855370 0.000000 -0.003830 
#    y 0.000000 1.849530 0.000000 
#    z -0.003830 0.000000 1.868630 
# 
# From -- ./inp_files/284477.got.cif
#   From: 2010.06.25/outbox.cif.g09.slc.cpg/sg15_143_cif.got.tgz:284477.got - 2010.06.28 07:06:18.
