data_PCOD8146024
_publ_section_title
;
Structure prediction by ZEFSAII (Michael W. Deem and Ramdas Pophale) SiO2 
 PCOD8146024
Probable space group: C 2/C
;
_chemical_formula_sum "Si O2"
_cell_formula_units_Z 64
_cell_length_a 29.935342
_cell_length_b 13.835965
_cell_length_c 13.000862
_cell_angle_alpha 90.000000
_cell_angle_beta 31.793087
_cell_angle_gamma 90.000000
_cell_volume 2836.974873
_symmetry_space_group_name_H-M "C 2/C"
_symmetry_group_IT_number 15
_symmetry_cell_setting 'monoclinic'
loop_
_space_group_symop_operation_xyz
x,y,z
-x,y,1/2-z
-x,-y,-z
x,-y,1/2+z
1/2+x,1/2+y,z
1/2-x,1/2+y,1/2-z
1/2-x,1/2-y,-z
1/2+x,1/2-y,1/2+z
loop_
_atom_site_type_symbol
_atom_site_label
_atom_site_fract_x
_atom_site_fract_y
_atom_site_fract_z
Si Si1 0.070270 0.273098 0.870146
Si Si2 0.384521 0.099022 0.403393
Si Si3 0.849624 0.657234 0.691891
Si Si4 0.957237 0.425224 0.156447
Si Si5 0.189411 0.031617 0.031555
Si Si6 0.085170 0.017762 0.041151
Si Si7 0.295628 0.628277 0.838625
Si Si8 0.579216 0.646623 0.403322
O O1 0.063418 0.334618 0.777669
O O2 0.167341 0.235973 0.701970
O O3 0.029875 0.342802 0.040138
O O4 0.009086 0.183277 0.970198
O O5 0.403341 0.122375 0.486181
O O6 0.286320 0.125764 0.573141
O O7 0.412156 0.985087 0.337590
O O8 0.884349 0.625552 0.734112
O O9 0.852892 0.773295 0.690730
O O10 0.756648 0.612918 0.867320
O O11 0.000000 0.500000 0.000000
O O12 0.150382 0.991310 0.003504
O O13 0.118397 0.081631 0.238108
O O14 0.227277 0.938718 0.017989
O O15 0.000000 0.069014 0.250000
O O16 0.125521 0.088827 0.879746
O O17 0.057485 0.917258 0.044421
#
# Coordination Sequence:
#
# PCOD8146024 Si02
#       8
#     8   8   8   8   8   8   8   8
#     4  10  22  40  65  91 130 167 214 272 320 389
#     4  11  22  40  68  94 125 169 218 270 325 388
#     4  11  22  40  68  93 125 168 224 264 319 402
#     4   9  21  41  64  89 131 166 208 271 325 379
#     4  11  22  41  64  91 133 168 207 272 326 388
#     4  11  23  39  64  91 130 165 214 259 328 392
#     4  11  22  40  65  95 127 168 211 267 334 378
#     4  10  24  40  64  94 122 172 215 262 320 392
#
# _framework density 22.559242000000001
#
# number of rings (size 3 to 8) (size 9 to 14) (size 15 to 20)
#    0.000    1.500    2.500    2.250    3.500    6.000 
#    0.000    0.000   24.750    0.000    0.000    0.000 
#    0.000    0.000    0.000    0.000    0.000    0.000 
#
# Total GULP energy -396536.868876 kJ/mol
# GULP energy per Si atom -12391.777152 kJ/mol
# Density = 2.250790 g / cm^3
# Si number density = 22.559242 Si / 1000 Ang^3
#
#
#
# Elastic Constant Matrix: (Units=GPa)
#
#
# Indices 1 2 3 4 5 6 
#
# 1 43.5343 15.5909 -1.4217 0.0000 3.6615 0.0000
# 2 15.5909 77.6355 8.9443 0.0000 0.4354 0.0000
# 3 -1.4217 8.9443 57.0311 0.0000 1.5197 0.0000
# 4 0.0000 0.0000 0.0000 29.0243 0.0000 -8.7885
# 5 3.6615 0.4354 1.5197 0.0000 36.7485 0.0000
# 6 0.0000 0.0000 0.0000 -8.7885 0.0000 26.7271
#
#
#
# Elastic Compliance Matrix: (Units=1/GPa)
#
#
# Indices 1 2 3 4 5 6 
#
# 1 0.025092 -0.005199 0.001507 0.000000 -0.002501 0.000000
# 2 -0.005199 0.014195 -0.002368 0.000000 0.000448 0.000000
# 3 0.001507 -0.002368 0.017966 0.000000 -0.000865 0.000000
# 4 0.000000 0.000000 0.000000 0.038264 0.000000 0.012582
# 5 -0.002501 0.000448 -0.000865 0.000000 0.027492 0.000000
# 6 0.000000 0.000000 0.000000 0.012582 0.000000 0.041552
#
#
# Mechanical properties :
#
#
# Convention : Reuss Voigt Hill
#
# Bulk Modulus (GPa) = 22.15570 24.93645 23.54608
# Shear Modulus (GPa) = 26.07922 28.83916 27.45919
#
# Velocity S-wave (km/s) = 3.40374 3.57932 3.49263
# Velocity P-wave (km/s) = 5.02888 5.30658 5.16960
#
# Compressibility (1/GPa) = 0.04513511
#
# Stress axis : x y z
#
# Youngs Moduli (GPa) = 39.85374 70.44749 55.65988
#
# Poissons Ratio (x) = 0.36623 -0.08390
# Poissons Ratio (y) = 0.20718 0.13179
# Poissons Ratio (z) = -0.06008 0.16680
#
# Static dielectric constant tensor:
#      x y z
#    x 3.925770 0.000000 0.065970 
#    y 0.000000 4.355760 0.000000 
#    z 0.065970 0.000000 4.260510 
# 
# 
# High freq. dielectric constant tensor:
#      x y z
#    x 1.877720 0.000000 -0.007240 
#    y 0.000000 1.889260 0.000000 
#    z -0.007240 0.000000 1.897580 
# 
# From -- ./inp_files/123511.got.cif
#   From: 2010.06.25/outbox.cif.g09.slc.cpg/sg15_62_cif.got.tgz:123511.got - 2010.06.28 07:06:18.
