data_PCOD8146308
_publ_section_title
;
Structure prediction by ZEFSAII (Michael W. Deem and Ramdas Pophale) SiO2 
 PCOD8146308
Probable space group: C 2/C
;
_chemical_formula_sum "Si O2"
_cell_formula_units_Z 44
_cell_length_a 27.638184
_cell_length_b 8.627459
_cell_length_c 24.253124
_cell_angle_alpha 90.000000
_cell_angle_beta 158.150474
_cell_angle_gamma 90.000000
_cell_volume 2152.294893
_symmetry_space_group_name_H-M "C 2/C"
_symmetry_group_IT_number 15
_symmetry_cell_setting 'monoclinic'
loop_
_space_group_symop_operation_xyz
x,y,z
-x,y,1/2-z
-x,-y,-z
x,-y,1/2+z
1/2+x,1/2+y,z
1/2-x,1/2+y,1/2-z
1/2-x,1/2-y,-z
1/2+x,1/2-y,1/2+z
loop_
_atom_site_type_symbol
_atom_site_label
_atom_site_fract_x
_atom_site_fract_y
_atom_site_fract_z
Si Si1 0.385260 0.156448 0.830942
Si Si2 0.447381 0.588404 0.795794
Si Si3 0.024548 0.348785 0.953530
Si Si4 0.599655 0.304037 0.983135
Si Si5 0.500000 0.801621 0.750000
Si Si6 0.836636 0.499581 0.499872
O O1 0.238649 0.194981 0.659656
O O2 0.414012 0.977368 0.847298
O O3 0.396148 0.188218 0.907422
O O4 0.487796 0.268326 0.909272
O O5 0.454962 0.693412 0.858577
O O6 0.442307 0.696048 0.736924
O O7 0.317832 0.486440 0.660140
O O8 0.568757 0.469075 0.922036
O O9 0.127076 0.405107 0.016553
O O10 0.602681 0.172068 0.939047
O O11 0.387091 0.912553 0.607568
#
# Coordination Sequence:
#
# PCOD8146308 Si02
#       6
#     8   8   8   8   4   8
#     4  10  22  41  61  97 134 171 205 256 310 372
#     4  11  23  41  67  94 119 169 212 262 314 382
#     4   9  23  38  65  92 132 168 212 255 306 371
#     4  11  23  41  64  95 132 165 210 255 317 379
#     4  10  24  44  66  92 118 156 216 268 328 370
#     4  10  22  44  62  92 126 164 209 268 312 375
#
# _framework density 20.443294999999999
#
# number of rings (size 3 to 8) (size 9 to 14) (size 15 to 20)
#    0.000    1.818    1.818    0.545    7.636    4.364 
#    3.273    1.818    0.000    0.000    0.000    0.000 
#    0.000    0.000    0.000    0.000    0.000    0.000 
#
# Total GULP energy -272870.663619 kJ/mol
# GULP energy per Si atom -12403.211983 kJ/mol
# Density = 2.039677 g / cm^3
# Si number density = 20.443295 Si / 1000 Ang^3
#
#
#
# Elastic Constant Matrix: (Units=GPa)
#
#
# Indices 1 2 3 4 5 6 
#
# 1 81.3706 44.8851 64.5740 0.0001 -14.4043 0.0000
# 2 44.8851 124.7063 55.8420 0.0001 -16.9154 0.0001
# 3 64.5740 55.8420 139.5686 0.0001 2.1236 0.0001
# 4 0.0001 0.0001 0.0001 31.6806 0.0001 2.7139
# 5 -14.4043 -16.9154 2.1236 0.0001 34.1507 0.0001
# 6 0.0000 0.0001 0.0001 2.7139 0.0001 14.9669
#
#
#
# Elastic Compliance Matrix: (Units=1/GPa)
#
#
# Indices 1 2 3 4 5 6 
#
# 1 0.023123 -0.002741 -0.009739 0.000000 0.009001 0.000000
# 2 -0.002741 0.011064 -0.003228 0.000000 0.004525 0.000000
# 3 -0.009739 -0.003228 0.013061 0.000000 -0.006519 0.000000
# 4 0.000000 0.000000 0.000000 0.032063 0.000000 -0.005814
# 5 0.009001 0.004525 -0.006519 0.000000 0.035725 0.000000
# 6 0.000000 0.000000 0.000000 -0.005814 0.000000 0.067868
#
#
# Mechanical properties :
#
#
# Convention : Reuss Voigt Hill
#
# Bulk Modulus (GPa) = 63.15334 75.13863 69.14598
# Shear Modulus (GPa) = 22.76886 28.18258 25.47572
#
# Velocity S-wave (km/s) = 3.34092 3.71694 3.53394
# Velocity P-wave (km/s) = 6.77062 7.43339 7.10974
#
# Compressibility (1/GPa) = 0.01583448
#
# Stress axis : x y z
#
# Youngs Moduli (GPa) = 43.24675 90.37958 76.56197
#
# Poissons Ratio (x) = 0.24772 0.74561
# Poissons Ratio (y) = 0.11853 0.24712
# Poissons Ratio (z) = 0.42117 0.29172
#
# Static dielectric constant tensor:
#      x y z
#    x 3.593600 0.000000 -0.129320 
#    y 0.000000 3.891270 0.000000 
#    z -0.129320 0.000000 3.651460 
# 
# 
# High freq. dielectric constant tensor:
#      x y z
#    x 1.790640 0.000000 -0.000950 
#    y 0.000000 1.809330 0.000000 
#    z -0.000950 0.000000 1.801300 
# 
# From -- ./inp_files/68309.got.cif
#   From: 2010.06.25/outbox.cif.g09.slc.cpg/sg15_35_cif.got.tgz:68309.got - 2010.06.28 07:06:18.
