data_PCOD8146903
_publ_section_title
;
Structure prediction by ZEFSAII (Michael W. Deem and Ramdas Pophale) SiO2 
 PCOD8146903
Probable space group: C 2/C
;
_chemical_formula_sum "Si O2"
_cell_formula_units_Z 56
_cell_length_a 9.491627
_cell_length_b 11.702942
_cell_length_c 26.209513
_cell_angle_alpha 90.000000
_cell_angle_beta 63.289067
_cell_angle_gamma 90.000000
_cell_volume 2600.668617
_symmetry_space_group_name_H-M "C 2/C"
_symmetry_group_IT_number 15
_symmetry_cell_setting 'monoclinic'
loop_
_space_group_symop_operation_xyz
x,y,z
-x,y,1/2-z
-x,-y,-z
x,-y,1/2+z
1/2+x,1/2+y,z
1/2-x,1/2+y,1/2-z
1/2-x,1/2-y,-z
1/2+x,1/2-y,1/2+z
loop_
_atom_site_type_symbol
_atom_site_label
_atom_site_fract_x
_atom_site_fract_y
_atom_site_fract_z
Si Si1 0.039954 0.815839 0.877968
Si Si2 0.345305 0.893129 0.875122
Si Si3 0.664225 0.936635 0.210639
Si Si4 0.529733 0.074534 0.568734
Si Si5 0.364503 0.761109 0.645471
Si Si6 0.298637 0.098027 0.062641
Si Si7 0.152325 0.907852 0.753600
O O1 0.165776 0.848657 0.901499
O O2 0.997474 0.682078 0.889823
O O3 0.111644 0.833151 0.810199
O O4 0.890902 0.900245 0.909560
O O5 0.459154 0.782205 0.862205
O O6 0.389429 0.957842 0.815897
O O7 0.369298 0.977670 0.918933
O O8 0.500000 0.868468 0.250000
O O9 0.803511 0.868413 0.159284
O O10 0.739665 0.983626 0.250496
O O11 0.630293 0.118075 0.504592
O O12 0.362828 0.020522 0.576989
O O13 0.355342 0.795865 0.587895
O O14 0.241459 0.831431 0.698638
O O15 0.000000 0.957500 0.750000
#
# Coordination Sequence:
#
# PCOD8146903 Si02
#       7
#     8   8   8   8   8   8   8
#     4  11  23  39  67  94 126 165 213 260 321 372
#     4  10  24  42  61  98 125 162 215 261 302 390
#     4  11  23  40  63  91 128 170 199 260 317 367
#     4  10  23  44  67  89 132 171 205 271 322 357
#     4  11  22  41  64  88 130 166 210 252 317 376
#     4  10  22  42  66  95 125 168 220 258 310 392
#     4  11  23  41  61  96 127 164 215 256 310 394
#
# _framework density 21.532926
#
# number of rings (size 3 to 8) (size 9 to 14) (size 15 to 20)
#    0.000    1.429    2.857    1.714    2.000    2.857 
#    5.143    7.857    0.000    0.000    0.000    0.000 
#    0.000    0.000    0.000    0.000    0.000    0.000 
#
# Total GULP energy -347171.436517 kJ/mol
# GULP energy per Si atom -12398.979876 kJ/mol
# Density = 2.148392 g / cm^3
# Si number density = 21.532926 Si / 1000 Ang^3
#
#
#
# Elastic Constant Matrix: (Units=GPa)
#
#
# Indices 1 2 3 4 5 6 
#
# 1 161.5596 27.2198 14.9056 0.0000 2.8166 0.0000
# 2 27.2198 57.3113 1.5489 0.0000 3.2386 0.0000
# 3 14.9056 1.5489 43.6008 0.0000 15.1102 0.0000
# 4 0.0000 0.0000 0.0000 19.7618 0.0000 -0.2938
# 5 2.8166 3.2386 15.1102 0.0000 27.7780 0.0000
# 6 0.0000 0.0000 0.0000 -0.2938 0.0000 27.0692
#
#
#
# Elastic Compliance Matrix: (Units=1/GPa)
#
#
# Indices 1 2 3 4 5 6 
#
# 1 0.006972 -0.003303 -0.002655 0.000000 0.001122 0.000000
# 2 -0.003303 0.019129 0.001363 0.000000 -0.002637 0.000000
# 3 -0.002655 0.001363 0.029275 0.000000 -0.015814 0.000000
# 4 0.000000 0.000000 0.000000 0.050611 0.000000 0.000549
# 5 0.001122 -0.002637 -0.015814 0.000000 0.044796 0.000000
# 6 0.000000 0.000000 0.000000 0.000549 0.000000 0.036948
#
#
# Mechanical properties :
#
#
# Convention : Reuss Voigt Hill
#
# Bulk Modulus (GPa) = 21.65091 38.86892 30.25992
# Shear Modulus (GPa) = 23.54986 29.50827 26.52906
#
# Velocity S-wave (km/s) = 3.31065 3.70588 3.51383
# Velocity P-wave (km/s) = 4.96895 6.03337 5.52684
#
# Compressibility (1/GPa) = 0.04618743
#
# Stress axis : x y z
#
# Youngs Moduli (GPa) = 143.44113 52.27561 34.15869
#
# Poissons Ratio (x) = 0.17265 0.09069
# Poissons Ratio (y) = 0.47375 -0.04657
# Poissons Ratio (z) = 0.38083 -0.07127
#
# Static dielectric constant tensor:
#      x y z
#    x 4.332310 0.000000 0.033630 
#    y 0.000000 3.843660 0.000000 
#    z 0.033630 0.000000 3.887210 
# 
# 
# High freq. dielectric constant tensor:
#      x y z
#    x 1.865140 0.000000 0.008570 
#    y 0.000000 1.826070 0.000000 
#    z 0.008570 0.000000 1.840170 
# 
# From -- ./inp_files/287965.got.cif
#   From: 2010.06.25/outbox.cif.g09.slc.cpg/sg15_144_cif.got.tgz:287965.got - 2010.06.28 07:06:18.
