data_PCOD8146526
_publ_section_title
;
Structure prediction by ZEFSAII (Michael W. Deem and Ramdas Pophale) SiO2 
 PCOD8146526
Probable space group: C 2/C
;
_chemical_formula_sum "Si O2"
_cell_formula_units_Z 40
_cell_length_a 15.740373
_cell_length_b 23.745542
_cell_length_c 9.194504
_cell_angle_alpha 90.000000
_cell_angle_beta 33.491668
_cell_angle_gamma 90.000000
_cell_volume 1896.354284
_symmetry_space_group_name_H-M "C 2/C"
_symmetry_group_IT_number 15
_symmetry_cell_setting 'monoclinic'
loop_
_space_group_symop_operation_xyz
x,y,z
-x,y,1/2-z
-x,-y,-z
x,-y,1/2+z
1/2+x,1/2+y,z
1/2-x,1/2+y,1/2-z
1/2-x,1/2-y,-z
1/2+x,1/2-y,1/2+z
loop_
_atom_site_type_symbol
_atom_site_label
_atom_site_fract_x
_atom_site_fract_y
_atom_site_fract_z
Si Si1 0.833673 0.907485 0.055252
Si Si2 0.293123 0.291148 0.658940
Si Si3 0.608168 0.473739 0.965771
Si Si4 0.364666 0.314252 0.237242
Si Si5 0.171056 0.386382 0.007235
O O1 0.843269 0.875673 0.196184
O O2 0.785360 0.973362 0.137539
O O3 0.715597 0.879141 0.112233
O O4 0.000000 0.903812 0.750000
O O5 0.294075 0.319347 0.498149
O O6 0.459391 0.292816 0.500517
O O7 0.232108 0.227715 0.728128
O O8 0.172846 0.325100 0.930103
O O9 0.711924 0.424800 0.751896
O O10 0.500000 0.449298 0.250000
O O11 0.500000 0.500000 0.000000
O O12 0.000000 0.411789 0.250000
#
# Coordination Sequence:
#
# PCOD8146526 Si02
#       5
#     8   8   8   8   8
#     4  11  22  42  65  95 124 169 220 259 315 392
#     4  10  23  41  65  94 128 172 214 263 320 383
#     4  11  22  43  72  93 123 172 220 256 316 395
#     4  10  22  41  67  94 126 170 221 261 316 382
#     4  12  27  42  64 102 134 163 215 273 325 373
#
# _framework density 21.093105999999999
#
# number of rings (size 3 to 8) (size 9 to 14) (size 15 to 20)
#    0.000    1.200    6.000    0.000    8.400    2.400 
#    0.000    0.000    0.000    0.000    0.000    0.000 
#    0.000    0.000    0.000    0.000    0.000    0.000 
#
# Total GULP energy -247965.834459 kJ/mol
# GULP energy per Si atom -12398.291723 kJ/mol
# Density = 2.104510 g / cm^3
# Si number density = 21.093106 Si / 1000 Ang^3
#
#
#
# Elastic Constant Matrix: (Units=GPa)
#
#
# Indices 1 2 3 4 5 6 
#
# 1 111.6359 16.6083 27.0514 0.0006 -3.1227 -0.0022
# 2 16.6083 48.4809 7.6477 0.0001 0.9552 -0.0007
# 3 27.0514 7.6477 70.4433 0.0005 -3.5383 -0.0027
# 4 0.0006 0.0001 0.0005 23.4996 -0.0004 6.6076
# 5 -3.1227 0.9552 -3.5383 -0.0004 30.0067 0.0023
# 6 -0.0022 -0.0007 -0.0027 6.6076 0.0023 32.0789
#
#
#
# Elastic Compliance Matrix: (Units=1/GPa)
#
#
# Indices 1 2 3 4 5 6 
#
# 1 0.010291 -0.002974 -0.003592 0.000000 0.000742 0.000000
# 2 -0.002974 0.021872 -0.001291 0.000000 -0.001158 0.000000
# 3 -0.003592 -0.001291 0.015792 -0.000001 0.001529 0.000001
# 4 0.000000 0.000000 -0.000001 0.045170 0.000001 -0.009304
# 5 0.000742 -0.001158 0.001529 0.000001 0.033620 -0.000002
# 6 0.000000 0.000000 0.000001 -0.009304 -0.000002 0.033090
#
#
# Mechanical properties :
#
#
# Convention : Reuss Voigt Hill
#
# Bulk Modulus (GPa) = 31.01480 37.01944 34.01712
# Shear Modulus (GPa) = 26.83913 29.06721 27.95317
#
# Velocity S-wave (km/s) = 3.57096 3.71623 3.64432
# Velocity P-wave (km/s) = 5.63365 6.00020 5.81981
#
# Compressibility (1/GPa) = 0.03224267
#
# Stress axis : x y z
#
# Youngs Moduli (GPa) = 97.17036 45.72102 63.32265
#
# Poissons Ratio (x) = 0.13595 0.22745
# Poissons Ratio (y) = 0.28894 0.08174
# Poissons Ratio (z) = 0.34903 0.05902
#
# Static dielectric constant tensor:
#      x y z
#    x 3.404360 0.000000 -0.376140 
#    y 0.000000 4.788770 0.000000 
#    z -0.376140 0.000000 3.231840 
# 
# 
# High freq. dielectric constant tensor:
#      x y z
#    x 1.839080 0.000000 0.016060 
#    y 0.000000 1.827960 0.000000 
#    z 0.016060 0.000000 1.809050 
# 
# From -- ./inp_files/41934.got.cif
#   From: 2010.06.25/outbox.cif.g09.slc.cpg/sg15_21_cif.got.tgz:41934.got - 2010.06.28 07:06:18.
