data_PCOD8146042
_publ_section_title
;
Structure prediction by ZEFSAII (Michael W. Deem and Ramdas Pophale) SiO2 
 PCOD8146042
Probable space group: C 2/C
;
_chemical_formula_sum "Si O2"
_cell_formula_units_Z 52
_cell_length_a 20.097538
_cell_length_b 13.916979
_cell_length_c 8.853071
_cell_angle_alpha 90.000000
_cell_angle_beta 97.679207
_cell_angle_gamma 90.000000
_cell_volume 2453.970569
_symmetry_space_group_name_H-M "C 2/C"
_symmetry_group_IT_number 15
_symmetry_cell_setting 'monoclinic'
loop_
_space_group_symop_operation_xyz
x,y,z
-x,y,1/2-z
-x,-y,-z
x,-y,1/2+z
1/2+x,1/2+y,z
1/2-x,1/2+y,1/2-z
1/2-x,1/2-y,-z
1/2+x,1/2-y,1/2+z
loop_
_atom_site_type_symbol
_atom_site_label
_atom_site_fract_x
_atom_site_fract_y
_atom_site_fract_z
Si Si1 0.095456 0.750154 0.598903
Si Si2 0.308828 0.238174 0.136093
Si Si3 0.857047 0.401746 0.183673
Si Si4 0.788460 0.560091 0.349056
Si Si5 0.500000 0.863686 0.250000
Si Si6 0.925451 0.039414 0.487312
Si Si7 0.659027 0.440831 0.259918
O O1 0.122144 0.724723 0.438415
O O2 0.146856 0.705943 0.742482
O O3 0.023357 0.700704 0.611824
O O4 0.085331 0.864072 0.615205
O O5 0.294706 0.149040 0.238591
O O6 0.309641 0.334648 0.236730
O O7 0.250000 0.250000 0.000000
O O8 0.836681 0.476326 0.306507
O O9 0.935908 0.424939 0.170258
O O10 0.809547 0.409144 0.024090
O O11 0.713076 0.519940 0.329289
O O12 0.906665 0.058365 0.653979
O O13 0.870459 0.963139 0.413035
O O14 0.000000 0.000000 0.500000
#
# Coordination Sequence:
#
# PCOD8146042 Si02
#       7
#     8   8   8   8   4   8   8
#     4   9  21  43  64  92 133 173 213 278 324 389
#     4  11  23  43  64  91 135 172 214 278 333 386
#     4  10  22  40  65  95 131 172 220 267 330 394
#     4  12  23  42  70  97 133 177 221 274 342 399
#     4   8  22  40  66  94 132 168 224 264 336 386
#     4  11  24  42  68  91 132 173 216 272 332 387
#     4  11  25  41  63  99 124 168 223 268 325 400
#
# _framework density 21.190147
#
# number of rings (size 3 to 8) (size 9 to 14) (size 15 to 20)
#    0.923    0.615    0.000    6.000    2.154    3.077 
#    0.000    6.154    0.000    0.000    0.000    0.000 
#    0.000    0.000    0.000    0.000    0.000    0.000 
#
# Total GULP energy -322185.712530 kJ/mol
# GULP energy per Si atom -12391.758174 kJ/mol
# Density = 2.114192 g / cm^3
# Si number density = 21.190147 Si / 1000 Ang^3
#
#
#
# Elastic Constant Matrix: (Units=GPa)
#
#
# Indices 1 2 3 4 5 6 
#
# 1 101.7296 44.7411 13.5155 0.0000 -1.2899 0.0000
# 2 44.7411 134.3940 42.4220 0.0000 1.3989 0.0000
# 3 13.5155 42.4220 70.6454 0.0000 3.3103 0.0000
# 4 0.0000 0.0000 0.0000 36.9541 0.0000 1.5907
# 5 -1.2899 1.3989 3.3103 0.0000 35.8235 0.0000
# 6 0.0000 0.0000 0.0000 1.5907 0.0000 35.9651
#
#
#
# Elastic Compliance Matrix: (Units=1/GPa)
#
#
# Indices 1 2 3 4 5 6 
#
# 1 0.011528 -0.003873 0.000094 0.000000 0.000558 0.000000
# 2 -0.003873 0.010483 -0.005552 0.000000 -0.000036 0.000000
# 3 0.000094 -0.005552 0.017537 0.000000 -0.001400 0.000000
# 4 0.000000 0.000000 0.000000 0.027112 0.000000 -0.001199
# 5 0.000558 -0.000036 -0.001400 0.000000 0.028065 0.000000
# 6 0.000000 0.000000 0.000000 -0.001199 0.000000 0.027858
#
#
# Mechanical properties :
#
#
# Convention : Reuss Voigt Hill
#
# Bulk Modulus (GPa) = 47.88048 56.45847 52.16948
# Shear Modulus (GPa) = 33.73623 35.48790 34.61207
#
# Velocity S-wave (km/s) = 3.99441 4.09679 4.04592
# Velocity P-wave (km/s) = 6.62710 7.00570 6.81903
#
# Compressibility (1/GPa) = 0.02088534
#
# Stress axis : x y z
#
# Youngs Moduli (GPa) = 86.74494 95.38956 57.02240
#
# Poissons Ratio (x) = 0.36948 -0.00538
# Poissons Ratio (y) = 0.33600 0.31661
# Poissons Ratio (z) = -0.00818 0.52965
#
# Static dielectric constant tensor:
#      x y z
#    x 3.887310 0.000000 -0.171610 
#    y 0.000000 2.334580 0.000000 
#    z -0.171610 0.000000 3.456670 
# 
# 
# High freq. dielectric constant tensor:
#      x y z
#    x 1.839690 0.000000 -0.019100 
#    y 0.000000 1.830930 0.000000 
#    z -0.019100 0.000000 1.819160 
# 
# From -- ./inp_files/55355.got.cif
#   From: 2010.06.25/outbox.cif.g09.slc.cpg/sg15_28_cif.got.tgz:55355.got - 2010.06.28 07:06:18.
