data_PCOD8146473
_publ_section_title
;
Structure prediction by ZEFSAII (Michael W. Deem and Ramdas Pophale) SiO2 
 PCOD8146473
Probable space group: C 2/C
;
_chemical_formula_sum "Si O2"
_cell_formula_units_Z 32
_cell_length_a 8.991103
_cell_length_b 9.201593
_cell_length_c 24.745704
_cell_angle_alpha 90.000000
_cell_angle_beta 144.518867
_cell_angle_gamma 90.000000
_cell_volume 1188.308713
_symmetry_space_group_name_H-M "C 2/C"
_symmetry_group_IT_number 15
_symmetry_cell_setting 'monoclinic'
loop_
_space_group_symop_operation_xyz
x,y,z
-x,y,1/2-z
-x,-y,-z
x,-y,1/2+z
1/2+x,1/2+y,z
1/2-x,1/2+y,1/2-z
1/2-x,1/2-y,-z
1/2+x,1/2-y,1/2+z
loop_
_atom_site_type_symbol
_atom_site_label
_atom_site_fract_x
_atom_site_fract_y
_atom_site_fract_z
Si Si1 0.948420 0.647057 0.028605
Si Si2 0.397353 0.071242 0.313058
Si Si3 0.469134 0.761655 0.149450
Si Si4 0.783455 0.174212 0.645548
O O1 0.054878 0.539181 0.107451
O O2 0.167826 0.750602 0.069283
O O3 0.750000 0.750000 0.000000
O O4 0.811259 0.572215 0.934284
O O5 0.593993 0.184955 0.346530
O O6 0.109749 0.129401 0.221515
O O7 0.432501 0.914871 0.295363
O O8 0.545294 0.760397 0.108718
O O9 0.000000 0.102635 0.750000
#
# Coordination Sequence:
#
# PCOD8146473 Si02
#       4
#     8   8   8   8
#     4  10  22  41  66 102 140 178 225 281 344 410
#     4  10  24  42  67 100 135 179 228 281 341 407
#     4  11  23  43  69 100 137 181 228 281 342 407
#     4   9  21  41  63  96 136 175 221 279 341 402
#
# _framework density 26.929029
#
# number of rings (size 3 to 8) (size 9 to 14) (size 15 to 20)
#    0.000    2.000    0.000    1.500    0.000   17.000 
#    0.000   17.500    0.000    0.000    0.000    0.000 
#    0.000    0.000    0.000    0.000    0.000    0.000 
#
# Total GULP energy -198323.500581 kJ/mol
# GULP energy per Si atom -12395.218786 kJ/mol
# Density = 2.686774 g / cm^3
# Si number density = 26.929029 Si / 1000 Ang^3
#
#
#
# Elastic Constant Matrix: (Units=GPa)
#
#
# Indices 1 2 3 4 5 6 
#
# 1 172.9474 6.1703 82.1631 0.0000 9.4195 0.0000
# 2 6.1703 88.9825 66.2879 0.0000 -8.7236 0.0000
# 3 82.1631 66.2879 189.4122 0.0000 -13.3003 0.0000
# 4 0.0000 0.0000 0.0000 47.2336 0.0000 -9.6099
# 5 9.4195 -8.7236 -13.3003 0.0000 58.4757 0.0000
# 6 0.0000 0.0000 0.0000 -9.6099 0.0000 16.9981
#
#
#
# Elastic Compliance Matrix: (Units=1/GPa)
#
#
# Indices 1 2 3 4 5 6 
#
# 1 0.007922 0.002602 -0.004481 0.000000 -0.001907 0.000000
# 2 0.002602 0.016122 -0.006739 0.000000 0.000453 0.000000
# 3 -0.004481 -0.006739 0.009717 0.000000 0.001927 0.000000
# 4 0.000000 0.000000 0.000000 0.023923 0.000000 0.013525
# 5 -0.001907 0.000453 0.001927 0.000000 0.017914 0.000000
# 6 0.000000 0.000000 0.000000 0.013525 0.000000 0.066476
#
#
# Mechanical properties :
#
#
# Convention : Reuss Voigt Hill
#
# Bulk Modulus (GPa) = 60.51462 84.50940 72.51201
# Shear Modulus (GPa) = 30.33626 44.32288 37.32957
#
# Velocity S-wave (km/s) = 3.36002 4.06139 3.72724
# Velocity P-wave (km/s) = 6.12973 7.31051 6.74601
#
# Compressibility (1/GPa) = 0.01652493
#
# Stress axis : x y z
#
# Youngs Moduli (GPa) = 126.23327 62.02527 102.91398
#
# Poissons Ratio (x) = -0.16137 0.46113
# Poissons Ratio (y) = -0.32842 0.69354
# Poissons Ratio (z) = 0.56562 0.41799
#
# Static dielectric constant tensor:
#      x y z
#    x 5.438220 0.000000 -0.457890 
#    y 0.000000 4.613190 0.000000 
#    z -0.457890 0.000000 5.699450 
# 
# 
# High freq. dielectric constant tensor:
#      x y z
#    x 2.118410 0.000000 -0.003890 
#    y 0.000000 2.087550 0.000000 
#    z -0.003890 0.000000 2.089420 
# 
# From -- ./inp_files/262941.got.cif
#   From: 2010.06.25/outbox.cif.g09.slc.cpg/sg15_132_cif.got.tgz:262941.got - 2010.06.28 07:06:18.
