data_PCOD8146695
_publ_section_title
;
Structure prediction by ZEFSAII (Michael W. Deem and Ramdas Pophale) SiO2 
 PCOD8146695
Probable space group: C 2/C
;
_chemical_formula_sum "Si O2"
_cell_formula_units_Z 44
_cell_length_a 20.455938
_cell_length_b 10.662469
_cell_length_c 10.345575
_cell_angle_alpha 90.000000
_cell_angle_beta 118.369736
_cell_angle_gamma 90.000000
_cell_volume 1985.477512
_symmetry_space_group_name_H-M "C 2/C"
_symmetry_group_IT_number 15
_symmetry_cell_setting 'monoclinic'
loop_
_space_group_symop_operation_xyz
x,y,z
-x,y,1/2-z
-x,-y,-z
x,-y,1/2+z
1/2+x,1/2+y,z
1/2-x,1/2+y,1/2-z
1/2-x,1/2-y,-z
1/2+x,1/2-y,1/2+z
loop_
_atom_site_type_symbol
_atom_site_label
_atom_site_fract_x
_atom_site_fract_y
_atom_site_fract_z
Si Si1 0.317225 0.263731 0.160653
Si Si2 0.443473 0.694578 0.426313
Si Si3 0.000000 0.636340 0.750000
Si Si4 0.647041 0.006352 0.390775
Si Si5 0.193927 0.634125 0.686105
Si Si6 0.055646 0.060693 0.698963
O O1 0.361895 0.133390 0.202637
O O2 0.275209 0.298347 0.256316
O O3 0.371839 0.376499 0.170193
O O4 0.250000 0.250000 0.000000
O O5 0.477344 0.775847 0.344871
O O6 0.372044 0.768010 0.415022
O O7 0.511222 0.675010 0.589100
O O8 0.417442 0.553743 0.364742
O O9 0.932850 0.546565 0.644914
O O10 0.690496 0.027612 0.568273
O O11 0.688089 0.912489 0.328489
O O12 0.000000 0.999180 0.750000
#
# Coordination Sequence:
#
# PCOD8146695 Si02
#       6
#     8   8   4   8   8   8
#     4  10  23  41  64  94 130 171 218 263 325 391
#     4  10  23  41  64  95 134 165 217 270 322 392
#     4  10  22  42  62 100 128 158 216 276 318 388
#     4  10  23  39  68  89 132 166 213 267 331 377
#     4  10  23  44  63  96 129 172 213 271 321 393
#     4  11  22  40  69  94 127 175 216 265 329 384
#
# _framework density 22.160914999999999
#
# number of rings (size 3 to 8) (size 9 to 14) (size 15 to 20)
#    0.000    1.818    0.909    2.182    8.909    1.455 
#    3.273    0.909    0.000    0.000    0.000    0.000 
#    0.000    0.000    0.000    0.000    0.000    0.000 
#
# Total GULP energy -272587.195263 kJ/mol
# GULP energy per Si atom -12390.327057 kJ/mol
# Density = 2.211048 g / cm^3
# Si number density = 22.160915 Si / 1000 Ang^3
#
#
#
# Elastic Constant Matrix: (Units=GPa)
#
#
# Indices 1 2 3 4 5 6 
#
# 1 97.9686 36.3140 7.3812 0.0000 3.0172 0.0000
# 2 36.3140 89.2541 14.9608 0.0000 12.6390 0.0000
# 3 7.3812 14.9608 61.0847 0.0000 0.2596 0.0000
# 4 0.0000 0.0000 0.0000 26.7791 0.0000 -5.3142
# 5 3.0172 12.6390 0.2596 0.0000 24.1552 0.0000
# 6 0.0000 0.0000 0.0000 -5.3142 0.0000 21.7149
#
#
#
# Elastic Compliance Matrix: (Units=1/GPa)
#
#
# Indices 1 2 3 4 5 6 
#
# 1 0.012052 -0.005024 -0.000231 0.000000 0.001126 0.000000
# 2 -0.005024 0.014746 -0.002974 0.000000 -0.007056 0.000000
# 3 -0.000231 -0.002974 0.017121 0.000000 0.001401 0.000000
# 4 0.000000 0.000000 0.000000 0.039249 0.000000 0.009605
# 5 0.001126 -0.007056 0.001401 0.000000 0.044935 0.000000
# 6 0.000000 0.000000 0.000000 0.009605 0.000000 0.048402
#
#
# Mechanical properties :
#
#
# Convention : Reuss Voigt Hill
#
# Bulk Modulus (GPa) = 36.41579 40.62438 38.52009
# Shear Modulus (GPa) = 24.73803 27.17327 25.95565
#
# Velocity S-wave (km/s) = 3.34472 3.50548 3.42604
# Velocity P-wave (km/s) = 5.60217 5.89541 5.75066
#
# Compressibility (1/GPa) = 0.02746061
#
# Stress axis : x y z
#
# Youngs Moduli (GPa) = 82.97057 67.81493 58.40738
#
# Poissons Ratio (x) = 0.34074 0.01347
# Poissons Ratio (y) = 0.41688 0.17373
# Poissons Ratio (z) = 0.01913 0.20171
#
# Static dielectric constant tensor:
#      x y z
#    x 4.678720 0.000000 -0.198480 
#    y 0.000000 4.312210 0.000000 
#    z -0.198480 0.000000 3.673980 
# 
# 
# High freq. dielectric constant tensor:
#      x y z
#    x 1.889820 0.000000 -0.013800 
#    y 0.000000 1.876510 0.000000 
#    z -0.013800 0.000000 1.844890 
# 
# From -- ./inp_files/110171.got.cif
#   From: 2010.06.25/outbox.cif.g09.slc.cpg/sg15_56_cif.got.tgz:110171.got - 2010.06.28 07:06:18.
