data_PCOD8146990
_publ_section_title
;
Structure prediction by ZEFSAII (Michael W. Deem and Ramdas Pophale) SiO2 
 PCOD8146990
Probable space group: C 2/C
;
_chemical_formula_sum "Si O2"
_cell_formula_units_Z 40
_cell_length_a 10.400401
_cell_length_b 9.946775
_cell_length_c 17.796933
_cell_angle_alpha 90.000000
_cell_angle_beta 95.624298
_cell_angle_gamma 90.000000
_cell_volume 1832.237511
_symmetry_space_group_name_H-M "C 2/C"
_symmetry_group_IT_number 15
_symmetry_cell_setting 'monoclinic'
loop_
_space_group_symop_operation_xyz
x,y,z
-x,y,1/2-z
-x,-y,-z
x,-y,1/2+z
1/2+x,1/2+y,z
1/2-x,1/2+y,1/2-z
1/2-x,1/2-y,-z
1/2+x,1/2-y,1/2+z
loop_
_atom_site_type_symbol
_atom_site_label
_atom_site_fract_x
_atom_site_fract_y
_atom_site_fract_z
Si Si1 0.121578 0.205233 0.716390
Si Si2 0.458549 0.672322 0.571845
Si Si3 0.610305 0.867929 0.316139
Si Si4 0.294685 0.131504 0.145449
Si Si5 0.499603 0.367568 0.594503
O O1 0.076794 0.233831 0.628114
O O2 0.255660 0.126030 0.723184
O O3 0.149730 0.337370 0.767919
O O4 0.000000 0.126258 0.750000
O O5 0.328210 0.751043 0.587790
O O6 0.434187 0.513975 0.586055
O O7 0.490620 0.698180 0.487147
O O8 0.500000 0.892226 0.250000
O O9 0.588693 0.730056 0.360204
O O10 0.629479 0.994369 0.373967
O O11 0.140660 0.114115 0.139084
#
# Coordination Sequence:
#
# PCOD8146990 Si02
#       5
#     8   8   8   8   8
#     4  10  22  42  68  92 132 173 213 271 329 386
#     4  10  23  45  65  96 138 177 210 272 337 386
#     4  12  24  42  70 102 128 173 231 272 326 393
#     4  11  23  45  66  97 135 172 221 273 327 392
#     4  11  24  43  68  98 134 175 220 269 329 397
#
# _framework density 21.831230000000001
#
# number of rings (size 3 to 8) (size 9 to 14) (size 15 to 20)
#    0.000    1.200    4.000    2.400    0.000    7.200 
#    7.200    0.000    0.000    0.000    0.000    0.000 
#    0.000    0.000    0.000    0.000    0.000    0.000 
#
# Total GULP energy -247825.706221 kJ/mol
# GULP energy per Si atom -12391.285311 kJ/mol
# Density = 2.178154 g / cm^3
# Si number density = 21.831230 Si / 1000 Ang^3
#
#
#
# Elastic Constant Matrix: (Units=GPa)
#
#
# Indices 1 2 3 4 5 6 
#
# 1 139.4157 47.2004 39.2796 0.0000 -10.6613 0.0000
# 2 47.2004 124.6530 29.1793 0.0000 -20.7489 0.0000
# 3 39.2796 29.1793 98.6898 0.0000 2.6913 0.0000
# 4 0.0000 0.0000 0.0000 27.5881 0.0000 -1.9453
# 5 -10.6613 -20.7489 2.6913 0.0000 27.0100 0.0000
# 6 0.0000 0.0000 0.0000 -1.9453 0.0000 27.8114
#
#
#
# Elastic Compliance Matrix: (Units=1/GPa)
#
#
# Indices 1 2 3 4 5 6 
#
# 1 0.008951 -0.002374 -0.002915 0.000000 0.002000 0.000000
# 2 -0.002374 0.010752 -0.002440 0.000000 0.007566 0.000000
# 3 -0.002915 -0.002440 0.012130 0.000000 -0.004234 0.000000
# 4 0.000000 0.000000 0.000000 0.036427 0.000000 0.002548
# 5 0.002000 0.007566 -0.004234 0.000000 0.044046 0.000000
# 6 0.000000 0.000000 0.000000 0.002548 0.000000 0.036135
#
#
# Mechanical properties :
#
#
# Convention : Reuss Voigt Hill
#
# Bulk Modulus (GPa) = 61.07412 66.00857 63.54134
# Shear Modulus (GPa) = 29.52329 32.95515 31.23922
#
# Velocity S-wave (km/s) = 3.68141 3.88950 3.78688
# Velocity P-wave (km/s) = 6.79019 7.10439 6.94907
#
# Compressibility (1/GPa) = 0.01637355
#
# Stress axis : x y z
#
# Youngs Moduli (GPa) = 111.72207 93.00810 82.44012
#
# Poissons Ratio (x) = 0.22080 0.24032
# Poissons Ratio (y) = 0.26523 0.20118
# Poissons Ratio (z) = 0.32568 0.22697
#
# Static dielectric constant tensor:
#      x y z
#    x 4.087590 0.000000 0.088360 
#    y 0.000000 3.978900 0.000000 
#    z 0.088360 0.000000 4.010330 
# 
# 
# High freq. dielectric constant tensor:
#      x y z
#    x 1.861650 0.000000 0.014400 
#    y 0.000000 1.851700 0.000000 
#    z 0.014400 0.000000 1.851900 
# 
# From -- ./inp_files/195149.got.cif
#   From: 2010.06.25/outbox.cif.g09.slc.cpg/sg15_98_cif.got.tgz:195149.got - 2010.06.28 07:06:18.
