data_PCOD8146426
_publ_section_title
;
Structure prediction by ZEFSAII (Michael W. Deem and Ramdas Pophale) SiO2 
 PCOD8146426
Probable space group: C 2/C
;
_chemical_formula_sum "Si O2"
_cell_formula_units_Z 56
_cell_length_a 31.137756
_cell_length_b 11.956178
_cell_length_c 15.185483
_cell_angle_alpha 90.000000
_cell_angle_beta 28.640796
_cell_angle_gamma 90.000000
_cell_volume 2709.761191
_symmetry_space_group_name_H-M "C 2/C"
_symmetry_group_IT_number 15
_symmetry_cell_setting 'monoclinic'
loop_
_space_group_symop_operation_xyz
x,y,z
-x,y,1/2-z
-x,-y,-z
x,-y,1/2+z
1/2+x,1/2+y,z
1/2-x,1/2+y,1/2-z
1/2-x,1/2-y,-z
1/2+x,1/2-y,1/2+z
loop_
_atom_site_type_symbol
_atom_site_label
_atom_site_fract_x
_atom_site_fract_y
_atom_site_fract_z
Si Si1 0.020130 0.829846 0.431266
Si Si2 0.372813 0.508155 0.161639
Si Si3 0.249018 0.881030 0.475399
Si Si4 0.276326 0.500677 0.159937
Si Si5 0.097597 0.799124 0.114143
Si Si6 0.944382 0.608272 0.585372
Si Si7 0.910052 0.429536 0.954434
O O1 0.095010 0.804162 0.224308
O O2 0.932620 0.881083 0.539200
O O3 0.990935 0.719885 0.539364
O O4 0.059525 0.911558 0.432658
O O5 0.301977 0.540782 0.364321
O O6 0.327318 0.459459 0.155623
O O7 0.250000 0.750000 0.500000
O O8 0.213784 0.910979 0.438805
O O9 0.351155 0.918117 0.299650
O O10 0.170913 0.515835 0.377868
O O11 0.320259 0.620207 0.059955
O O12 0.125196 0.672075 0.042218
O O13 0.000000 0.832863 0.250000
O O14 0.938182 0.633124 0.492908
O O15 0.000000 0.500000 0.500000
O O16 0.000000 0.487439 0.750000
#
# Coordination Sequence:
#
# PCOD8146426 Si02
#       7
#     8   8   8   8   8   8   8
#     4  11  21  41  67 100 131 172 227 272 339 395
#     4  11  23  40  70 100 130 174 227 287 322 398
#     4  11  24  43  66  96 136 181 219 272 343 403
#     4  11  24  40  65 104 129 171 230 274 333 399
#     4  11  19  40  71  92 128 175 223 274 326 401
#     4  11  23  41  63  93 131 173 212 267 337 405
#     4  10  22  41  65  90 124 176 217 265 334 401
#
# _framework density 20.666028000000001
#
# number of rings (size 3 to 8) (size 9 to 14) (size 15 to 20)
#    0.000    1.143    7.143    0.000    4.000    0.000 
#    5.143    1.429    0.000    0.857    0.000    0.000 
#    0.000    0.000    0.000    0.000    0.000    0.000 
#
# Total GULP energy -346923.309107 kJ/mol
# GULP energy per Si atom -12390.118182 kJ/mol
# Density = 2.061899 g / cm^3
# Si number density = 20.666028 Si / 1000 Ang^3
#
#
#
# Elastic Constant Matrix: (Units=GPa)
#
#
# Indices 1 2 3 4 5 6 
#
# 1 90.6390 40.8515 38.0834 0.0000 4.3059 0.0000
# 2 40.8515 108.3641 53.3568 0.0000 -15.5846 0.0000
# 3 38.0834 53.3568 150.5491 0.0000 -5.3996 0.0000
# 4 0.0000 0.0000 0.0000 39.4414 0.0000 -1.2611
# 5 4.3059 -15.5846 -5.3996 0.0000 30.1999 0.0000
# 6 0.0000 0.0000 0.0000 -1.2611 0.0000 19.9007
#
#
#
# Elastic Compliance Matrix: (Units=1/GPa)
#
#
# Indices 1 2 3 4 5 6 
#
# 1 0.014458 -0.005201 -0.001997 0.000000 -0.005103 0.000000
# 2 -0.005201 0.013887 -0.003344 0.000000 0.007310 0.000000
# 3 -0.001997 -0.003344 0.008334 0.000000 0.000049 0.000000
# 4 0.000000 0.000000 0.000000 0.025406 0.000000 0.001610
# 5 -0.005103 0.007310 0.000049 0.000000 0.037621 0.000000
# 6 0.000000 0.000000 0.000000 0.001610 0.000000 0.050352
#
#
# Mechanical properties :
#
#
# Convention : Reuss Voigt Hill
#
# Bulk Modulus (GPa) = 64.12105 68.23729 66.17917
# Shear Modulus (GPa) = 28.35426 32.39243 30.37334
#
# Velocity S-wave (km/s) = 3.70810 3.96337 3.83786
# Velocity P-wave (km/s) = 7.03050 7.35086 7.19246
#
# Compressibility (1/GPa) = 0.01559550
#
# Stress axis : x y z
#
# Youngs Moduli (GPa) = 69.16363 72.01200 119.98475
#
# Poissons Ratio (x) = 0.37454 0.23962
# Poissons Ratio (y) = 0.35973 0.40120
# Poissons Ratio (z) = 0.13813 0.24079
#
# Static dielectric constant tensor:
#      x y z
#    x 3.588820 0.000000 -0.167710 
#    y 0.000000 3.082140 0.000000 
#    z -0.167710 0.000000 3.566960 
# 
# 
# High freq. dielectric constant tensor:
#      x y z
#    x 1.795090 0.000000 0.009180 
#    y 0.000000 1.791140 0.000000 
#    z 0.009180 0.000000 1.828660 
# 
# From -- ./inp_files/181909.got.cif
#   From: 2010.06.25/outbox.cif.g09.slc.cpg/sg15_91_cif.got.tgz:181909.got - 2010.06.28 07:06:18.
