data_PCOD8146355
_publ_section_title
;
Structure prediction by ZEFSAII (Michael W. Deem and Ramdas Pophale) SiO2 
 PCOD8146355
Probable space group: C 2/C
;
_chemical_formula_sum "Si O2"
_cell_formula_units_Z 48
_cell_length_a 14.148727
_cell_length_b 14.967202
_cell_length_c 11.829877
_cell_angle_alpha 90.000000
_cell_angle_beta 119.695761
_cell_angle_gamma 90.000000
_cell_volume 2176.166515
_symmetry_space_group_name_H-M "C 2/C"
_symmetry_group_IT_number 15
_symmetry_cell_setting 'monoclinic'
loop_
_space_group_symop_operation_xyz
x,y,z
-x,y,1/2-z
-x,-y,-z
x,-y,1/2+z
1/2+x,1/2+y,z
1/2-x,1/2+y,1/2-z
1/2-x,1/2-y,-z
1/2+x,1/2-y,1/2+z
loop_
_atom_site_type_symbol
_atom_site_label
_atom_site_fract_x
_atom_site_fract_y
_atom_site_fract_z
Si Si1 0.672852 0.817638 0.636306
Si Si2 0.116847 0.075512 0.796907
Si Si3 0.647525 0.227950 0.366170
Si Si4 0.260578 0.874330 0.195847
Si Si5 0.061523 0.380182 0.010444
Si Si6 0.698597 0.031471 0.005468
O O1 0.679058 0.830548 0.774612
O O2 0.707021 0.717907 0.618339
O O3 0.557112 0.852531 0.514106
O O4 0.747444 0.891593 0.618123
O O5 0.094147 0.180524 0.794551
O O6 0.167417 0.063809 0.700127
O O7 0.000000 0.027361 0.750000
O O8 0.205170 0.042385 0.941449
O O9 0.750000 0.250000 0.500000
O O10 0.563842 0.174901 0.394389
O O11 0.350633 0.849112 0.343881
O O12 0.318250 0.929088 0.129906
O O13 0.087639 0.483653 0.988630
#
# Coordination Sequence:
#
# PCOD8146355 Si02
#       6
#     8   8   8   8   8   8
#     4  11  23  42  64  92 130 170 213 258 329 382
#     4  10  22  41  63  93 122 159 215 266 317 376
#     4  11  19  40  67  89 120 162 211 270 307 371
#     4  10  23  44  63  92 133 165 212 265 319 393
#     4  11  23  41  68  95 122 170 217 269 312 378
#     4  11  24  40  62  95 135 165 208 266 324 385
#
# _framework density 22.057136
#
# number of rings (size 3 to 8) (size 9 to 14) (size 15 to 20)
#    0.000    1.333    5.000    3.500    4.667    1.333 
#    6.000    0.000    0.000    0.000    0.000    0.000 
#    0.000    0.000    0.000    0.000    0.000    0.000 
#
# Total GULP energy -297342.347765 kJ/mol
# GULP energy per Si atom -12389.264490 kJ/mol
# Density = 2.200693 g / cm^3
# Si number density = 22.057136 Si / 1000 Ang^3
#
#
#
# Elastic Constant Matrix: (Units=GPa)
#
#
# Indices 1 2 3 4 5 6 
#
# 1 59.7239 25.4622 39.4897 0.0000 0.1716 0.0000
# 2 25.4622 98.5210 34.5912 0.0000 -16.1269 0.0000
# 3 39.4897 34.5912 92.9774 0.0000 -15.2319 0.0000
# 4 0.0000 0.0000 0.0000 30.1648 0.0000 -15.8932
# 5 0.1716 -16.1269 -15.2319 0.0000 33.4582 0.0000
# 6 0.0000 0.0000 0.0000 -15.8932 0.0000 18.0496
#
#
#
# Elastic Compliance Matrix: (Units=1/GPa)
#
#
# Indices 1 2 3 4 5 6 
#
# 1 0.025339 -0.004016 -0.010381 0.000000 -0.006791 0.000000
# 2 -0.004016 0.012814 -0.002211 0.000000 0.005190 0.000000
# 3 -0.010381 -0.002211 0.017096 0.000000 0.006770 0.000000
# 4 0.000000 0.000000 0.000000 0.061842 0.000000 0.054453
# 5 -0.006791 0.005190 0.006770 0.000000 0.035507 0.000000
# 6 0.000000 0.000000 0.000000 0.054453 0.000000 0.103350
#
#
# Mechanical properties :
#
#
# Convention : Reuss Voigt Hill
#
# Bulk Modulus (GPa) = 45.38553 50.03427 47.70990
# Shear Modulus (GPa) = 16.86297 26.44647 21.65472
#
# Velocity S-wave (km/s) = 2.76798 3.46641 3.13670
# Velocity P-wave (km/s) = 5.55308 6.22531 5.89878
#
# Compressibility (1/GPa) = 0.02203345
#
# Stress axis : x y z
#
# Youngs Moduli (GPa) = 39.46491 78.03973 58.49287
#
# Poissons Ratio (x) = 0.31338 0.60719
# Poissons Ratio (y) = 0.15848 0.12936
# Poissons Ratio (z) = 0.40967 0.17258
#
# Static dielectric constant tensor:
#      x y z
#    x 4.234990 0.000000 -0.291930 
#    y 0.000000 4.559220 0.000000 
#    z -0.291930 0.000000 3.843530 
# 
# 
# High freq. dielectric constant tensor:
#      x y z
#    x 1.868030 0.000000 -0.007160 
#    y 0.000000 1.868000 0.000000 
#    z -0.007160 0.000000 1.851530 
# 
# From -- ./inp_files/97206.got.cif
#   From: 2010.06.25/outbox.cif.g09.slc.cpg/sg15_49_cif.got.tgz:97206.got - 2010.06.28 07:06:18.
