data_PCOD8146000
_publ_section_title
;
Structure prediction by ZEFSAII (Michael W. Deem and Ramdas Pophale) SiO2 
 PCOD8146000
Probable space group: C 2/C
;
_chemical_formula_sum "Si O2"
_cell_formula_units_Z 64
_cell_length_a 16.350340
_cell_length_b 23.939863
_cell_length_c 13.567377
_cell_angle_alpha 90.000000
_cell_angle_beta 33.001711
_cell_angle_gamma 90.000000
_cell_volume 2892.498061
_symmetry_space_group_name_H-M "C 2/C"
_symmetry_group_IT_number 15
_symmetry_cell_setting 'monoclinic'
loop_
_space_group_symop_operation_xyz
x,y,z
-x,y,1/2-z
-x,-y,-z
x,-y,1/2+z
1/2+x,1/2+y,z
1/2-x,1/2+y,1/2-z
1/2-x,1/2-y,-z
1/2+x,1/2-y,1/2+z
loop_
_atom_site_type_symbol
_atom_site_label
_atom_site_fract_x
_atom_site_fract_y
_atom_site_fract_z
Si Si1 0.819110 0.449869 0.826292
Si Si2 0.880128 0.875331 0.797480
Si Si3 0.363327 0.393164 0.325967
Si Si4 0.050901 0.938238 0.961831
Si Si5 0.410817 0.185313 0.650288
Si Si6 0.204335 0.270089 0.938366
Si Si7 0.052658 0.350462 0.596755
Si Si8 0.860504 0.576527 0.822597
O O1 0.721799 0.433628 0.828517
O O2 0.868364 0.514494 0.768757
O O3 0.967303 0.410838 0.680144
O O4 0.713214 0.441674 0.029548
O O5 0.965457 0.909394 0.627142
O O6 0.782654 0.829359 0.840019
O O7 0.000000 0.846282 0.750000
O O8 0.784852 0.917292 0.961950
O O9 0.500000 0.364598 0.250000
O O10 0.232231 0.351717 0.426085
O O11 0.428358 0.413918 0.158488
O O12 0.000000 0.000000 0.000000
O O13 0.260555 0.223244 0.804165
O O14 0.527728 0.218273 0.602663
O O15 0.481064 0.183160 0.469221
O O16 0.368031 0.122859 0.728462
O O17 0.250000 0.250000 0.000000
O O18 0.000000 0.318555 0.750000
O O19 0.000000 0.588495 0.750000
#
# Coordination Sequence:
#
# PCOD8146000 Si02
#       8
#     8   8   8   8   8   8   8   8
#     4  10  22  40  64  95 137 180 222 275 333 395
#     4  12  25  40  64  96 135 178 225 268 329 393
#     4   9  20  40  63  89 132 181 216 266 336 393
#     4  11  23  38  58  94 137 178 224 269 323 403
#     4  12  26  44  72  95 132 176 225 276 348 396
#     4  12  24  47  66  98 132 174 220 285 338 398
#     4  10  23  45  69 101 133 176 225 280 335 402
#     4  12  23  41  63  99 133 176 223 271 329 407
#
# _framework density 22.126203
#
# number of rings (size 3 to 8) (size 9 to 14) (size 15 to 20)
#    0.000    1.000    2.500    4.500    3.500    1.500 
#    0.000    0.625    0.000    2.250    0.000    0.000 
#    0.000    0.000    0.000    0.000    0.000    0.000 
#
# Total GULP energy -396684.051314 kJ/mol
# GULP energy per Si atom -12396.376604 kJ/mol
# Density = 2.207584 g / cm^3
# Si number density = 22.126203 Si / 1000 Ang^3
#
#
#
# Elastic Constant Matrix: (Units=GPa)
#
#
# Indices 1 2 3 4 5 6 
#
# 1 107.1395 14.4135 47.8961 0.0129 9.5397 -0.0334
# 2 14.4135 69.6954 21.9793 -0.0029 13.6656 -0.0357
# 3 47.8961 21.9793 113.7667 -0.0127 12.7450 -0.0417
# 4 0.0129 -0.0029 -0.0127 10.8992 -0.0277 -15.3424
# 5 9.5397 13.6656 12.7450 -0.0277 53.1701 0.0254
# 6 -0.0334 -0.0357 -0.0417 -15.3424 0.0254 16.9575
#
#
#
# Elastic Compliance Matrix: (Units=1/GPa)
#
#
# Indices 1 2 3 4 5 6 
#
# 1 0.011581 -0.000782 -0.004639 0.000022 -0.000765 0.000031
# 2 -0.000782 0.015920 -0.002367 -0.000138 -0.003384 -0.000094
# 3 -0.004639 -0.002367 0.011343 -0.000135 -0.001278 -0.000106
# 4 0.000022 -0.000138 -0.000135 -0.335349 0.000034 -0.303410
# 5 -0.000765 -0.003384 -0.001278 0.000034 0.020121 -0.000012
# 6 0.000031 -0.000094 -0.000106 -0.303410 -0.000012 -0.215541
#
#
# Mechanical properties :
#
#
# Convention : Reuss Voigt Hill
#
# Bulk Modulus (GPa) = 42.97819 51.01992 46.99906
# Shear Modulus (GPa) = -10.67024 29.95954 9.64465
#
# Velocity S-wave (km/s) = -2.19839 3.68371 2.09007
# Velocity P-wave (km/s) = 3.60866 6.41885 5.20692
#
# Compressibility (1/GPa) = 0.02326762
#
# Stress axis : x y z
#
# Youngs Moduli (GPa) = 86.35092 62.81438 88.15746
#
# Poissons Ratio (x) = 0.04913 0.40894
# Poissons Ratio (y) = 0.06754 0.20870
# Poissons Ratio (z) = 0.40056 0.14870
#
# Static dielectric constant tensor:
#      x y z
#    x 6.169300 -0.003780 -1.112600 
#    y -0.003780 4.278180 0.002230 
#    z -1.112600 0.002230 4.608150 
# 
# 
# High freq. dielectric constant tensor:
#      x y z
#    x 1.882350 0.000000 -0.006300 
#    y 0.000000 1.840680 0.000010 
#    z -0.006300 0.000010 1.883480 
# 
# From -- ./inp_files/164207.got.cif
#   From: 2010.06.25/outbox.cif.g09.slc.cpg/sg15_83_cif.got.tgz:164207.got - 2010.06.28 07:06:18.
