data_PCOD8146238
_publ_section_title
;
Structure prediction by ZEFSAII (Michael W. Deem and Ramdas Pophale) SiO2 
 PCOD8146238
Probable space group: C 2/C
;
_chemical_formula_sum "Si O2"
_cell_formula_units_Z 44
_cell_length_a 25.334162
_cell_length_b 5.112054
_cell_length_c 14.477933
_cell_angle_alpha 90.000000
_cell_angle_beta 65.233849
_cell_angle_gamma 90.000000
_cell_volume 1702.575592
_symmetry_space_group_name_H-M "C 2/C"
_symmetry_group_IT_number 15
_symmetry_cell_setting 'monoclinic'
loop_
_space_group_symop_operation_xyz
x,y,z
-x,y,1/2-z
-x,-y,-z
x,-y,1/2+z
1/2+x,1/2+y,z
1/2-x,1/2+y,1/2-z
1/2-x,1/2-y,-z
1/2+x,1/2-y,1/2+z
loop_
_atom_site_type_symbol
_atom_site_label
_atom_site_fract_x
_atom_site_fract_y
_atom_site_fract_z
Si Si1 0.703087 0.474693 0.375356
Si Si2 0.131066 0.477099 0.473546
Si Si3 0.922734 0.453769 0.170239
Si Si4 0.690272 0.649494 0.189351
Si Si5 0.105638 0.829487 0.162316
Si Si6 0.500000 0.321930 0.750000
O O1 0.683316 0.766091 0.418828
O O2 0.714273 0.468269 0.255919
O O3 0.764081 0.373834 0.375197
O O4 0.654457 0.269988 0.445152
O O5 0.076596 0.453836 0.441979
O O6 0.107243 0.424332 0.594036
O O7 0.869450 0.269848 0.233565
O O8 0.909439 0.739650 0.222085
O O9 0.981438 0.349655 0.174637
O O10 0.669686 0.469843 0.117117
O O11 0.053332 0.014492 0.168129
#
# Coordination Sequence:
#
# PCOD8146238 Si02
#       6
#     8   8   8   8   8   4
#     4  11  23  42  66 106 136 188 218 270 333 405
#     4  11  26  42  70 102 143 172 231 273 339 402
#     4  10  22  45  66  96 134 181 220 286 341 404
#     4  10  22  40  70  93 144 181 225 265 340 400
#     4  11  24  44  68 100 131 180 229 288 334 411
#     4  10  24  44  70  94 128 176 234 280 360 396
#
# _framework density 25.843201000000001
#
# number of rings (size 3 to 8) (size 9 to 14) (size 15 to 20)
#    0.000    1.455    1.818    2.727    7.636    2.182 
#    0.000    3.636    0.000    0.000    0.000    0.000 
#    0.000    0.000    0.000    0.000    0.000    0.000 
#
# Total GULP energy -272681.644541 kJ/mol
# GULP energy per Si atom -12394.620206 kJ/mol
# Density = 2.578438 g / cm^3
# Si number density = 25.843201 Si / 1000 Ang^3
#
#
#
# Elastic Constant Matrix: (Units=GPa)
#
#
# Indices 1 2 3 4 5 6 
#
# 1 110.5112 14.5318 12.5828 -0.0001 17.8374 0.0001
# 2 14.5318 68.3197 -6.3118 0.0009 2.8359 0.0007
# 3 12.5828 -6.3118 49.6145 -0.0002 16.6321 -0.0001
# 4 -0.0001 0.0009 -0.0002 30.5731 0.0000 10.8169
# 5 17.8374 2.8359 16.6321 0.0000 25.9318 -0.0001
# 6 0.0001 0.0007 -0.0001 10.8169 -0.0001 9.7593
#
#
#
# Elastic Compliance Matrix: (Units=1/GPa)
#
#
# Indices 1 2 3 4 5 6 
#
# 1 0.010446 -0.002019 -0.000728 0.000000 -0.006498 0.000000
# 2 -0.002019 0.015471 0.003289 0.000000 -0.002412 -0.000001
# 3 -0.000728 0.003289 0.026384 0.000000 -0.016781 0.000000
# 4 0.000000 0.000000 0.000000 0.053810 0.000000 -0.059641
# 5 -0.006498 -0.002412 -0.016781 0.000000 0.054059 0.000001
# 6 0.000000 -0.000001 0.000000 -0.059641 0.000001 0.168571
#
#
# Mechanical properties :
#
#
# Convention : Reuss Voigt Hill
#
# Bulk Modulus (GPa) = 18.73240 30.00567 24.36903
# Shear Modulus (GPa) = 14.47380 27.09568 20.78474
#
# Velocity S-wave (km/s) = 2.36913 3.24151 2.83903
# Velocity P-wave (km/s) = 3.84030 5.06416 4.49409
#
# Compressibility (1/GPa) = 0.05338345
#
# Stress axis : x y z
#
# Youngs Moduli (GPa) = 95.72973 64.63878 37.90203
#
# Poissons Ratio (x) = 0.13054 0.02759
# Poissons Ratio (y) = 0.19332 -0.12466
# Poissons Ratio (z) = 0.06969 -0.21259
#
# Static dielectric constant tensor:
#      x y z
#    x 5.080460 0.000000 0.727430 
#    y 0.000000 4.779410 0.000000 
#    z 0.727430 0.000000 4.613940 
# 
# 
# High freq. dielectric constant tensor:
#      x y z
#    x 2.038760 0.000000 0.021590 
#    y 0.000000 2.041290 0.000000 
#    z 0.021590 0.000000 2.003620 
# 
# From -- ./inp_files/170823.got.cif
#   From: 2010.06.25/outbox.cif.g09.slc.cpg/sg15_86_cif.got.tgz:170823.got - 2010.06.28 07:06:18.
