data_PCOD8147588
_publ_section_title
;
Structure prediction by ZEFSAII (Michael W. Deem and Ramdas Pophale) SiO2 
 PCOD8147588
Probable space group: C 2/C
;
_chemical_formula_sum "Si O2"
_cell_formula_units_Z 36
_cell_length_a 9.150935
_cell_length_b 23.454693
_cell_length_c 9.024030
_cell_angle_alpha 90.000000
_cell_angle_beta 61.194869
_cell_angle_gamma 90.000000
_cell_volume 1697.190111
_symmetry_space_group_name_H-M "C 2/C"
_symmetry_group_IT_number 15
_symmetry_cell_setting 'monoclinic'
loop_
_space_group_symop_operation_xyz
x,y,z
-x,y,1/2-z
-x,-y,-z
x,-y,1/2+z
1/2+x,1/2+y,z
1/2-x,1/2+y,1/2-z
1/2-x,1/2-y,-z
1/2+x,1/2-y,1/2+z
loop_
_atom_site_type_symbol
_atom_site_label
_atom_site_fract_x
_atom_site_fract_y
_atom_site_fract_z
Si Si1 0.516062 0.284961 0.009857
Si Si2 0.285324 0.050888 0.214637
Si Si3 0.830147 0.562811 0.532866
Si Si4 0.263242 0.187127 0.628929
Si Si5 0.000000 0.132428 0.250000
O O1 0.558378 0.219507 0.941365
O O2 0.464922 0.326314 0.903609
O O3 0.360757 0.283467 0.195142
O O4 0.687529 0.306840 0.000742
O O5 0.253474 0.055191 0.406198
O O6 0.471626 0.066290 0.076544
O O7 0.161530 0.093250 0.191550
O O8 0.255980 0.986403 0.173751
O O9 0.777977 0.619774 0.645529
#
# Coordination Sequence:
#
# PCOD8147588 Si02
#       5
#     8   8   8   8   4
#     4  10  24  40  67  98 129 176 226 267 339 387
#     4  10  24  40  68  96 136 173 226 273 337 394
#     4  10  22  45  66  95 131 185 220 269 335 407
#     4  10  22  44  67  91 133 182 222 267 329 412
#     4  12  24  42  62 108 134 168 222 294 322 398
#
# _framework density 21.211531000000001
#
# number of rings (size 3 to 8) (size 9 to 14) (size 15 to 20)
#    0.000    1.778    2.222    0.000    6.222    5.333 
#    0.000    0.000    0.000    0.000    0.000    0.000 
#    0.000    0.000    0.000    0.000    0.000    0.000 
#
# Total GULP energy -223178.422253 kJ/mol
# GULP energy per Si atom -12398.801236 kJ/mol
# Density = 2.116325 g / cm^3
# Si number density = 21.211531 Si / 1000 Ang^3
#
#
#
# Elastic Constant Matrix: (Units=GPa)
#
#
# Indices 1 2 3 4 5 6 
#
# 1 87.4906 56.4842 46.2719 0.0000 19.2162 0.0000
# 2 56.4842 176.6045 71.6227 0.0000 8.3135 0.0000
# 3 46.2719 71.6227 100.6088 0.0000 -2.2241 0.0000
# 4 0.0000 0.0000 0.0000 33.9438 0.0000 3.9297
# 5 19.2162 8.3135 -2.2241 0.0000 17.6633 0.0000
# 6 0.0000 0.0000 0.0000 3.9297 0.0000 37.5606
#
#
#
# Elastic Compliance Matrix: (Units=1/GPa)
#
#
# Indices 1 2 3 4 5 6 
#
# 1 0.023969 -0.002430 -0.009873 0.000000 -0.026176 0.000000
# 2 -0.002430 0.008576 -0.005032 0.000000 -0.002026 0.000000
# 3 -0.009873 -0.005032 0.018404 0.000000 0.015426 0.000000
# 4 0.000000 0.000000 0.000000 0.029822 0.000000 -0.003120
# 5 -0.026176 -0.002026 0.015426 0.000000 0.087988 0.000000
# 6 0.000000 0.000000 0.000000 -0.003120 0.000000 0.026950
#
#
# Mechanical properties :
#
#
# Convention : Reuss Voigt Hill
#
# Bulk Modulus (GPa) = 61.42974 79.27353 70.35164
# Shear Modulus (GPa) = 21.20399 30.52187 25.86293
#
# Velocity S-wave (km/s) = 3.16515 3.79744 3.49562
# Velocity P-wave (km/s) = 6.51006 7.52870 7.03784
#
# Compressibility (1/GPa) = 0.01627876
#
# Stress axis : x y z
#
# Youngs Moduli (GPa) = 41.71997 116.60696 54.33748
#
# Poissons Ratio (x) = 0.28337 0.53645
# Poissons Ratio (y) = 0.10139 0.27344
# Poissons Ratio (z) = 0.41189 0.58679
#
# Static dielectric constant tensor:
#      x y z
#    x 3.863360 0.000000 0.228150 
#    y 0.000000 3.998530 0.000000 
#    z 0.228150 0.000000 3.657550 
# 
# 
# High freq. dielectric constant tensor:
#      x y z
#    x 1.824570 0.000000 0.002640 
#    y 0.000000 1.846240 0.000000 
#    z 0.002640 0.000000 1.826390 
# 
# From -- ./inp_files/23307.got.cif
#   From: 2010.06.25/outbox.cif.g09.slc.cpg/sg15_12_cif.got.tgz:23307.got - 2010.06.28 07:06:18.
