data_PCOD8147974
_publ_section_title
;
Structure prediction by ZEFSAII (Michael W. Deem and Ramdas Pophale) SiO2 
 PCOD8147974
Probable space group: C 2/C
;
_chemical_formula_sum "Si O2"
_cell_formula_units_Z 32
_cell_length_a 7.895766
_cell_length_b 21.391390
_cell_length_c 12.143900
_cell_angle_alpha 90.000000
_cell_angle_beta 136.303631
_cell_angle_gamma 90.000000
_cell_volume 1416.990018
_symmetry_space_group_name_H-M "C 2/C"
_symmetry_group_IT_number 15
_symmetry_cell_setting 'monoclinic'
loop_
_space_group_symop_operation_xyz
x,y,z
-x,y,1/2-z
-x,-y,-z
x,-y,1/2+z
1/2+x,1/2+y,z
1/2-x,1/2+y,1/2-z
1/2-x,1/2-y,-z
1/2+x,1/2-y,1/2+z
loop_
_atom_site_type_symbol
_atom_site_label
_atom_site_fract_x
_atom_site_fract_y
_atom_site_fract_z
Si Si1 0.479521 0.791279 0.505504
Si Si2 0.000000 0.136255 0.750000
Si Si3 0.000000 0.353501 0.750000
Si Si4 0.245352 0.677615 0.925843
Si Si5 0.463659 0.571946 0.507842
O O1 0.231487 0.818478 0.333835
O O2 0.483342 0.808705 0.635497
O O3 0.511582 0.715679 0.506297
O O4 0.711271 0.815403 0.541869
O O5 0.941646 0.087787 0.625848
O O6 0.774395 0.400363 0.664113
O O7 0.293582 0.605133 0.925801
O O8 0.000000 0.701586 0.750000
O O9 0.500000 0.500000 0.500000
#
# Coordination Sequence:
#
# PCOD8147974 Si02
#       5
#     8   4   4   8   8
#     4  10  24  43  70  99 132 169 216 276 339 381
#     4  10  22  47  68  98 132 173 218 278 322 393
#     4  10  26  43  68 102 132 171 222 276 324 393
#     4  11  24  43  68  98 134 172 219 272 330 395
#     4  11  26  43  67  95 134 179 220 266 324 390
#
# _framework density 22.583082999999998
#
# number of rings (size 3 to 8) (size 9 to 14) (size 15 to 20)
#    0.000    1.500    2.500    0.000    8.750    8.000 
#    0.000    5.000    0.000    0.000    0.000    0.000 
#    0.000    0.000    0.000    0.000    0.000    0.000 
#
# Total GULP energy -198340.961056 kJ/mol
# GULP energy per Si atom -12396.310066 kJ/mol
# Density = 2.253168 g / cm^3
# Si number density = 22.583083 Si / 1000 Ang^3
#
#
#
# Elastic Constant Matrix: (Units=GPa)
#
#
# Indices 1 2 3 4 5 6 
#
# 1 124.9459 56.1365 21.7457 0.0000 -4.3442 0.0000
# 2 56.1365 173.9574 35.1640 0.0000 10.6862 0.0000
# 3 21.7457 35.1640 69.6671 0.0000 8.1878 0.0000
# 4 0.0000 0.0000 0.0000 17.6620 0.0000 4.2038
# 5 -4.3442 10.6862 8.1878 0.0000 28.8982 0.0000
# 6 0.0000 0.0000 0.0000 4.2038 0.0000 38.3196
#
#
#
# Elastic Compliance Matrix: (Units=1/GPa)
#
#
# Indices 1 2 3 4 5 6 
#
# 1 0.009775 -0.002956 -0.001924 0.000000 0.003108 0.000000
# 2 -0.002956 0.007359 -0.002503 0.000000 -0.002457 0.000000
# 3 -0.001924 -0.002503 0.016699 0.000000 -0.004095 0.000000
# 4 0.000000 0.000000 0.000000 0.058137 0.000000 -0.006378
# 5 0.003108 -0.002457 -0.004095 0.000000 0.037140 0.000000
# 6 0.000000 0.000000 0.000000 -0.006378 0.000000 0.026796
#
#
# Mechanical properties :
#
#
# Convention : Reuss Voigt Hill
#
# Bulk Modulus (GPa) = 52.44860 66.07365 59.26112
# Shear Modulus (GPa) = 28.24405 34.01092 31.12748
#
# Velocity S-wave (km/s) = 3.54032 3.88498 3.71665
# Velocity P-wave (km/s) = 6.32353 7.03176 6.68702
#
# Compressibility (1/GPa) = 0.01906629
#
# Stress axis : x y z
#
# Youngs Moduli (GPa) = 102.30609 135.88022 59.88282
#
# Poissons Ratio (x) = 0.40170 0.11522
# Poissons Ratio (y) = 0.30244 0.14990
# Poissons Ratio (z) = 0.19685 0.34013
#
# Static dielectric constant tensor:
#      x y z
#    x 4.287230 0.000000 0.091460 
#    y 0.000000 3.810150 0.000000 
#    z 0.091460 0.000000 4.169850 
# 
# 
# High freq. dielectric constant tensor:
#      x y z
#    x 1.912410 0.000000 0.000570 
#    y 0.000000 1.870370 0.000000 
#    z 0.000570 0.000000 1.894750 
# 
# From -- ./inp_files/135705.got.cif
#   From: 2010.06.25/outbox.cif.g09.slc.cpg/sg15_68_cif.got.tgz:135705.got - 2010.06.28 07:06:18.
