data_PCOD8147731
_publ_section_title
;
Structure prediction by ZEFSAII (Michael W. Deem and Ramdas Pophale) SiO2 
 PCOD8147731
Probable space group: C 2/C
;
_chemical_formula_sum "Si O2"
_cell_formula_units_Z 52
_cell_length_a 18.095576
_cell_length_b 17.148671
_cell_length_c 9.532872
_cell_angle_alpha 90.000000
_cell_angle_beta 54.386889
_cell_angle_gamma 90.000000
_cell_volume 2404.915621
_symmetry_space_group_name_H-M "C 2/C"
_symmetry_group_IT_number 15
_symmetry_cell_setting 'monoclinic'
loop_
_space_group_symop_operation_xyz
x,y,z
-x,y,1/2-z
-x,-y,-z
x,-y,1/2+z
1/2+x,1/2+y,z
1/2-x,1/2+y,1/2-z
1/2-x,1/2-y,-z
1/2+x,1/2-y,1/2+z
loop_
_atom_site_type_symbol
_atom_site_label
_atom_site_fract_x
_atom_site_fract_y
_atom_site_fract_z
Si Si1 0.249474 0.941397 0.157829
Si Si2 0.464485 0.067747 0.440705
Si Si3 0.847024 0.800959 0.752033
Si Si4 0.500000 0.639707 0.750000
Si Si5 0.968868 0.259890 0.554524
Si Si6 0.809407 0.190881 0.590056
Si Si7 0.823275 0.925534 0.565044
O O1 0.192853 0.869819 0.281585
O O2 0.200453 0.013715 0.286512
O O3 0.355674 0.932667 0.072746
O O4 0.239212 0.942141 0.000634
O O5 0.500000 0.043645 0.250000
O O6 0.506900 0.152095 0.429482
O O7 0.500000 0.000000 0.500000
O O8 0.791571 0.721376 0.826409
O O9 0.804260 0.843742 0.663744
O O10 0.951178 0.779251 0.621209
O O11 0.839539 0.848343 0.908021
O O12 0.448312 0.700647 0.705279
O O13 0.570746 0.579971 0.597821
O O14 0.879231 0.260137 0.555925
#
# Coordination Sequence:
#
# PCOD8147731 Si02
#       7
#     8   8   8   4   8   8   8
#     4  12  25  46  68 102 139 186 231 291 352 419
#     4  12  28  46  69 102 143 186 234 289 351 418
#     4  10  24  42  66 102 136 179 239 288 343 419
#     4  10  22  44  72 106 132 182 236 292 340 416
#     4  11  22  44  71 102 137 182 237 290 346 414
#     4  11  23  42  70  99 137 187 230 290 351 412
#     4  11  25  44  71 101 141 184 235 288 354 417
#
# _framework density 21.622382000000002
#
# number of rings (size 3 to 8) (size 9 to 14) (size 15 to 20)
#    0.000    0.923    3.846    2.308    4.308    2.462 
#    2.769    0.000    0.000    0.000    0.000    0.000 
#    0.000    0.000    0.000    0.000    0.000    0.000 
#
# Total GULP energy -322187.629073 kJ/mol
# GULP energy per Si atom -12391.831887 kJ/mol
# Density = 2.157317 g / cm^3
# Si number density = 21.622382 Si / 1000 Ang^3
#
#
#
# Elastic Constant Matrix: (Units=GPa)
#
#
# Indices 1 2 3 4 5 6 
#
# 1 100.5587 32.8995 38.0584 0.0000 7.2287 0.0000
# 2 32.8995 74.2789 45.5501 0.0000 -7.4584 0.0000
# 3 38.0584 45.5501 140.8096 0.0000 13.3690 0.0000
# 4 0.0000 0.0000 0.0000 31.2834 0.0000 3.7830
# 5 7.2287 -7.4584 13.3690 0.0000 36.6403 0.0000
# 6 0.0000 0.0000 0.0000 3.7830 0.0000 34.7733
#
#
#
# Elastic Compliance Matrix: (Units=1/GPa)
#
#
# Indices 1 2 3 4 5 6 
#
# 1 0.012290 -0.004816 -0.001493 0.000000 -0.002860 0.000000
# 2 -0.004816 0.019866 -0.005800 0.000000 0.007110 0.000000
# 3 -0.001493 -0.005800 0.009805 0.000000 -0.004464 0.000000
# 4 0.000000 0.000000 0.000000 0.032392 0.000000 -0.003524
# 5 -0.002860 0.007110 -0.004464 0.000000 0.030933 0.000000
# 6 0.000000 0.000000 0.000000 -0.003524 0.000000 0.029141
#
#
# Mechanical properties :
#
#
# Convention : Reuss Voigt Hill
#
# Bulk Modulus (GPa) = 56.35150 60.96256 58.65703
# Shear Modulus (GPa) = 30.38415 33.81535 32.09975
#
# Velocity S-wave (km/s) = 3.75269 3.95891 3.85718
# Velocity P-wave (km/s) = 6.70038 7.01090 6.85740
#
# Compressibility (1/GPa) = 0.01774576
#
# Stress axis : x y z
#
# Youngs Moduli (GPa) = 81.36397 50.33631 101.98631
#
# Poissons Ratio (x) = 0.24240 0.15222
# Poissons Ratio (y) = 0.39182 0.59152
# Poissons Ratio (z) = 0.12144 0.29195
#
# Static dielectric constant tensor:
#      x y z
#    x 3.853250 0.000000 0.103200 
#    y 0.000000 3.781850 0.000000 
#    z 0.103200 0.000000 4.344620 
# 
# 
# High freq. dielectric constant tensor:
#      x y z
#    x 1.852330 0.000000 0.000930 
#    y 0.000000 1.833990 0.000000 
#    z 0.000930 0.000000 1.876010 
# 
# From -- ./inp_files/48932.got.cif
#   From: 2010.06.25/outbox.cif.g09.slc.cpg/sg15_25_cif.got.tgz:48932.got - 2010.06.28 07:06:18.
