data_PCOD8147576
_publ_section_title
;
Structure prediction by ZEFSAII (Michael W. Deem and Ramdas Pophale) SiO2 
 PCOD8147576
Probable space group: C 2/C
;
_chemical_formula_sum "Si O2"
_cell_formula_units_Z 36
_cell_length_a 20.490361
_cell_length_b 9.531968
_cell_length_c 16.713003
_cell_angle_alpha 90.000000
_cell_angle_beta 28.245108
_cell_angle_gamma 90.000000
_cell_volume 1544.799818
_symmetry_space_group_name_H-M "C 2/C"
_symmetry_group_IT_number 15
_symmetry_cell_setting 'monoclinic'
loop_
_space_group_symop_operation_xyz
x,y,z
-x,y,1/2-z
-x,-y,-z
x,-y,1/2+z
1/2+x,1/2+y,z
1/2-x,1/2+y,1/2-z
1/2-x,1/2-y,-z
1/2+x,1/2-y,1/2+z
loop_
_atom_site_type_symbol
_atom_site_label
_atom_site_fract_x
_atom_site_fract_y
_atom_site_fract_z
Si Si1 0.500000 0.755258 0.750000
Si Si2 0.347981 0.582479 0.313426
Si Si3 0.907038 0.561760 0.484864
Si Si4 0.874124 0.634514 0.693994
Si Si5 0.643037 0.504223 0.528616
O O1 0.484603 0.855660 0.689276
O O2 0.632347 0.655290 0.586225
O O3 0.234921 0.469745 0.407173
O O4 0.327150 0.723407 0.286140
O O5 0.331988 0.608889 0.426427
O O6 0.501326 0.521485 0.132923
O O7 0.876133 0.656144 0.596398
O O8 0.976281 0.414651 0.436541
O O9 0.765837 0.509841 0.832559
#
# Coordination Sequence:
#
# PCOD8147576 Si02
#       5
#     4   8   8   8   8
#     4  10  24  46  64  98 132 180 216 272 324 406
#     4  10  22  44  66  98 128 175 219 278 322 398
#     4  11  25  41  67  96 136 175 217 271 335 387
#     4  11  24  42  64 102 131 174 221 275 326 393
#     4  10  24  43  70  96 129 177 222 270 332 386
#
# _framework density 23.303989999999999
#
# number of rings (size 3 to 8) (size 9 to 14) (size 15 to 20)
#    0.000    1.778    0.000    3.333    3.111   12.444 
#   12.000    0.000    0.000    0.000    0.000    0.000 
#    0.000    0.000    0.000    0.000    0.000    0.000 
#
# Total GULP energy -223114.854162 kJ/mol
# GULP energy per Si atom -12395.269676 kJ/mol
# Density = 2.325095 g / cm^3
# Si number density = 23.303990 Si / 1000 Ang^3
#
#
#
# Elastic Constant Matrix: (Units=GPa)
#
#
# Indices 1 2 3 4 5 6 
#
# 1 130.4305 42.5295 63.8289 0.0000 7.4848 0.0000
# 2 42.5295 94.6706 26.8057 -0.0001 14.6971 0.0000
# 3 63.8289 26.8057 94.8405 0.0000 13.3903 0.0000
# 4 0.0000 -0.0001 0.0000 31.8505 0.0000 -1.5926
# 5 7.4848 14.6971 13.3903 0.0000 54.2197 0.0000
# 6 0.0000 0.0000 0.0000 -1.5926 0.0000 20.0579
#
#
#
# Elastic Compliance Matrix: (Units=1/GPa)
#
#
# Indices 1 2 3 4 5 6 
#
# 1 0.012473 -0.003648 -0.007522 0.000000 0.001125 0.000000
# 2 -0.003648 0.012857 -0.000785 0.000000 -0.002788 0.000000
# 3 -0.007522 -0.000785 0.016217 0.000000 -0.002754 0.000000
# 4 0.000000 0.000000 0.000000 0.031522 0.000000 0.002503
# 5 0.001125 -0.002788 -0.002754 0.000000 0.019724 0.000000
# 6 0.000000 0.000000 0.000000 0.002503 0.000000 0.050054
#
#
# Mechanical properties :
#
#
# Convention : Reuss Voigt Hill
#
# Bulk Modulus (GPa) = 56.70093 65.14109 60.92101
# Shear Modulus (GPa) = 28.96252 33.67746 31.31999
#
# Velocity S-wave (km/s) = 3.52918 3.80562 3.67000
# Velocity P-wave (km/s) = 6.40239 6.87923 6.64509
#
# Compressibility (1/GPa) = 0.01763639
#
# Stress axis : x y z
#
# Youngs Moduli (GPa) = 80.17279 77.77963 61.66266
#
# Poissons Ratio (x) = 0.28375 0.46384
# Poissons Ratio (y) = 0.29248 0.04841
# Poissons Ratio (z) = 0.60308 0.06106
#
# Static dielectric constant tensor:
#      x y z
#    x 4.109210 0.000000 0.148680 
#    y 0.000000 3.966510 0.000000 
#    z 0.148680 0.000000 4.165560 
# 
# 
# High freq. dielectric constant tensor:
#      x y z
#    x 1.920250 0.000000 0.004290 
#    y 0.000000 1.905280 0.000000 
#    z 0.004290 0.000000 1.925670 
# 
# From -- ./inp_files/214196.got.cif
#   From: 2010.06.25/outbox.cif.g09.slc.cpg/sg15_108_cif.got.tgz:214196.got - 2010.06.28 07:06:18.
