data_PCOD8147384
_publ_section_title
;
Structure prediction by ZEFSAII (Michael W. Deem and Ramdas Pophale) SiO2 
 PCOD8147384
Probable space group: C 2/C
;
_chemical_formula_sum "Si O2"
_cell_formula_units_Z 56
_cell_length_a 17.795781
_cell_length_b 8.266213
_cell_length_c 26.146315
_cell_angle_alpha 90.000000
_cell_angle_beta 138.293147
_cell_angle_gamma 90.000000
_cell_volume 2558.965825
_symmetry_space_group_name_H-M "C 2/C"
_symmetry_group_IT_number 15
_symmetry_cell_setting 'monoclinic'
loop_
_space_group_symop_operation_xyz
x,y,z
-x,y,1/2-z
-x,-y,-z
x,-y,1/2+z
1/2+x,1/2+y,z
1/2-x,1/2+y,1/2-z
1/2-x,1/2-y,-z
1/2+x,1/2-y,1/2+z
loop_
_atom_site_type_symbol
_atom_site_label
_atom_site_fract_x
_atom_site_fract_y
_atom_site_fract_z
Si Si1 0.963759 0.190667 0.289394
Si Si2 0.105687 0.928599 0.022825
Si Si3 0.207932 0.071238 0.973782
Si Si4 0.115323 0.612769 0.178436
Si Si5 0.501303 0.346283 0.307671
Si Si6 0.428202 0.860913 0.064825
Si Si7 0.742777 0.386191 0.188398
O O1 0.861784 0.303615 0.250207
O O2 0.000000 0.223300 0.250000
O O3 0.059128 0.242554 0.379384
O O4 0.921619 0.004470 0.274505
O O5 0.211074 0.938759 0.115179
O O6 0.078813 0.746149 0.990351
O O7 0.139137 0.032864 0.990567
O O8 0.000000 0.000000 0.000000
O O9 0.123086 0.076367 0.882787
O O10 0.250000 0.250000 0.000000
O O11 0.309945 0.950842 0.013475
O O12 0.232771 0.540654 0.261912
O O13 0.145716 0.762900 0.157385
O O14 0.034938 0.688678 0.180495
O O15 0.035400 0.480317 0.110279
O O16 0.500000 0.281381 0.250000
#
# Coordination Sequence:
#
# PCOD8147384 Si02
#       7
#     8   8   8   8   8   8   8
#     4  10  22  43  69  99 134 176 233 286 340 420
#     4  12  28  46  72 104 142 184 237 296 356 419
#     4  12  25  47  72 103 144 186 233 291 356 417
#     4  11  25  46  68  99 140 183 230 289 350 422
#     4  11  24  41  70 101 139 177 234 285 343 415
#     4  11  25  45  75 100 141 184 237 295 353 418
#     4  11  26  43  70  97 139 181 230 280 357 415
#
# _framework density 21.883838999999998
#
# number of rings (size 3 to 8) (size 9 to 14) (size 15 to 20)
#    0.000    0.857    2.857    3.000   10.000    2.857 
#    0.000    0.000    0.000    0.000    0.000    0.000 
#    0.000    0.000    0.000    0.000    0.000    0.000 
#
# Total GULP energy -347085.857455 kJ/mol
# GULP energy per Si atom -12395.923481 kJ/mol
# Density = 2.183403 g / cm^3
# Si number density = 21.883839 Si / 1000 Ang^3
#
#
#
# Elastic Constant Matrix: (Units=GPa)
#
#
# Indices 1 2 3 4 5 6 
#
# 1 95.7234 40.8844 41.1027 0.0000 2.3239 0.0000
# 2 40.8844 103.9268 21.4408 -0.0001 1.4007 0.0001
# 3 41.1027 21.4408 119.7130 0.0000 -11.0461 0.0000
# 4 0.0000 -0.0001 0.0000 32.1020 0.0000 6.7746
# 5 2.3239 1.4007 -11.0461 0.0000 24.4924 0.0000
# 6 0.0000 0.0001 0.0000 6.7746 0.0000 35.8490
#
#
#
# Elastic Compliance Matrix: (Units=1/GPa)
#
#
# Indices 1 2 3 4 5 6 
#
# 1 0.014426 -0.004728 -0.004390 0.000000 -0.003078 0.000000
# 2 -0.004728 0.011590 -0.000493 0.000000 -0.000436 0.000000
# 3 -0.004390 -0.000493 0.010424 0.000000 0.005146 0.000000
# 4 0.000000 0.000000 0.000000 0.032445 0.000000 -0.006131
# 5 -0.003078 -0.000436 0.005146 0.000000 0.043467 0.000000
# 6 0.000000 0.000000 0.000000 -0.006131 0.000000 0.029053
#
#
# Mechanical properties :
#
#
# Convention : Reuss Voigt Hill
#
# Bulk Modulus (GPa) = 58.08042 58.46880 58.27461
# Shear Modulus (GPa) = 30.05432 32.88436 31.46934
#
# Velocity S-wave (km/s) = 3.70990 3.88064 3.79623
# Velocity P-wave (km/s) = 6.70441 6.84507 6.77511
#
# Compressibility (1/GPa) = 0.01721751
#
# Stress axis : x y z
#
# Youngs Moduli (GPa) = 69.31916 86.28414 95.93443
#
# Poissons Ratio (x) = 0.40794 0.42119
# Poissons Ratio (y) = 0.32773 0.04727
# Poissons Ratio (z) = 0.30434 0.04251
#
# Static dielectric constant tensor:
#      x y z
#    x 4.308710 0.000000 -0.794110 
#    y 0.000000 4.306380 0.000000 
#    z -0.794110 0.000000 5.297160 
# 
# 
# High freq. dielectric constant tensor:
#      x y z
#    x 1.847000 0.000000 -0.000770 
#    y 0.000000 1.881710 0.000000 
#    z -0.000770 0.000000 1.872840 
# 
# From -- ./inp_files/298510.got.cif
#   From: 2010.06.25/outbox.cif.g09.slc.cpg/sg15_150_cif.got.tgz:298510.got - 2010.06.28 07:06:18.
