data_PCOD8147366
_publ_section_title
;
Structure prediction by ZEFSAII (Michael W. Deem and Ramdas Pophale) SiO2 
 PCOD8147366
Probable space group: C 2/C
;
_chemical_formula_sum "Si O2"
_cell_formula_units_Z 56
_cell_length_a 14.102243
_cell_length_b 20.658210
_cell_length_c 8.989725
_cell_angle_alpha 90.000000
_cell_angle_beta 85.756810
_cell_angle_gamma 90.000000
_cell_volume 2611.771911
_symmetry_space_group_name_H-M "C 2/C"
_symmetry_group_IT_number 15
_symmetry_cell_setting 'monoclinic'
loop_
_space_group_symop_operation_xyz
x,y,z
-x,y,1/2-z
-x,-y,-z
x,-y,1/2+z
1/2+x,1/2+y,z
1/2-x,1/2+y,1/2-z
1/2-x,1/2-y,-z
1/2+x,1/2-y,1/2+z
loop_
_atom_site_type_symbol
_atom_site_label
_atom_site_fract_x
_atom_site_fract_y
_atom_site_fract_z
Si Si1 0.649531 0.809033 0.120853
Si Si2 0.664090 0.664656 0.064763
Si Si3 0.289268 0.606390 0.129181
Si Si4 0.651220 0.882674 0.407615
Si Si5 0.004142 0.931359 0.922398
Si Si6 0.353672 0.001983 0.283397
Si Si7 0.950492 0.419939 0.523682
O O1 0.760721 0.824910 0.076968
O O2 0.622554 0.827154 0.293684
O O3 0.591285 0.849764 0.007844
O O4 0.619977 0.734511 0.107183
O O5 0.715836 0.637787 0.206866
O O6 0.581786 0.616001 0.018298
O O7 0.395915 0.602784 0.053866
O O8 0.239446 0.535401 0.134878
O O9 0.229586 0.646446 0.012285
O O10 0.689872 0.944261 0.310446
O O11 0.563630 0.909557 0.515969
O O12 0.000000 0.945706 0.750000
O O13 0.000000 0.000000 0.000000
O O14 0.425585 0.971931 0.397552
O O15 0.411896 0.055712 0.185007
#
# Coordination Sequence:
#
# PCOD8147366 Si02
#       7
#     8   8   8   8   8   8   8
#     4  10  22  43  69  88 123 169 214 254 318 385
#     4  10  23  46  65  90 122 167 214 265 314 381
#     4  11  24  38  61  91 125 168 199 269 317 369
#     4  11  25  36  61  95 123 168 202 257 319 377
#     4  10  25  40  64  94 123 165 212 264 324 374
#     4  11  21  36  57  89 135 157 208 249 324 382
#     4  11  23  38  61  94 126 171 201 261 316 386
#
# _framework density 21.441382000000001
#
# number of rings (size 3 to 8) (size 9 to 14) (size 15 to 20)
#    0.000    1.429    2.857    2.143   10.000    4.000 
#    0.000    0.000    0.000    3.429    0.000    0.000 
#    0.000    0.000    0.000    0.000    0.000    0.000 
#
# Total GULP energy -347191.113143 kJ/mol
# GULP energy per Si atom -12399.682612 kJ/mol
# Density = 2.139258 g / cm^3
# Si number density = 21.441382 Si / 1000 Ang^3
#
#
#
# Elastic Constant Matrix: (Units=GPa)
#
#
# Indices 1 2 3 4 5 6 
#
# 1 100.7705 32.2488 23.0732 0.0000 13.3731 0.0000
# 2 32.2488 115.6355 14.2496 0.0000 3.4680 0.0000
# 3 23.0732 14.2496 60.7323 0.0000 7.5892 0.0000
# 4 0.0000 0.0000 0.0000 26.5539 0.0000 -3.6915
# 5 13.3731 3.4680 7.5892 0.0000 33.5258 0.0000
# 6 0.0000 0.0000 0.0000 -3.6915 0.0000 33.2171
#
#
#
# Elastic Compliance Matrix: (Units=1/GPa)
#
#
# Indices 1 2 3 4 5 6 
#
# 1 0.012126 -0.002841 -0.003471 0.000000 -0.003757 0.000000
# 2 -0.002841 0.009578 -0.001220 0.000000 0.000419 0.000000
# 3 -0.003471 -0.001220 0.018402 0.000000 -0.002655 0.000000
# 4 0.000000 0.000000 0.000000 0.038250 0.000000 0.004251
# 5 -0.003757 0.000419 -0.002655 0.000000 0.031884 0.000000
# 6 0.000000 0.000000 0.000000 0.004251 0.000000 0.030577
#
#
# Mechanical properties :
#
#
# Convention : Reuss Voigt Hill
#
# Bulk Modulus (GPa) = 39.93282 46.25351 43.09316
# Shear Modulus (GPa) = 30.44505 32.49714 31.47109
#
# Velocity S-wave (km/s) = 3.77227 3.89733 3.83531
# Velocity P-wave (km/s) = 6.13498 6.47079 6.30512
#
# Compressibility (1/GPa) = 0.02504206
#
# Stress axis : x y z
#
# Youngs Moduli (GPa) = 82.46622 104.40502 54.34091
#
# Poissons Ratio (x) = 0.29666 0.18860
# Poissons Ratio (y) = 0.23432 0.06630
# Poissons Ratio (z) = 0.28622 0.12739
#
# Static dielectric constant tensor:
#      x y z
#    x 4.018040 0.000000 0.000160 
#    y 0.000000 3.889300 0.000000 
#    z 0.000160 0.000000 3.967680 
# 
# 
# High freq. dielectric constant tensor:
#      x y z
#    x 1.842770 0.000000 -0.002180 
#    y 0.000000 1.830980 0.000000 
#    z -0.002180 0.000000 1.841910 
# 
# From -- ./inp_files/41228.got.cif
#   From: 2010.06.25/outbox.cif.g09.slc.cpg/sg15_21_cif.got.tgz:41228.got - 2010.06.28 07:06:18.
