data_PCOD8147436
_publ_section_title
;
Structure prediction by ZEFSAII (Michael W. Deem and Ramdas Pophale) SiO2 
 PCOD8147436
Probable space group: C 2/C
;
_chemical_formula_sum "Si O2"
_cell_formula_units_Z 48
_cell_length_a 14.459395
_cell_length_b 11.922766
_cell_length_c 25.778418
_cell_angle_alpha 90.000000
_cell_angle_beta 27.746962
_cell_angle_gamma 90.000000
_cell_volume 2069.026953
_symmetry_space_group_name_H-M "C 2/C"
_symmetry_group_IT_number 15
_symmetry_cell_setting 'monoclinic'
loop_
_space_group_symop_operation_xyz
x,y,z
-x,y,1/2-z
-x,-y,-z
x,-y,1/2+z
1/2+x,1/2+y,z
1/2-x,1/2+y,1/2-z
1/2-x,1/2-y,-z
1/2+x,1/2-y,1/2+z
loop_
_atom_site_type_symbol
_atom_site_label
_atom_site_fract_x
_atom_site_fract_y
_atom_site_fract_z
Si Si1 0.932908 0.532642 0.913565
Si Si2 0.984071 0.877058 0.483079
Si Si3 0.835861 0.316720 0.371399
Si Si4 0.885655 0.302372 0.889038
Si Si5 0.919036 0.933431 0.845742
Si Si6 0.356125 0.389114 0.211003
O O1 0.802664 0.598052 0.935210
O O2 0.991209 0.412803 0.860174
O O3 0.120254 0.609380 0.834275
O O4 0.800573 0.518208 0.031377
O O5 0.753583 0.834189 0.592074
O O6 0.120665 0.797034 0.451300
O O7 0.084319 0.868657 0.377429
O O8 0.000000 0.000000 0.500000
O O9 0.920617 0.199921 0.350693
O O10 0.000000 0.367393 0.250000
O O11 0.054735 0.207847 0.794627
O O12 0.750000 0.250000 0.000000
O O13 0.000000 0.972983 0.750000
O O14 0.069090 0.986775 0.812280
#
# Coordination Sequence:
#
# PCOD8147436 Si02
#       6
#     8   8   8   8   8   8
#     4  12  23  44  78 102 149 193 240 301 372 428
#     4  11  20  42  73 101 141 184 234 300 352 424
#     4  11  23  42  70 111 139 181 236 300 361 439
#     4  10  22  43  72 101 144 189 238 297 362 421
#     4  11  26  47  67 103 147 188 248 292 365 442
#     4  11  25  45  71 104 146 191 238 296 369 430
#
# _framework density 23.199311000000002
#
# number of rings (size 3 to 8) (size 9 to 14) (size 15 to 20)
#    0.000    1.000    6.667    0.500    2.333    2.000 
#    3.000    0.833    0.000    0.000    0.000    0.000 
#    0.000    0.000    0.000    0.000    0.000    0.000 
#
# Total GULP energy -297462.000336 kJ/mol
# GULP energy per Si atom -12394.250014 kJ/mol
# Density = 2.314651 g / cm^3
# Si number density = 23.199311 Si / 1000 Ang^3
#
#
#
# Elastic Constant Matrix: (Units=GPa)
#
#
# Indices 1 2 3 4 5 6 
#
# 1 120.9292 66.8579 56.7188 0.0007 -34.3790 0.0003
# 2 66.8579 121.2654 19.6821 -0.0050 -7.4064 0.0004
# 3 56.7188 19.6821 97.3396 0.0130 -9.7841 -0.0003
# 4 0.0007 -0.0050 0.0130 31.8390 -0.0016 -8.2352
# 5 -34.3790 -7.4064 -9.7841 -0.0016 32.7079 0.0003
# 6 0.0003 0.0004 -0.0003 -8.2352 0.0003 49.7020
#
#
#
# Elastic Compliance Matrix: (Units=1/GPa)
#
#
# Indices 1 2 3 4 5 6 
#
# 1 0.024967 -0.010832 -0.010275 0.000003 0.020716 0.000000
# 2 -0.010832 0.013294 0.002868 0.000001 -0.007517 0.000000
# 3 -0.010275 0.002868 0.015115 -0.000006 -0.005629 -0.000001
# 4 0.000003 0.000001 -0.000006 0.032814 0.000003 0.005437
# 5 0.020716 -0.007517 -0.005629 0.000003 0.048962 0.000000
# 6 0.000000 0.000000 -0.000001 0.005437 0.000000 0.021021
#
#
# Mechanical properties :
#
#
# Convention : Reuss Voigt Hill
#
# Bulk Modulus (GPa) = 59.18273 69.56132 64.37202
# Shear Modulus (GPa) = 25.21651 35.93480 30.57566
#
# Velocity S-wave (km/s) = 3.30047 3.93995 3.63430
# Velocity P-wave (km/s) = 6.33167 7.12369 6.73933
#
# Compressibility (1/GPa) = 0.01689682
#
# Stress axis : x y z
#
# Youngs Moduli (GPa) = 40.05345 75.22290 66.16003
#
# Poissons Ratio (x) = 0.81482 0.67982
# Poissons Ratio (y) = 0.43386 -0.18975
# Poissons Ratio (z) = 0.41156 -0.21575
#
# Static dielectric constant tensor:
#      x y z
#    x 5.201980 -0.000660 -0.728290 
#    y -0.000660 3.738930 0.000370 
#    z -0.728290 0.000370 4.612230 
# 
# 
# High freq. dielectric constant tensor:
#      x y z
#    x 1.911420 0.000000 -0.009430 
#    y 0.000000 1.918820 0.000000 
#    z -0.009430 0.000000 1.908650 
# 
# From -- ./inp_files/296044.got.cif
#   From: 2010.06.25/outbox.cif.g09.slc.cpg/sg15_149_cif.got.tgz:296044.got - 2010.06.28 07:06:18.
