data_PCOD8147561
_publ_section_title
;
Structure prediction by ZEFSAII (Michael W. Deem and Ramdas Pophale) SiO2 
 PCOD8147561
Probable space group: C 2/C
;
_chemical_formula_sum "Si O2"
_cell_formula_units_Z 56
_cell_length_a 8.714802
_cell_length_b 11.228981
_cell_length_c 31.047320
_cell_angle_alpha 90.000000
_cell_angle_beta 61.210054
_cell_angle_gamma 90.000000
_cell_volume 2662.686268
_symmetry_space_group_name_H-M "C 2/C"
_symmetry_group_IT_number 15
_symmetry_cell_setting 'monoclinic'
loop_
_space_group_symop_operation_xyz
x,y,z
-x,y,1/2-z
-x,-y,-z
x,-y,1/2+z
1/2+x,1/2+y,z
1/2-x,1/2+y,1/2-z
1/2-x,1/2-y,-z
1/2+x,1/2-y,1/2+z
loop_
_atom_site_type_symbol
_atom_site_label
_atom_site_fract_x
_atom_site_fract_y
_atom_site_fract_z
Si Si1 0.027417 0.971864 0.918540
Si Si2 0.653003 0.089016 0.811567
Si Si3 0.194221 0.618527 0.996011
Si Si4 0.552940 0.225687 0.537627
Si Si5 0.500000 0.534426 0.250000
Si Si6 0.649164 0.635801 0.315942
Si Si7 0.621228 0.967687 0.089186
Si Si8 0.500000 0.985278 0.750000
O O1 0.039090 0.939809 0.866364
O O2 0.044379 0.852037 0.945242
O O3 0.193316 0.048246 0.911670
O O4 0.850196 0.044087 0.952317
O O5 0.635540 0.225328 0.828366
O O6 0.530812 0.999153 0.856340
O O7 0.593023 0.073751 0.770659
O O8 0.852409 0.049556 0.790401
O O9 0.034096 0.633749 0.984400
O O10 0.250000 0.750000 0.000000
O O11 0.126717 0.557482 0.048510
O O12 0.750000 0.250000 0.500000
O O13 0.559833 0.162431 0.582602
O O14 0.574795 0.615407 0.278196
O O15 0.852486 0.598208 0.291497
#
# Coordination Sequence:
#
# PCOD8147561 Si02
#       8
#     8   8   8   8   4   8   8   4
#     4  12  25  44  68 101 136 177 229 275 334 403
#     4  11  23  43  69  96 132 170 223 274 337 395
#     4  12  26  45  68 100 141 180 225 274 335 400
#     4  12  25  44  70  94 138 182 219 282 331 400
#     4  10  26  44  66 100 134 166 224 282 328 410
#     4  11  23  43  69  96 130 174 218 276 335 395
#     4  12  24  44  67 100 135 176 228 275 332 402
#     4  10  22  44  66  94 128 172 214 274 342 394
#
# _framework density 21.031393000000001
#
# number of rings (size 3 to 8) (size 9 to 14) (size 15 to 20)
#    0.000    0.571    5.714    2.571    2.000    0.000 
#    2.571    1.429    0.000    0.000    0.000    0.000 
#    0.000    0.000    0.000    0.000    0.000    0.000 
#
# Total GULP energy -347154.893000 kJ/mol
# GULP energy per Si atom -12398.389036 kJ/mol
# Density = 2.098352 g / cm^3
# Si number density = 21.031393 Si / 1000 Ang^3
#
#
#
# Elastic Constant Matrix: (Units=GPa)
#
#
# Indices 1 2 3 4 5 6 
#
# 1 126.2990 35.6155 43.5177 0.0000 -14.1860 0.0000
# 2 35.6155 104.0881 45.2743 0.0000 -9.1145 0.0000
# 3 43.5177 45.2743 130.1942 0.0000 -17.6025 0.0000
# 4 0.0000 0.0000 0.0000 26.9749 0.0000 -4.0254
# 5 -14.1860 -9.1145 -17.6025 0.0000 32.3838 0.0000
# 6 0.0000 0.0000 0.0000 -4.0254 0.0000 24.3581
#
#
#
# Elastic Compliance Matrix: (Units=1/GPa)
#
#
# Indices 1 2 3 4 5 6 
#
# 1 0.009518 -0.002125 -0.002115 0.000000 0.002422 0.000000
# 2 -0.002125 0.011832 -0.003324 0.000000 0.000593 0.000000
# 3 -0.002115 -0.003324 0.010029 0.000000 0.003589 0.000000
# 4 0.000000 0.000000 0.000000 0.038009 0.000000 0.006281
# 5 0.002422 0.000593 0.003589 0.000000 0.034058 0.000000
# 6 0.000000 0.000000 0.000000 0.006281 0.000000 0.042092
#
#
# Mechanical properties :
#
#
# Convention : Reuss Voigt Hill
#
# Bulk Modulus (GPa) = 61.53512 67.71070 64.62291
# Shear Modulus (GPa) = 30.10548 32.48828 31.29688
#
# Velocity S-wave (km/s) = 3.78756 3.93460 3.86178
# Velocity P-wave (km/s) = 6.96058 7.27368 7.11885
#
# Compressibility (1/GPa) = 0.01625088
#
# Stress axis : x y z
#
# Youngs Moduli (GPa) = 105.06844 84.51642 99.71026
#
# Poissons Ratio (x) = 0.17956 0.21089
# Poissons Ratio (y) = 0.22323 0.33146
# Poissons Ratio (z) = 0.22223 0.28095
#
# Static dielectric constant tensor:
#      x y z
#    x 3.935870 0.000000 -0.076970 
#    y 0.000000 3.638760 0.000000 
#    z -0.076970 0.000000 3.962780 
# 
# 
# High freq. dielectric constant tensor:
#      x y z
#    x 1.832500 0.000000 -0.000970 
#    y 0.000000 1.821470 0.000000 
#    z -0.000970 0.000000 1.838060 
# 
# From -- ./inp_files/287977.got.cif
#   From: 2010.06.25/outbox.cif.g09.slc.cpg/sg15_144_cif.got.tgz:287977.got - 2010.06.28 07:06:18.
