data_PCOD8147675
_publ_section_title
;
Structure prediction by ZEFSAII (Michael W. Deem and Ramdas Pophale) SiO2 
 PCOD8147675
Probable space group: C 2/C
;
_chemical_formula_sum "Si O2"
_cell_formula_units_Z 64
_cell_length_a 8.994643
_cell_length_b 33.103966
_cell_length_c 16.737656
_cell_angle_alpha 90.000000
_cell_angle_beta 140.971046
_cell_angle_gamma 90.000000
_cell_volume 3138.349303
_symmetry_space_group_name_H-M "C 2/C"
_symmetry_group_IT_number 15
_symmetry_cell_setting 'monoclinic'
loop_
_space_group_symop_operation_xyz
x,y,z
-x,y,1/2-z
-x,-y,-z
x,-y,1/2+z
1/2+x,1/2+y,z
1/2-x,1/2+y,1/2-z
1/2-x,1/2-y,-z
1/2+x,1/2-y,1/2+z
loop_
_atom_site_type_symbol
_atom_site_label
_atom_site_fract_x
_atom_site_fract_y
_atom_site_fract_z
Si Si1 0.104418 0.314750 0.165114
Si Si2 0.559228 0.539821 0.646450
Si Si3 0.441574 0.043959 0.004686
Si Si4 0.705959 0.044049 0.275234
Si Si5 0.530454 0.094798 0.622845
Si Si6 0.753826 0.249275 0.600799
Si Si7 0.537927 0.402545 0.996492
Si Si8 0.871284 0.186713 0.936621
O O1 0.155856 0.361839 0.170665
O O2 0.155025 0.291799 0.102190
O O3 0.280685 0.300773 0.309969
O O4 0.835679 0.310047 0.083618
O O5 0.342702 0.545637 0.616402
O O6 0.607515 0.492626 0.651555
O O7 0.793773 0.560262 0.775719
O O8 0.475347 0.562211 0.531918
O O9 0.552203 0.079951 0.997988
O O10 0.564152 0.053107 0.137537
O O11 0.500000 0.000000 0.000000
O O12 0.500000 0.032945 0.250000
O O13 0.852836 0.085893 0.349924
O O14 0.312887 0.095274 0.591483
O O15 0.750000 0.250000 0.500000
O O16 0.572495 0.283558 0.551417
O O17 0.000000 0.258673 0.750000
O O18 0.503944 0.357218 0.014851
#
# Coordination Sequence:
#
# PCOD8147675 Si02
#       8
#     8   8   8   8   8   8   8   8
#     4  10  22  44  72  97 133 175 223 271 327 404
#     4  12  23  40  65  91 124 167 220 269 321 385
#     4  12  26  41  58  90 128 170 217 274 334 388
#     4  12  25  41  62  89 128 174 219 272 331 389
#     4  11  23  41  67  95 124 167 220 273 318 376
#     4  12  25  45  71 105 139 175 215 275 340 401
#     4  11  23  42  67  92 126 171 217 268 326 389
#     4  10  22  44  70 100 132 175 223 269 328 407
#
# _framework density 20.392886000000001
#
# number of rings (size 3 to 8) (size 9 to 14) (size 15 to 20)
#    0.000    0.750    5.000    3.000    0.000    4.000 
#    2.250    0.000    0.000    0.000    0.000    0.000 
#    0.000    0.000    0.000    0.000    0.000    0.000 
#
# Total GULP energy -396565.293303 kJ/mol
# GULP energy per Si atom -12392.665416 kJ/mol
# Density = 2.034647 g / cm^3
# Si number density = 20.392886 Si / 1000 Ang^3
#
#
#
# Elastic Constant Matrix: (Units=GPa)
#
#
# Indices 1 2 3 4 5 6 
#
# 1 66.1257 30.4382 16.9299 0.0000 -8.0735 0.0000
# 2 30.4382 95.5770 33.1382 0.0000 5.0644 0.0000
# 3 16.9299 33.1382 99.1275 0.0000 -3.3920 0.0000
# 4 0.0000 0.0000 0.0000 39.6748 0.0000 0.4025
# 5 -8.0735 5.0644 -3.3920 0.0000 36.2679 0.0000
# 6 0.0000 0.0000 0.0000 0.4025 0.0000 32.1619
#
#
#
# Elastic Compliance Matrix: (Units=1/GPa)
#
#
# Indices 1 2 3 4 5 6 
#
# 1 0.018678 -0.005835 -0.001073 0.000000 0.004872 0.000000
# 2 -0.005835 0.013808 -0.003742 0.000000 -0.003577 0.000000
# 3 -0.001073 -0.003742 0.011569 0.000000 0.001366 0.000000
# 4 0.000000 0.000000 0.000000 0.025208 0.000000 -0.000315
# 5 0.004872 -0.003577 0.001366 0.000000 0.029284 0.000000
# 6 0.000000 0.000000 0.000000 -0.000315 0.000000 0.031097
#
#
# Mechanical properties :
#
#
# Convention : Reuss Voigt Hill
#
# Bulk Modulus (GPa) = 43.94400 46.87144 45.40772
# Shear Modulus (GPa) = 31.54028 33.64251 32.59139
#
# Velocity S-wave (km/s) = 3.93699 4.06608 4.00205
# Velocity P-wave (km/s) = 6.50092 6.71402 6.60833
#
# Compressibility (1/GPa) = 0.02275623
#
# Stress axis : x y z
#
# Youngs Moduli (GPa) = 53.53911 72.42299 86.43891
#
# Poissons Ratio (x) = 0.42255 0.09273
# Poissons Ratio (y) = 0.31238 0.32344
# Poissons Ratio (z) = 0.05744 0.27100
#
# Static dielectric constant tensor:
#      x y z
#    x 3.977890 0.000000 -0.128370 
#    y 0.000000 4.010710 0.000000 
#    z -0.128370 0.000000 3.879610 
# 
# 
# High freq. dielectric constant tensor:
#      x y z
#    x 1.804930 0.000000 0.001870 
#    y 0.000000 1.791100 0.000000 
#    z 0.001870 0.000000 1.806760 
# 
# From -- ./inp_files/194292.got.cif
#   From: 2010.06.25/outbox.cif.g09.slc.cpg/sg15_98_cif.got.tgz:194292.got - 2010.06.28 07:06:18.
