data_PCOD8147275
_publ_section_title
;
Structure prediction by ZEFSAII (Michael W. Deem and Ramdas Pophale) SiO2 
 PCOD8147275
Probable space group: C 2/C
;
_chemical_formula_sum "Si O2"
_cell_formula_units_Z 36
_cell_length_a 13.922643
_cell_length_b 18.841406
_cell_length_c 7.573607
_cell_angle_alpha 90.000000
_cell_angle_beta 51.981046
_cell_angle_gamma 90.000000
_cell_volume 1565.155963
_symmetry_space_group_name_H-M "C 2/C"
_symmetry_group_IT_number 15
_symmetry_cell_setting 'monoclinic'
loop_
_space_group_symop_operation_xyz
x,y,z
-x,y,1/2-z
-x,-y,-z
x,-y,1/2+z
1/2+x,1/2+y,z
1/2-x,1/2+y,1/2-z
1/2-x,1/2-y,-z
1/2+x,1/2-y,1/2+z
loop_
_atom_site_type_symbol
_atom_site_label
_atom_site_fract_x
_atom_site_fract_y
_atom_site_fract_z
Si Si1 0.000000 0.383837 0.250000
Si Si2 0.248915 0.546214 0.454485
Si Si3 0.911478 0.294985 0.015573
Si Si4 0.449399 0.355351 0.610395
Si Si5 0.701268 0.396999 0.218265
O O1 0.034672 0.336674 0.378419
O O2 0.889021 0.433619 0.441003
O O3 0.348083 0.582685 0.212179
O O4 0.262819 0.461390 0.450988
O O5 0.277544 0.574835 0.612155
O O6 0.885231 0.215193 0.109172
O O7 0.784023 0.327919 0.092917
O O8 0.000000 0.298264 0.750000
O O9 0.500000 0.342170 0.750000
O O10 0.560390 0.375456 0.353801
#
# Coordination Sequence:
#
# PCOD8147275 Si02
#       5
#     4   8   8   8   8
#     4  10  24  42  66  92 136 166 210 268 314 386
#     4  10  23  40  66  93 127 174 207 266 323 371
#     4  11  25  40  67  98 127 171 213 263 319 377
#     4  10  22  43  66  91 132 170 213 262 321 378
#     4  10  24  40  65  95 128 169 214 263 318 380
#
# _framework density 23.000900999999999
#
# number of rings (size 3 to 8) (size 9 to 14) (size 15 to 20)
#    0.000    1.778    1.111    0.667    7.778    7.111 
#    0.000    0.000    0.000    0.000    0.000    0.000 
#    0.000    0.000    0.000    0.000    0.000    0.000 
#
# Total GULP energy -223219.977747 kJ/mol
# GULP energy per Si atom -12401.109875 kJ/mol
# Density = 2.294855 g / cm^3
# Si number density = 23.000901 Si / 1000 Ang^3
#
#
#
# Elastic Constant Matrix: (Units=GPa)
#
#
# Indices 1 2 3 4 5 6 
#
# 1 69.9227 34.9019 35.8813 0.0000 -29.7844 0.0000
# 2 34.9019 132.4777 24.3964 0.0000 -18.7197 0.0000
# 3 35.8813 24.3964 87.1176 0.0000 -26.9440 0.0000
# 4 0.0000 0.0000 0.0000 37.0350 0.0000 -21.8471
# 5 -29.7844 -18.7197 -26.9440 0.0000 39.3165 0.0000
# 6 0.0000 0.0000 0.0000 -21.8471 0.0000 -10.6174
#
#
#
# Elastic Compliance Matrix: (Units=1/GPa)
#
#
# Indices 1 2 3 4 5 6 
#
# 1 0.024286 -0.003617 -0.004863 0.000000 0.013343 0.000000
# 2 -0.003617 0.008761 -0.000661 0.000000 0.000978 0.000000
# 3 -0.004863 -0.000661 0.015773 0.000000 0.006811 0.000000
# 4 0.000000 0.000000 0.000000 0.012197 0.000000 -0.025097
# 5 0.013343 0.000978 0.006811 0.000000 0.040676 0.000000
# 6 0.000000 0.000000 0.000000 -0.025097 0.000000 -0.042544
#
#
# Mechanical properties :
#
#
# Convention : Reuss Voigt Hill
#
# Bulk Modulus (GPa) = 32.74610 53.31970 43.03290
# Shear Modulus (GPa) = 57.06972 26.10273 41.58622
#
# Velocity S-wave (km/s) = 4.98656 3.37242 4.25670
# Velocity P-wave (km/s) = 6.88638 6.19646 6.55051
#
# Compressibility (1/GPa) = 0.03053799
#
# Stress axis : x y z
#
# Youngs Moduli (GPa) = 41.17555 114.13685 63.39832
#
# Poissons Ratio (x) = 0.41287 0.30831
# Poissons Ratio (y) = 0.14895 0.04192
# Poissons Ratio (z) = 0.20024 0.07546
#
# Static dielectric constant tensor:
#      x y z
#    x 4.231620 0.000000 -0.304340 
#    y 0.000000 5.316320 0.000000 
#    z -0.304340 0.000000 4.467850 
# 
# 
# High freq. dielectric constant tensor:
#      x y z
#    x 1.909630 0.000000 -0.002690 
#    y 0.000000 1.914410 0.000000 
#    z -0.002690 0.000000 1.916620 
# 
# From -- ./inp_files/28993.got.cif
#   From: 2010.06.25/outbox.cif.g09.slc.cpg/sg15_15_cif.got.tgz:28993.got - 2010.06.28 07:06:18.
