data_PCOD8147257
_publ_section_title
;
Structure prediction by ZEFSAII (Michael W. Deem and Ramdas Pophale) SiO2 
 PCOD8147257
Probable space group: C 2/C
;
_chemical_formula_sum "Si O2"
_cell_formula_units_Z 48
_cell_length_a 10.658758
_cell_length_b 9.737104
_cell_length_c 16.874770
_cell_angle_alpha 90.000000
_cell_angle_beta 81.054627
_cell_angle_gamma 90.000000
_cell_volume 1730.053682
_symmetry_space_group_name_H-M "C 2/C"
_symmetry_group_IT_number 15
_symmetry_cell_setting 'monoclinic'
loop_
_space_group_symop_operation_xyz
x,y,z
-x,y,1/2-z
-x,-y,-z
x,-y,1/2+z
1/2+x,1/2+y,z
1/2-x,1/2+y,1/2-z
1/2-x,1/2-y,-z
1/2+x,1/2-y,1/2+z
loop_
_atom_site_type_symbol
_atom_site_label
_atom_site_fract_x
_atom_site_fract_y
_atom_site_fract_z
Si Si1 0.870382 0.918344 0.722897
Si Si2 0.356170 0.307104 0.933855
Si Si3 0.694558 0.581356 0.637360
Si Si4 0.948122 0.092192 0.581079
Si Si5 0.534332 0.937866 0.410974
Si Si6 0.390650 0.189244 0.200651
O O1 0.839613 0.072369 0.765297
O O2 0.910428 0.947958 0.627618
O O3 0.000000 0.854183 0.750000
O O4 0.741795 0.826645 0.735780
O O5 0.435937 0.410279 0.986411
O O6 0.250000 0.250000 0.000000
O O7 0.301795 0.408912 0.872063
O O8 0.435740 0.178681 0.892945
O O9 0.588616 0.646881 0.592325
O O10 0.829571 0.640916 0.597846
O O11 0.859906 0.211880 0.628072
O O12 0.500000 0.000000 0.500000
O O13 0.548548 0.048408 0.340173
O O14 0.500000 0.244796 0.250000
#
# Coordination Sequence:
#
# PCOD8147257 Si02
#       6
#     8   8   8   8   8   8
#     4   9  21  44  63  92 128 169 220 273 328 401
#     4  12  23  40  70  97 133 176 219 279 339 395
#     4  10  22  43  65  95 132 174 224 270 337 403
#     4  11  23  44  67  92 133 173 219 277 336 406
#     4  11  22  44  64  97 138 173 221 284 330 403
#     4  11  23  42  66  96 131 175 222 278 341 400
#
# _framework density 27.744806000000001
#
# number of rings (size 3 to 8) (size 9 to 14) (size 15 to 20)
#    0.000    1.333    3.333    3.000    2.333    0.667 
#   18.000    0.000    0.000    0.000    0.000    0.000 
#    0.000    0.000    0.000    0.000    0.000    0.000 
#
# Total GULP energy -297459.779536 kJ/mol
# GULP energy per Si atom -12394.157481 kJ/mol
# Density = 2.768166 g / cm^3
# Si number density = 27.744806 Si / 1000 Ang^3
#
#
#
# Elastic Constant Matrix: (Units=GPa)
#
#
# Indices 1 2 3 4 5 6 
#
# 1 112.5247 -8.5906 22.2333 0.0000 -43.4047 0.0000
# 2 -8.5906 67.8952 10.8515 0.0000 -9.6426 0.0000
# 3 22.2333 10.8515 149.2405 0.0000 -15.9232 0.0000
# 4 0.0000 0.0000 0.0000 35.4000 0.0000 -6.5406
# 5 -43.4047 -9.6426 -15.9232 0.0000 48.0231 0.0000
# 6 0.0000 0.0000 0.0000 -6.5406 0.0000 46.5267
#
#
#
# Elastic Compliance Matrix: (Units=1/GPa)
#
#
# Indices 1 2 3 4 5 6 
#
# 1 0.014690 0.003972 -0.001011 0.000000 0.013739 0.000000
# 2 0.003972 0.016329 -0.001085 0.000000 0.006509 0.000000
# 3 -0.001011 -0.001085 0.007059 0.000000 0.001209 0.000000
# 4 0.000000 0.000000 0.000000 0.029002 0.000000 0.004077
# 5 0.013739 0.006509 0.001209 0.000000 0.034949 0.000000
# 6 0.000000 0.000000 0.000000 0.004077 0.000000 0.022066
#
#
# Mechanical properties :
#
#
# Convention : Reuss Voigt Hill
#
# Bulk Modulus (GPa) = 23.90693 42.07207 32.98950
# Shear Modulus (GPa) = 37.23403 46.33437 41.78420
#
# Velocity S-wave (km/s) = 3.66733 4.09102 3.88496
# Velocity P-wave (km/s) = 5.15440 6.12472 5.66039
#
# Compressibility (1/GPa) = 0.04182888
#
# Stress axis : x y z
#
# Youngs Moduli (GPa) = 68.07551 61.24150 141.66149
#
# Poissons Ratio (x) = -0.24322 0.14326
# Poissons Ratio (y) = -0.27036 0.15363
# Poissons Ratio (z) = 0.06884 0.06642
#
# Static dielectric constant tensor:
#      x y z
#    x 5.566300 0.000000 0.047800 
#    y 0.000000 5.190520 0.000000 
#    z 0.047800 0.000000 5.661590 
# 
# 
# High freq. dielectric constant tensor:
#      x y z
#    x 2.132410 0.000000 -0.021600 
#    y 0.000000 2.116790 0.000000 
#    z -0.021600 0.000000 2.149170 
# 
# From -- ./inp_files/236499.got.cif
#   From: 2010.06.25/outbox.cif.g09.slc.cpg/sg15_119_cif.got.tgz:236499.got - 2010.06.28 07:06:18.
