data_PCOD8147196
_publ_section_title
;
Structure prediction by ZEFSAII (Michael W. Deem and Ramdas Pophale) SiO2 
 PCOD8147196
Probable space group: C 2/C
;
_chemical_formula_sum "Si O2"
_cell_formula_units_Z 64
_cell_length_a 24.973615
_cell_length_b 10.986184
_cell_length_c 12.978146
_cell_angle_alpha 90.000000
_cell_angle_beta 62.349679
_cell_angle_gamma 90.000000
_cell_volume 3154.095346
_symmetry_space_group_name_H-M "C 2/C"
_symmetry_group_IT_number 15
_symmetry_cell_setting 'monoclinic'
loop_
_space_group_symop_operation_xyz
x,y,z
-x,y,1/2-z
-x,-y,-z
x,-y,1/2+z
1/2+x,1/2+y,z
1/2-x,1/2+y,1/2-z
1/2-x,1/2-y,-z
1/2+x,1/2-y,1/2+z
loop_
_atom_site_type_symbol
_atom_site_label
_atom_site_fract_x
_atom_site_fract_y
_atom_site_fract_z
Si Si1 0.224446 0.602261 0.405208
Si Si2 0.390954 0.407691 0.381018
Si Si3 0.525228 0.369794 0.006636
Si Si4 0.745491 0.607965 0.492607
Si Si5 0.675174 0.790152 0.159899
Si Si6 0.342038 0.038884 0.236468
Si Si7 0.560567 0.350749 0.753175
Si Si8 0.947823 0.698810 0.214498
O O1 0.240608 0.460562 0.411647
O O2 0.281157 0.689360 0.324872
O O3 0.202641 0.648849 0.534783
O O4 0.174534 0.598496 0.359397
O O5 0.422309 0.396131 0.461473
O O6 0.322330 0.436568 0.471459
O O7 0.424828 0.507850 0.280904
O O8 0.397260 0.281570 0.314316
O O9 0.476701 0.273824 0.094193
O O10 0.500000 0.500000 0.000000
O O11 0.554108 0.315454 0.878238
O O12 0.750000 0.750000 0.500000
O O13 0.789488 0.574892 0.361209
O O14 0.616270 0.727807 0.163692
O O15 0.657857 0.891313 0.261902
O O16 0.409625 0.083604 0.207255
O O17 0.500000 0.310406 0.750000
O O18 0.000000 0.658817 0.250000
#
# Coordination Sequence:
#
# PCOD8147196 Si02
#       8
#     8   8   8   8   8   8   8   8
#     4  10  24  45  67  94 135 171 218 275 331 391
#     4  11  21  38  63  94 134 162 216 281 325 388
#     4  11  22  37  62  98 126 168 224 267 333 390
#     4  11  23  40  67 102 127 168 214 272 330 388
#     4  10  25  46  61  96 136 172 216 279 327 399
#     4  11  25  42  69  94 130 175 222 265 335 405
#     4  12  23  40  66  94 132 175 219 271 332 395
#     4  10  22  43  63  92 131 169 217 283 328 388
#
# _framework density 20.291080000000001
#
# number of rings (size 3 to 8) (size 9 to 14) (size 15 to 20)
#    0.000    1.250    5.000    0.375    5.250    0.500 
#    2.250    0.625    0.000    0.000    0.000    0.000 
#    0.000    0.000    0.000    0.000    0.000    0.000 
#
# Total GULP energy -396623.311554 kJ/mol
# GULP energy per Si atom -12394.478486 kJ/mol
# Density = 2.024490 g / cm^3
# Si number density = 20.291080 Si / 1000 Ang^3
#
#
#
# Elastic Constant Matrix: (Units=GPa)
#
#
# Indices 1 2 3 4 5 6 
#
# 1 136.9393 48.0657 39.4334 0.0000 1.4313 0.0000
# 2 48.0657 110.4565 20.7387 0.0000 10.7156 0.0000
# 3 39.4334 20.7387 77.4772 0.0000 10.8519 0.0000
# 4 0.0000 0.0000 0.0000 14.9470 0.0000 -3.0275
# 5 1.4313 10.7156 10.8519 0.0000 31.8371 0.0000
# 6 0.0000 0.0000 0.0000 -3.0275 0.0000 34.1651
#
#
#
# Elastic Compliance Matrix: (Units=1/GPa)
#
#
# Indices 1 2 3 4 5 6 
#
# 1 0.009817 -0.003679 -0.004330 0.000000 0.002273 0.000000
# 2 -0.003679 0.011098 -0.000628 0.000000 -0.003356 0.000000
# 3 -0.004330 -0.000628 0.015985 0.000000 -0.005043 0.000000
# 4 0.000000 0.000000 0.000000 0.068126 0.000000 0.006037
# 5 0.002273 -0.003356 -0.005043 0.000000 0.034156 0.000000
# 6 0.000000 0.000000 0.000000 0.006037 0.000000 0.029805
#
#
# Mechanical properties :
#
#
# Convention : Reuss Voigt Hill
#
# Bulk Modulus (GPa) = 50.95414 60.14986 55.55200
# Shear Modulus (GPa) = 25.93312 30.63218 28.28265
#
# Velocity S-wave (km/s) = 3.57887 3.88962 3.73748
# Velocity P-wave (km/s) = 6.49953 7.06258 6.78690
#
# Compressibility (1/GPa) = 0.01962549
#
# Stress axis : x y z
#
# Youngs Moduli (GPa) = 101.86256 90.10689 62.55759
#
# Poissons Ratio (x) = 0.33155 0.27088
# Poissons Ratio (y) = 0.37480 0.03928
# Poissons Ratio (z) = 0.44107 0.05657
#
# Static dielectric constant tensor:
#      x y z
#    x 3.768220 0.000000 -0.091500 
#    y 0.000000 4.106200 0.000000 
#    z -0.091500 0.000000 3.725470 
# 
# 
# High freq. dielectric constant tensor:
#      x y z
#    x 1.798240 0.000000 -0.005590 
#    y 0.000000 1.793640 0.000000 
#    z -0.005590 0.000000 1.788700 
# 
# From -- ./inp_files/118011.got.cif
#   From: 2010.06.25/outbox.cif.g09.slc.cpg/sg15_60_cif.got.tgz:118011.got - 2010.06.28 07:06:18.
