data_PCOD8147012
_publ_section_title
;
Structure prediction by ZEFSAII (Michael W. Deem and Ramdas Pophale) SiO2 
 PCOD8147012
Probable space group: C 2/C
;
_chemical_formula_sum "Si O2"
_cell_formula_units_Z 40
_cell_length_a 8.578272
_cell_length_b 23.809742
_cell_length_c 9.237836
_cell_angle_alpha 90.000000
_cell_angle_beta 93.417910
_cell_angle_gamma 90.000000
_cell_volume 1883.438991
_symmetry_space_group_name_H-M "C 2/C"
_symmetry_group_IT_number 15
_symmetry_cell_setting 'monoclinic'
loop_
_space_group_symop_operation_xyz
x,y,z
-x,y,1/2-z
-x,-y,-z
x,-y,1/2+z
1/2+x,1/2+y,z
1/2-x,1/2+y,1/2-z
1/2-x,1/2-y,-z
1/2+x,1/2-y,1/2+z
loop_
_atom_site_type_symbol
_atom_site_label
_atom_site_fract_x
_atom_site_fract_y
_atom_site_fract_z
Si Si1 0.829340 0.789526 0.295401
Si Si2 0.681038 0.442775 0.795058
Si Si3 0.806109 0.329352 0.921375
Si Si4 0.672846 0.975882 0.988811
Si Si5 0.404299 0.862157 0.383896
O O1 0.801463 0.723406 0.313426
O O2 0.806121 0.820715 0.447097
O O3 0.708978 0.811399 0.167724
O O4 0.000000 0.804236 0.250000
O O5 0.500000 0.439439 0.750000
O O6 0.745397 0.380769 0.824489
O O7 0.784880 0.471287 0.676617
O O8 0.702935 0.480950 0.937577
O O9 0.983126 0.339138 0.983989
O O10 0.692964 0.915040 0.063506
O O11 0.500000 0.000000 0.000000
O O12 0.500000 0.883391 0.250000
#
# Coordination Sequence:
#
# PCOD8147012 Si02
#       5
#     8   8   8   8   8
#     4  10  24  41  70  99 138 179 236 289 342 405
#     4  12  28  45  70 102 143 178 230 295 344 410
#     4  10  24  45  65 101 138 184 228 280 348 416
#     4  12  25  45  73 102 134 186 231 281 343 421
#     4  10  22  42  68  96 136 180 230 282 340 415
#
# _framework density 21.237745
#
# number of rings (size 3 to 8) (size 9 to 14) (size 15 to 20)
#    0.000    1.200    2.000    2.400    8.400    5.600 
#    0.000    0.000    0.000    0.000    0.000    0.000 
#    0.000    0.000    0.000    0.000    0.000    0.000 
#
# Total GULP energy -248138.027075 kJ/mol
# GULP energy per Si atom -12406.901354 kJ/mol
# Density = 2.118941 g / cm^3
# Si number density = 21.237745 Si / 1000 Ang^3
#
#
#
# Elastic Constant Matrix: (Units=GPa)
#
#
# Indices 1 2 3 4 5 6 
#
# 1 131.4268 38.1806 47.8391 0.0000 15.2997 0.0000
# 2 38.1806 133.2118 51.5603 0.0000 18.7517 0.0000
# 3 47.8391 51.5603 78.8695 0.0000 12.1944 0.0000
# 4 0.0000 0.0000 0.0000 49.2986 0.0000 9.1229
# 5 15.2997 18.7517 12.1944 0.0000 41.1334 0.0000
# 6 0.0000 0.0000 0.0000 9.1229 0.0000 21.7344
#
#
#
# Elastic Compliance Matrix: (Units=1/GPa)
#
#
# Indices 1 2 3 4 5 6 
#
# 1 0.009942 -0.000488 -0.005423 0.000000 -0.001868 0.000000
# 2 -0.000488 0.010382 -0.006066 0.000000 -0.002753 0.000000
# 3 -0.005423 -0.006066 0.020116 0.000000 -0.001182 0.000000
# 4 0.000000 0.000000 0.000000 0.021993 0.000000 -0.009231
# 5 -0.001868 -0.002753 -0.001182 0.000000 0.026611 0.000000
# 6 0.000000 0.000000 0.000000 -0.009231 0.000000 0.049885
#
#
# Mechanical properties :
#
#
# Convention : Reuss Voigt Hill
#
# Bulk Modulus (GPa) = 60.64942 68.74090 64.69516
# Shear Modulus (GPa) = 29.69526 36.16181 32.92854
#
# Velocity S-wave (km/s) = 3.74335 4.13087 3.94188
# Velocity P-wave (km/s) = 6.87771 7.42898 7.15865
#
# Compressibility (1/GPa) = 0.01648820
#
# Stress axis : x y z
#
# Youngs Moduli (GPa) = 100.58578 96.32155 49.71072
#
# Poissons Ratio (x) = 0.04697 0.26957
# Poissons Ratio (y) = 0.04905 0.30152
# Poissons Ratio (z) = 0.54544 0.58425
#
# Static dielectric constant tensor:
#      x y z
#    x 3.802950 0.000000 0.002720 
#    y 0.000000 3.962890 0.000000 
#    z 0.002720 0.000000 3.946040 
# 
# 
# High freq. dielectric constant tensor:
#      x y z
#    x 1.830120 0.000000 -0.000600 
#    y 0.000000 1.845700 0.000000 
#    z -0.000600 0.000000 1.840350 
# 
# From -- ./inp_files/23416.got.cif
#   From: 2010.06.25/outbox.cif.g09.slc.cpg/sg15_12_cif.got.tgz:23416.got - 2010.06.28 07:06:18.
