data_PCOD8147455
_publ_section_title
;
Structure prediction by ZEFSAII (Michael W. Deem and Ramdas Pophale) SiO2 
 PCOD8147455
Probable space group: C 2/C
;
_chemical_formula_sum "Si O2"
_cell_formula_units_Z 32
_cell_length_a 7.327124
_cell_length_b 17.943455
_cell_length_c 11.416886
_cell_angle_alpha 90.000000
_cell_angle_beta 127.734299
_cell_angle_gamma 90.000000
_cell_volume 1187.094821
_symmetry_space_group_name_H-M "C 2/C"
_symmetry_group_IT_number 15
_symmetry_cell_setting 'monoclinic'
loop_
_space_group_symop_operation_xyz
x,y,z
-x,y,1/2-z
-x,-y,-z
x,-y,1/2+z
1/2+x,1/2+y,z
1/2-x,1/2+y,1/2-z
1/2-x,1/2-y,-z
1/2+x,1/2-y,1/2+z
loop_
_atom_site_type_symbol
_atom_site_label
_atom_site_fract_x
_atom_site_fract_y
_atom_site_fract_z
Si Si1 0.249140 0.474503 0.456198
Si Si2 0.745253 0.544375 0.279786
Si Si3 0.707323 0.307824 0.085010
Si Si4 0.749223 0.705052 0.197541
O O1 0.375969 0.515832 0.392293
O O2 0.367198 0.478045 0.635225
O O3 0.195527 0.389624 0.400821
O O4 0.004454 0.514521 0.375695
O O5 0.749211 0.633514 0.282609
O O6 0.817581 0.277727 0.249706
O O7 0.750000 0.250000 0.000000
O O8 0.425431 0.308710 0.979219
O O9 0.000000 0.720927 0.250000
#
# Coordination Sequence:
#
# PCOD8147455 Si02
#       4
#     8   8   8   8
#     4  10  22  43  74 107 143 203 244 312 380 451
#     4  10  22  43  74 104 156 189 252 310 382 448
#     4  12  27  45  80 109 152 202 262 309 388 458
#     4  12  26  50  72 113 157 202 251 327 379 458
#
# _framework density 26.956568000000001
#
# number of rings (size 3 to 8) (size 9 to 14) (size 15 to 20)
#    0.000    1.000    5.000    1.500    7.000    1.000 
#    4.500    0.000    0.000    0.000    0.000    0.000 
#    0.000    0.000    0.000    0.000    0.000    0.000 
#
# Total GULP energy -198391.614615 kJ/mol
# GULP energy per Si atom -12399.475913 kJ/mol
# Density = 2.689521 g / cm^3
# Si number density = 26.956568 Si / 1000 Ang^3
#
#
#
# Elastic Constant Matrix: (Units=GPa)
#
#
# Indices 1 2 3 4 5 6 
#
# 1 124.4193 30.1979 44.5061 -0.0002 -37.4355 -0.0002
# 2 30.1979 165.1651 43.5790 0.0000 -16.2259 0.0000
# 3 44.5061 43.5790 205.7203 -0.0002 -7.7190 -0.0002
# 4 -0.0002 0.0000 -0.0002 123.3967 -0.0002 54.2090
# 5 -37.4355 -16.2259 -7.7190 -0.0002 51.1274 -0.0002
# 6 -0.0002 0.0000 -0.0002 54.2090 -0.0002 81.4109
#
#
#
# Elastic Compliance Matrix: (Units=1/GPa)
#
#
# Indices 1 2 3 4 5 6 
#
# 1 0.011248 -0.000779 -0.001980 0.000000 0.007690 0.000000
# 2 -0.000779 0.006644 -0.001188 0.000000 0.001359 0.000000
# 3 -0.001980 -0.001188 0.005504 0.000000 -0.000996 0.000000
# 4 0.000000 0.000000 0.000000 0.011455 0.000000 -0.007627
# 5 0.007690 0.001359 -0.000996 0.000000 0.025471 0.000000
# 6 0.000000 0.000000 0.000000 -0.007627 0.000000 0.017362
#
#
# Mechanical properties :
#
#
# Convention : Reuss Voigt Hill
#
# Bulk Modulus (GPa) = 64.50550 81.31897 72.91224
# Shear Modulus (GPa) = 55.10000 76.32177 65.71089
#
# Velocity S-wave (km/s) = 4.52600 5.32676 4.94262
# Velocity P-wave (km/s) = 7.16200 8.25013 7.72525
#
# Compressibility (1/GPa) = 0.01550255
#
# Stress axis : x y z
#
# Youngs Moduli (GPa) = 88.90167 150.51458 181.69882
#
# Poissons Ratio (x) = 0.11721 0.35976
# Poissons Ratio (y) = 0.06923 0.21585
# Poissons Ratio (z) = 0.17603 0.17880
#
# Static dielectric constant tensor:
#      x y z
#    x 5.723590 0.000000 0.153350 
#    y 0.000000 4.823060 0.000000 
#    z 0.153350 0.000000 7.109810 
# 
# 
# High freq. dielectric constant tensor:
#      x y z
#    x 2.143780 0.000000 0.027630 
#    y 0.000000 2.069320 0.000000 
#    z 0.027630 0.000000 2.134090 
# 
# From -- ./inp_files/76513.got.cif
#   From: 2010.06.25/outbox.cif.g09.slc.cpg/sg15_39_cif.got.tgz:76513.got - 2010.06.28 07:06:18.
