data_PCOD8147982
_publ_section_title
;
Structure prediction by ZEFSAII (Michael W. Deem and Ramdas Pophale) SiO2 
 PCOD8147982
Probable space group: C 2/C
;
_chemical_formula_sum "Si O2"
_cell_formula_units_Z 40
_cell_length_a 21.248052
_cell_length_b 7.973775
_cell_length_c 13.262674
_cell_angle_alpha 90.000000
_cell_angle_beta 133.358647
_cell_angle_gamma 90.000000
_cell_volume 1633.768984
_symmetry_space_group_name_H-M "C 2/C"
_symmetry_group_IT_number 15
_symmetry_cell_setting 'monoclinic'
loop_
_space_group_symop_operation_xyz
x,y,z
-x,y,1/2-z
-x,-y,-z
x,-y,1/2+z
1/2+x,1/2+y,z
1/2-x,1/2+y,1/2-z
1/2-x,1/2-y,-z
1/2+x,1/2-y,1/2+z
loop_
_atom_site_type_symbol
_atom_site_label
_atom_site_fract_x
_atom_site_fract_y
_atom_site_fract_z
Si Si1 0.048872 0.388791 0.474149
Si Si2 0.829785 0.617404 0.018187
Si Si3 0.300666 0.519093 0.479430
Si Si4 0.337105 0.611239 0.805659
Si Si5 0.435255 0.600652 0.258479
O O1 0.091866 0.511352 0.439474
O O2 0.123765 0.285671 0.612929
O O3 0.000000 0.500000 0.500000
O O4 0.978629 0.273605 0.340976
O O5 0.855874 0.810697 0.066746
O O6 0.746034 0.636632 0.854137
O O7 0.798206 0.533713 0.088930
O O8 0.302306 0.491874 0.362807
O O9 0.347786 0.369805 0.595473
O O10 0.413536 0.509542 0.833206
O O11 0.500000 0.509577 0.250000
#
# Coordination Sequence:
#
# PCOD8147982 Si02
#       5
#     8   8   8   8   8
#     4  12  26  44  70 110 141 181 237 297 349 409
#     4  10  24  45  71 105 137 186 237 292 337 420
#     4  10  22  47  71  98 141 189 235 278 355 417
#     4  11  23  46  73  99 145 193 228 283 356 419
#     4  11  24  45  70 104 141 191 227 284 362 412
#
# _framework density 24.483267000000001
#
# number of rings (size 3 to 8) (size 9 to 14) (size 15 to 20)
#    0.000    1.200    2.000    3.000    2.800    2.400 
#   18.000    0.000    0.000    0.000    0.000    0.000 
#    0.000    0.000    0.000    0.000    0.000    0.000 
#
# Total GULP energy -247893.226286 kJ/mol
# GULP energy per Si atom -12394.661314 kJ/mol
# Density = 2.442754 g / cm^3
# Si number density = 24.483267 Si / 1000 Ang^3
#
#
#
# Elastic Constant Matrix: (Units=GPa)
#
#
# Indices 1 2 3 4 5 6 
#
# 1 214.7912 64.4088 19.2806 0.0000 -28.6684 0.0000
# 2 64.4088 93.1580 21.3578 0.0000 6.9244 0.0000
# 3 19.2806 21.3578 73.3818 0.0000 -7.9097 0.0000
# 4 0.0000 0.0000 0.0000 28.4983 0.0000 8.0030
# 5 -28.6684 6.9244 -7.9097 0.0000 36.8604 0.0000
# 6 0.0000 0.0000 0.0000 8.0030 0.0000 41.1536
#
#
#
# Elastic Compliance Matrix: (Units=1/GPa)
#
#
# Indices 1 2 3 4 5 6 
#
# 1 0.007184 -0.005573 0.000460 0.000000 0.006733 0.000000
# 2 -0.005573 0.016147 -0.004125 0.000000 -0.008253 0.000000
# 3 0.000460 -0.004125 0.015180 0.000000 0.004390 0.000000
# 4 0.000000 0.000000 0.000000 0.037117 0.000000 -0.007218
# 5 0.006733 -0.008253 0.004390 0.000000 0.034859 0.000000
# 6 0.000000 0.000000 0.000000 -0.007218 0.000000 0.025703
#
#
# Mechanical properties :
#
#
# Convention : Reuss Voigt Hill
#
# Bulk Modulus (GPa) = 49.91066 65.71394 57.81230
# Shear Modulus (GPa) = 30.98979 39.72140 35.35560
#
# Velocity S-wave (km/s) = 3.56160 4.03226 3.80422
# Velocity P-wave (km/s) = 6.11091 6.96975 6.55441
#
# Compressibility (1/GPa) = 0.02003580
#
# Stress axis : x y z
#
# Youngs Moduli (GPa) = 139.19279 61.93186 65.87547
#
# Poissons Ratio (x) = 0.34516 -0.03032
# Poissons Ratio (y) = 0.77574 0.27172
# Poissons Ratio (z) = -0.06406 0.25545
#
# Static dielectric constant tensor:
#      x y z
#    x 4.892630 0.000000 -0.228660 
#    y 0.000000 4.463680 0.000000 
#    z -0.228660 0.000000 4.365510 
# 
# 
# High freq. dielectric constant tensor:
#      x y z
#    x 2.000160 0.000000 -0.015220 
#    y 0.000000 1.966090 0.000000 
#    z -0.015220 0.000000 1.966760 
# 
# From -- ./inp_files/166511.got.cif
#   From: 2010.06.25/outbox.cif.g09.slc.cpg/sg15_84_cif.got.tgz:166511.got - 2010.06.28 07:06:18.
