data_PCOD8147669
_publ_section_title
;
Structure prediction by ZEFSAII (Michael W. Deem and Ramdas Pophale) SiO2 
 PCOD8147669
Probable space group: C 2/C
;
_chemical_formula_sum "Si O2"
_cell_formula_units_Z 36
_cell_length_a 12.685932
_cell_length_b 13.213074
_cell_length_c 14.832035
_cell_angle_alpha 90.000000
_cell_angle_beta 143.488299
_cell_angle_gamma 90.000000
_cell_volume 1479.225620
_symmetry_space_group_name_H-M "C 2/C"
_symmetry_group_IT_number 15
_symmetry_cell_setting 'monoclinic'
loop_
_space_group_symop_operation_xyz
x,y,z
-x,y,1/2-z
-x,-y,-z
x,-y,1/2+z
1/2+x,1/2+y,z
1/2-x,1/2+y,1/2-z
1/2-x,1/2-y,-z
1/2+x,1/2-y,1/2+z
loop_
_atom_site_type_symbol
_atom_site_label
_atom_site_fract_x
_atom_site_fract_y
_atom_site_fract_z
Si Si1 0.017243 0.065707 0.922700
Si Si2 0.640193 0.883764 0.773093
Si Si3 0.500000 0.435926 0.750000
Si Si4 0.823406 0.691152 0.400765
Si Si5 0.164884 0.614352 0.736373
O O1 0.817801 0.105699 0.763452
O O2 0.091761 0.004447 0.889153
O O3 0.167792 0.147565 0.052934
O O4 0.000000 0.000000 0.000000
O O5 0.500000 0.843816 0.750000
O O6 0.616368 0.829965 0.660666
O O7 0.621450 0.006380 0.750756
O O8 0.345389 0.374811 0.691229
O O9 0.760116 0.807566 0.372340
O O10 0.988192 0.666331 0.577869
#
# Coordination Sequence:
#
# PCOD8147669 Si02
#       5
#     8   8   4   8   8
#     4  10  22  44  69  98 142 178 222 279 343 403
#     4  11  24  46  70 100 139 179 229 285 340 406
#     4  12  24  42  76 100 138 178 232 278 350 402
#     4  12  26  44  68 105 135 184 229 282 343 410
#     4  11  25  45  68 100 142 176 232 278 345 406
#
# _framework density 24.337057999999999
#
# number of rings (size 3 to 8) (size 9 to 14) (size 15 to 20)
#    0.000    0.889    4.444    3.333    7.778    0.889 
#    2.000    2.222    0.000    0.000    0.000    0.000 
#    0.000    0.000    0.000    0.000    0.000    0.000 
#
# Total GULP energy -222998.504267 kJ/mol
# GULP energy per Si atom -12388.805793 kJ/mol
# Density = 2.428167 g / cm^3
# Si number density = 24.337058 Si / 1000 Ang^3
#
#
#
# Elastic Constant Matrix: (Units=GPa)
#
#
# Indices 1 2 3 4 5 6 
#
# 1 111.4894 -24.1471 22.1396 0.0003 4.0137 0.0000
# 2 -24.1471 49.9546 2.4017 0.0002 -8.9404 0.0000
# 3 22.1396 2.4017 97.1563 0.0005 22.3214 0.0002
# 4 0.0003 0.0002 0.0005 39.0583 0.0005 -5.3502
# 5 4.0137 -8.9404 22.3214 0.0005 42.9801 0.0002
# 6 0.0000 0.0000 0.0002 -5.3502 0.0002 1.9122
#
#
#
# Elastic Compliance Matrix: (Units=1/GPa)
#
#
# Indices 1 2 3 4 5 6 
#
# 1 0.010718 0.005631 -0.002976 0.000000 0.001716 0.000000
# 2 0.005631 0.024005 -0.003296 0.000000 0.006179 -0.000002
# 3 -0.002976 -0.003296 0.012656 0.000000 -0.006981 -0.000001
# 4 0.000000 0.000000 0.000000 0.041513 -0.000001 0.116151
# 5 0.001716 0.006179 -0.006981 -0.000001 0.028017 -0.000006
# 6 0.000000 -0.000002 -0.000001 0.116151 -0.000006 0.847934
#
#
# Mechanical properties :
#
#
# Convention : Reuss Voigt Hill
#
# Bulk Modulus (GPa) = 21.69341 28.82100 25.25720
# Shear Modulus (GPa) = 5.09429 34.00385 19.54907
#
# Velocity S-wave (km/s) = 1.44837 3.74198 2.83727
# Velocity P-wave (km/s) = 3.42492 5.52612 4.59718
#
# Compressibility (1/GPa) = 0.04609694
#
# Stress axis : x y z
#
# Youngs Moduli (GPa) = 93.29860 41.65874 79.01341
#
# Poissons Ratio (x) = -0.23459 0.23513
# Poissons Ratio (y) = -0.52538 0.26045
# Poissons Ratio (z) = 0.27764 0.13732
#
# Static dielectric constant tensor:
#      x y z
#    x 4.715590 0.000000 0.656920 
#    y 0.000000 4.506790 0.000000 
#    z 0.656920 0.000000 4.922880 
# 
# 
# High freq. dielectric constant tensor:
#      x y z
#    x 1.969220 0.000000 0.022050 
#    y 0.000000 1.953220 0.000000 
#    z 0.022050 0.000000 1.977570 
# 
# From -- ./inp_files/37539.got.cif
#   From: 2010.06.25/outbox.cif.g09.slc.cpg/sg15_19_cif.got.tgz:37539.got - 2010.06.28 07:06:18.
