data_PCOD8147942
_publ_section_title
;
Structure prediction by ZEFSAII (Michael W. Deem and Ramdas Pophale) SiO2 
 PCOD8147942
Probable space group: C 2/C
;
_chemical_formula_sum "Si O2"
_cell_formula_units_Z 48
_cell_length_a 14.041742
_cell_length_b 8.543671
_cell_length_c 26.967729
_cell_angle_alpha 90.000000
_cell_angle_beta 140.463474
_cell_angle_gamma 90.000000
_cell_volume 2059.472744
_symmetry_space_group_name_H-M "C 2/C"
_symmetry_group_IT_number 15
_symmetry_cell_setting 'monoclinic'
loop_
_space_group_symop_operation_xyz
x,y,z
-x,y,1/2-z
-x,-y,-z
x,-y,1/2+z
1/2+x,1/2+y,z
1/2-x,1/2+y,1/2-z
1/2-x,1/2-y,-z
1/2+x,1/2-y,1/2+z
loop_
_atom_site_type_symbol
_atom_site_label
_atom_site_fract_x
_atom_site_fract_y
_atom_site_fract_z
Si Si1 0.386640 0.679254 0.778962
Si Si2 0.500000 0.928006 0.750000
Si Si3 0.419859 0.808183 0.557879
Si Si4 0.488677 0.680788 0.008266
Si Si5 0.000000 0.941164 0.750000
Si Si6 0.048886 0.350655 0.129229
Si Si7 0.845683 0.698724 0.633962
O O1 0.402680 0.830147 0.750077
O O2 0.463389 0.707128 0.862900
O O3 0.476120 0.539956 0.789484
O O4 0.216067 0.621404 0.717258
O O5 0.380124 0.028371 0.670792
O O6 0.250000 0.750000 0.500000
O O7 0.450829 0.782203 0.512728
O O8 0.452440 0.991421 0.580856
O O9 0.574146 0.740708 0.091362
O O10 0.500000 0.500000 0.000000
O O11 0.317877 0.712176 0.953264
O O12 0.858637 0.828548 0.682521
O O13 0.960676 0.257621 0.136298
#
# Coordination Sequence:
#
# PCOD8147942 Si02
#       7
#     8   4   8   8   4   8   8
#     4  11  26  45  75 102 142 190 247 295 368 439
#     4  10  22  46  72 100 148 186 246 298 374 432
#     4  12  29  49  75 106 151 196 245 305 377 445
#     4  12  28  45  72 105 150 191 245 307 373 435
#     4  10  26  40  72 102 140 182 240 298 360 428
#     4  12  27  46  75 106 145 193 250 299 372 444
#     4  11  24  44  71 105 146 184 242 302 370 434
#
# _framework density 23.306936
#
# number of rings (size 3 to 8) (size 9 to 14) (size 15 to 20)
#    0.000    0.667    1.667    4.000   16.333    0.000 
#    0.000    0.000    0.000    0.000    0.000    0.000 
#    0.000    0.000    0.000    0.000    0.000    0.000 
#
# Total GULP energy -297597.071068 kJ/mol
# GULP energy per Si atom -12399.877961 kJ/mol
# Density = 2.325389 g / cm^3
# Si number density = 23.306936 Si / 1000 Ang^3
#
#
#
# Elastic Constant Matrix: (Units=GPa)
#
#
# Indices 1 2 3 4 5 6 
#
# 1 102.2728 13.4984 33.5769 0.0000 4.3117 0.0000
# 2 13.4984 113.7174 26.8698 0.0000 -3.8101 0.0000
# 3 33.5769 26.8698 118.6170 0.0000 8.6555 0.0000
# 4 0.0000 0.0000 0.0000 33.7668 0.0000 -5.6436
# 5 4.3117 -3.8101 8.6555 0.0000 50.7069 0.0000
# 6 0.0000 0.0000 0.0000 -5.6436 0.0000 28.1513
#
#
#
# Elastic Compliance Matrix: (Units=1/GPa)
#
#
# Indices 1 2 3 4 5 6 
#
# 1 0.010828 -0.000618 -0.002891 0.000000 -0.000474 0.000000
# 2 -0.000618 0.009384 -0.002031 0.000000 0.001104 0.000000
# 3 -0.002891 -0.002031 0.009824 0.000000 -0.001584 0.000000
# 4 0.000000 0.000000 0.000000 0.030642 0.000000 0.006143
# 5 -0.000474 0.001104 -0.001584 0.000000 0.020115 0.000000
# 6 0.000000 0.000000 0.000000 0.006143 0.000000 0.036754
#
#
# Mechanical properties :
#
#
# Convention : Reuss Voigt Hill
#
# Bulk Modulus (GPa) = 52.75191 53.61082 53.18137
# Shear Modulus (GPa) = 37.05181 39.90246 38.47714
#
# Velocity S-wave (km/s) = 3.99147 4.14217 4.06752
# Velocity P-wave (km/s) = 6.62761 6.77708 6.70276
#
# Compressibility (1/GPa) = 0.01895666
#
# Stress axis : x y z
#
# Youngs Moduli (GPa) = 92.35029 106.56338 101.78689
#
# Poissons Ratio (x) = 0.06588 0.29422
# Poissons Ratio (y) = 0.05709 0.20676
# Poissons Ratio (z) = 0.26694 0.21647
#
# Static dielectric constant tensor:
#      x y z
#    x 4.116810 0.000000 -0.112080 
#    y 0.000000 4.302910 0.000000 
#    z -0.112080 0.000000 4.394850 
# 
# 
# High freq. dielectric constant tensor:
#      x y z
#    x 1.928020 0.000000 -0.006730 
#    y 0.000000 1.930400 0.000000 
#    z -0.006730 0.000000 1.929400 
# 
# From -- ./inp_files/295491.got.cif
#   From: 2010.06.25/outbox.cif.g09.slc.cpg/sg15_148_cif.got.tgz:295491.got - 2010.06.28 07:06:18.
