data_PCOD8147337
_publ_section_title
;
Structure prediction by ZEFSAII (Michael W. Deem and Ramdas Pophale) SiO2 
 PCOD8147337
Probable space group: C 2/C
;
_chemical_formula_sum "Si O2"
_cell_formula_units_Z 40
_cell_length_a 17.094380
_cell_length_b 23.249642
_cell_length_c 9.413990
_cell_angle_alpha 90.000000
_cell_angle_beta 150.370388
_cell_angle_gamma 90.000000
_cell_volume 1849.754404
_symmetry_space_group_name_H-M "C 2/C"
_symmetry_group_IT_number 15
_symmetry_cell_setting 'monoclinic'
loop_
_space_group_symop_operation_xyz
x,y,z
-x,y,1/2-z
-x,-y,-z
x,-y,1/2+z
1/2+x,1/2+y,z
1/2-x,1/2+y,1/2-z
1/2-x,1/2-y,-z
1/2+x,1/2-y,1/2+z
loop_
_atom_site_type_symbol
_atom_site_label
_atom_site_fract_x
_atom_site_fract_y
_atom_site_fract_z
Si Si1 0.566490 0.757412 0.706811
Si Si2 0.857337 0.957190 0.752476
Si Si3 0.639510 0.879299 0.880868
Si Si4 0.466949 0.345135 0.531982
Si Si5 0.676365 0.981578 0.744795
O O1 0.500000 0.733892 0.750000
O O2 0.542873 0.826231 0.653416
O O3 0.489708 0.718236 0.461594
O O4 0.750000 0.750000 0.000000
O O5 0.718485 0.972029 0.646409
O O6 0.917445 0.891832 0.858898
O O7 0.788951 0.968774 0.487056
O O8 0.000000 0.000000 0.000000
O O9 0.500000 0.911585 0.750000
O O10 0.712375 0.921155 0.878937
O O11 0.783147 0.859007 0.209113
O O12 0.500000 0.343636 0.750000
O O13 0.500000 0.000000 0.500000
#
# Coordination Sequence:
#
# PCOD8147337 Si02
#       5
#     8   8   8   8   8
#     4   9  21  41  69  93 127 178 221 262 328 396
#     4  12  25  41  67  99 131 170 222 274 335 386
#     4  10  22  43  68  93 135 180 218 265 336 400
#     4  11  24  41  68 102 133 168 225 284 327 386
#     4  12  26  44  67  95 134 178 218 273 333 409
#
# _framework density 21.624493000000001
#
# number of rings (size 3 to 8) (size 9 to 14) (size 15 to 20)
#    0.000    1.200    2.000    3.600    8.400    0.000 
#    0.000   11.000    0.000    0.000    0.000    0.000 
#    0.000    0.000    0.000    0.000    0.000    0.000 
#
# Total GULP energy -247897.006643 kJ/mol
# GULP energy per Si atom -12394.850332 kJ/mol
# Density = 2.157527 g / cm^3
# Si number density = 21.624493 Si / 1000 Ang^3
#
#
#
# Elastic Constant Matrix: (Units=GPa)
#
#
# Indices 1 2 3 4 5 6 
#
# 1 127.4522 31.2194 25.0949 0.0000 2.8675 0.0000
# 2 31.2194 116.2787 35.1785 0.0000 -8.0189 0.0000
# 3 25.0949 35.1785 88.5832 0.0000 -2.2780 0.0000
# 4 0.0000 0.0000 0.0000 34.0676 0.0000 6.4819
# 5 2.8675 -8.0189 -2.2780 0.0000 36.3011 0.0000
# 6 0.0000 0.0000 0.0000 6.4819 0.0000 24.8421
#
#
#
# Elastic Compliance Matrix: (Units=1/GPa)
#
#
# Indices 1 2 3 4 5 6 
#
# 1 0.008678 -0.001887 -0.001740 0.000000 -0.001212 0.000000
# 2 -0.001887 0.010320 -0.003507 0.000000 0.002209 0.000000
# 3 -0.001740 -0.003507 0.013179 0.000000 0.000190 0.000000
# 4 0.000000 0.000000 0.000000 0.030887 0.000000 -0.008059
# 5 -0.001212 0.002209 0.000190 0.000000 0.028143 0.000000
# 6 0.000000 0.000000 0.000000 -0.008059 0.000000 0.042357
#
#
# Mechanical properties :
#
#
# Convention : Reuss Voigt Hill
#
# Bulk Modulus (GPa) = 55.83739 57.25551 56.54645
# Shear Modulus (GPa) = 32.50926 35.09692 33.80309
#
# Velocity S-wave (km/s) = 3.88152 4.03304 3.95800
# Velocity P-wave (km/s) = 6.77980 6.94419 6.86249
#
# Compressibility (1/GPa) = 0.01790915
#
# Stress axis : x y z
#
# Youngs Moduli (GPa) = 115.23097 96.89960 75.87614
#
# Poissons Ratio (x) = 0.18286 0.13204
# Poissons Ratio (y) = 0.21745 0.26609
# Poissons Ratio (z) = 0.20053 0.33982
#
# Static dielectric constant tensor:
#      x y z
#    x 4.160260 0.000000 -0.229900 
#    y 0.000000 5.616210 0.000000 
#    z -0.229900 0.000000 3.591230 
# 
# 
# High freq. dielectric constant tensor:
#      x y z
#    x 1.856290 0.000000 0.012740 
#    y 0.000000 1.859630 0.000000 
#    z 0.012740 0.000000 1.835670 
# 
# From -- ./inp_files/23777.got.cif
#   From: 2010.06.25/outbox.cif.g09.slc.cpg/sg15_12_cif.got.tgz:23777.got - 2010.06.28 07:06:18.
