data_PCOD8147248
_publ_section_title
;
Structure prediction by ZEFSAII (Michael W. Deem and Ramdas Pophale) SiO2 
 PCOD8147248
Probable space group: C 2/C
;
_chemical_formula_sum "Si O2"
_cell_formula_units_Z 36
_cell_length_a 7.412409
_cell_length_b 12.707897
_cell_length_c 18.174705
_cell_angle_alpha 90.000000
_cell_angle_beta 79.900690
_cell_angle_gamma 90.000000
_cell_volume 1685.460140
_symmetry_space_group_name_H-M "C 2/C"
_symmetry_group_IT_number 15
_symmetry_cell_setting 'monoclinic'
loop_
_space_group_symop_operation_xyz
x,y,z
-x,y,1/2-z
-x,-y,-z
x,-y,1/2+z
1/2+x,1/2+y,z
1/2-x,1/2+y,1/2-z
1/2-x,1/2-y,-z
1/2+x,1/2-y,1/2+z
loop_
_atom_site_type_symbol
_atom_site_label
_atom_site_fract_x
_atom_site_fract_y
_atom_site_fract_z
Si Si1 0.186123 0.708474 0.762760
Si Si2 0.000000 0.933576 0.250000
Si Si3 0.103360 0.208075 0.422130
Si Si4 0.196654 0.108458 0.152526
Si Si5 0.950559 0.391569 0.962416
O O1 0.353802 0.640776 0.719272
O O2 0.199130 0.725447 0.849688
O O3 0.182620 0.823043 0.726727
O O4 0.000000 0.649268 0.750000
O O5 0.115977 0.995339 0.180444
O O6 0.027574 0.290071 0.487342
O O7 0.243879 0.119883 0.444558
O O8 0.923494 0.149292 0.406642
O O9 0.408222 0.109248 0.115111
O O10 0.000000 0.500000 0.000000
#
# Coordination Sequence:
#
# PCOD8147248 Si02
#       5
#     8   4   8   8   8
#     4  10  22  43  65  93 128 166 217 271 318 378
#     4  12  22  38  66  94 126 170 212 260 330 376
#     4  10  22  44  61  91 132 165 213 271 314 375
#     4  11  23  42  63  95 129 165 216 269 317 380
#     4  11  24  39  64  93 126 174 214 255 325 386
#
# _framework density 21.359152000000002
#
# number of rings (size 3 to 8) (size 9 to 14) (size 15 to 20)
#    0.000    1.333    3.333    3.333    0.000    8.000 
#    2.000    0.000    0.000    0.000    0.000    0.000 
#    0.000    0.000    0.000    0.000    0.000    0.000 
#
# Total GULP energy -223110.430171 kJ/mol
# GULP energy per Si atom -12395.023898 kJ/mol
# Density = 2.131054 g / cm^3
# Si number density = 21.359152 Si / 1000 Ang^3
#
#
#
# Elastic Constant Matrix: (Units=GPa)
#
#
# Indices 1 2 3 4 5 6 
#
# 1 107.7495 52.2822 18.0390 0.0000 -11.4731 0.0000
# 2 52.2822 93.1202 13.1276 0.0000 -6.2559 0.0000
# 3 18.0390 13.1276 74.3126 0.0000 -9.6993 0.0000
# 4 0.0000 0.0000 0.0000 -3.9381 0.0000 -31.1929
# 5 -11.4731 -6.2559 -9.6993 0.0000 39.8126 0.0000
# 6 0.0000 0.0000 0.0000 -31.1929 0.0000 26.6593
#
#
#
# Elastic Compliance Matrix: (Units=1/GPa)
#
#
# Indices 1 2 3 4 5 6 
#
# 1 0.013216 -0.007031 -0.001666 0.000000 0.002298 0.000000
# 2 -0.007031 0.014819 -0.000900 0.000000 0.000083 0.000000
# 3 -0.001666 -0.000900 0.014397 0.000000 0.002886 0.000000
# 4 0.000000 0.000000 0.000000 -0.024731 0.000000 -0.028936
# 5 0.002298 0.000083 0.002886 0.000000 0.026496 0.000000
# 6 0.000000 0.000000 0.000000 -0.028936 0.000000 0.003653
#
#
# Mechanical properties :
#
#
# Convention : Reuss Voigt Hill
#
# Bulk Modulus (GPa) = 43.03475 49.11998 46.07737
# Shear Modulus (GPa) = 66.85391 25.28898 46.07145
#
# Velocity S-wave (km/s) = 5.60070 3.44465 4.64938
# Velocity P-wave (km/s) = 7.87500 6.23441 7.10224
#
# Compressibility (1/GPa) = 0.02323703
#
# Stress axis : x y z
#
# Youngs Moduli (GPa) = 75.66656 67.48219 69.45984
#
# Poissons Ratio (x) = 0.47445 0.11573
# Poissons Ratio (y) = 0.53199 0.06253
# Poissons Ratio (z) = 0.12607 0.06075
#
# Static dielectric constant tensor:
#      x y z
#    x 4.318740 0.000000 -0.182520 
#    y 0.000000 3.770870 0.000000 
#    z -0.182520 0.000000 3.777820 
# 
# 
# High freq. dielectric constant tensor:
#      x y z
#    x 1.852400 0.000000 -0.007070 
#    y 0.000000 1.832280 0.000000 
#    z -0.007070 0.000000 1.836660 
# 
# From -- ./inp_files/187674.got.cif
#   From: 2010.06.25/outbox.cif.g09.slc.cpg/sg15_94_cif.got.tgz:187674.got - 2010.06.28 07:06:18.
