data_PCOD8147206
_publ_section_title
;
Structure prediction by ZEFSAII (Michael W. Deem and Ramdas Pophale) SiO2 
 PCOD8147206
Probable space group: C 2/C
;
_chemical_formula_sum "Si O2"
_cell_formula_units_Z 44
_cell_length_a 26.155789
_cell_length_b 11.527679
_cell_length_c 15.471568
_cell_angle_alpha 90.000000
_cell_angle_beta 152.768418
_cell_angle_gamma 90.000000
_cell_volume 2134.611103
_symmetry_space_group_name_H-M "C 2/C"
_symmetry_group_IT_number 15
_symmetry_cell_setting 'monoclinic'
loop_
_space_group_symop_operation_xyz
x,y,z
-x,y,1/2-z
-x,-y,-z
x,-y,1/2+z
1/2+x,1/2+y,z
1/2-x,1/2+y,1/2-z
1/2-x,1/2-y,-z
1/2+x,1/2-y,1/2+z
loop_
_atom_site_type_symbol
_atom_site_label
_atom_site_fract_x
_atom_site_fract_y
_atom_site_fract_z
Si Si1 0.744703 0.760082 0.615315
Si Si2 0.991684 0.494389 0.883549
Si Si3 0.000000 0.323077 0.250000
Si Si4 0.591735 0.237892 0.491497
Si Si5 0.753417 0.546912 0.515929
Si Si6 0.143204 0.816379 0.377149
O O1 0.610645 0.744857 0.412165
O O2 0.802416 0.778547 0.793811
O O3 0.788554 0.638157 0.643520
O O4 0.781803 0.874886 0.618613
O O5 0.862958 0.466773 0.664805
O O6 0.019175 0.609277 0.869458
O O7 0.000000 0.500000 0.000000
O O8 0.076719 0.400376 0.972981
O O9 0.623718 0.276549 0.444868
O O10 0.473309 0.290450 0.348285
O O11 0.656659 0.456125 0.394097
O O12 0.250000 0.750000 0.500000
#
# Coordination Sequence:
#
# PCOD8147206 Si02
#       6
#     8   8   4   8   8   8
#     4  10  23  42  64  94 125 172 219 266 324 388
#     4  11  21  40  68  92 128 178 227 266 311 397
#     4  10  24  38  64  96 128 170 226 270 320 394
#     4  11  24  40  67 101 127 172 228 258 332 400
#     4  10  22  43  64  89 133 169 211 270 329 380
#     4  11  24  42  64  98 136 167 212 277 324 383
#
# _framework density 20.612653999999999
#
# number of rings (size 3 to 8) (size 9 to 14) (size 15 to 20)
#    0.000    1.455    3.636    1.091    5.091    2.182 
#    0.000    0.000    0.000    0.000    0.000    0.000 
#    0.000    0.000    0.000    0.000    0.000    0.000 
#
# Total GULP energy -272592.331938 kJ/mol
# GULP energy per Si atom -12390.560543 kJ/mol
# Density = 2.056574 g / cm^3
# Si number density = 20.612654 Si / 1000 Ang^3
#
#
#
# Elastic Constant Matrix: (Units=GPa)
#
#
# Indices 1 2 3 4 5 6 
#
# 1 86.5094 30.1210 39.5476 0.0000 6.9724 0.0000
# 2 30.1210 85.9576 46.0443 0.0000 3.8562 0.0000
# 3 39.5476 46.0443 126.9335 0.0000 1.5147 0.0000
# 4 0.0000 0.0000 0.0000 18.2660 0.0000 1.3789
# 5 6.9724 3.8562 1.5147 0.0000 34.0399 0.0000
# 6 0.0000 0.0000 0.0000 1.3789 0.0000 20.5415
#
#
#
# Elastic Compliance Matrix: (Units=1/GPa)
#
#
# Indices 1 2 3 4 5 6 
#
# 1 0.014364 -0.003155 -0.003302 0.000000 -0.002438 0.000000
# 2 -0.003155 0.015200 -0.004520 0.000000 -0.000874 0.000000
# 3 -0.003302 -0.004520 0.010538 0.000000 0.000719 0.000000
# 4 0.000000 0.000000 0.000000 0.055025 0.000000 -0.003694
# 5 -0.002438 -0.000874 0.000719 0.000000 0.029944 0.000000
# 6 0.000000 0.000000 0.000000 -0.003694 0.000000 0.048930
#
#
# Mechanical properties :
#
#
# Convention : Reuss Voigt Hill
#
# Bulk Modulus (GPa) = 55.10439 58.98071 57.04255
# Shear Modulus (GPa) = 24.75200 26.81531 25.78366
#
# Velocity S-wave (km/s) = 3.46904 3.61073 3.54059
# Velocity P-wave (km/s) = 6.54499 6.78669 6.66694
#
# Compressibility (1/GPa) = 0.01814738
#
# Stress axis : x y z
#
# Youngs Moduli (GPa) = 69.61914 65.79008 94.89629
#
# Poissons Ratio (x) = 0.20760 0.31330
# Poissons Ratio (y) = 0.21968 0.42894
# Poissons Ratio (z) = 0.22985 0.29738
#
# Static dielectric constant tensor:
#      x y z
#    x 3.800550 0.000000 0.184400 
#    y 0.000000 3.743600 0.000000 
#    z 0.184400 0.000000 4.008360 
# 
# 
# High freq. dielectric constant tensor:
#      x y z
#    x 1.806330 0.000000 0.005590 
#    y 0.000000 1.803110 0.000000 
#    z 0.005590 0.000000 1.808980 
# 
# From -- ./inp_files/151419.got.cif
#   From: 2010.06.25/outbox.cif.g09.slc.cpg/sg15_76_cif.got.tgz:151419.got - 2010.06.28 07:06:18.
