data_PCOD8147230
_publ_section_title
;
Structure prediction by ZEFSAII (Michael W. Deem and Ramdas Pophale) SiO2 
 PCOD8147230
Probable space group: C 2/C
;
_chemical_formula_sum "Si O2"
_cell_formula_units_Z 56
_cell_length_a 18.806587
_cell_length_b 14.486666
_cell_length_c 23.001695
_cell_angle_alpha 90.000000
_cell_angle_beta 24.344774
_cell_angle_gamma 90.000000
_cell_volume 2583.295765
_symmetry_space_group_name_H-M "C 2/C"
_symmetry_group_IT_number 15
_symmetry_cell_setting 'monoclinic'
loop_
_space_group_symop_operation_xyz
x,y,z
-x,y,1/2-z
-x,-y,-z
x,-y,1/2+z
1/2+x,1/2+y,z
1/2-x,1/2+y,1/2-z
1/2-x,1/2-y,-z
1/2+x,1/2-y,1/2+z
loop_
_atom_site_type_symbol
_atom_site_label
_atom_site_fract_x
_atom_site_fract_y
_atom_site_fract_z
Si Si1 0.582829 0.601446 0.507681
Si Si2 0.933770 0.107536 0.238707
Si Si3 0.876628 0.527456 0.506487
Si Si4 0.760591 0.543645 0.798607
Si Si5 0.373922 0.432575 0.397849
Si Si6 0.426896 0.794519 0.043105
Si Si7 0.195568 0.740434 0.738067
O O1 0.394593 0.559489 0.632354
O O2 0.719896 0.528967 0.379700
O O3 0.610216 0.627552 0.555671
O O4 0.625606 0.699880 0.448552
O O5 0.944718 0.190948 0.184588
O O6 0.000000 0.150050 0.250000
O O7 0.746668 0.057446 0.382957
O O8 0.073070 0.032200 0.115657
O O9 0.819070 0.562827 0.484783
O O10 0.854626 0.614173 0.565954
O O11 0.072512 0.491945 0.360987
O O12 0.794566 0.643177 0.804169
O O13 0.500000 0.403409 0.250000
O O14 0.631847 0.800250 0.894175
O O15 0.343097 0.790614 0.168330
#
# Coordination Sequence:
#
# PCOD8147230 Si02
#       7
#     8   8   8   8   8   8   8
#     4  10  23  42  63  95 130 175 207 269 339 378
#     4   9  22  43  65  90 128 175 214 258 331 393
#     4  10  22  43  64  97 123 173 220 267 314 394
#     4  10  23  40  65  93 131 169 211 276 321 376
#     4   9  22  41  66  87 128 175 212 256 333 388
#     4  11  25  37  67  99 128 165 224 270 326 380
#     4  11  24  40  62 102 126 172 217 271 328 385
#
# _framework density 21.677734999999998
#
# number of rings (size 3 to 8) (size 9 to 14) (size 15 to 20)
#    0.000    2.286    0.000    1.714   16.000    2.286 
#    2.571    2.143    0.000    0.000    0.000    0.000 
#    0.000    0.000    0.000    0.000    0.000    0.000 
#
# Total GULP energy -346917.566080 kJ/mol
# GULP energy per Si atom -12389.913074 kJ/mol
# Density = 2.162840 g / cm^3
# Si number density = 21.677735 Si / 1000 Ang^3
#
#
#
# Elastic Constant Matrix: (Units=GPa)
#
#
# Indices 1 2 3 4 5 6 
#
# 1 99.3839 60.9894 47.3148 0.0163 9.9787 0.0090
# 2 60.9894 127.6925 37.7525 -0.0339 5.6732 -0.0003
# 3 47.3148 37.7525 86.5600 -0.0678 -8.6352 0.0033
# 4 0.0163 -0.0339 -0.0678 25.0959 0.0019 7.5356
# 5 9.9787 5.6732 -8.6352 0.0019 25.9529 -0.0030
# 6 0.0090 -0.0003 0.0033 7.5356 -0.0030 34.5515
#
#
#
# Elastic Compliance Matrix: (Units=1/GPa)
#
#
# Indices 1 2 3 4 5 6 
#
# 1 0.018640 -0.006028 -0.008423 -0.000044 -0.008652 0.000005
# 2 -0.006028 0.011237 -0.001675 0.000015 -0.000696 -0.000002
# 3 -0.008423 -0.001675 0.017839 0.000054 0.009540 -0.000010
# 4 -0.000044 0.000015 0.000054 0.042640 0.000027 -0.009300
# 5 -0.008652 -0.000696 0.009540 0.000027 0.045184 -0.000001
# 6 0.000005 -0.000002 -0.000010 -0.009300 -0.000001 0.030970
#
#
# Mechanical properties :
#
#
# Convention : Reuss Voigt Hill
#
# Bulk Modulus (GPa) = 64.66880 67.30555 65.98717
# Shear Modulus (GPa) = 24.51975 28.29205 26.40590
#
# Velocity S-wave (km/s) = 3.36684 3.61656 3.49393
# Velocity P-wave (km/s) = 6.70901 6.96814 6.83980
#
# Compressibility (1/GPa) = 0.01546341
#
# Stress axis : x y z
#
# Youngs Moduli (GPa) = 53.64768 88.99333 56.05695
#
# Poissons Ratio (x) = 0.53649 0.47216
# Poissons Ratio (y) = 0.32341 0.09390
# Poissons Ratio (z) = 0.45186 0.14906
#
# Static dielectric constant tensor:
#      x y z
#    x 4.013660 -0.000050 -0.101660 
#    y -0.000050 4.018710 0.000190 
#    z -0.101660 0.000190 3.758900 
# 
# 
# High freq. dielectric constant tensor:
#      x y z
#    x 1.847060 0.000000 -0.001990 
#    y 0.000000 1.857490 0.000020 
#    z -0.001990 0.000020 1.838120 
# 
# From -- ./inp_files/249215.got.cif
#   From: 2010.06.25/outbox.cif.g09.slc.cpg/sg15_125_cif.got.tgz:249215.got - 2010.06.28 07:06:18.
