data_PCOD8147325
_publ_section_title
;
Structure prediction by ZEFSAII (Michael W. Deem and Ramdas Pophale) SiO2 
 PCOD8147325
Probable space group: C 2/C
;
_chemical_formula_sum "Si O2"
_cell_formula_units_Z 40
_cell_length_a 28.165161
_cell_length_b 7.593502
_cell_length_c 14.033714
_cell_angle_alpha 90.000000
_cell_angle_beta 145.663282
_cell_angle_gamma 90.000000
_cell_volume 1692.967750
_symmetry_space_group_name_H-M "C 2/C"
_symmetry_group_IT_number 15
_symmetry_cell_setting 'monoclinic'
loop_
_space_group_symop_operation_xyz
x,y,z
-x,y,1/2-z
-x,-y,-z
x,-y,1/2+z
1/2+x,1/2+y,z
1/2-x,1/2+y,1/2-z
1/2-x,1/2-y,-z
1/2+x,1/2-y,1/2+z
loop_
_atom_site_type_symbol
_atom_site_label
_atom_site_fract_x
_atom_site_fract_y
_atom_site_fract_z
Si Si1 0.380861 0.085527 0.976023
Si Si2 0.938112 0.537043 0.282508
Si Si3 0.330812 0.322515 0.188603
Si Si4 0.217619 0.762950 0.186993
Si Si5 0.839398 0.813481 0.610437
O O1 0.311510 0.935201 0.847567
O O2 0.320429 0.247928 0.844834
O O3 0.410239 0.105726 0.132964
O O4 0.460618 0.052642 0.039479
O O5 0.900790 0.669061 0.299220
O O6 0.909220 0.335236 0.249764
O O7 0.307536 0.367811 0.258617
O O8 0.366432 0.502283 0.201676
O O9 0.250000 0.250000 0.000000
O O10 0.168155 0.845526 0.015322
O O11 0.750000 0.750000 0.500000
#
# Coordination Sequence:
#
# PCOD8147325 Si02
#       5
#     8   8   8   8   8
#     4  10  22  43  67  98 137 175 225 277 337 400
#     4  10  23  44  66 100 140 178 217 285 336 396
#     4  12  21  41  69 101 135 177 230 275 337 404
#     4  11  23  42  69  98 133 178 229 274 339 402
#     4  11  23  43  67  96 139 181 220 274 344 400
#
# _framework density 23.62715
#
# number of rings (size 3 to 8) (size 9 to 14) (size 15 to 20)
#    0.000    1.200    4.000    2.400    0.000    0.800 
#    3.600    3.000    0.000    0.000    0.000    0.000 
#    0.000    0.000    0.000    0.000    0.000    0.000 
#
# Total GULP energy -247971.185851 kJ/mol
# GULP energy per Si atom -12398.559293 kJ/mol
# Density = 2.357337 g / cm^3
# Si number density = 23.627150 Si / 1000 Ang^3
#
#
#
# Elastic Constant Matrix: (Units=GPa)
#
#
# Indices 1 2 3 4 5 6 
#
# 1 138.2185 63.2090 59.4756 0.0000 19.1413 0.0000
# 2 63.2090 125.2608 63.1667 0.0000 9.4781 0.0000
# 3 59.4756 63.1667 122.1406 0.0000 32.6786 0.0000
# 4 0.0000 0.0000 0.0000 32.4885 0.0000 5.8803
# 5 19.1413 9.4781 32.6786 0.0000 53.7831 0.0000
# 6 0.0000 0.0000 0.0000 5.8803 0.0000 41.7235
#
#
#
# Elastic Compliance Matrix: (Units=1/GPa)
#
#
# Indices 1 2 3 4 5 6 
#
# 1 0.010297 -0.003717 -0.002730 0.000000 -0.001351 0.000000
# 2 -0.003717 0.012286 -0.005157 0.000000 0.002291 0.000000
# 3 -0.002730 -0.005157 0.013948 0.000000 -0.006594 0.000000
# 4 0.000000 0.000000 0.000000 0.031586 0.000000 -0.004452
# 5 -0.001351 0.002291 -0.006594 0.000000 0.022677 0.000000
# 6 0.000000 0.000000 0.000000 -0.004452 0.000000 0.024595
#
#
# Mechanical properties :
#
#
# Convention : Reuss Voigt Hill
#
# Bulk Modulus (GPa) = 75.06073 84.14696 79.60385
# Shear Modulus (GPa) = 34.95589 38.91692 36.93640
#
# Velocity S-wave (km/s) = 3.85057 4.06288 3.95815
# Velocity P-wave (km/s) = 7.18380 7.59613 7.39284
#
# Compressibility (1/GPa) = 0.01332254
#
# Stress axis : x y z
#
# Youngs Moduli (GPa) = 97.11994 81.39233 71.69413
#
# Poissons Ratio (x) = 0.30252 0.19575
# Poissons Ratio (y) = 0.36098 0.36973
# Poissons Ratio (z) = 0.26517 0.41975
#
# Static dielectric constant tensor:
#      x y z
#    x 4.727540 0.000000 0.036090 
#    y 0.000000 4.262600 0.000000 
#    z 0.036090 0.000000 4.265430 
# 
# 
# High freq. dielectric constant tensor:
#      x y z
#    x 1.948920 0.000000 -0.011040 
#    y 0.000000 1.927680 0.000000 
#    z -0.011040 0.000000 1.928890 
# 
# From -- ./inp_files/181277.got.cif
#   From: 2010.06.25/outbox.cif.g09.slc.cpg/sg15_91_cif.got.tgz:181277.got - 2010.06.28 07:06:18.
