data_PCOD8147722
_publ_section_title
;
Structure prediction by ZEFSAII (Michael W. Deem and Ramdas Pophale) SiO2 
 PCOD8147722
Probable space group: C 2/C
;
_chemical_formula_sum "Si O2"
_cell_formula_units_Z 60
_cell_length_a 29.734402
_cell_length_b 8.453837
_cell_length_c 23.508391
_cell_angle_alpha 90.000000
_cell_angle_beta 151.789621
_cell_angle_gamma 90.000000
_cell_volume 2793.387235
_symmetry_space_group_name_H-M "C 2/C"
_symmetry_group_IT_number 15
_symmetry_cell_setting 'monoclinic'
loop_
_space_group_symop_operation_xyz
x,y,z
-x,y,1/2-z
-x,-y,-z
x,-y,1/2+z
1/2+x,1/2+y,z
1/2-x,1/2+y,1/2-z
1/2-x,1/2-y,-z
1/2+x,1/2-y,1/2+z
loop_
_atom_site_type_symbol
_atom_site_label
_atom_site_fract_x
_atom_site_fract_y
_atom_site_fract_z
Si Si1 0.560696 0.136179 0.427457
Si Si2 0.388412 0.426941 0.332132
Si Si3 0.403827 0.440644 0.967564
Si Si4 0.234801 0.444454 0.583335
Si Si5 0.252664 0.584616 0.872678
Si Si6 0.709474 0.422148 0.469132
Si Si7 0.500000 0.325276 0.250000
Si Si8 0.074143 0.430859 0.626990
O O1 0.613027 0.262079 0.527982
O O2 0.520060 0.218432 0.326588
O O3 0.471897 0.062527 0.361708
O O4 0.629645 0.995113 0.485176
O O5 0.484784 0.485154 0.408736
O O6 0.364220 0.538688 0.359174
O O7 0.305679 0.436408 0.194009
O O8 0.399580 0.245530 0.364235
O O9 0.353088 0.562166 0.953252
O O10 0.258175 0.266794 0.625340
O O11 0.250481 0.458922 0.533506
O O12 0.169417 0.534964 0.736217
O O13 0.248251 0.476072 0.923643
O O14 0.750000 0.250000 0.500000
O O15 0.594048 0.429759 0.342327
O O16 0.000000 0.500000 0.500000
#
# Coordination Sequence:
#
# PCOD8147722 Si02
#       8
#     8   8   8   8   8   8   4   8
#     4  11  24  45  72 104 130 189 232 284 350 416
#     4  10  24  43  73 100 136 186 229 289 341 426
#     4  10  22  44  71  98 137 176 239 275 349 409
#     4  12  27  42  72 100 144 179 229 289 349 418
#     4  12  27  43  69 104 141 181 230 288 354 420
#     4  12  23  48  73 100 137 183 233 291 349 421
#     4  12  22  44  80  98 132 184 240 282 344 420
#     4  11  27  46  70 101 143 183 235 290 352 416
#
# _framework density 21.479299999999999
#
# number of rings (size 3 to 8) (size 9 to 14) (size 15 to 20)
#    0.000    0.800    2.667    4.400    9.333    0.000 
#    0.000    0.000    0.000    0.000    0.000    0.000 
#    0.000    0.000    0.000    0.000    0.000    0.000 
#
# Total GULP energy -372106.075807 kJ/mol
# GULP energy per Si atom -12403.535860 kJ/mol
# Density = 2.143041 g / cm^3
# Si number density = 21.479300 Si / 1000 Ang^3
#
#
#
# Elastic Constant Matrix: (Units=GPa)
#
#
# Indices 1 2 3 4 5 6 
#
# 1 121.2283 40.5525 23.1767 0.0000 -3.2656 0.0000
# 2 40.5525 110.8469 42.4105 0.0000 0.1392 0.0000
# 3 23.1767 42.4105 87.9696 0.0000 -9.5501 0.0000
# 4 0.0000 0.0000 0.0000 33.3390 0.0000 1.1773
# 5 -3.2656 0.1392 -9.5501 0.0000 36.3366 0.0000
# 6 0.0000 0.0000 0.0000 1.1773 0.0000 21.5267
#
#
#
# Elastic Compliance Matrix: (Units=1/GPa)
#
#
# Indices 1 2 3 4 5 6 
#
# 1 0.009485 -0.003115 -0.000930 0.000000 0.000620 0.000000
# 2 -0.003115 0.012163 -0.005228 0.000000 -0.001701 0.000000
# 3 -0.000930 -0.005228 0.014541 0.000000 0.003758 0.000000
# 4 0.000000 0.000000 0.000000 0.030053 0.000000 -0.001644
# 5 0.000620 -0.001701 0.003758 0.000000 0.028570 0.000000
# 6 0.000000 0.000000 0.000000 -0.001644 0.000000 0.046544
#
#
# Mechanical properties :
#
#
# Convention : Reuss Voigt Hill
#
# Bulk Modulus (GPa) = 56.67707 59.14716 57.91211
# Shear Modulus (GPa) = 30.15964 32.50080 31.33022
#
# Velocity S-wave (km/s) = 3.75123 3.89411 3.82334
# Velocity P-wave (km/s) = 6.72357 6.91486 6.81989
#
# Compressibility (1/GPa) = 0.01764382
#
# Stress axis : x y z
#
# Youngs Moduli (GPa) = 105.42467 82.21328 68.77116
#
# Poissons Ratio (x) = 0.25611 0.06395
# Poissons Ratio (y) = 0.32842 0.35953
# Poissons Ratio (z) = 0.09804 0.42981
#
# Static dielectric constant tensor:
#      x y z
#    x 4.426740 0.000000 0.073970 
#    y 0.000000 3.669860 0.000000 
#    z 0.073970 0.000000 3.960320 
# 
# 
# High freq. dielectric constant tensor:
#      x y z
#    x 1.864400 0.000000 0.001310 
#    y 0.000000 1.828830 0.000000 
#    z 0.001310 0.000000 1.845830 
# 
# From -- ./inp_files/284337.got.cif
#   From: 2010.06.25/outbox.cif.g09.slc.cpg/sg15_143_cif.got.tgz:284337.got - 2010.06.28 07:06:18.
