data_PCOD8147431
_publ_section_title
;
Structure prediction by ZEFSAII (Michael W. Deem and Ramdas Pophale) SiO2 
 PCOD8147431
Probable space group: C 2/C
;
_chemical_formula_sum "Si O2"
_cell_formula_units_Z 48
_cell_length_a 27.388410
_cell_length_b 8.303487
_cell_length_c 17.613032
_cell_angle_alpha 90.000000
_cell_angle_beta 147.615585
_cell_angle_gamma 90.000000
_cell_volume 2145.357533
_symmetry_space_group_name_H-M "C 2/C"
_symmetry_group_IT_number 15
_symmetry_cell_setting 'monoclinic'
loop_
_space_group_symop_operation_xyz
x,y,z
-x,y,1/2-z
-x,-y,-z
x,-y,1/2+z
1/2+x,1/2+y,z
1/2-x,1/2+y,1/2-z
1/2-x,1/2-y,-z
1/2+x,1/2-y,1/2+z
loop_
_atom_site_type_symbol
_atom_site_label
_atom_site_fract_x
_atom_site_fract_y
_atom_site_fract_z
Si Si1 0.822725 0.255538 0.913352
Si Si2 0.319939 0.681348 0.650732
Si Si3 0.478930 0.303294 0.059120
Si Si4 0.199238 0.375078 0.130106
Si Si5 0.842180 0.161814 0.105414
Si Si6 0.497387 0.675357 0.410549
O O1 0.795636 0.440462 0.890602
O O2 0.740264 0.153765 0.767914
O O3 0.853730 0.159166 0.029851
O O4 0.908428 0.270887 0.969985
O O5 0.250000 0.750000 0.500000
O O6 0.419773 0.767220 0.787745
O O7 0.269463 0.707768 0.664454
O O8 0.340154 0.502920 0.649038
O O9 0.476476 0.491291 0.076219
O O10 0.402371 0.203194 0.005598
O O11 0.456476 0.294595 0.940089
O O12 0.927969 0.251175 0.257265
O O13 0.750000 0.250000 0.000000
#
# Coordination Sequence:
#
# PCOD8147431 Si02
#       6
#     8   8   8   8   8   8
#     4  12  25  43  70 103 138 181 238 280 354 415
#     4  11  26  46  69 103 142 180 231 287 349 414
#     4  10  23  45  71  99 139 181 227 283 347 413
#     4  12  26  45  72 102 138 186 230 292 347 416
#     4  11  23  43  68 101 137 183 225 285 342 419
#     4  10  22  43  71  98 137 180 230 277 346 416
#
# _framework density 22.373892999999999
#
# number of rings (size 3 to 8) (size 9 to 14) (size 15 to 20)
#    0.000    1.000    3.333    2.500    7.000    2.667 
#    3.000    0.000    0.000    0.000    0.000    0.000 
#    0.000    0.000    0.000    0.000    0.000    0.000 
#
# Total GULP energy -297406.692497 kJ/mol
# GULP energy per Si atom -12391.945521 kJ/mol
# Density = 2.232297 g / cm^3
# Si number density = 22.373893 Si / 1000 Ang^3
#
#
#
# Elastic Constant Matrix: (Units=GPa)
#
#
# Indices 1 2 3 4 5 6 
#
# 1 115.4751 22.2552 55.1713 0.0000 12.0832 0.0000
# 2 22.2552 35.3062 25.7589 0.0000 0.1281 0.0000
# 3 55.1713 25.7589 188.8502 0.0000 6.3409 0.0000
# 4 0.0000 0.0000 0.0000 33.6061 0.0000 3.0788
# 5 12.0832 0.1281 6.3409 0.0000 45.0505 0.0000
# 6 0.0000 0.0000 0.0000 3.0788 0.0000 31.4251
#
#
#
# Elastic Compliance Matrix: (Units=1/GPa)
#
#
# Indices 1 2 3 4 5 6 
#
# 1 0.011106 -0.005206 -0.002447 0.000000 -0.002620 0.000000
# 2 -0.005206 0.033906 -0.003162 0.000000 0.001745 0.000000
# 3 -0.002447 -0.003162 0.006449 0.000000 -0.000243 0.000000
# 4 0.000000 0.000000 0.000000 0.030026 0.000000 -0.002942
# 5 -0.002620 0.001745 -0.000243 0.000000 0.022929 0.000000
# 6 0.000000 0.000000 0.000000 -0.002942 0.000000 0.032110
#
#
# Mechanical properties :
#
#
# Convention : Reuss Voigt Hill
#
# Bulk Modulus (GPa) = 33.52156 60.66692 47.09424
# Shear Modulus (GPa) = 29.74392 37.77942 33.76167
#
# Velocity S-wave (km/s) = 3.65005 4.11365 3.88877
# Velocity P-wave (km/s) = 5.72528 7.05243 6.42322
#
# Compressibility (1/GPa) = 0.02983154
#
# Stress axis : x y z
#
# Youngs Moduli (GPa) = 90.03886 29.49297 155.05266
#
# Poissons Ratio (x) = 0.15355 0.37934
# Poissons Ratio (y) = 0.46878 0.49033
# Poissons Ratio (z) = 0.22028 0.09327
#
# Static dielectric constant tensor:
#      x y z
#    x 4.761980 0.000000 -1.389890 
#    y 0.000000 3.654480 0.000000 
#    z -1.389890 0.000000 8.358620 
# 
# 
# High freq. dielectric constant tensor:
#      x y z
#    x 1.889320 0.000000 0.009310 
#    y 0.000000 1.847130 0.000000 
#    z 0.009310 0.000000 1.908310 
# 
# From -- ./inp_files/224696.got.cif
#   From: 2010.06.25/outbox.cif.g09.slc.cpg/sg15_113_cif.got.tgz:224696.got - 2010.06.28 07:06:18.
