data_PCOD8147474
_publ_section_title
;
Structure prediction by ZEFSAII (Michael W. Deem and Ramdas Pophale) SiO2 
 PCOD8147474
Probable space group: C 2/C
;
_chemical_formula_sum "Si O2"
_cell_formula_units_Z 48
_cell_length_a 25.535167
_cell_length_b 6.625233
_cell_length_c 19.498691
_cell_angle_alpha 90.000000
_cell_angle_beta 133.836800
_cell_angle_gamma 90.000000
_cell_volume 2379.417206
_symmetry_space_group_name_H-M "C 2/C"
_symmetry_group_IT_number 15
_symmetry_cell_setting 'monoclinic'
loop_
_space_group_symop_operation_xyz
x,y,z
-x,y,1/2-z
-x,-y,-z
x,-y,1/2+z
1/2+x,1/2+y,z
1/2-x,1/2+y,1/2-z
1/2-x,1/2-y,-z
1/2+x,1/2-y,1/2+z
loop_
_atom_site_type_symbol
_atom_site_label
_atom_site_fract_x
_atom_site_fract_y
_atom_site_fract_z
Si Si1 0.230880 0.285328 0.094077
Si Si2 0.563339 0.183546 0.757517
Si Si3 0.101134 0.709533 0.579501
Si Si4 0.452938 0.891088 0.875418
Si Si5 0.790077 0.543870 0.557398
Si Si6 0.368213 0.490125 0.272644
O O1 0.156432 0.277288 0.067713
O O2 0.285020 0.420350 0.189458
O O3 0.257754 0.057705 0.098456
O O4 0.217165 0.391376 0.010589
O O5 0.500000 0.261133 0.750000
O O6 0.623637 0.062599 0.854414
O O7 0.607869 0.370477 0.768054
O O8 0.524477 0.051707 0.662645
O O9 0.105320 0.501794 0.626936
O O10 0.117123 0.904338 0.641156
O O11 0.019770 0.707985 0.476424
O O12 0.414263 0.709075 0.803552
O O13 0.750000 0.750000 0.500000
#
# Coordination Sequence:
#
# PCOD8147474 Si02
#       6
#     8   8   8   8   8   8
#     4  11  24  40  63  95 125 166 204 255 314 365
#     4  11  23  40  64  90 123 169 208 257 314 363
#     4  10  24  40  66  91 124 167 202 255 315 367
#     4  10  22  44  61  91 128 157 213 260 303 374
#     4  11  23  42  62  89 130 161 209 258 301 374
#     4  11  23  39  63  94 125 158 211 256 303 375
#
# _framework density 20.173006999999998
#
# number of rings (size 3 to 8) (size 9 to 14) (size 15 to 20)
#    0.000    1.333    3.333    1.500    2.333    3.333 
#    0.000    0.000    0.000    0.000    0.000    0.000 
#    0.000    0.000    0.000    0.000    0.000    0.000 
#
# Total GULP energy -297505.456051 kJ/mol
# GULP energy per Si atom -12396.060669 kJ/mol
# Density = 2.012709 g / cm^3
# Si number density = 20.173007 Si / 1000 Ang^3
#
#
#
# Elastic Constant Matrix: (Units=GPa)
#
#
# Indices 1 2 3 4 5 6 
#
# 1 111.2688 37.7337 16.1477 0.0001 5.7167 -0.0004
# 2 37.7337 83.5792 24.4372 -0.0002 3.9314 -0.0029
# 3 16.1477 24.4372 88.2153 -0.0003 -0.1519 0.0001
# 4 0.0001 -0.0002 -0.0003 26.7550 0.0001 14.5957
# 5 5.7167 3.9314 -0.1519 0.0001 22.6511 0.0000
# 6 -0.0004 -0.0029 0.0001 14.5957 0.0000 -0.8910
#
#
#
# Elastic Compliance Matrix: (Units=1/GPa)
#
#
# Indices 1 2 3 4 5 6 
#
# 1 0.010731 -0.004547 -0.000708 -0.000001 -0.001924 0.000001
# 2 -0.004547 0.015065 -0.003344 0.000003 -0.001490 -0.000005
# 3 -0.000708 -0.003344 0.012393 -0.000001 0.000842 0.000001
# 4 -0.000001 0.000003 -0.000001 0.003762 0.000000 0.061618
# 5 -0.001924 -0.001490 0.000842 0.000000 0.044898 0.000000
# 6 0.000001 -0.000005 0.000001 0.061618 0.000000 -0.112950
#
#
# Mechanical properties :
#
#
# Convention : Reuss Voigt Hill
#
# Bulk Modulus (GPa) = 47.63729 48.85558 48.24644
# Shear Modulus (GPa) = -2622.28146 23.35267 -1299.46439
#
# Velocity S-wave (km/s) = -36.09319 3.40607 -25.40784
# Velocity P-wave (km/s) = 41.39193 6.30391 28.92709
#
# Compressibility (1/GPa) = 0.02099196
#
# Stress axis : x y z
#
# Youngs Moduli (GPa) = 93.18897 66.37765 80.68962
#
# Poissons Ratio (x) = 0.30183 0.05712
# Poissons Ratio (y) = 0.42375 0.26979
# Poissons Ratio (z) = 0.06597 0.22194
#
# Static dielectric constant tensor:
#      x y z
#    x 3.559230 0.000000 -0.106960 
#    y 0.000000 3.923730 0.000000 
#    z -0.106960 0.000000 3.847780 
# 
# 
# High freq. dielectric constant tensor:
#      x y z
#    x 1.775110 0.000000 -0.005150 
#    y 0.000000 1.794510 0.000000 
#    z -0.005150 0.000000 1.806150 
# 
# From -- ./inp_files/254481.got.cif
#   From: 2010.06.25/outbox.cif.g09.slc.cpg/sg15_128_cif.got.tgz:254481.got - 2010.06.28 07:06:18.
