data_PCOD8147935
_publ_section_title
;
Structure prediction by ZEFSAII (Michael W. Deem and Ramdas Pophale) SiO2 
 PCOD8147935
Probable space group: C 2/C
;
_chemical_formula_sum "Si O2"
_cell_formula_units_Z 36
_cell_length_a 20.207518
_cell_length_b 12.975737
_cell_length_c 9.473625
_cell_angle_alpha 90.000000
_cell_angle_beta 141.254632
_cell_angle_gamma 90.000000
_cell_volume 1554.671677
_symmetry_space_group_name_H-M "C 2/C"
_symmetry_group_IT_number 15
_symmetry_cell_setting 'monoclinic'
loop_
_space_group_symop_operation_xyz
x,y,z
-x,y,1/2-z
-x,-y,-z
x,-y,1/2+z
1/2+x,1/2+y,z
1/2-x,1/2+y,1/2-z
1/2-x,1/2-y,-z
1/2+x,1/2-y,1/2+z
loop_
_atom_site_type_symbol
_atom_site_label
_atom_site_fract_x
_atom_site_fract_y
_atom_site_fract_z
Si Si1 0.377097 0.112346 0.305755
Si Si2 0.000000 0.069647 0.250000
Si Si3 0.872350 0.421518 0.108778
Si Si4 0.044290 0.766946 0.585194
Si Si5 0.172217 0.905023 0.611994
O O1 0.430602 0.087988 0.551150
O O2 0.432895 0.217648 0.348491
O O3 0.250663 0.127363 0.113030
O O4 0.409717 0.021554 0.255620
O O5 0.022066 0.137608 0.150093
O O6 0.102660 0.001139 0.449010
O O7 0.882565 0.318324 0.218596
O O8 0.746756 0.435908 0.868519
O O9 0.100473 0.808102 0.537277
#
# Coordination Sequence:
#
# PCOD8147935 Si02
#       5
#     8   4   8   8   8
#     4  10  23  43  74 103 134 175 227 282 345 403
#     4  12  22  46  62  98 138 186 226 272 338 406
#     4  10  22  46  71 101 136 176 226 284 341 403
#     4  12  22  44  72  98 138 183 224 279 350 402
#     4  10  25  40  70  97 138 183 225 277 333 408
#
# _framework density 23.156013999999999
#
# number of rings (size 3 to 8) (size 9 to 14) (size 15 to 20)
#    1.333    0.000    2.222    3.333    0.000    1.778 
#    4.000    2.222    0.000    0.000    0.000    0.000 
#    0.000    0.000    0.000    0.000    0.000    0.000 
#
# Total GULP energy -223156.403917 kJ/mol
# GULP energy per Si atom -12397.577995 kJ/mol
# Density = 2.310331 g / cm^3
# Si number density = 23.156014 Si / 1000 Ang^3
#
#
#
# Elastic Constant Matrix: (Units=GPa)
#
#
# Indices 1 2 3 4 5 6 
#
# 1 95.3158 57.3371 6.1377 0.0000 15.0245 0.0000
# 2 57.3371 156.3255 56.8990 0.0000 15.4917 0.0000
# 3 6.1377 56.8990 77.6598 0.0000 23.1342 0.0000
# 4 0.0000 0.0000 0.0000 7.7523 0.0000 12.1311
# 5 15.0245 15.4917 23.1342 0.0000 24.1865 0.0000
# 6 0.0000 0.0000 0.0000 12.1311 0.0000 34.7561
#
#
#
# Elastic Compliance Matrix: (Units=1/GPa)
#
#
# Indices 1 2 3 4 5 6 
#
# 1 0.016851 -0.007939 0.008515 0.000000 -0.013527 0.000000
# 2 -0.007939 0.012473 -0.010629 0.000000 0.007109 0.000000
# 3 0.008515 -0.010629 0.027324 0.000000 -0.024617 0.000000
# 4 0.000000 0.000000 0.000000 0.284246 0.000000 -0.099212
# 5 -0.013527 0.007109 -0.024617 0.000000 0.068741 0.000000
# 6 0.000000 0.000000 0.000000 -0.099212 0.000000 0.063400
#
#
# Mechanical properties :
#
#
# Convention : Reuss Voigt Hill
#
# Bulk Modulus (GPa) = 27.36615 63.33873 45.35244
# Shear Modulus (GPa) = 9.89466 27.26746 18.58106
#
# Velocity S-wave (km/s) = 2.06938 3.43527 2.83579
# Velocity P-wave (km/s) = 4.18970 6.56865 5.50912
#
# Compressibility (1/GPa) = 0.03654150
#
# Stress axis : x y z
#
# Youngs Moduli (GPa) = 59.34264 80.17254 36.59724
#
# Poissons Ratio (x) = 0.63652 -0.31161
# Poissons Ratio (y) = 0.47114 0.38899
# Poissons Ratio (z) = -0.50528 0.85215
#
# Static dielectric constant tensor:
#      x y z
#    x 4.146440 0.000000 0.216280 
#    y 0.000000 3.925040 0.000000 
#    z 0.216280 0.000000 4.216810 
# 
# 
# High freq. dielectric constant tensor:
#      x y z
#    x 1.920020 0.000000 0.018760 
#    y 0.000000 1.907260 0.000000 
#    z 0.018760 0.000000 1.925150 
# 
# From -- ./inp_files/117286.got.cif
#   From: 2010.06.25/outbox.cif.g09.slc.cpg/sg15_59_cif.got.tgz:117286.got - 2010.06.28 07:06:18.
