data_PCOD8147619
_publ_section_title
;
Structure prediction by ZEFSAII (Michael W. Deem and Ramdas Pophale) SiO2 
 PCOD8147619
Probable space group: C 2/C
;
_chemical_formula_sum "Si O2"
_cell_formula_units_Z 56
_cell_length_a 23.788788
_cell_length_b 11.795399
_cell_length_c 10.645978
_cell_angle_alpha 90.000000
_cell_angle_beta 129.234595
_cell_angle_gamma 90.000000
_cell_volume 2313.806905
_symmetry_space_group_name_H-M "C 2/C"
_symmetry_group_IT_number 15
_symmetry_cell_setting 'monoclinic'
loop_
_space_group_symop_operation_xyz
x,y,z
-x,y,1/2-z
-x,-y,-z
x,-y,1/2+z
1/2+x,1/2+y,z
1/2-x,1/2+y,1/2-z
1/2-x,1/2-y,-z
1/2+x,1/2-y,1/2+z
loop_
_atom_site_type_symbol
_atom_site_label
_atom_site_fract_x
_atom_site_fract_y
_atom_site_fract_z
Si Si1 0.850175 0.450379 0.306011
Si Si2 0.289321 0.808854 0.416869
Si Si3 0.812623 0.328934 0.888767
Si Si4 0.111069 0.122147 0.863284
Si Si5 0.434480 0.194606 0.749045
Si Si6 0.523924 0.378733 0.485534
Si Si7 0.228970 0.026925 0.451226
O O1 0.852898 0.349765 0.412153
O O2 0.859004 0.574742 0.379662
O O3 0.913705 0.420919 0.295743
O O4 0.768990 0.433329 0.134402
O O5 0.215814 0.766064 0.245456
O O6 0.322510 0.710462 0.550348
O O7 0.272680 0.914126 0.479875
O O8 0.741017 0.382789 0.855973
O O9 0.864914 0.269986 0.065852
O O10 0.088270 0.104425 0.975903
O O11 0.046388 0.170582 0.686588
O O12 0.143888 0.002161 0.855823
O O13 0.500000 0.163764 0.750000
O O14 0.454207 0.297916 0.868739
O O15 0.500000 0.500000 0.500000
#
# Coordination Sequence:
#
# PCOD8147619 Si02
#       7
#     8   8   8   8   8   8   8
#     4  10  22  44  68 106 143 178 243 291 359 414
#     4  11  22  42  70 104 142 178 235 302 354 418
#     4  10  24  43  72 107 140 185 235 298 361 417
#     4  11  24  44  71 100 141 187 228 295 351 418
#     4  11  26  46  68 101 145 193 236 291 351 428
#     4  11  28  47  68 101 144 194 241 281 355 441
#     4  10  23  40  72 107 133 181 234 294 360 415
#
# _framework density 24.202539000000002
#
# number of rings (size 3 to 8) (size 9 to 14) (size 15 to 20)
#    0.000    1.429    2.857    0.429    6.000    4.000 
#    0.000    2.857    0.000    0.000    0.000    0.000 
#    0.000    0.000    0.000    0.000    0.000    0.000 
#
# Total GULP energy -347139.384407 kJ/mol
# GULP energy per Si atom -12397.835157 kJ/mol
# Density = 2.414745 g / cm^3
# Si number density = 24.202539 Si / 1000 Ang^3
#
#
#
# Elastic Constant Matrix: (Units=GPa)
#
#
# Indices 1 2 3 4 5 6 
#
# 1 103.0892 8.2572 17.2490 0.0000 -0.4660 0.0000
# 2 8.2572 64.2919 20.6395 0.0000 -2.1747 0.0000
# 3 17.2490 20.6395 97.4502 0.0000 1.9566 0.0000
# 4 0.0000 0.0000 0.0000 33.8645 0.0000 3.5739
# 5 -0.4660 -2.1747 1.9566 0.0000 32.9113 0.0000
# 6 0.0000 0.0000 0.0000 3.5739 0.0000 9.6959
#
#
#
# Elastic Compliance Matrix: (Units=1/GPa)
#
#
# Indices 1 2 3 4 5 6 
#
# 1 0.010033 -0.000763 -0.001618 0.000000 0.000188 0.000000
# 2 -0.000763 0.016804 -0.003450 0.000000 0.001305 0.000000
# 3 -0.001618 -0.003450 0.011297 0.000000 -0.000923 0.000000
# 4 0.000000 0.000000 0.000000 0.030725 0.000000 -0.011325
# 5 0.000188 0.001305 -0.000923 0.000000 0.030528 0.000000
# 6 0.000000 0.000000 0.000000 -0.011325 0.000000 0.107311
#
#
# Mechanical properties :
#
#
# Convention : Reuss Voigt Hill
#
# Bulk Modulus (GPa) = 37.77566 39.68030 38.72798
# Shear Modulus (GPa) = 22.00859 29.87336 25.94098
#
# Velocity S-wave (km/s) = 3.01882 3.51708 3.27743
# Velocity P-wave (km/s) = 5.27191 5.73793 5.50985
#
# Compressibility (1/GPa) = 0.02647207
#
# Stress axis : x y z
#
# Youngs Moduli (GPa) = 99.67081 59.51057 88.51668
#
# Poissons Ratio (x) = 0.04539 0.14323
# Poissons Ratio (y) = 0.07603 0.30539
# Poissons Ratio (z) = 0.16128 0.20532
#
# Static dielectric constant tensor:
#      x y z
#    x 4.584050 0.000000 -0.208260 
#    y 0.000000 4.238770 0.000000 
#    z -0.208260 0.000000 4.456470 
# 
# 
# High freq. dielectric constant tensor:
#      x y z
#    x 1.968570 0.000000 -0.020450 
#    y 0.000000 1.952440 0.000000 
#    z -0.020450 0.000000 1.962250 
# 
# From -- ./inp_files/122699.got.cif
#   From: 2010.06.25/outbox.cif.g09.slc.cpg/sg15_62_cif.got.tgz:122699.got - 2010.06.28 07:06:18.
