data_PCOD8147397
_publ_section_title
;
Structure prediction by ZEFSAII (Michael W. Deem and Ramdas Pophale) SiO2 
 PCOD8147397
Probable space group: C 2/C
;
_chemical_formula_sum "Si O2"
_cell_formula_units_Z 64
_cell_length_a 28.437542
_cell_length_b 9.018613
_cell_length_c 11.145476
_cell_angle_alpha 90.000000
_cell_angle_beta 87.295582
_cell_angle_gamma 90.000000
_cell_volume 2855.265239
_symmetry_space_group_name_H-M "C 2/C"
_symmetry_group_IT_number 15
_symmetry_cell_setting 'monoclinic'
loop_
_space_group_symop_operation_xyz
x,y,z
-x,y,1/2-z
-x,-y,-z
x,-y,1/2+z
1/2+x,1/2+y,z
1/2-x,1/2+y,1/2-z
1/2-x,1/2-y,-z
1/2+x,1/2-y,1/2+z
loop_
_atom_site_type_symbol
_atom_site_label
_atom_site_fract_x
_atom_site_fract_y
_atom_site_fract_z
Si Si1 0.444966 0.814699 0.776460
Si Si2 0.771250 0.316151 0.877436
Si Si3 0.039098 0.797792 0.970665
Si Si4 0.437932 0.368904 0.049202
Si Si5 0.773954 0.002223 0.807649
Si Si6 0.601138 0.899660 0.304901
Si Si7 0.321167 0.980283 0.530326
Si Si8 0.352725 0.701589 0.395933
O O1 0.500000 0.841486 0.750000
O O2 0.436338 0.733954 0.904149
O O3 0.423387 0.710400 0.674900
O O4 0.418444 0.972467 0.779921
O O5 0.732425 0.422067 0.819669
O O6 0.785326 0.178151 0.789280
O O7 0.750000 0.250000 0.000000
O O8 0.815974 0.415085 0.912097
O O9 0.982750 0.783545 0.987543
O O10 0.056596 0.679859 0.871364
O O11 0.051179 0.961142 0.921675
O O12 0.397328 0.366644 0.956398
O O13 0.724935 0.984742 0.882645
O O14 0.817301 0.931557 0.872686
O O15 0.631875 0.782452 0.227721
O O16 0.633043 0.969308 0.404487
O O17 0.326369 0.812841 0.487458
#
# Coordination Sequence:
#
# PCOD8147397 Si02
#       8
#     8   8   8   8   8   8   8   8
#     4  10  23  44  71 103 139 185 233 283 346 417
#     4  10  22  43  70  94 132 173 226 282 346 404
#     4  10  25  45  71  98 144 180 232 288 347 412
#     4  10  24  47  68 100 138 187 228 285 346 416
#     4  11  24  44  68  96 133 185 228 284 345 410
#     4  12  25  42  71 104 140 179 233 287 354 415
#     4  11  23  45  66  96 138 178 228 291 340 408
#     4  12  25  42  65 103 135 179 237 277 352 415
#
# _framework density 22.414732000000001
#
# number of rings (size 3 to 8) (size 9 to 14) (size 15 to 20)
#    0.000    1.250    1.250    4.125    5.250    2.000 
#    2.250    0.000    0.000    0.000    0.000    0.000 
#    0.000    0.000    0.000    0.000    0.000    0.000 
#
# Total GULP energy -396906.790673 kJ/mol
# GULP energy per Si atom -12403.337209 kJ/mol
# Density = 2.236372 g / cm^3
# Si number density = 22.414732 Si / 1000 Ang^3
#
#
#
# Elastic Constant Matrix: (Units=GPa)
#
#
# Indices 1 2 3 4 5 6 
#
# 1 78.2943 23.9943 16.4254 0.0000 18.5129 0.0000
# 2 23.9943 91.7819 18.3475 0.0000 9.2450 0.0000
# 3 16.4254 18.3475 64.7160 0.0000 11.1754 0.0000
# 4 0.0000 0.0000 0.0000 42.9716 0.0000 8.1241
# 5 18.5129 9.2450 11.1754 0.0000 43.1752 0.0000
# 6 0.0000 0.0000 0.0000 8.1241 0.0000 34.6256
#
#
#
# Elastic Compliance Matrix: (Units=1/GPa)
#
#
# Indices 1 2 3 4 5 6 
#
# 1 0.015436 -0.003068 -0.002113 0.000000 -0.005415 0.000000
# 2 -0.003068 0.012280 -0.002592 0.000000 -0.000643 0.000000
# 3 -0.002113 -0.002592 0.017242 0.000000 -0.003002 0.000000
# 4 0.000000 0.000000 0.000000 0.024351 0.000000 -0.005714
# 5 -0.005415 -0.000643 -0.003002 0.000000 0.026398 0.000000
# 6 0.000000 0.000000 0.000000 -0.005714 0.000000 0.030221
#
#
# Mechanical properties :
#
#
# Convention : Reuss Voigt Hill
#
# Bulk Modulus (GPa) = 33.99858 39.14741 36.57300
# Shear Modulus (GPa) = 33.05179 35.88947 34.47063
#
# Velocity S-wave (km/s) = 3.84416 4.00579 3.92581
# Velocity P-wave (km/s) = 5.90799 6.23683 6.07463
#
# Compressibility (1/GPa) = 0.02941299
#
# Stress axis : x y z
#
# Youngs Moduli (GPa) = 64.78317 81.43138 57.99918
#
# Poissons Ratio (x) = 0.24980 0.12255
# Poissons Ratio (y) = 0.19873 0.15033
# Poissons Ratio (z) = 0.13689 0.21106
#
# Static dielectric constant tensor:
#      x y z
#    x 4.025750 0.000000 0.215500 
#    y 0.000000 4.757130 0.000000 
#    z 0.215500 0.000000 4.147700 
# 
# 
# High freq. dielectric constant tensor:
#      x y z
#    x 1.880870 0.000000 0.012110 
#    y 0.000000 1.896270 0.000000 
#    z 0.012110 0.000000 1.884790 
# 
# From -- ./inp_files/125932.got.cif
#   From: 2010.06.25/outbox.cif.g09.slc.cpg/sg15_63_cif.got.tgz:125932.got - 2010.06.28 07:06:18.
