data_PCOD8147614
_publ_section_title
;
Structure prediction by ZEFSAII (Michael W. Deem and Ramdas Pophale) SiO2 
 PCOD8147614
Probable space group: C 2/C
;
_chemical_formula_sum "Si O2"
_cell_formula_units_Z 60
_cell_length_a 27.812233
_cell_length_b 6.322138
_cell_length_c 16.099791
_cell_angle_alpha 90.000000
_cell_angle_beta 107.071114
_cell_angle_gamma 90.000000
_cell_volume 2706.145971
_symmetry_space_group_name_H-M "C 2/C"
_symmetry_group_IT_number 15
_symmetry_cell_setting 'monoclinic'
loop_
_space_group_symop_operation_xyz
x,y,z
-x,y,1/2-z
-x,-y,-z
x,-y,1/2+z
1/2+x,1/2+y,z
1/2-x,1/2+y,1/2-z
1/2-x,1/2-y,-z
1/2+x,1/2-y,1/2+z
loop_
_atom_site_type_symbol
_atom_site_label
_atom_site_fract_x
_atom_site_fract_y
_atom_site_fract_z
Si Si1 0.638954 0.194258 0.482808
Si Si2 0.198712 0.914366 0.062641
Si Si3 0.000000 0.497150 0.250000
Si Si4 0.949913 0.941089 0.910015
Si Si5 0.115528 0.336833 0.598554
Si Si6 0.465998 0.691613 0.593934
Si Si7 0.310521 0.136368 0.601341
Si Si8 0.601196 0.146186 0.732731
O O1 0.674928 0.350715 0.552624
O O2 0.593453 0.325252 0.413858
O O3 0.611370 0.022972 0.527952
O O4 0.672133 0.083354 0.430192
O O5 0.170258 0.769080 0.114864
O O6 0.257175 0.913262 0.117787
O O7 0.193432 0.825065 0.966633
O O8 0.007505 0.626536 0.339215
O O9 0.050933 0.364054 0.263492
O O10 0.905385 0.834733 0.836110
O O11 0.928016 0.161677 0.936832
O O12 0.967709 0.785082 0.993391
O O13 0.998580 0.984046 0.874691
O O14 0.111356 0.426798 0.689641
O O15 0.350687 0.209884 0.689428
#
# Coordination Sequence:
#
# PCOD8147614 Si02
#       8
#     8   8   4   8   8   8   8   8
#     4  11  21  42  73  92 129 173 219 278 333 398
#     4  10  22  44  68 101 125 176 227 272 338 403
#     4  12  26  40  66 100 134 168 234 276 338 402
#     4  11  25  43  67  93 134 179 224 265 339 410
#     4  11  22  43  65  93 132 172 224 268 326 407
#     4  11  23  43  66  96 129 178 216 277 329 402
#     4  10  24  42  69  99 134 168 222 283 338 391
#     4  12  25  44  63  99 137 179 217 284 334 397
#
# _framework density 22.171755000000001
#
# number of rings (size 3 to 8) (size 9 to 14) (size 15 to 20)
#    0.000    1.067    5.333    0.400    0.000    6.933 
#    4.800    0.000    0.000    0.000    0.000    0.000 
#    0.000    0.000    0.000    0.000    0.000    0.000 
#
# Total GULP energy -371761.031236 kJ/mol
# GULP energy per Si atom -12392.034375 kJ/mol
# Density = 2.212129 g / cm^3
# Si number density = 22.171755 Si / 1000 Ang^3
#
#
#
# Elastic Constant Matrix: (Units=GPa)
#
#
# Indices 1 2 3 4 5 6 
#
# 1 164.8386 51.3097 46.1372 0.0000 21.6892 0.0000
# 2 51.3097 90.8334 34.8707 0.0000 5.0873 0.0000
# 3 46.1372 34.8707 96.0949 0.0000 25.1077 0.0000
# 4 0.0000 0.0000 0.0000 19.7222 0.0000 -5.8181
# 5 21.6892 5.0873 25.1077 0.0000 40.0908 0.0000
# 6 0.0000 0.0000 0.0000 -5.8181 0.0000 42.5665
#
#
#
# Elastic Compliance Matrix: (Units=1/GPa)
#
#
# Indices 1 2 3 4 5 6 
#
# 1 0.008098 -0.003723 -0.001812 0.000000 -0.002773 0.000000
# 2 -0.003723 0.014582 -0.004241 0.000000 0.002820 0.000000
# 3 -0.001812 -0.004241 0.014848 0.000000 -0.007780 0.000000
# 4 0.000000 0.000000 0.000000 0.052835 0.000000 0.007222
# 5 -0.002773 0.002820 -0.007780 0.000000 0.030959 0.000000
# 6 0.000000 0.000000 0.000000 0.007222 0.000000 0.024480
#
#
# Mechanical properties :
#
#
# Convention : Reuss Voigt Hill
#
# Bulk Modulus (GPa) = 55.62956 68.48914 62.05935
# Shear Modulus (GPa) = 29.18081 35.10584 32.14333
#
# Velocity S-wave (km/s) = 3.63178 3.98346 3.81168
# Velocity P-wave (km/s) = 6.53691 7.21904 6.88643
#
# Compressibility (1/GPa) = 0.01797605
#
# Stress axis : x y z
#
# Youngs Moduli (GPa) = 123.49366 68.57584 67.34821
#
# Poissons Ratio (x) = 0.25532 0.12204
# Poissons Ratio (y) = 0.45978 0.28561
# Poissons Ratio (z) = 0.22379 0.29082
#
# Static dielectric constant tensor:
#      x y z
#    x 4.311100 0.000000 0.030670 
#    y 0.000000 3.984420 0.000000 
#    z 0.030670 0.000000 3.740800 
# 
# 
# High freq. dielectric constant tensor:
#      x y z
#    x 1.892840 0.000000 0.004250 
#    y 0.000000 1.862330 0.000000 
#    z 0.004250 0.000000 1.848960 
# 
# From -- ./inp_files/223916.got.cif
#   From: 2010.06.25/outbox.cif.g09.slc.cpg/sg15_112_cif.got.tgz:223916.got - 2010.06.28 07:06:18.
