data_PCOD8147311
_publ_section_title
;
Structure prediction by ZEFSAII (Michael W. Deem and Ramdas Pophale) SiO2 
 PCOD8147311
Probable space group: C 2/C
;
_chemical_formula_sum "Si O2"
_cell_formula_units_Z 48
_cell_length_a 11.482053
_cell_length_b 10.727472
_cell_length_c 21.468419
_cell_angle_alpha 90.000000
_cell_angle_beta 47.805925
_cell_angle_gamma 90.000000
_cell_volume 1959.121570
_symmetry_space_group_name_H-M "C 2/C"
_symmetry_group_IT_number 15
_symmetry_cell_setting 'monoclinic'
loop_
_space_group_symop_operation_xyz
x,y,z
-x,y,1/2-z
-x,-y,-z
x,-y,1/2+z
1/2+x,1/2+y,z
1/2-x,1/2+y,1/2-z
1/2-x,1/2-y,-z
1/2+x,1/2-y,1/2+z
loop_
_atom_site_type_symbol
_atom_site_label
_atom_site_fract_x
_atom_site_fract_y
_atom_site_fract_z
Si Si1 0.047956 0.189872 0.815481
Si Si2 0.229114 0.005868 0.554201
Si Si3 0.692390 0.580177 0.875577
Si Si4 0.451335 0.964116 0.857494
Si Si5 0.821111 0.402733 0.145636
Si Si6 0.015345 0.154771 0.060851
O O1 0.181689 0.178372 0.822076
O O2 0.140045 0.141649 0.720239
O O3 0.902515 0.111293 0.892561
O O4 0.987286 0.326347 0.821016
O O5 0.340794 0.044500 0.457638
O O6 0.324714 0.004439 0.584678
O O7 0.146521 0.872674 0.567969
O O8 0.870940 0.547509 0.832138
O O9 0.621358 0.446208 0.882419
O O10 0.594867 0.644092 0.965487
O O11 0.619632 0.022717 0.815147
O O12 0.945211 0.291772 0.091582
#
# Coordination Sequence:
#
# PCOD8147311 Si02
#       6
#     8   8   8   8   8   8
#     4  11  24  41  64  95 134 167 221 275 328 394
#     4  10  22  43  67  93 125 175 225 262 323 398
#     4   9  20  41  67  93 123 174 222 263 323 388
#     4  11  24  41  68  95 128 177 219 267 330 402
#     4  12  25  39  63 101 134 172 211 276 345 383
#     4   9  20  40  68  92 128 168 220 273 313 395
#
# _framework density 24.500776999999999
#
# number of rings (size 3 to 8) (size 9 to 14) (size 15 to 20)
#    0.000    1.667    0.000    4.500    4.667    4.667 
#    0.000    0.000    0.000    0.000    0.000    0.000 
#    0.000    0.000    0.000    0.000    0.000    0.000 
#
# Total GULP energy -297566.654022 kJ/mol
# GULP energy per Si atom -12398.610584 kJ/mol
# Density = 2.444501 g / cm^3
# Si number density = 24.500777 Si / 1000 Ang^3
#
#
#
# Elastic Constant Matrix: (Units=GPa)
#
#
# Indices 1 2 3 4 5 6 
#
# 1 95.8944 9.2313 0.9096 0.0000 5.6158 0.0000
# 2 9.2313 48.2433 -1.6959 0.0000 2.1735 0.0000
# 3 0.9096 -1.6959 48.1745 0.0000 -17.0061 0.0000
# 4 0.0000 0.0000 0.0000 23.2870 0.0000 -10.1033
# 5 5.6158 2.1735 -17.0061 0.0000 40.2427 0.0000
# 6 0.0000 0.0000 0.0000 -10.1033 0.0000 33.8970
#
#
#
# Elastic Compliance Matrix: (Units=1/GPa)
#
#
# Indices 1 2 3 4 5 6 
#
# 1 0.010733 -0.002006 -0.000898 0.000000 -0.001769 0.000000
# 2 -0.002006 0.021160 0.000562 0.000000 -0.000625 0.000000
# 3 -0.000898 0.000562 0.024480 0.000000 0.010440 0.000000
# 4 0.000000 0.000000 0.000000 0.049320 0.000000 0.014700
# 5 -0.001769 -0.000625 0.010440 0.000000 0.029542 0.000000
# 6 0.000000 0.000000 0.000000 0.014700 0.000000 0.033883
#
#
# Mechanical properties :
#
#
# Convention : Reuss Voigt Hill
#
# Bulk Modulus (GPa) = 19.34592 23.24470 21.29531
# Shear Modulus (GPa) = 26.17378 31.74314 28.95846
#
# Velocity S-wave (km/s) = 3.27201 3.60335 3.44167
# Velocity P-wave (km/s) = 4.71040 5.17881 4.95015
#
# Compressibility (1/GPa) = 0.05169049
#
# Stress axis : x y z
#
# Youngs Moduli (GPa) = 93.16786 47.25903 40.84969
#
# Poissons Ratio (x) = 0.09479 0.03667
# Poissons Ratio (y) = 0.18686 -0.02296
# Poissons Ratio (z) = 0.08363 -0.02656
#
# Static dielectric constant tensor:
#      x y z
#    x 5.070740 0.000000 0.150970 
#    y 0.000000 4.197630 0.000000 
#    z 0.150970 0.000000 4.409350 
# 
# 
# High freq. dielectric constant tensor:
#      x y z
#    x 1.997640 0.000000 0.000340 
#    y 0.000000 1.948030 0.000000 
#    z 0.000340 0.000000 1.984750 
# 
# From -- ./inp_files/195989.got.cif
#   From: 2010.06.25/outbox.cif.g09.slc.cpg/sg15_98_cif.got.tgz:195989.got - 2010.06.28 07:06:18.
