data_PCOD8147645
_publ_section_title
;
Structure prediction by ZEFSAII (Michael W. Deem and Ramdas Pophale) SiO2 
 PCOD8147645
Probable space group: C 2/C
;
_chemical_formula_sum "Si O2"
_cell_formula_units_Z 36
_cell_length_a 24.262699
_cell_length_b 5.330472
_cell_length_c 27.090059
_cell_angle_alpha 90.000000
_cell_angle_beta 158.054635
_cell_angle_gamma 90.000000
_cell_volume 1309.374074
_symmetry_space_group_name_H-M "C 2/C"
_symmetry_group_IT_number 15
_symmetry_cell_setting 'monoclinic'
loop_
_space_group_symop_operation_xyz
x,y,z
-x,y,1/2-z
-x,-y,-z
x,-y,1/2+z
1/2+x,1/2+y,z
1/2-x,1/2+y,1/2-z
1/2-x,1/2-y,-z
1/2+x,1/2-y,1/2+z
loop_
_atom_site_type_symbol
_atom_site_label
_atom_site_fract_x
_atom_site_fract_y
_atom_site_fract_z
Si Si1 0.967337 0.198096 0.930919
Si Si2 0.762551 0.490153 0.830185
Si Si3 0.218327 0.264284 0.554358
Si Si4 0.000000 0.026751 0.250000
Si Si5 0.879086 0.760150 0.067466
O O1 0.846296 0.393068 0.850913
O O2 0.896027 0.095852 0.820317
O O3 0.126297 0.315417 0.050721
O O4 0.000000 0.000000 0.000000
O O5 0.732113 0.283678 0.847000
O O6 0.357351 0.293183 0.632372
O O7 0.101898 0.489487 0.443145
O O8 0.150123 0.989094 0.494694
O O9 0.980988 0.847756 0.282910
O O10 0.750000 0.750000 0.000000
#
# Coordination Sequence:
#
# PCOD8147645 Si02
#       5
#     8   8   8   4   8
#     4  11  24  48  71 104 151 190 251 315 379 451
#     4  11  26  44  75 106 145 200 247 314 381 452
#     4  11  26  41  71 104 139 187 243 298 367 439
#     4  10  22  44  68  96 140 182 228 298 360 430
#     4  10  23  44  64  99 138 183 238 293 358 431
#
# _framework density 27.494053999999998
#
# number of rings (size 3 to 8) (size 9 to 14) (size 15 to 20)
#    0.000    1.333    2.222    2.667    6.222    8.000 
#    0.000    0.000    0.000    0.000    0.000    0.000 
#    0.000    0.000    0.000    0.000    0.000    0.000 
#
# Total GULP energy -223060.089551 kJ/mol
# GULP energy per Si atom -12392.227197 kJ/mol
# Density = 2.743148 g / cm^3
# Si number density = 27.494054 Si / 1000 Ang^3
#
#
#
# Elastic Constant Matrix: (Units=GPa)
#
#
# Indices 1 2 3 4 5 6 
#
# 1 63.5254 16.8698 26.0594 0.0023 -26.8020 0.0474
# 2 16.8698 131.9708 45.1883 -0.2108 -10.7363 0.2185
# 3 26.0594 45.1883 163.6876 0.0369 -22.3721 0.0115
# 4 0.0023 -0.2108 0.0369 24.6072 0.0145 -12.6466
# 5 -26.8020 -10.7363 -22.3721 0.0145 49.3924 -0.0053
# 6 0.0474 0.2185 0.0115 -12.6466 -0.0053 41.4062
#
#
#
# Elastic Compliance Matrix: (Units=1/GPa)
#
#
# Indices 1 2 3 4 5 6 
#
# 1 0.021159 -0.001313 -0.001573 -0.000030 0.010484 -0.000025
# 2 -0.001313 0.008482 -0.002108 0.000064 0.000176 -0.000023
# 3 -0.001573 -0.002108 0.007209 -0.000029 0.001953 0.000002
# 4 -0.000030 0.000064 -0.000029 0.048206 -0.000028 0.014723
# 5 0.010484 0.000176 0.001953 -0.000028 0.026858 -0.000019
# 6 -0.000025 -0.000023 0.000002 0.014723 -0.000019 0.028648
#
#
# Mechanical properties :
#
#
# Convention : Reuss Voigt Hill
#
# Bulk Modulus (GPa) = 37.23031 59.49098 48.36065
# Shear Modulus (GPa) = 31.34724 41.15225 36.24975
#
# Velocity S-wave (km/s) = 3.38027 3.87301 3.63500
# Velocity P-wave (km/s) = 5.36708 6.45639 5.93677
#
# Compressibility (1/GPa) = 0.02685983
#
# Stress axis : x y z
#
# Youngs Moduli (GPa) = 47.26125 117.90100 138.72210
#
# Poissons Ratio (x) = 0.15483 0.21823
# Poissons Ratio (y) = 0.06206 0.29248
# Poissons Ratio (z) = 0.07435 0.24858
#
# Static dielectric constant tensor:
#      x y z
#    x 5.651930 -0.005560 -0.943950 
#    y -0.005560 5.220460 0.004370 
#    z -0.943950 0.004370 6.963980 
# 
# 
# High freq. dielectric constant tensor:
#      x y z
#    x 2.122610 -0.000050 -0.017420 
#    y -0.000050 2.095300 0.000020 
#    z -0.017420 0.000020 2.108590 
# 
# From -- ./inp_files/319884.got.cif
#   From: 2010.06.25/outbox.cif.g09.slc.cpg/sg15_160_cif.got.tgz:319884.got - 2010.06.28 07:06:18.
