data_PCOD8147371
_publ_section_title
;
Structure prediction by ZEFSAII (Michael W. Deem and Ramdas Pophale) SiO2 
 PCOD8147371
Probable space group: C 2/C
;
_chemical_formula_sum "Si O2"
_cell_formula_units_Z 60
_cell_length_a 11.574395
_cell_length_b 27.812646
_cell_length_c 8.700122
_cell_angle_alpha 90.000000
_cell_angle_beta 89.198631
_cell_angle_gamma 90.000000
_cell_volume 2800.421930
_symmetry_space_group_name_H-M "C 2/C"
_symmetry_group_IT_number 15
_symmetry_cell_setting 'monoclinic'
loop_
_space_group_symop_operation_xyz
x,y,z
-x,y,1/2-z
-x,-y,-z
x,-y,1/2+z
1/2+x,1/2+y,z
1/2-x,1/2+y,1/2-z
1/2-x,1/2-y,-z
1/2+x,1/2-y,1/2+z
loop_
_atom_site_type_symbol
_atom_site_label
_atom_site_fract_x
_atom_site_fract_y
_atom_site_fract_z
Si Si1 0.000000 0.856492 0.250000
Si Si2 0.643897 0.139487 0.013969
Si Si3 0.245829 0.554559 0.443106
Si Si4 0.497820 0.586967 0.074433
Si Si5 0.244929 0.955759 0.904202
Si Si6 0.614425 0.148017 0.559447
Si Si7 0.770147 0.804211 0.289928
Si Si8 0.626028 0.791897 0.775354
O O1 0.979141 0.882921 0.415790
O O2 0.888293 0.824597 0.219029
O O3 0.740039 0.179640 0.962839
O O4 0.697202 0.086641 0.997710
O O5 0.521957 0.138948 0.927744
O O6 0.626392 0.156737 0.188432
O O7 0.383041 0.559833 0.452913
O O8 0.211316 0.506402 0.533371
O O9 0.207129 0.548931 0.268592
O O10 0.180551 0.598999 0.519873
O O11 0.500000 0.612549 0.250000
O O12 0.393906 0.548583 0.083674
O O13 0.660220 0.169086 0.717018
O O14 0.647136 0.192497 0.448412
O O15 0.774932 0.746468 0.273669
O O16 0.500000 0.767647 0.750000
#
# Coordination Sequence:
#
# PCOD8147371 Si02
#       8
#     4   8   8   8   8   8   8   8
#     4  12  22  38  76 100 132 176 220 290 336 394
#     4  11  24  43  65  94 135 174 214 270 331 399
#     4  11  24  41  66  96 131 175 221 276 332 395
#     4  10  23  43  64 102 138 176 224 280 345 393
#     4  11  24  41  66  96 131 175 221 276 332 395
#     4  11  24  43  65  94 135 174 214 270 331 399
#     4  12  23  42  68  99 128 169 226 269 331 399
#     4  10  22  43  69  93 128 174 217 270 336 395
#
# _framework density 21.425343999999999
#
# number of rings (size 3 to 8) (size 9 to 14) (size 15 to 20)
#    0.000    1.067    4.667    1.600    3.733    0.533 
#    0.000    0.000    2.933    0.000    0.000    0.000 
#    0.000    0.000    0.000    0.000    0.000    0.000 
#
# Total GULP energy -371658.862337 kJ/mol
# GULP energy per Si atom -12388.628745 kJ/mol
# Density = 2.137658 g / cm^3
# Si number density = 21.425344 Si / 1000 Ang^3
#
#
#
# Elastic Constant Matrix: (Units=GPa)
#
#
# Indices 1 2 3 4 5 6 
#
# 1 98.3168 45.2692 14.8128 0.0000 3.4447 0.0000
# 2 45.2692 132.5132 30.0322 0.0000 4.7717 0.0000
# 3 14.8128 30.0322 73.4565 0.0000 0.9727 0.0000
# 4 0.0000 0.0000 0.0000 6.1222 0.0000 -2.9327
# 5 3.4447 4.7717 0.9727 0.0000 21.2560 0.0000
# 6 0.0000 0.0000 0.0000 -2.9327 0.0000 19.7635
#
#
#
# Elastic Compliance Matrix: (Units=1/GPa)
#
#
# Indices 1 2 3 4 5 6 
#
# 1 0.012138 -0.003921 -0.000831 0.000000 -0.001049 0.000000
# 2 -0.003921 0.009646 -0.003135 0.000000 -0.001387 0.000000
# 3 -0.000831 -0.003135 0.015061 0.000000 0.000149 0.000000
# 4 0.000000 0.000000 0.000000 0.175839 0.000000 0.026093
# 5 -0.001049 -0.001387 0.000149 0.000000 0.047520 0.000000
# 6 0.000000 0.000000 0.000000 0.026093 0.000000 0.054470
#
#
# Mechanical properties :
#
#
# Convention : Reuss Voigt Hill
#
# Bulk Modulus (GPa) = 47.45512 53.83500 50.64506
# Shear Modulus (GPa) = 14.81605 23.70650 19.26127
#
# Velocity S-wave (km/s) = 2.63253 3.32997 3.00158
# Velocity P-wave (km/s) = 5.60691 6.32189 5.97510
#
# Compressibility (1/GPa) = 0.02107254
#
# Stress axis : x y z
#
# Youngs Moduli (GPa) = 82.38338 103.66812 66.39783
#
# Poissons Ratio (x) = 0.40644 0.05517
# Poissons Ratio (y) = 0.32299 0.20814
# Poissons Ratio (z) = 0.06846 0.32498
#
# Static dielectric constant tensor:
#      x y z
#    x 3.882200 0.000000 0.016340 
#    y 0.000000 3.581080 0.000000 
#    z 0.016340 0.000000 4.046330 
# 
# 
# High freq. dielectric constant tensor:
#      x y z
#    x 1.843420 0.000000 -0.004690 
#    y 0.000000 1.826610 0.000000 
#    z -0.004690 0.000000 1.854880 
# 
# From -- ./inp_files/34293.got.cif
#   From: 2010.06.25/outbox.cif.g09.slc.cpg/sg15_18_cif.got.tgz:34293.got - 2010.06.28 07:06:18.
