data_PCOD8147955
_publ_section_title
;
Structure prediction by ZEFSAII (Michael W. Deem and Ramdas Pophale) SiO2 
 PCOD8147955
Probable space group: C 2/C
;
_chemical_formula_sum "Si O2"
_cell_formula_units_Z 64
_cell_length_a 26.414221
_cell_length_b 15.371479
_cell_length_c 12.242939
_cell_angle_alpha 90.000000
_cell_angle_beta 37.415706
_cell_angle_gamma 90.000000
_cell_volume 3020.315611
_symmetry_space_group_name_H-M "C 2/C"
_symmetry_group_IT_number 15
_symmetry_cell_setting 'monoclinic'
loop_
_space_group_symop_operation_xyz
x,y,z
-x,y,1/2-z
-x,-y,-z
x,-y,1/2+z
1/2+x,1/2+y,z
1/2-x,1/2+y,1/2-z
1/2-x,1/2-y,-z
1/2+x,1/2-y,1/2+z
loop_
_atom_site_type_symbol
_atom_site_label
_atom_site_fract_x
_atom_site_fract_y
_atom_site_fract_z
Si Si1 0.240257 0.198813 0.677167
Si Si2 0.385393 0.759001 0.782728
Si Si3 0.121001 0.930342 0.744245
Si Si4 0.315825 0.730389 0.483872
Si Si5 0.577727 0.066732 0.359991
Si Si6 0.285541 0.010902 0.523365
Si Si7 0.404927 0.106834 0.932837
Si Si8 0.520396 0.588719 0.839207
O O1 0.325236 0.244977 0.491797
O O2 0.164654 0.246054 0.744978
O O3 0.241557 0.098669 0.637909
O O4 0.232175 0.205106 0.822112
O O5 0.435549 0.851425 0.699575
O O6 0.451790 0.684254 0.677855
O O7 0.121378 0.846665 0.662764
O O8 0.215236 0.938950 0.624413
O O9 0.092380 0.017136 0.731368
O O10 0.062139 0.923538 0.949211
O O11 0.250000 0.750000 0.500000
O O12 0.374913 0.812441 0.410048
O O13 0.600942 0.119511 0.428742
O O14 0.500000 0.000000 0.500000
O O15 0.661378 0.017364 0.179447
O O16 0.349332 0.977859 0.505253
O O17 0.500000 0.082833 0.750000
O O18 0.500000 0.581140 0.750000
#
# Coordination Sequence:
#
# PCOD8147955 Si02
#       8
#     8   8   8   8   8   8   8   8
#     4  10  23  44  74 102 136 187 244 292 368 434
#     4  10  22  46  73 101 137 193 240 297 359 435
#     4  11  27  45  69 105 141 188 246 291 375 430
#     4  12  27  44  72 109 147 186 238 304 366 440
#     4  11  24  45  70 103 146 188 241 291 362 437
#     4  11  24  45  72 101 139 186 239 301 354 444
#     4  12  26  44  71 103 144 189 235 299 375 434
#     4  11  27  46  72 102 144 187 243 306 355 434
#
# _framework density 21.189838999999999
#
# number of rings (size 3 to 8) (size 9 to 14) (size 15 to 20)
#    0.000    1.000    5.000    0.000    7.000    0.500 
#    4.500    0.000    0.000    0.000    0.000    0.000 
#    0.000    0.000    0.000    0.000    0.000    0.000 
#
# Total GULP energy -396641.029810 kJ/mol
# GULP energy per Si atom -12395.032182 kJ/mol
# Density = 2.114161 g / cm^3
# Si number density = 21.189839 Si / 1000 Ang^3
#
#
#
# Elastic Constant Matrix: (Units=GPa)
#
#
# Indices 1 2 3 4 5 6 
#
# 1 101.9885 36.1348 57.7146 0.0000 2.6299 0.0000
# 2 36.1348 119.4223 42.4481 0.0000 -13.8143 0.0000
# 3 57.7146 42.4481 111.3450 0.0000 5.2089 0.0000
# 4 0.0000 0.0000 0.0000 43.9036 0.0000 -0.6786
# 5 2.6299 -13.8143 5.2089 0.0000 40.3883 0.0000
# 6 0.0000 0.0000 0.0000 -0.6786 0.0000 45.2095
#
#
#
# Elastic Compliance Matrix: (Units=1/GPa)
#
#
# Indices 1 2 3 4 5 6 
#
# 1 0.014281 -0.002076 -0.006574 0.000000 -0.000792 0.000000
# 2 -0.002076 0.010609 -0.003163 0.000000 0.004172 0.000000
# 3 -0.006574 -0.003163 0.013708 0.000000 -0.002422 0.000000
# 4 0.000000 0.000000 0.000000 0.022782 0.000000 0.000342
# 5 -0.000792 0.004172 -0.002422 0.000000 0.026551 0.000000
# 6 0.000000 0.000000 0.000000 0.000342 0.000000 0.022124
#
#
# Mechanical properties :
#
#
# Convention : Reuss Voigt Hill
#
# Bulk Modulus (GPa) = 66.79626 67.26118 67.02872
# Shear Modulus (GPa) = 36.05613 38.99751 37.52682
#
# Velocity S-wave (km/s) = 4.12949 4.29463 4.21287
# Velocity P-wave (km/s) = 7.37076 7.51018 7.44080
#
# Compressibility (1/GPa) = 0.01497090
#
# Stress axis : x y z
#
# Youngs Moduli (GPa) = 70.02214 94.26096 72.95041
#
# Poissons Ratio (x) = 0.19570 0.47957
# Poissons Ratio (y) = 0.14538 0.23077
# Poissons Ratio (z) = 0.46032 0.29819
#
# Static dielectric constant tensor:
#      x y z
#    x 3.949070 0.000000 0.146620 
#    y 0.000000 3.999440 0.000000 
#    z 0.146620 0.000000 3.955210 
# 
# 
# High freq. dielectric constant tensor:
#      x y z
#    x 1.818180 0.000000 0.003290 
#    y 0.000000 1.848830 0.000000 
#    z 0.003290 0.000000 1.842960 
# 
# From -- ./inp_files/123510.got.cif
#   From: 2010.06.25/outbox.cif.g09.slc.cpg/sg15_62_cif.got.tgz:123510.got - 2010.06.28 07:06:18.
