data_PCOD8147110
_publ_section_title
;
Structure prediction by ZEFSAII (Michael W. Deem and Ramdas Pophale) SiO2 
 PCOD8147110
Probable space group: C 2/C
;
_chemical_formula_sum "Si O2"
_cell_formula_units_Z 36
_cell_length_a 12.379692
_cell_length_b 17.602391
_cell_length_c 9.050187
_cell_angle_alpha 90.000000
_cell_angle_beta 59.883632
_cell_angle_gamma 90.000000
_cell_volume 1705.922270
_symmetry_space_group_name_H-M "C 2/C"
_symmetry_group_IT_number 15
_symmetry_cell_setting 'monoclinic'
loop_
_space_group_symop_operation_xyz
x,y,z
-x,y,1/2-z
-x,-y,-z
x,-y,1/2+z
1/2+x,1/2+y,z
1/2-x,1/2+y,1/2-z
1/2-x,1/2-y,-z
1/2+x,1/2-y,1/2+z
loop_
_atom_site_type_symbol
_atom_site_label
_atom_site_fract_x
_atom_site_fract_y
_atom_site_fract_z
Si Si1 0.046283 0.116158 0.372119
Si Si2 0.394425 0.745159 0.945962
Si Si3 0.000000 0.519565 0.750000
Si Si4 0.622851 0.092161 0.937194
Si Si5 0.888230 0.955914 0.213893
O O1 0.106307 0.182107 0.426641
O O2 0.000000 0.152165 0.250000
O O3 0.925667 0.076919 0.528958
O O4 0.144203 0.046200 0.277909
O O5 0.500000 0.724464 0.750000
O O6 0.250000 0.750000 0.000000
O O7 0.435033 0.826043 0.985649
O O8 0.912473 0.571631 0.707034
O O9 0.080840 0.468658 0.585910
O O10 0.772266 0.093255 0.849826
O O11 0.000000 0.941147 0.250000
#
# Coordination Sequence:
#
# PCOD8147110 Si02
#       5
#     8   8   4   8   8
#     4  10  23  40  66 105 129 169 222 277 333 387
#     4  12  26  45  68  97 140 180 217 278 343 404
#     4  10  26  42  66  92 130 182 222 266 318 402
#     4  11  24  45  67  95 133 175 225 269 329 399
#     4  10  22  42  70  99 130 171 222 276 332 394
#
# _framework density 21.102952999999999
#
# number of rings (size 3 to 8) (size 9 to 14) (size 15 to 20)
#    0.000    1.333    1.111    3.333   14.000    0.889 
#    0.000    2.222    0.000    0.000    0.000    0.000 
#    0.000    0.000    0.000    0.000    0.000    0.000 
#
# Total GULP energy -223164.191283 kJ/mol
# GULP energy per Si atom -12398.010627 kJ/mol
# Density = 2.105492 g / cm^3
# Si number density = 21.102953 Si / 1000 Ang^3
#
#
#
# Elastic Constant Matrix: (Units=GPa)
#
#
# Indices 1 2 3 4 5 6 
#
# 1 121.2528 38.6219 60.0478 0.0000 11.6198 0.0000
# 2 38.6219 112.4772 31.4333 0.0000 25.1816 0.0000
# 3 60.0478 31.4333 111.1481 0.0000 20.8823 0.0000
# 4 0.0000 0.0000 0.0000 31.1640 0.0000 2.6605
# 5 11.6198 25.1816 20.8823 0.0000 41.9485 0.0000
# 6 0.0000 0.0000 0.0000 2.6605 0.0000 26.9944
#
#
#
# Elastic Compliance Matrix: (Units=1/GPa)
#
#
# Indices 1 2 3 4 5 6 
#
# 1 0.011919 -0.002728 -0.005908 0.000000 0.001277 0.000000
# 2 -0.002728 0.011283 -0.000647 0.000000 -0.005696 0.000000
# 3 -0.005908 -0.000647 0.013229 0.000000 -0.004560 0.000000
# 4 0.000000 0.000000 0.000000 0.032361 0.000000 -0.003189
# 5 0.001277 -0.005696 -0.004560 0.000000 0.029174 0.000000
# 6 0.000000 0.000000 0.000000 -0.003189 0.000000 0.037359
#
#
# Mechanical properties :
#
#
# Convention : Reuss Voigt Hill
#
# Bulk Modulus (GPa) = 55.97355 67.23154 61.60255
# Shear Modulus (GPa) = 31.28003 34.33972 32.80987
#
# Velocity S-wave (km/s) = 3.85419 4.03829 3.94731
# Velocity P-wave (km/s) = 6.81087 7.32610 7.07318
#
# Compressibility (1/GPa) = 0.01786558
#
# Stress axis : x y z
#
# Youngs Moduli (GPa) = 83.89615 88.62635 75.59374
#
# Poissons Ratio (x) = 0.24174 0.44661
# Poissons Ratio (y) = 0.22884 0.04893
# Poissons Ratio (z) = 0.49566 0.05737
#
# Static dielectric constant tensor:
#      x y z
#    x 3.638140 0.000000 0.139960 
#    y 0.000000 4.058300 0.000000 
#    z 0.139960 0.000000 4.084180 
# 
# 
# High freq. dielectric constant tensor:
#      x y z
#    x 1.812150 0.000000 0.010130 
#    y 0.000000 1.838250 0.000000 
#    z 0.010130 0.000000 1.838850 
# 
# From -- ./inp_files/28985.got.cif
#   From: 2010.06.25/outbox.cif.g09.slc.cpg/sg15_15_cif.got.tgz:28985.got - 2010.06.28 07:06:18.
