data_PCOD8147812
_publ_section_title
;
Structure prediction by ZEFSAII (Michael W. Deem and Ramdas Pophale) SiO2 
 PCOD8147812
Probable space group: C 2/C
;
_chemical_formula_sum "Si O2"
_cell_formula_units_Z 48
_cell_length_a 14.701882
_cell_length_b 11.510467
_cell_length_c 12.956407
_cell_angle_alpha 90.000000
_cell_angle_beta 78.657099
_cell_angle_gamma 90.000000
_cell_volume 2149.729098
_symmetry_space_group_name_H-M "C 2/C"
_symmetry_group_IT_number 15
_symmetry_cell_setting 'monoclinic'
loop_
_space_group_symop_operation_xyz
x,y,z
-x,y,1/2-z
-x,-y,-z
x,-y,1/2+z
1/2+x,1/2+y,z
1/2-x,1/2+y,1/2-z
1/2-x,1/2-y,-z
1/2+x,1/2-y,1/2+z
loop_
_atom_site_type_symbol
_atom_site_label
_atom_site_fract_x
_atom_site_fract_y
_atom_site_fract_z
Si Si1 0.541707 0.669259 0.547185
Si Si2 0.099685 0.361202 0.686202
Si Si3 0.693315 0.080455 0.573167
Si Si4 0.831454 0.990444 0.882517
Si Si5 0.845625 0.842194 0.191112
Si Si6 0.950783 0.769065 0.863349
O O1 0.585576 0.784736 0.586623
O O2 0.612284 0.562435 0.543123
O O3 0.448387 0.631273 0.627164
O O4 0.526594 0.690478 0.429688
O O5 0.162251 0.471598 0.648198
O O6 0.155331 0.286165 0.759043
O O7 0.000000 0.402800 0.750000
O O8 0.731357 0.039107 0.453865
O O9 0.773194 0.153113 0.614015
O O10 0.607535 0.165638 0.571116
O O11 0.885872 0.874054 0.842215
O O12 0.817429 0.063052 0.782179
O O13 0.000000 0.720302 0.750000
#
# Coordination Sequence:
#
# PCOD8147812 Si02
#       6
#     8   8   8   8   8   8
#     4  10  22  45  68  89 129 175 214 260 318 391
#     4   9  22  44  66  89 130 176 212 255 328 390
#     4  12  26  39  65 101 132 164 215 276 320 374
#     4  11  24  41  67  97 127 170 218 269 319 376
#     4  10  23  42  67  94 131 170 214 261 327 378
#     4  12  26  40  66  96 130 170 221 262 324 377
#
# _framework density 22.328395
#
# number of rings (size 3 to 8) (size 9 to 14) (size 15 to 20)
#    0.000    1.333    1.667    4.000    4.667    6.000 
#    0.000    0.000    0.000    0.000    0.000    0.000 
#    0.000    0.000    0.000    0.000    0.000    0.000 
#
# Total GULP energy -297765.811922 kJ/mol
# GULP energy per Si atom -12406.908830 kJ/mol
# Density = 2.227757 g / cm^3
# Si number density = 22.328395 Si / 1000 Ang^3
#
#
#
# Elastic Constant Matrix: (Units=GPa)
#
#
# Indices 1 2 3 4 5 6 
#
# 1 51.2079 14.7034 14.2674 0.0000 -11.9446 0.0000
# 2 14.7034 71.4734 0.0085 0.0000 -10.0619 0.0000
# 3 14.2674 0.0085 95.3976 0.0000 -2.1578 0.0000
# 4 0.0000 0.0000 0.0000 23.0207 0.0000 -7.2496
# 5 -11.9446 -10.0619 -2.1578 0.0000 24.4685 0.0000
# 6 0.0000 0.0000 0.0000 -7.2496 0.0000 23.1502
#
#
#
# Elastic Compliance Matrix: (Units=1/GPa)
#
#
# Indices 1 2 3 4 5 6 
#
# 1 0.023762 -0.003499 -0.003330 0.000000 0.009867 0.000000
# 2 -0.003499 0.015368 0.000627 0.000000 0.004667 0.000000
# 3 -0.003330 0.000627 0.010971 0.000000 -0.000400 0.000000
# 4 0.000000 0.000000 0.000000 0.048192 0.000000 0.015091
# 5 0.009867 0.004667 -0.000400 0.000000 0.047570 0.000000
# 6 0.000000 0.000000 0.000000 0.015091 0.000000 0.047922
#
#
# Mechanical properties :
#
#
# Convention : Reuss Voigt Hill
#
# Bulk Modulus (GPa) = 26.52639 30.67084 28.59861
# Shear Modulus (GPa) = 22.85667 26.73453 24.79560
#
# Velocity S-wave (km/s) = 3.20294 3.46400 3.33603
# Velocity P-wave (km/s) = 5.05810 5.45575 5.26068
#
# Compressibility (1/GPa) = 0.03769831
#
# Stress axis : x y z
#
# Youngs Moduli (GPa) = 42.08332 65.07068 91.14604
#
# Poissons Ratio (x) = 0.22767 0.30355
# Poissons Ratio (y) = 0.14724 -0.05719
# Poissons Ratio (z) = 0.14015 -0.04083
#
# Static dielectric constant tensor:
#      x y z
#    x 3.925810 0.000000 -0.057300 
#    y 0.000000 4.002570 0.000000 
#    z -0.057300 0.000000 3.942310 
# 
# 
# High freq. dielectric constant tensor:
#      x y z
#    x 1.869070 0.000000 -0.002710 
#    y 0.000000 1.886120 0.000000 
#    z -0.002710 0.000000 1.882520 
# 
# From -- ./inp_files/104195.got.cif
#   From: 2010.06.25/outbox.cif.g09.slc.cpg/sg15_53_cif.got.tgz:104195.got - 2010.06.28 07:06:18.
