data_PCOD8147067
_publ_section_title
;
Structure prediction by ZEFSAII (Michael W. Deem and Ramdas Pophale) SiO2 
 PCOD8147067
Probable space group: C 2/C
;
_chemical_formula_sum "Si O2"
_cell_formula_units_Z 44
_cell_length_a 9.170416
_cell_length_b 18.047247
_cell_length_c 13.624698
_cell_angle_alpha 90.000000
_cell_angle_beta 120.036602
_cell_angle_gamma 90.000000
_cell_volume 1952.078231
_symmetry_space_group_name_H-M "C 2/C"
_symmetry_group_IT_number 15
_symmetry_cell_setting 'monoclinic'
loop_
_space_group_symop_operation_xyz
x,y,z
-x,y,1/2-z
-x,-y,-z
x,-y,1/2+z
1/2+x,1/2+y,z
1/2-x,1/2+y,1/2-z
1/2-x,1/2-y,-z
1/2+x,1/2-y,1/2+z
loop_
_atom_site_type_symbol
_atom_site_label
_atom_site_fract_x
_atom_site_fract_y
_atom_site_fract_z
Si Si1 0.748480 0.158163 0.130083
Si Si2 0.846630 0.047524 0.519570
Si Si3 0.339505 0.605113 0.955820
Si Si4 0.500000 0.468161 0.750000
Si Si5 0.859497 0.683828 0.987448
Si Si6 0.342972 0.193535 0.751041
O O1 0.847755 0.222647 0.216590
O O2 0.828044 0.081969 0.200448
O O3 0.783295 0.160119 0.024342
O O4 0.552450 0.176557 0.087822
O O5 0.709919 0.103168 0.513243
O O6 0.959436 0.088321 0.474137
O O7 0.750589 0.975616 0.441108
O O8 0.976697 0.020435 0.648057
O O9 0.312814 0.645540 0.842411
O O10 0.850506 0.694604 0.869112
O O11 0.750000 0.750000 0.000000
O O12 0.500000 0.153129 0.750000
#
# Coordination Sequence:
#
# PCOD8147067 Si02
#       6
#     8   8   8   4   8   8
#     4  11  24  43  69 102 140 183 236 286 350 419
#     4  10  23  43  68 100 144 181 231 291 363 413
#     4  10  22  42  70  98 136 187 230 288 347 422
#     4  10  22  42  70 100 140 192 232 292 352 426
#     4  12  28  46  70 106 147 183 234 302 357 416
#     4  12  24  42  71 101 133 187 237 284 344 427
#
# _framework density 22.54008
#
# number of rings (size 3 to 8) (size 9 to 14) (size 15 to 20)
#    0.000    1.091    2.727    2.727    2.545    6.545 
#    3.273    0.000    0.000    0.000    0.000    0.000 
#    0.000    0.000    0.000    0.000    0.000    0.000 
#
# Total GULP energy -272560.742992 kJ/mol
# GULP energy per Si atom -12389.124681 kJ/mol
# Density = 2.248878 g / cm^3
# Si number density = 22.540080 Si / 1000 Ang^3
#
#
#
# Elastic Constant Matrix: (Units=GPa)
#
#
# Indices 1 2 3 4 5 6 
#
# 1 121.8516 41.1452 30.8899 0.0000 -5.3334 0.0000
# 2 41.1452 98.0297 18.5681 0.0000 -8.7203 0.0000
# 3 30.8899 18.5681 62.7623 0.0000 -7.8835 0.0000
# 4 0.0000 0.0000 0.0000 28.0033 0.0000 5.0724
# 5 -5.3334 -8.7203 -7.8835 0.0000 31.9210 0.0000
# 6 0.0000 0.0000 0.0000 5.0724 0.0000 41.9238
#
#
#
# Elastic Compliance Matrix: (Units=1/GPa)
#
#
# Indices 1 2 3 4 5 6 
#
# 1 0.010465 -0.003637 -0.004107 0.000000 -0.000260 0.000000
# 2 -0.003637 0.012227 -0.001531 0.000000 0.002354 0.000000
# 3 -0.004107 -0.001531 0.018854 0.000000 0.003552 0.000000
# 4 0.000000 0.000000 0.000000 0.036510 0.000000 -0.004417
# 5 -0.000260 0.002354 0.003552 0.000000 0.032804 0.000000
# 6 0.000000 0.000000 0.000000 -0.004417 0.000000 0.024387
#
#
# Mechanical properties :
#
#
# Convention : Reuss Voigt Hill
#
# Bulk Modulus (GPa) = 43.48961 51.53888 47.51425
# Shear Modulus (GPa) = 30.96673 33.17232 32.06952
#
# Velocity S-wave (km/s) = 3.71057 3.84044 3.77606
# Velocity P-wave (km/s) = 6.13955 6.52537 6.33539
#
# Compressibility (1/GPa) = 0.02299400
#
# Stress axis : x y z
#
# Youngs Moduli (GPa) = 95.55923 81.78482 53.04016
#
# Poissons Ratio (x) = 0.29749 0.21783
# Poissons Ratio (y) = 0.34759 0.08123
# Poissons Ratio (z) = 0.39245 0.12525
#
# Static dielectric constant tensor:
#      x y z
#    x 4.107390 0.000000 -0.012770 
#    y 0.000000 4.329650 0.000000 
#    z -0.012770 0.000000 4.024180 
# 
# 
# High freq. dielectric constant tensor:
#      x y z
#    x 1.884150 0.000000 -0.007470 
#    y 0.000000 1.905470 0.000000 
#    z -0.007470 0.000000 1.881200 
# 
# From -- ./inp_files/134937.got.cif
#   From: 2010.06.25/outbox.cif.g09.slc.cpg/sg15_68_cif.got.tgz:134937.got - 2010.06.28 07:06:18.
