data_PCOD8147169
_publ_section_title
;
Structure prediction by ZEFSAII (Michael W. Deem and Ramdas Pophale) SiO2 
 PCOD8147169
Probable space group: C 2/C
;
_chemical_formula_sum "Si O2"
_cell_formula_units_Z 52
_cell_length_a 30.263297
_cell_length_b 8.379310
_cell_length_c 20.867890
_cell_angle_alpha 90.000000
_cell_angle_beta 153.448298
_cell_angle_gamma 90.000000
_cell_volume 2365.459983
_symmetry_space_group_name_H-M "C 2/C"
_symmetry_group_IT_number 15
_symmetry_cell_setting 'monoclinic'
loop_
_space_group_symop_operation_xyz
x,y,z
-x,y,1/2-z
-x,-y,-z
x,-y,1/2+z
1/2+x,1/2+y,z
1/2-x,1/2+y,1/2-z
1/2-x,1/2-y,-z
1/2+x,1/2-y,1/2+z
loop_
_atom_site_type_symbol
_atom_site_label
_atom_site_fract_x
_atom_site_fract_y
_atom_site_fract_z
Si Si1 0.088408 0.792866 0.776700
Si Si2 0.315041 0.749257 0.284100
Si Si3 0.500000 0.462347 0.250000
Si Si4 0.290626 0.878608 0.740504
Si Si5 0.499636 0.169918 0.535932
Si Si6 0.802384 0.756602 0.999846
Si Si7 0.283598 0.897390 0.961233
O O1 0.038518 0.672149 0.660257
O O2 0.182136 0.887747 0.869629
O O3 0.126805 0.691636 0.887033
O O4 0.008777 0.923355 0.698518
O O5 0.302222 0.682327 0.338716
O O6 0.427306 0.709005 0.407298
O O7 0.232425 0.676576 0.129824
O O8 0.305452 0.937563 0.272309
O O9 0.595244 0.350121 0.372871
O O10 0.274140 0.850672 0.644321
O O11 0.386166 0.773492 0.886525
O O12 0.500000 0.000000 0.500000
O O13 0.818359 0.578043 0.995558
O O14 0.750000 0.750000 0.000000
#
# Coordination Sequence:
#
# PCOD8147169 Si02
#       7
#     8   8   4   8   8   8   8
#     4  10  22  42  75 102 135 183 244 290 350 427
#     4  10  22  44  69 102 135 181 232 285 354 417
#     4  12  26  46  70 112 138 186 246 304 348 428
#     4  11  24  43  68  99 140 181 231 289 350 424
#     4   9  22  41  69 100 137 180 228 284 353 417
#     4  12  27  45  68 102 145 186 236 297 356 419
#     4  10  22  45  71  98 138 188 228 291 364 409
#
# _framework density 21.983039000000002
#
# number of rings (size 3 to 8) (size 9 to 14) (size 15 to 20)
#    0.000    1.538    1.538    1.846   10.769    1.846 
#    2.769    2.308    0.000    0.000    0.000    0.000 
#    0.000    0.000    0.000    0.000    0.000    0.000 
#
# Total GULP energy -322283.860474 kJ/mol
# GULP energy per Si atom -12395.533095 kJ/mol
# Density = 2.193300 g / cm^3
# Si number density = 21.983039 Si / 1000 Ang^3
#
#
#
# Elastic Constant Matrix: (Units=GPa)
#
#
# Indices 1 2 3 4 5 6 
#
# 1 119.0670 35.6397 51.9422 0.0000 -0.7885 0.0000
# 2 35.6397 96.0051 37.4424 0.0000 9.2041 0.0000
# 3 51.9422 37.4424 123.1076 0.0000 0.9489 0.0000
# 4 0.0000 0.0000 0.0000 37.4801 0.0000 -2.0054
# 5 -0.7885 9.2041 0.9489 0.0000 31.0564 0.0000
# 6 0.0000 0.0000 0.0000 -2.0054 0.0000 35.7460
#
#
#
# Elastic Compliance Matrix: (Units=1/GPa)
#
#
# Indices 1 2 3 4 5 6 
#
# 1 0.010853 -0.002669 -0.003776 0.000000 0.001182 0.000000
# 2 -0.002669 0.012843 -0.002751 0.000000 -0.003790 0.000000
# 3 -0.003776 -0.002751 0.010550 0.000000 0.000397 0.000000
# 4 0.000000 0.000000 0.000000 0.026761 0.000000 0.001501
# 5 0.001182 -0.003790 0.000397 0.000000 0.033341 0.000000
# 6 0.000000 0.000000 0.000000 0.001501 0.000000 0.028059
#
#
# Mechanical properties :
#
#
# Convention : Reuss Voigt Hill
#
# Bulk Modulus (GPa) = 63.07921 65.35870 64.21896
# Shear Modulus (GPa) = 34.22682 35.06685 34.64684
#
# Velocity S-wave (km/s) = 3.95012 3.99830 3.97428
# Velocity P-wave (km/s) = 7.03998 7.14921 7.09481
#
# Compressibility (1/GPa) = 0.01585308
#
# Stress axis : x y z
#
# Youngs Moduli (GPa) = 92.14141 77.86222 94.78812
#
# Poissons Ratio (x) = 0.20785 0.35795
# Poissons Ratio (y) = 0.24596 0.26073
# Poissons Ratio (z) = 0.34796 0.21417
#
# Static dielectric constant tensor:
#      x y z
#    x 3.464420 0.000000 -0.486580 
#    y 0.000000 3.920070 0.000000 
#    z -0.486580 0.000000 3.564300 
# 
# 
# High freq. dielectric constant tensor:
#      x y z
#    x 1.877290 0.000000 0.003790 
#    y 0.000000 1.857130 0.000000 
#    z 0.003790 0.000000 1.863790 
# 
# From -- ./inp_files/258856.got.cif
#   From: 2010.06.25/outbox.cif.g09.slc.cpg/sg15_130_cif.got.tgz:258856.got - 2010.06.28 07:06:18.
