data_PCOD8147844
_publ_section_title
;
Structure prediction by ZEFSAII (Michael W. Deem and Ramdas Pophale) SiO2 
 PCOD8147844
Probable space group: C 2/C
;
_chemical_formula_sum "Si O2"
_cell_formula_units_Z 44
_cell_length_a 11.926230
_cell_length_b 11.506255
_cell_length_c 14.277535
_cell_angle_alpha 90.000000
_cell_angle_beta 79.348967
_cell_angle_gamma 90.000000
_cell_volume 1925.496759
_symmetry_space_group_name_H-M "C 2/C"
_symmetry_group_IT_number 15
_symmetry_cell_setting 'monoclinic'
loop_
_space_group_symop_operation_xyz
x,y,z
-x,y,1/2-z
-x,-y,-z
x,-y,1/2+z
1/2+x,1/2+y,z
1/2-x,1/2+y,1/2-z
1/2-x,1/2-y,-z
1/2+x,1/2-y,1/2+z
loop_
_atom_site_type_symbol
_atom_site_label
_atom_site_fract_x
_atom_site_fract_y
_atom_site_fract_z
Si Si1 0.912724 0.235911 0.099871
Si Si2 0.195976 0.007985 0.922096
Si Si3 0.565830 0.085704 0.057226
Si Si4 0.000000 0.312577 0.750000
Si Si5 0.165656 0.179676 0.078908
Si Si6 0.771121 0.787291 0.228724
O O1 0.832643 0.309016 0.182992
O O2 0.044195 0.243082 0.112603
O O3 0.877371 0.101550 0.098785
O O4 0.901709 0.294903 0.999993
O O5 0.196949 0.101538 0.838498
O O6 0.324950 0.975289 0.918443
O O7 0.145850 0.056613 0.029116
O O8 0.485870 0.112749 0.158028
O O9 0.500000 0.000000 0.000000
O O10 0.116763 0.238995 0.726848
O O11 0.228834 0.178033 0.170062
O O12 0.250000 0.250000 0.000000
#
# Coordination Sequence:
#
# PCOD8147844 Si02
#       6
#     8   8   8   4   8   8
#     4  12  25  47  72 108 142 186 247 299 368 440
#     4  11  24  45  71 106 143 191 240 308 367 429
#     4  12  26  45  75 104 146 194 240 304 361 443
#     4  12  26  48  70 104 148 188 244 292 370 436
#     4  10  22  45  71 100 143 188 238 298 364 433
#     4  11  25  46  70 105 143 192 241 296 367 442
#
# _framework density 22.851246
#
# number of rings (size 3 to 8) (size 9 to 14) (size 15 to 20)
#    0.000    0.727    1.818    7.091    2.545    1.455 
#    3.273    0.000    0.000    0.000    0.000    0.000 
#    0.000    0.000    0.000    0.000    0.000    0.000 
#
# Total GULP energy -272750.495701 kJ/mol
# GULP energy per Si atom -12397.749805 kJ/mol
# Density = 2.279924 g / cm^3
# Si number density = 22.851246 Si / 1000 Ang^3
#
#
#
# Elastic Constant Matrix: (Units=GPa)
#
#
# Indices 1 2 3 4 5 6 
#
# 1 153.9834 23.4787 35.7043 0.0000 -7.3565 0.0000
# 2 23.4787 101.8436 49.9992 0.0000 2.6361 0.0000
# 3 35.7043 49.9992 139.1490 0.0000 -8.9847 0.0000
# 4 0.0000 0.0000 0.0000 36.2161 0.0000 7.1556
# 5 -7.3565 2.6361 -8.9847 0.0000 41.1539 0.0000
# 6 0.0000 0.0000 0.0000 7.1556 0.0000 31.8213
#
#
#
# Elastic Compliance Matrix: (Units=1/GPa)
#
#
# Indices 1 2 3 4 5 6 
#
# 1 0.007011 -0.000961 -0.001388 0.000000 0.001012 0.000000
# 2 -0.000961 0.012176 -0.004250 0.000000 -0.001879 0.000000
# 3 -0.001388 -0.004250 0.009201 0.000000 0.002033 0.000000
# 4 0.000000 0.000000 0.000000 0.028896 0.000000 -0.006498
# 5 0.001012 -0.001879 0.002033 0.000000 0.025044 0.000000
# 6 0.000000 0.000000 0.000000 -0.006498 0.000000 0.032887
#
#
# Mechanical properties :
#
#
# Convention : Reuss Voigt Hill
#
# Bulk Modulus (GPa) = 65.83443 68.14892 66.99168
# Shear Modulus (GPa) = 37.46010 40.89116 39.17563
#
# Velocity S-wave (km/s) = 4.05322 4.23478 4.14499
# Velocity P-wave (km/s) = 7.12582 7.33476 7.23105
#
# Compressibility (1/GPa) = 0.01518962
#
# Stress axis : x y z
#
# Youngs Moduli (GPa) = 142.63360 82.13210 108.68313
#
# Poissons Ratio (x) = 0.07892 0.15089
# Poissons Ratio (y) = 0.13705 0.46187
# Poissons Ratio (z) = 0.19803 0.34904
#
# Static dielectric constant tensor:
#      x y z
#    x 4.065580 0.000000 -0.156520 
#    y 0.000000 4.056620 0.000000 
#    z -0.156520 0.000000 4.525230 
# 
# 
# High freq. dielectric constant tensor:
#      x y z
#    x 1.920820 0.000000 -0.001880 
#    y 0.000000 1.885000 0.000000 
#    z -0.001880 0.000000 1.914230 
# 
# From -- ./inp_files/142235.got.cif
#   From: 2010.06.25/outbox.cif.g09.slc.cpg/sg15_72_cif.got.tgz:142235.got - 2010.06.28 07:06:18.
