data_PCOD8147590
_publ_section_title
;
Structure prediction by ZEFSAII (Michael W. Deem and Ramdas Pophale) SiO2 
 PCOD8147590
Probable space group: C 2/C
;
_chemical_formula_sum "Si O2"
_cell_formula_units_Z 56
_cell_length_a 9.397404
_cell_length_b 22.940553
_cell_length_c 17.166830
_cell_angle_alpha 90.000000
_cell_angle_beta 48.142322
_cell_angle_gamma 90.000000
_cell_volume 2756.412828
_symmetry_space_group_name_H-M "C 2/C"
_symmetry_group_IT_number 15
_symmetry_cell_setting 'monoclinic'
loop_
_space_group_symop_operation_xyz
x,y,z
-x,y,1/2-z
-x,-y,-z
x,-y,1/2+z
1/2+x,1/2+y,z
1/2-x,1/2+y,1/2-z
1/2-x,1/2-y,-z
1/2+x,1/2-y,1/2+z
loop_
_atom_site_type_symbol
_atom_site_label
_atom_site_fract_x
_atom_site_fract_y
_atom_site_fract_z
Si Si1 0.545372 0.351299 0.820525
Si Si2 0.598230 0.567455 0.007670
Si Si3 0.962814 0.356700 0.679002
Si Si4 0.927174 0.713956 0.661389
Si Si5 0.709904 0.672012 0.882717
Si Si6 0.422981 0.770164 0.989750
Si Si7 0.322664 0.968716 0.872183
O O1 0.500000 0.366637 0.750000
O O2 0.385334 0.384083 0.930232
O O3 0.548372 0.282514 0.833483
O O4 0.749237 0.381161 0.766165
O O5 0.388751 0.537723 0.089351
O O6 0.634705 0.605261 0.915040
O O7 0.775473 0.521286 0.950059
O O8 0.957053 0.313850 0.607895
O O9 0.113997 0.408920 0.608356
O O10 0.000000 0.325836 0.750000
O O11 0.757307 0.687960 0.776176
O O12 0.871659 0.700036 0.591524
O O13 0.117569 0.681508 0.619736
O O14 0.540889 0.713972 0.972237
O O15 0.250000 0.750000 0.000000
O O16 0.500000 0.985520 0.750000
#
# Coordination Sequence:
#
# PCOD8147590 Si02
#       7
#     8   8   8   8   8   8   8
#     4  12  21  38  64  94 127 169 210 263 325 392
#     4  11  23  40  70  93 124 169 224 271 320 379
#     4  11  21  40  63  90 126 170 218 264 317 394
#     4  11  23  40  57  98 135 168 207 264 323 394
#     4  11  23  39  63  95 127 169 214 261 324 388
#     4  12  23  34  62  93 131 171 209 256 328 397
#     4  10  22  44  67  93 119 168 227 272 318 383
#
# _framework density 20.316261000000001
#
# number of rings (size 3 to 8) (size 9 to 14) (size 15 to 20)
#    0.000    0.857    7.143    2.143    4.000    0.000 
#    0.000    0.714    6.286    0.000    0.000    0.000 
#    0.000    0.000    0.000    0.000    0.000    0.000 
#
# Total GULP energy -346889.099861 kJ/mol
# GULP energy per Si atom -12388.896424 kJ/mol
# Density = 2.027002 g / cm^3
# Si number density = 20.316261 Si / 1000 Ang^3
#
#
#
# Elastic Constant Matrix: (Units=GPa)
#
#
# Indices 1 2 3 4 5 6 
#
# 1 78.3526 -1.8873 36.9898 0.0000 12.2735 0.0000
# 2 -1.8873 81.2758 34.8637 0.0000 -1.4907 0.0000
# 3 36.9898 34.8637 112.0659 -0.0001 8.3099 0.0000
# 4 0.0000 0.0000 -0.0001 -13.0350 0.0000 -2.6058
# 5 12.2735 -1.4907 8.3099 0.0000 44.1720 0.0000
# 6 0.0000 0.0000 0.0000 -2.6058 0.0000 18.7198
#
#
#
# Elastic Compliance Matrix: (Units=1/GPa)
#
#
# Indices 1 2 3 4 5 6 
#
# 1 0.016174 0.002887 -0.005994 0.000000 -0.003269 0.000000
# 2 0.002887 0.014791 -0.005610 0.000000 0.000752 0.000000
# 3 -0.005994 -0.005610 0.012715 0.000000 -0.000916 0.000000
# 4 0.000000 0.000000 0.000000 -0.074640 0.000000 -0.010390
# 5 -0.003269 0.000752 -0.000916 0.000000 0.023745 0.000000
# 6 0.000000 0.000000 0.000000 -0.010390 0.000000 0.051973
#
#
# Mechanical properties :
#
#
# Convention : Reuss Voigt Hill
#
# Bulk Modulus (GPa) = 38.10202 45.73628 41.91915
# Shear Modulus (GPa) = 70.47936 23.41991 46.94964
#
# Velocity S-wave (km/s) = 5.89631 3.39893 4.81244
# Velocity P-wave (km/s) = 8.07158 6.16154 7.18036
#
# Compressibility (1/GPa) = 0.02624533
#
# Stress axis : x y z
#
# Youngs Moduli (GPa) = 61.82620 67.60791 78.64628
#
# Poissons Ratio (x) = -0.19518 0.47144
# Poissons Ratio (y) = -0.17849 0.44122
# Poissons Ratio (z) = 0.37061 0.37930
#
# Static dielectric constant tensor:
#      x y z
#    x 3.383970 0.000000 -0.008100 
#    y 0.000000 3.561860 0.000000 
#    z -0.008100 0.000000 4.090410 
# 
# 
# High freq. dielectric constant tensor:
#      x y z
#    x 1.770740 0.000000 -0.011980 
#    y 0.000000 1.782350 0.000000 
#    z -0.011980 0.000000 1.813110 
# 
# From -- ./inp_files/193204.got.cif
#   From: 2010.06.25/outbox.cif.g09.slc.cpg/sg15_97_cif.got.tgz:193204.got - 2010.06.28 07:06:18.
