data_PCOD8147491
_publ_section_title
;
Structure prediction by ZEFSAII (Michael W. Deem and Ramdas Pophale) SiO2 
 PCOD8147491
Probable space group: C 2/C
;
_chemical_formula_sum "Si O2"
_cell_formula_units_Z 48
_cell_length_a 9.562465
_cell_length_b 22.396726
_cell_length_c 11.953728
_cell_angle_alpha 90.000000
_cell_angle_beta 60.626162
_cell_angle_gamma 90.000000
_cell_volume 2230.972391
_symmetry_space_group_name_H-M "C 2/C"
_symmetry_group_IT_number 15
_symmetry_cell_setting 'monoclinic'
loop_
_space_group_symop_operation_xyz
x,y,z
-x,y,1/2-z
-x,-y,-z
x,-y,1/2+z
1/2+x,1/2+y,z
1/2-x,1/2+y,1/2-z
1/2-x,1/2-y,-z
1/2+x,1/2-y,1/2+z
loop_
_atom_site_type_symbol
_atom_site_label
_atom_site_fract_x
_atom_site_fract_y
_atom_site_fract_z
Si Si1 0.000000 0.580125 0.750000
Si Si2 0.638584 0.603072 0.485118
Si Si3 0.000000 0.952565 0.250000
Si Si4 0.768547 0.516103 0.258468
Si Si5 0.968032 0.191426 0.388833
Si Si6 0.099927 0.678280 0.545459
Si Si7 0.994133 0.621394 0.376456
O O1 0.156091 0.540267 0.708161
O O2 0.021516 0.620901 0.632953
O O3 0.513472 0.587749 0.632789
O O4 0.654210 0.548712 0.392417
O O5 0.582961 0.660327 0.434565
O O6 0.808034 0.613460 0.481259
O O7 0.157459 0.994303 0.199626
O O8 0.909970 0.558475 0.155764
O O9 0.996115 0.262740 0.378716
O O10 0.787133 0.180278 0.500508
O O11 0.000000 0.167198 0.250000
O O12 0.078103 0.670202 0.421248
O O13 0.000000 0.648251 0.250000
#
# Coordination Sequence:
#
# PCOD8147491 Si02
#       7
#     4   8   4   8   8   8   8
#     4  12  22  44  69 101 136 170 228 278 336 404
#     4  11  24  44  64  97 138 177 224 276 338 401
#     4  12  26  38  61 105 132 178 222 274 346 390
#     4  11  24  41  68  98 140 176 218 280 339 412
#     4  11  24  47  68  98 132 176 237 275 332 393
#     4  11  25  41  72  97 131 179 227 285 324 398
#     4  10  22  44  63  97 128 180 219 265 349 394
#
# _framework density 21.515281999999999
#
# number of rings (size 3 to 8) (size 9 to 14) (size 15 to 20)
#    0.000    1.000    3.333    4.500    5.833    2.000 
#    1.500    0.000    0.000    0.000    0.000    0.000 
#    0.000    0.000    0.000    0.000    0.000    0.000 
#
# Total GULP energy -297667.988828 kJ/mol
# GULP energy per Si atom -12402.832868 kJ/mol
# Density = 2.146631 g / cm^3
# Si number density = 21.515282 Si / 1000 Ang^3
#
#
#
# Elastic Constant Matrix: (Units=GPa)
#
#
# Indices 1 2 3 4 5 6 
#
# 1 126.9471 51.2782 31.5904 0.0000 9.5736 0.0000
# 2 51.2782 110.9806 45.5058 0.0000 5.2278 0.0000
# 3 31.5904 45.5058 90.3133 0.0000 2.2022 0.0000
# 4 0.0000 0.0000 0.0000 33.0196 0.0000 3.8229
# 5 9.5736 5.2278 2.2022 0.0000 33.2111 0.0000
# 6 0.0000 0.0000 0.0000 3.8229 0.0000 31.5281
#
#
#
# Elastic Compliance Matrix: (Units=1/GPa)
#
#
# Indices 1 2 3 4 5 6 
#
# 1 0.009985 -0.003909 -0.001470 0.000000 -0.002166 0.000000
# 2 -0.003909 0.012953 -0.005146 0.000000 -0.000571 0.000000
# 3 -0.001470 -0.005146 0.014172 0.000000 0.000294 0.000000
# 4 0.000000 0.000000 0.000000 0.030716 0.000000 -0.003724
# 5 -0.002166 -0.000571 0.000294 0.000000 0.030805 0.000000
# 6 0.000000 0.000000 0.000000 -0.003724 0.000000 0.032169
#
#
# Mechanical properties :
#
#
# Convention : Reuss Voigt Hill
#
# Bulk Modulus (GPa) = 62.26047 64.99887 63.62967
# Shear Modulus (GPa) = 31.80551 32.87621 32.34086
#
# Velocity S-wave (km/s) = 3.84901 3.91326 3.88126
# Velocity P-wave (km/s) = 6.98239 7.11999 7.05152
#
# Compressibility (1/GPa) = 0.01606156
#
# Stress axis : x y z
#
# Youngs Moduli (GPa) = 100.14596 77.19979 70.55944
#
# Poissons Ratio (x) = 0.30176 0.10375
# Poissons Ratio (y) = 0.39145 0.36307
# Poissons Ratio (z) = 0.14726 0.39724
#
# Static dielectric constant tensor:
#      x y z
#    x 4.044250 0.000000 0.039380 
#    y 0.000000 3.793550 0.000000 
#    z 0.039380 0.000000 3.743650 
# 
# 
# High freq. dielectric constant tensor:
#      x y z
#    x 1.856390 0.000000 0.001760 
#    y 0.000000 1.833780 0.000000 
#    z 0.001760 0.000000 1.843020 
# 
# From -- ./inp_files/79824.got.cif
#   From: 2010.06.25/outbox.cif.g09.slc.cpg/sg15_40_cif.got.tgz:79824.got - 2010.06.28 07:06:18.
