data_PCOD8147353
_publ_section_title
;
Structure prediction by ZEFSAII (Michael W. Deem and Ramdas Pophale) SiO2 
 PCOD8147353
Probable space group: C 2/C
;
_chemical_formula_sum "Si O2"
_cell_formula_units_Z 40
_cell_length_a 24.932353
_cell_length_b 7.547671
_cell_length_c 14.148098
_cell_angle_alpha 90.000000
_cell_angle_beta 140.666267
_cell_angle_gamma 90.000000
_cell_volume 1687.529752
_symmetry_space_group_name_H-M "C 2/C"
_symmetry_group_IT_number 15
_symmetry_cell_setting 'monoclinic'
loop_
_space_group_symop_operation_xyz
x,y,z
-x,y,1/2-z
-x,-y,-z
x,-y,1/2+z
1/2+x,1/2+y,z
1/2-x,1/2+y,1/2-z
1/2-x,1/2-y,-z
1/2+x,1/2-y,1/2+z
loop_
_atom_site_type_symbol
_atom_site_label
_atom_site_fract_x
_atom_site_fract_y
_atom_site_fract_z
Si Si1 0.333792 0.190734 0.059676
Si Si2 0.057551 0.017992 0.707565
Si Si3 0.616980 0.571703 0.586073
Si Si4 0.279287 0.229259 0.777083
Si Si5 0.335822 0.828739 0.157237
O O1 0.403989 0.346128 0.163920
O O2 0.367021 0.005677 0.147326
O O3 0.250000 0.250000 0.000000
O O4 0.314452 0.157281 0.924042
O O5 0.073611 0.110096 0.627633
O O6 0.093675 0.820430 0.761159
O O7 0.956353 0.990844 0.586751
O O8 0.692369 0.430043 0.699841
O O9 0.675301 0.735081 0.630067
O O10 0.320346 0.119101 0.746095
O O11 0.250000 0.750000 0.000000
#
# Coordination Sequence:
#
# PCOD8147353 Si02
#       5
#     8   8   8   8   8
#     4  12  21  41  70  97 139 182 223 281 350 400
#     4  10  23  44  67 100 138 178 220 291 340 399
#     4  10  22  43  68  98 136 174 228 281 344 402
#     4  11  23  42  69  98 132 180 229 276 345 410
#     4  11  23  43  68 100 136 177 231 277 341 413
#
# _framework density 23.703288000000001
#
# number of rings (size 3 to 8) (size 9 to 14) (size 15 to 20)
#    0.000    1.200    4.000    2.400    0.000    0.800 
#    3.600    3.000    4.400    0.000    0.000    0.000 
#    0.000    0.000    0.000    0.000    0.000    0.000 
#
# Total GULP energy -247938.478273 kJ/mol
# GULP energy per Si atom -12396.923914 kJ/mol
# Density = 2.364934 g / cm^3
# Si number density = 23.703288 Si / 1000 Ang^3
#
#
#
# Elastic Constant Matrix: (Units=GPa)
#
#
# Indices 1 2 3 4 5 6 
#
# 1 107.6834 49.4185 62.1858 0.0000 -8.6668 0.0000
# 2 49.4185 101.2654 55.2326 0.0000 0.2065 0.0000
# 3 62.1858 55.2326 159.7021 0.0000 17.2779 0.0000
# 4 0.0000 0.0000 0.0000 46.0426 0.0000 2.0467
# 5 -8.6668 0.2065 17.2779 0.0000 55.4448 0.0000
# 6 0.0000 0.0000 0.0000 2.0467 0.0000 27.6571
#
#
#
# Elastic Compliance Matrix: (Units=1/GPa)
#
#
# Indices 1 2 3 4 5 6 
#
# 1 0.014166 -0.004561 -0.004326 0.000000 0.003579 0.000000
# 2 -0.004561 0.013732 -0.002991 0.000000 0.000168 0.000000
# 3 -0.004326 -0.002991 0.009368 0.000000 -0.003584 0.000000
# 4 0.000000 0.000000 0.000000 0.021791 0.000000 -0.001613
# 5 0.003579 0.000168 -0.003584 0.000000 0.019712 0.000000
# 6 0.000000 0.000000 0.000000 -0.001613 0.000000 0.036276
#
#
# Mechanical properties :
#
#
# Convention : Reuss Voigt Hill
#
# Bulk Modulus (GPa) = 74.01952 78.03608 76.02780
# Shear Modulus (GPa) = 34.89062 39.28316 37.08689
#
# Velocity S-wave (km/s) = 3.84079 4.07540 3.95983
# Velocity P-wave (km/s) = 7.13892 7.42554 7.28364
#
# Compressibility (1/GPa) = 0.01350995
#
# Stress axis : x y z
#
# Youngs Moduli (GPa) = 70.59258 72.82220 106.74127
#
# Poissons Ratio (x) = 0.33214 0.46174
# Poissons Ratio (y) = 0.32197 0.31931
# Poissons Ratio (z) = 0.30537 0.21784
#
# Static dielectric constant tensor:
#      x y z
#    x 4.599050 0.000000 -0.043640 
#    y 0.000000 4.315760 0.000000 
#    z -0.043640 0.000000 4.512590 
# 
# 
# High freq. dielectric constant tensor:
#      x y z
#    x 1.944350 0.000000 -0.012960 
#    y 0.000000 1.927660 0.000000 
#    z -0.012960 0.000000 1.939690 
# 
# From -- ./inp_files/172135.got.cif
#   From: 2010.06.25/outbox.cif.g09.slc.cpg/sg15_87_cif.got.tgz:172135.got - 2010.06.28 07:06:18.
