data_PCOD8147210
_publ_section_title
;
Structure prediction by ZEFSAII (Michael W. Deem and Ramdas Pophale) SiO2 
 PCOD8147210
Probable space group: C 2/C
;
_chemical_formula_sum "Si O2"
_cell_formula_units_Z 40
_cell_length_a 6.305581
_cell_length_b 12.384311
_cell_length_c 18.091211
_cell_angle_alpha 90.000000
_cell_angle_beta 103.061072
_cell_angle_gamma 90.000000
_cell_volume 1376.199505
_symmetry_space_group_name_H-M "C 2/C"
_symmetry_group_IT_number 15
_symmetry_cell_setting 'monoclinic'
loop_
_space_group_symop_operation_xyz
x,y,z
-x,y,1/2-z
-x,-y,-z
x,-y,1/2+z
1/2+x,1/2+y,z
1/2-x,1/2+y,1/2-z
1/2-x,1/2-y,-z
1/2+x,1/2-y,1/2+z
loop_
_atom_site_type_symbol
_atom_site_label
_atom_site_fract_x
_atom_site_fract_y
_atom_site_fract_z
Si Si1 0.214130 0.589301 0.445602
Si Si2 0.107016 0.125304 0.566708
Si Si3 0.686759 0.925651 0.104569
Si Si4 0.756531 0.665712 0.348367
Si Si5 0.283423 0.282005 0.814797
O O1 0.473801 0.615016 0.478213
O O2 0.190177 0.460874 0.420268
O O3 0.095514 0.609512 0.515489
O O4 0.138710 0.674132 0.374414
O O5 0.950809 0.084439 0.620950
O O6 0.194284 0.245415 0.585015
O O7 0.628333 0.840055 0.164456
O O8 0.622344 0.051590 0.119210
O O9 0.839064 0.707334 0.273575
O O10 0.498522 0.643252 0.325888
#
# Coordination Sequence:
#
# PCOD8147210 Si02
#       5
#     8   8   8   8   8
#     4   9  19  42  67  89 122 166 212 254 305 370
#     4   9  20  41  67  89 120 166 209 251 306 372
#     4  10  22  43  64  91 121 171 207 253 317 360
#     4  11  24  40  62  94 128 165 206 259 311 373
#     4  11  23  39  64  92 131 162 206 261 314 361
#
# _framework density 29.065553999999999
#
# number of rings (size 3 to 8) (size 9 to 14) (size 15 to 20)
#    1.200    0.800    2.000    0.600    2.800    4.000 
#    3.600    2.000    0.000    0.000    0.000    0.000 
#    0.000    0.000    0.000    0.000    0.000    0.000 
#
# Total GULP energy -247997.359250 kJ/mol
# GULP energy per Si atom -12399.867962 kJ/mol
# Density = 2.899940 g / cm^3
# Si number density = 29.065554 Si / 1000 Ang^3
#
#
#
# Elastic Constant Matrix: (Units=GPa)
#
#
# Indices 1 2 3 4 5 6 
#
# 1 52.3907 34.2911 24.7783 0.0000 7.9427 0.0000
# 2 34.2911 232.6819 106.9547 0.0000 23.0349 0.0000
# 3 24.7783 106.9547 208.7124 0.0000 17.2605 0.0000
# 4 0.0000 0.0000 0.0000 52.1304 0.0000 4.9822
# 5 7.9427 23.0349 17.2605 0.0000 42.4374 0.0000
# 6 0.0000 0.0000 0.0000 4.9822 0.0000 56.1868
#
#
#
# Elastic Compliance Matrix: (Units=1/GPa)
#
#
# Indices 1 2 3 4 5 6 
#
# 1 0.021556 -0.002437 -0.001124 0.000000 -0.002255 0.000000
# 2 -0.002437 0.006057 -0.002670 0.000000 -0.001746 0.000000
# 3 -0.001124 -0.002670 0.006370 0.000000 -0.000931 0.000000
# 4 0.000000 0.000000 0.000000 0.019347 0.000000 -0.001716
# 5 -0.002255 -0.001746 -0.000931 0.000000 0.025312 0.000000
# 6 0.000000 0.000000 0.000000 -0.001716 0.000000 0.017950
#
#
# Mechanical properties :
#
#
# Convention : Reuss Voigt Hill
#
# Bulk Modulus (GPa) = 46.46666 91.75922 69.11294
# Shear Modulus (GPa) = 43.01909 52.00165 47.51037
#
# Velocity S-wave (km/s) = 3.85134 4.23438 4.04740
# Velocity P-wave (km/s) = 5.98320 7.45285 6.75809
#
# Compressibility (1/GPa) = 0.02152081
#
# Stress axis : x y z
#
# Youngs Moduli (GPa) = 46.39134 165.09586 156.98368
#
# Poissons Ratio (x) = 0.40233 0.17642
# Poissons Ratio (y) = 0.11305 0.41919
# Poissons Ratio (z) = 0.05214 0.44085
#
# Static dielectric constant tensor:
#      x y z
#    x 5.648620 0.000000 0.069970 
#    y 0.000000 4.950650 0.000000 
#    z 0.069970 0.000000 5.006160 
# 
# 
# High freq. dielectric constant tensor:
#      x y z
#    x 2.249000 0.000000 0.014660 
#    y 0.000000 2.175260 0.000000 
#    z 0.014660 0.000000 2.160540 
# 
# From -- ./inp_files/187947.got.cif
#   From: 2010.06.25/outbox.cif.g09.slc.cpg/sg15_94_cif.got.tgz:187947.got - 2010.06.28 07:06:18.
