data_PCOD8147629
_publ_section_title
;
Structure prediction by ZEFSAII (Michael W. Deem and Ramdas Pophale) SiO2 
 PCOD8147629
Probable space group: C 2/C
;
_chemical_formula_sum "Si O2"
_cell_formula_units_Z 36
_cell_length_a 9.719596
_cell_length_b 7.707056
_cell_length_c 22.243782
_cell_angle_alpha 90.000000
_cell_angle_beta 66.448042
_cell_angle_gamma 90.000000
_cell_volume 1527.466478
_symmetry_space_group_name_H-M "C 2/C"
_symmetry_group_IT_number 15
_symmetry_cell_setting 'monoclinic'
loop_
_space_group_symop_operation_xyz
x,y,z
-x,y,1/2-z
-x,-y,-z
x,-y,1/2+z
1/2+x,1/2+y,z
1/2-x,1/2+y,1/2-z
1/2-x,1/2-y,-z
1/2+x,1/2-y,1/2+z
loop_
_atom_site_type_symbol
_atom_site_label
_atom_site_fract_x
_atom_site_fract_y
_atom_site_fract_z
Si Si1 0.500000 0.537620 0.250000
Si Si2 0.324042 0.437518 0.585433
Si Si3 0.027924 0.704953 0.180613
Si Si4 0.273097 0.823814 0.640694
Si Si5 0.337020 0.413342 0.960439
O O1 0.478019 0.408210 0.196195
O O2 0.356580 0.659856 0.285998
O O3 0.201720 0.303738 0.631817
O O4 0.280354 0.628453 0.615815
O O5 0.486021 0.373890 0.580356
O O6 0.322609 0.432777 0.512170
O O7 0.000000 0.610092 0.250000
O O8 0.928559 0.619571 0.145107
O O9 0.238288 0.955407 0.591204
O O10 0.250000 0.250000 0.000000
#
# Coordination Sequence:
#
# PCOD8147629 Si02
#       5
#     4   8   8   8   8
#     4  10  26  38  60  96 132 164 216 256 318 382
#     4  10  22  44  68  93 130 165 213 268 319 378
#     4  10  26  39  61  97 130 165 214 262 315 383
#     4  11  23  41  66  91 128 172 212 260 320 380
#     4   9  21  42  68  96 124 167 215 266 321 376
#
# _framework density 23.568441
#
# number of rings (size 3 to 8) (size 9 to 14) (size 15 to 20)
#    0.667    1.333    0.000    1.333    7.778    4.444 
#    0.000   15.556    0.000    0.000    0.000    0.000 
#    0.000    0.000    0.000    0.000    0.000    0.000 
#
# Total GULP energy -223029.013044 kJ/mol
# GULP energy per Si atom -12390.500725 kJ/mol
# Density = 2.351480 g / cm^3
# Si number density = 23.568441 Si / 1000 Ang^3
#
#
#
# Elastic Constant Matrix: (Units=GPa)
#
#
# Indices 1 2 3 4 5 6 
#
# 1 184.4910 32.3920 100.1550 0.0000 -0.4296 0.0000
# 2 32.3920 43.6484 35.2223 0.0000 -3.4835 0.0000
# 3 100.1550 35.2223 139.3811 0.0000 -14.8508 0.0000
# 4 0.0000 0.0000 0.0000 27.3576 0.0000 -8.3374
# 5 -0.4296 -3.4835 -14.8508 0.0000 58.2562 0.0000
# 6 0.0000 0.0000 0.0000 -8.3374 0.0000 24.5233
#
#
#
# Elastic Compliance Matrix: (Units=1/GPa)
#
#
# Indices 1 2 3 4 5 6 
#
# 1 0.009153 -0.001853 -0.006284 0.000000 -0.001645 0.000000
# 2 -0.001853 0.029155 -0.006015 0.000000 0.000196 0.000000
# 3 -0.006284 -0.006015 0.013535 0.000000 0.003044 0.000000
# 4 0.000000 0.000000 0.000000 0.040778 0.000000 0.013864
# 5 -0.001645 0.000196 0.003044 0.000000 0.017941 0.000000
# 6 0.000000 0.000000 0.000000 0.013864 0.000000 0.045491
#
#
# Mechanical properties :
#
#
# Convention : Reuss Voigt Hill
#
# Bulk Modulus (GPa) = 42.48431 78.11770 60.30101
# Shear Modulus (GPa) = 26.01389 35.34416 30.67902
#
# Velocity S-wave (km/s) = 3.32589 3.87672 3.61182
# Velocity P-wave (km/s) = 5.72833 7.29764 6.56008
#
# Compressibility (1/GPa) = 0.02353810
#
# Stress axis : x y z
#
# Youngs Moduli (GPa) = 109.24805 34.29929 73.88331
#
# Poissons Ratio (x) = 0.06355 0.46432
# Poissons Ratio (y) = 0.20243 0.44443
# Poissons Ratio (z) = 0.68657 0.20632
#
# Static dielectric constant tensor:
#      x y z
#    x 4.295290 0.000000 0.251670 
#    y 0.000000 3.668530 0.000000 
#    z 0.251670 0.000000 4.904290 
# 
# 
# High freq. dielectric constant tensor:
#      x y z
#    x 1.931580 0.000000 -0.000500 
#    y 0.000000 1.890340 0.000000 
#    z -0.000500 0.000000 1.958000 
# 
# From -- ./inp_files/262339.got.cif
#   From: 2010.06.25/outbox.cif.g09.slc.cpg/sg15_132_cif.got.tgz:262339.got - 2010.06.28 07:06:18.
