data_PCOD8147332
_publ_section_title
;
Structure prediction by ZEFSAII (Michael W. Deem and Ramdas Pophale) SiO2 
 PCOD8147332
Probable space group: C 2/C
;
_chemical_formula_sum "Si O2"
_cell_formula_units_Z 64
_cell_length_a 21.244862
_cell_length_b 18.454939
_cell_length_c 12.441480
_cell_angle_alpha 90.000000
_cell_angle_beta 37.299018
_cell_angle_gamma 90.000000
_cell_volume 2955.922982
_symmetry_space_group_name_H-M "C 2/C"
_symmetry_group_IT_number 15
_symmetry_cell_setting 'monoclinic'
loop_
_space_group_symop_operation_xyz
x,y,z
-x,y,1/2-z
-x,-y,-z
x,-y,1/2+z
1/2+x,1/2+y,z
1/2-x,1/2+y,1/2-z
1/2-x,1/2-y,-z
1/2+x,1/2-y,1/2+z
loop_
_atom_site_type_symbol
_atom_site_label
_atom_site_fract_x
_atom_site_fract_y
_atom_site_fract_z
Si Si1 0.104538 0.035284 0.893663
Si Si2 0.589561 0.333741 0.549156
Si Si3 0.605381 0.099960 0.558202
Si Si4 0.897632 0.724222 0.322921
Si Si5 0.722019 0.975500 0.718261
Si Si6 0.807490 0.366991 0.338395
Si Si7 0.711246 0.370580 0.064903
Si Si8 0.025067 0.709173 0.510605
O O1 0.158396 0.079245 0.724877
O O2 0.178955 0.972832 0.837155
O O3 0.080832 0.082544 0.031053
O O4 0.000000 0.000000 0.000000
O O5 0.500000 0.309223 0.750000
O O6 0.703945 0.321632 0.447175
O O7 0.556927 0.293234 0.482947
O O8 0.500000 0.065377 0.750000
O O9 0.631673 0.050102 0.420724
O O10 0.690275 0.113187 0.536993
O O11 0.581698 0.177512 0.538574
O O12 0.804748 0.674186 0.495150
O O13 0.868352 0.809454 0.370709
O O14 0.920502 0.690626 0.174898
O O15 0.000000 0.711040 0.250000
O O16 0.744529 0.921650 0.589416
O O17 0.689775 0.056217 0.726523
O O18 0.904395 0.315529 0.173576
#
# Coordination Sequence:
#
# PCOD8147332 Si02
#       8
#     8   8   8   8   8   8   8   8
#     4  11  27  43  68  99 141 180 234 290 351 419
#     4  11  25  44  68  99 134 183 233 285 345 418
#     4  10  22  43  68 102 139 178 231 283 347 414
#     4  11  26  45  75 104 140 187 238 292 355 417
#     4  11  24  43  72 100 141 186 226 295 350 418
#     4  10  25  44  68 103 142 181 236 283 360 413
#     4  11  25  49  70 106 140 183 242 289 353 429
#     4  11  23  46  67 102 137 182 230 291 348 415
#
# _framework density 21.651443
#
# number of rings (size 3 to 8) (size 9 to 14) (size 15 to 20)
#    0.000    1.250    2.500    1.875   10.500    4.000 
#    2.250    0.000    0.000    0.000    0.000    0.000 
#    0.000    0.000    0.000    0.000    0.000    0.000 
#
# Total GULP energy -396516.975683 kJ/mol
# GULP energy per Si atom -12391.155490 kJ/mol
# Density = 2.160216 g / cm^3
# Si number density = 21.651443 Si / 1000 Ang^3
#
#
#
# Elastic Constant Matrix: (Units=GPa)
#
#
# Indices 1 2 3 4 5 6 
#
# 1 130.2410 40.0771 48.4908 0.0000 -19.6045 0.0000
# 2 40.0771 74.8130 40.9798 0.0000 -9.7086 0.0000
# 3 48.4908 40.9798 93.4517 0.0000 -3.2079 0.0000
# 4 0.0000 0.0000 0.0000 12.8727 0.0000 4.6661
# 5 -19.6045 -9.7086 -3.2079 0.0000 33.6311 0.0000
# 6 0.0000 0.0000 0.0000 4.6661 0.0000 28.8454
#
#
#
# Elastic Compliance Matrix: (Units=1/GPa)
#
#
# Indices 1 2 3 4 5 6 
#
# 1 0.010904 -0.002860 -0.004228 0.000000 0.005127 0.000000
# 2 -0.002860 0.019003 -0.006740 0.000000 0.003176 0.000000
# 3 -0.004228 -0.006740 0.015750 0.000000 -0.002908 0.000000
# 4 0.000000 0.000000 0.000000 0.082522 0.000000 -0.013349
# 5 0.005127 0.003176 -0.002908 0.000000 0.033363 0.000000
# 6 0.000000 0.000000 0.000000 -0.013349 0.000000 0.036827
#
#
# Mechanical properties :
#
#
# Convention : Reuss Voigt Hill
#
# Bulk Modulus (GPa) = 55.55096 61.95566 58.75331
# Shear Modulus (GPa) = 21.54942 26.33371 23.94157
#
# Velocity S-wave (km/s) = 3.15824 3.49127 3.32892
# Velocity P-wave (km/s) = 6.24595 6.70292 6.47847
#
# Compressibility (1/GPa) = 0.01800149
#
# Stress axis : x y z
#
# Youngs Moduli (GPa) = 91.70941 52.62393 63.49135
#
# Poissons Ratio (x) = 0.15051 0.26843
# Poissons Ratio (y) = 0.26229 0.42793
# Poissons Ratio (z) = 0.38773 0.35468
#
# Static dielectric constant tensor:
#      x y z
#    x 3.961910 0.000000 -0.012910 
#    y 0.000000 4.024140 0.000000 
#    z -0.012910 0.000000 3.991920 
# 
# 
# High freq. dielectric constant tensor:
#      x y z
#    x 1.857390 0.000000 0.003470 
#    y 0.000000 1.851160 0.000000 
#    z 0.003470 0.000000 1.859900 
# 
# From -- ./inp_files/114249.got.cif
#   From: 2010.06.25/outbox.cif.g09.slc.cpg/sg15_58_cif.got.tgz:114249.got - 2010.06.28 07:06:18.
