data_PCOD8147186
_publ_section_title
;
Structure prediction by ZEFSAII (Michael W. Deem and Ramdas Pophale) SiO2 
 PCOD8147186
Probable space group: C 2/C
;
_chemical_formula_sum "Si O2"
_cell_formula_units_Z 28
_cell_length_a 5.122509
_cell_length_b 17.365736
_cell_length_c 15.379278
_cell_angle_alpha 90.000000
_cell_angle_beta 74.368405
_cell_angle_gamma 90.000000
_cell_volume 1317.481515
_symmetry_space_group_name_H-M "C 2/C"
_symmetry_group_IT_number 15
_symmetry_cell_setting 'monoclinic'
loop_
_space_group_symop_operation_xyz
x,y,z
-x,y,1/2-z
-x,-y,-z
x,-y,1/2+z
1/2+x,1/2+y,z
1/2-x,1/2+y,1/2-z
1/2-x,1/2-y,-z
1/2+x,1/2-y,1/2+z
loop_
_atom_site_type_symbol
_atom_site_label
_atom_site_fract_x
_atom_site_fract_y
_atom_site_fract_z
Si Si1 0.009966 0.348818 0.472787
Si Si2 0.918786 0.822063 0.582873
Si Si3 0.500000 0.404084 0.750000
Si Si4 0.714275 0.052066 0.803598
O O1 0.076367 0.270256 0.415646
O O2 0.161396 0.351530 0.551616
O O3 0.112813 0.419766 0.406061
O O4 0.689602 0.356567 0.515420
O O5 0.885453 0.850468 0.684140
O O6 0.256359 0.459385 0.806489
O O7 0.500000 0.075147 0.750000
O O8 0.000000 0.091638 0.750000
#
# Coordination Sequence:
#
# PCOD8147186 Si02
#       4
#     8   8   4   8
#     4  10  22  43  62  91 122 168 204 252 308 369
#     4  10  23  40  65  90 124 160 212 252 305 363
#     4  10  26  40  62  98 124 162 206 262 304 368
#     4  10  23  40  60  94 125 163 207 246 316 366
#
# _framework density 21.252669000000001
#
# number of rings (size 3 to 8) (size 9 to 14) (size 15 to 20)
#    0.857    1.143    0.000    1.714    6.000    2.286 
#    0.000    0.000    0.000    0.000    0.000    0.000 
#    0.000    0.000    0.000    0.000    0.000    0.000 
#
# Total GULP energy -173613.946528 kJ/mol
# GULP energy per Si atom -12400.996181 kJ/mol
# Density = 2.120430 g / cm^3
# Si number density = 21.252669 Si / 1000 Ang^3
#
#
#
# Elastic Constant Matrix: (Units=GPa)
#
#
# Indices 1 2 3 4 5 6 
#
# 1 112.7586 24.2341 15.0629 0.0000 12.3593 0.0000
# 2 24.2341 81.9921 66.0872 0.0000 14.0623 0.0000
# 3 15.0629 66.0872 102.8566 0.0000 26.0916 0.0000
# 4 0.0000 0.0000 0.0000 36.0776 0.0000 -7.4049
# 5 12.3593 14.0623 26.0916 0.0000 30.5999 0.0000
# 6 0.0000 0.0000 0.0000 -7.4049 0.0000 14.4622
#
#
#
# Elastic Compliance Matrix: (Units=1/GPa)
#
#
# Indices 1 2 3 4 5 6 
#
# 1 0.009864 -0.003902 0.002065 0.000000 -0.003952 0.000000
# 2 -0.003902 0.027038 -0.017926 0.000000 0.004436 0.000000
# 3 0.002065 -0.017926 0.024320 0.000000 -0.013333 0.000000
# 4 0.000000 0.000000 0.000000 0.030973 0.000000 0.015859
# 5 -0.003952 0.004436 -0.013333 0.000000 0.043606 0.000000
# 6 0.000000 0.000000 0.000000 0.015859 0.000000 0.077266
#
#
# Mechanical properties :
#
#
# Convention : Reuss Voigt Hill
#
# Bulk Modulus (GPa) = 46.09232 56.48619 51.28925
# Shear Modulus (GPa) = 19.24376 29.04281 24.14329
#
# Velocity S-wave (km/s) = 3.01238 3.70070 3.37413
# Velocity P-wave (km/s) = 5.81671 6.70047 6.27417
#
# Compressibility (1/GPa) = 0.02169559
#
# Stress axis : x y z
#
# Youngs Moduli (GPa) = 101.37367 36.98556 41.11891
#
# Poissons Ratio (x) = 0.14434 -0.08492
# Poissons Ratio (y) = 0.39561 0.73709
# Poissons Ratio (z) = -0.20937 0.66300
#
# Static dielectric constant tensor:
#      x y z
#    x 3.919310 0.000000 0.063150 
#    y 0.000000 3.673530 0.000000 
#    z 0.063150 0.000000 3.528040 
# 
# 
# High freq. dielectric constant tensor:
#      x y z
#    x 1.847300 0.000000 0.007510 
#    y 0.000000 1.821140 0.000000 
#    z 0.007510 0.000000 1.824670 
# 
# From -- ./inp_files/71831.got.cif
#   From: 2010.06.25/outbox.cif.g09.slc.cpg/sg15_36_cif.got.tgz:71831.got - 2010.06.28 07:06:18.
