data_PCOD8147585
_publ_section_title
;
Structure prediction by ZEFSAII (Michael W. Deem and Ramdas Pophale) SiO2 
 PCOD8147585
Probable space group: C 2/C
;
_chemical_formula_sum "Si O2"
_cell_formula_units_Z 64
_cell_length_a 30.892893
_cell_length_b 14.552204
_cell_length_c 9.550647
_cell_angle_alpha 90.000000
_cell_angle_beta 45.089204
_cell_angle_gamma 90.000000
_cell_volume 3040.746763
_symmetry_space_group_name_H-M "C 2/C"
_symmetry_group_IT_number 15
_symmetry_cell_setting 'monoclinic'
loop_
_space_group_symop_operation_xyz
x,y,z
-x,y,1/2-z
-x,-y,-z
x,-y,1/2+z
1/2+x,1/2+y,z
1/2-x,1/2+y,1/2-z
1/2-x,1/2-y,-z
1/2+x,1/2-y,1/2+z
loop_
_atom_site_type_symbol
_atom_site_label
_atom_site_fract_x
_atom_site_fract_y
_atom_site_fract_z
Si Si1 0.625918 0.564105 0.533606
Si Si2 0.243712 0.358729 0.743135
Si Si3 0.628134 0.603876 0.209514
Si Si4 0.759682 0.340602 0.309142
Si Si5 0.074740 0.747075 0.216165
Si Si6 0.680790 0.870021 0.603975
Si Si7 0.439884 0.785087 0.072780
Si Si8 0.846140 0.573841 0.833476
O O1 0.695921 0.581301 0.419152
O O2 0.620207 0.558572 0.379654
O O3 0.603402 0.468119 0.650969
O O4 0.582143 0.642993 0.696144
O O5 0.260227 0.270047 0.798794
O O6 0.216154 0.329593 0.656785
O O7 0.193118 0.419257 0.936091
O O8 0.590885 0.698007 0.280792
O O9 0.698894 0.623014 0.019493
O O10 0.816070 0.370136 0.275512
O O11 0.769083 0.383093 0.133179
O O12 0.130736 0.704023 0.172623
O O13 0.012127 0.719937 0.436918
O O14 0.074371 0.711005 0.059109
O O15 0.647772 0.966337 0.716342
O O16 0.412644 0.878763 0.203003
#
# Coordination Sequence:
#
# PCOD8147585 Si02
#       8
#     8   8   8   8   8   8   8   8
#     4  11  23  40  64  96 127 164 206 259 317 378
#     4  12  24  38  63  96 131 165 201 259 318 377
#     4  11  23  39  66  96 127 163 208 259 316 378
#     4  12  22  41  63  93 130 167 204 248 317 385
#     4  10  23  43  66  88 121 167 222 258 307 374
#     4  12  25  39  63  99 131 161 206 265 316 364
#     4  10  22  44  67  87 117 175 219 254 308 378
#     4  12  22  41  66  93 126 167 210 254 313 383
#
# _framework density 21.047460999999998
#
# number of rings (size 3 to 8) (size 9 to 14) (size 15 to 20)
#    0.000    0.750    5.000    3.750    1.750    1.000 
#    0.000    0.625    0.000    0.000    0.000    0.000 
#    0.000    0.000    0.000    0.000    0.000    0.000 
#
# Total GULP energy -396938.254329 kJ/mol
# GULP energy per Si atom -12404.320448 kJ/mol
# Density = 2.099956 g / cm^3
# Si number density = 21.047461 Si / 1000 Ang^3
#
#
#
# Elastic Constant Matrix: (Units=GPa)
#
#
# Indices 1 2 3 4 5 6 
#
# 1 29.8988 -16.9139 10.5543 0.0000 12.3440 0.0000
# 2 -16.9139 92.4051 19.0009 0.0000 4.0218 0.0000
# 3 10.5543 19.0009 61.6638 0.0000 -8.0638 0.0000
# 4 0.0000 0.0000 0.0000 26.5365 0.0000 7.7678
# 5 12.3440 4.0218 -8.0638 0.0000 33.3749 0.0000
# 6 0.0000 0.0000 0.0000 7.7678 0.0000 23.0561
#
#
#
# Elastic Compliance Matrix: (Units=1/GPa)
#
#
# Indices 1 2 3 4 5 6 
#
# 1 0.062124 0.016711 -0.019672 0.000000 -0.029744 0.000000
# 2 0.016711 0.016227 -0.009215 0.000000 -0.010363 0.000000
# 3 -0.019672 -0.009215 0.024288 0.000000 0.014255 0.000000
# 4 0.000000 0.000000 0.000000 0.041807 0.000000 -0.014085
# 5 -0.029744 -0.010363 0.014255 0.000000 0.045657 0.000000
# 6 0.000000 0.000000 0.000000 -0.014085 0.000000 0.048118
#
#
# Mechanical properties :
#
#
# Convention : Reuss Voigt Hill
#
# Bulk Modulus (GPa) = 12.77377 23.25002 18.01190
# Shear Modulus (GPa) = 17.32097 28.01524 22.66811
#
# Velocity S-wave (km/s) = 2.87182 3.65232 3.28533
# Velocity P-wave (km/s) = 4.13264 5.37181 4.79244
#
# Compressibility (1/GPa) = 0.07828540
#
# Stress axis : x y z
#
# Youngs Moduli (GPa) = 16.09687 61.62713 41.17326
#
# Poissons Ratio (x) = -1.02984 0.80995
# Poissons Ratio (y) = -0.26899 0.37943
# Poissons Ratio (z) = 0.31666 0.56791
#
# Static dielectric constant tensor:
#      x y z
#    x 3.578110 0.000000 -0.012460 
#    y 0.000000 3.857860 0.000000 
#    z -0.012460 0.000000 4.016060 
# 
# 
# High freq. dielectric constant tensor:
#      x y z
#    x 1.800330 0.000000 0.003470 
#    y 0.000000 1.831130 0.000000 
#    z 0.003470 0.000000 1.828600 
# 
# From -- ./inp_files/70112.got.cif
#   From: 2010.06.25/outbox.cif.g09.slc.cpg/sg15_36_cif.got.tgz:70112.got - 2010.06.28 07:06:18.
