data_PCOD8147244
_publ_section_title
;
Structure prediction by ZEFSAII (Michael W. Deem and Ramdas Pophale) SiO2 
 PCOD8147244
Probable space group: C 2/C
;
_chemical_formula_sum "Si O2"
_cell_formula_units_Z 48
_cell_length_a 31.817443
_cell_length_b 6.358010
_cell_length_c 13.456456
_cell_angle_alpha 90.000000
_cell_angle_beta 123.594830
_cell_angle_gamma 90.000000
_cell_volume 2267.499230
_symmetry_space_group_name_H-M "C 2/C"
_symmetry_group_IT_number 15
_symmetry_cell_setting 'monoclinic'
loop_
_space_group_symop_operation_xyz
x,y,z
-x,y,1/2-z
-x,-y,-z
x,-y,1/2+z
1/2+x,1/2+y,z
1/2-x,1/2+y,1/2-z
1/2-x,1/2-y,-z
1/2+x,1/2-y,1/2+z
loop_
_atom_site_type_symbol
_atom_site_label
_atom_site_fract_x
_atom_site_fract_y
_atom_site_fract_z
Si Si1 0.558223 0.349527 0.349866
Si Si2 0.801812 0.085166 0.322295
Si Si3 0.106930 0.389768 0.080173
Si Si4 0.373705 0.727587 0.023482
Si Si5 0.621960 0.964177 0.801267
Si Si6 0.720378 0.741306 0.858105
O O1 0.500000 0.364812 0.250000
O O2 0.565824 0.253357 0.470100
O O3 0.581120 0.582491 0.376597
O O4 0.585357 0.202929 0.304548
O O5 0.827309 0.908751 0.424635
O O6 0.789714 0.995731 0.195904
O O7 0.837535 0.287951 0.361260
O O8 0.750053 0.141159 0.309310
O O9 0.092132 0.404427 0.177175
O O10 0.105474 0.626539 0.037014
O O11 0.354842 0.876169 0.088213
O O12 0.666826 0.848930 0.802838
O O13 0.750000 0.750000 0.000000
#
# Coordination Sequence:
#
# PCOD8147244 Si02
#       6
#     8   8   8   8   8   8
#     4  10  24  44  68  98 129 165 220 280 336 395
#     4  11  25  42  63  98 142 177 223 275 318 392
#     4  10  22  44  67  95 133 174 215 266 329 393
#     4  10  22  43  65  91 133 176 212 274 326 385
#     4  11  24  41  68  95 130 177 221 267 330 397
#     4  12  25  40  66  99 135 179 229 268 329 385
#
# _framework density 21.168697000000002
#
# number of rings (size 3 to 8) (size 9 to 14) (size 15 to 20)
#    0.000    1.333    1.667    4.000    7.000    4.000 
#    0.000    1.667    0.000    0.000    0.000    0.000 
#    0.000    0.000    0.000    0.000    0.000    0.000 
#
# Total GULP energy -297624.516124 kJ/mol
# GULP energy per Si atom -12401.021505 kJ/mol
# Density = 2.112052 g / cm^3
# Si number density = 21.168697 Si / 1000 Ang^3
#
#
#
# Elastic Constant Matrix: (Units=GPa)
#
#
# Indices 1 2 3 4 5 6 
#
# 1 72.9207 40.5848 49.5637 0.0000 5.2020 0.0000
# 2 40.5848 100.1025 30.3739 0.0000 -3.7010 0.0000
# 3 49.5637 30.3739 125.0087 0.0000 -10.8269 0.0000
# 4 0.0000 0.0000 0.0000 37.6970 0.0000 -8.4962
# 5 5.2020 -3.7010 -10.8269 0.0000 41.1403 0.0000
# 6 0.0000 0.0000 0.0000 -8.4962 0.0000 22.8048
#
#
#
# Elastic Compliance Matrix: (Units=1/GPa)
#
#
# Indices 1 2 3 4 5 6 
#
# 1 0.023763 -0.007382 -0.008131 0.000000 -0.005809 0.000000
# 2 -0.007382 0.013081 -0.000071 0.000000 0.002092 0.000000
# 3 -0.008131 -0.000071 0.011593 0.000000 0.004073 0.000000
# 4 0.000000 0.000000 0.000000 0.028959 0.000000 0.010789
# 5 -0.005809 0.002092 0.004073 0.000000 0.026302 0.000000
# 6 0.000000 0.000000 0.000000 0.010789 0.000000 0.047870
#
#
# Mechanical properties :
#
#
# Convention : Reuss Voigt Hill
#
# Bulk Modulus (GPa) = 57.90186 59.89740 58.89963
# Shear Modulus (GPa) = 26.52640 32.16241 29.34440
#
# Velocity S-wave (km/s) = 3.54375 3.90210 3.72723
# Velocity P-wave (km/s) = 6.64501 6.97557 6.81229
#
# Compressibility (1/GPa) = 0.01727060
#
# Stress axis : x y z
#
# Youngs Moduli (GPa) = 42.08223 76.44488 86.25797
#
# Poissons Ratio (x) = 0.56430 0.70137
# Poissons Ratio (y) = 0.31064 0.00608
# Poissons Ratio (z) = 0.34217 0.00539
#
# Static dielectric constant tensor:
#      x y z
#    x 3.487950 0.000000 -0.205880 
#    y 0.000000 4.197000 0.000000 
#    z -0.205880 0.000000 4.210290 
# 
# 
# High freq. dielectric constant tensor:
#      x y z
#    x 1.802780 0.000000 -0.013290 
#    y 0.000000 1.843260 0.000000 
#    z -0.013290 0.000000 1.847470 
# 
# From -- ./inp_files/179698.got.cif
#   From: 2010.06.25/outbox.cif.g09.slc.cpg/sg15_90_cif.got.tgz:179698.got - 2010.06.28 07:06:18.
