data_PCOD8147002
_publ_section_title
;
Structure prediction by ZEFSAII (Michael W. Deem and Ramdas Pophale) SiO2 
 PCOD8147002
Probable space group: C 2/C
;
_chemical_formula_sum "Si O2"
_cell_formula_units_Z 56
_cell_length_a 9.880922
_cell_length_b 9.963982
_cell_length_c 32.127455
_cell_angle_alpha 90.000000
_cell_angle_beta 120.425704
_cell_angle_gamma 90.000000
_cell_volume 2727.459743
_symmetry_space_group_name_H-M "C 2/C"
_symmetry_group_IT_number 15
_symmetry_cell_setting 'monoclinic'
loop_
_space_group_symop_operation_xyz
x,y,z
-x,y,1/2-z
-x,-y,-z
x,-y,1/2+z
1/2+x,1/2+y,z
1/2-x,1/2+y,1/2-z
1/2-x,1/2-y,-z
1/2+x,1/2-y,1/2+z
loop_
_atom_site_type_symbol
_atom_site_label
_atom_site_fract_x
_atom_site_fract_y
_atom_site_fract_z
Si Si1 0.577331 0.198682 0.982251
Si Si2 0.414866 0.562398 0.612589
Si Si3 0.602642 0.438347 0.224751
Si Si4 0.576495 0.459659 0.556019
Si Si5 0.600940 0.870939 0.725394
Si Si6 0.917854 0.568749 0.435053
Si Si7 0.910662 0.631907 0.116383
O O1 0.460700 0.303020 0.942331
O O2 0.544731 0.050158 0.960260
O O3 0.750000 0.250000 0.000000
O O4 0.547876 0.190550 0.027548
O O5 0.512090 0.518637 0.668574
O O6 0.514014 0.544926 0.585463
O O7 0.260789 0.472457 0.585589
O O8 0.355542 0.714070 0.608538
O O9 0.500000 0.460256 0.250000
O O10 0.656936 0.283414 0.229845
O O11 0.751103 0.532987 0.252052
O O12 0.500000 0.500000 0.500000
O O13 0.765637 0.467513 0.583352
O O14 0.500000 0.895898 0.750000
O O15 0.482676 0.914268 0.670849
O O16 0.945863 0.622912 0.393548
#
# Coordination Sequence:
#
# PCOD8147002 Si02
#       7
#     8   8   8   8   8   8   8
#     4  11  22  39  58  87 124 165 206 249 300 355
#     4  11  23  42  63  91 125 164 206 257 313 374
#     4  10  22  42  68  95 124 163 210 264 323 382
#     4  12  24  39  62  90 130 167 210 254 307 365
#     4  10  22  43  66  92 128 162 207 263 326 381
#     4  11  23  39  63  86 123 163 208 252 300 360
#     4  11  24  41  62  93 121 163 210 257 311 371
#
# _framework density 20.531924
#
# number of rings (size 3 to 8) (size 9 to 14) (size 15 to 20)
#    0.000    1.143    2.857    3.429    2.000    1.714 
#    2.571    0.000    0.000    0.000    0.000    0.000 
#    0.000    0.000    0.000    0.000    0.000    0.000 
#
# Total GULP energy -347179.956184 kJ/mol
# GULP energy per Si atom -12399.284149 kJ/mol
# Density = 2.048519 g / cm^3
# Si number density = 20.531924 Si / 1000 Ang^3
#
#
#
# Elastic Constant Matrix: (Units=GPa)
#
#
# Indices 1 2 3 4 5 6 
#
# 1 106.0260 33.8942 56.4097 0.0000 3.0541 0.0000
# 2 33.8942 57.2233 37.1517 0.0000 13.3892 0.0000
# 3 56.4097 37.1517 153.1545 0.0000 -10.7721 0.0000
# 4 0.0000 0.0000 0.0000 35.3419 0.0000 5.1959
# 5 3.0541 13.3892 -10.7721 0.0000 41.0013 0.0000
# 6 0.0000 0.0000 0.0000 5.1959 0.0000 36.6053
#
#
#
# Elastic Compliance Matrix: (Units=1/GPa)
#
#
# Indices 1 2 3 4 5 6 
#
# 1 0.013025 -0.005421 -0.003491 0.000000 -0.000117 0.000000
# 2 -0.005421 0.026153 -0.005012 0.000000 -0.009453 0.000000
# 3 -0.003491 -0.005012 0.009337 0.000000 0.004350 0.000000
# 4 0.000000 0.000000 0.000000 0.028898 0.000000 -0.004102
# 5 -0.000117 -0.009453 0.004350 0.000000 0.028628 0.000000
# 6 0.000000 0.000000 0.000000 -0.004102 0.000000 0.027901
#
#
# Mechanical properties :
#
#
# Convention : Reuss Voigt Hill
#
# Bulk Modulus (GPa) = 48.38785 63.47944 55.93364
# Shear Modulus (GPa) = 29.64224 35.18624 32.41424
#
# Velocity S-wave (km/s) = 3.80375 4.14422 3.97763
# Velocity P-wave (km/s) = 6.55054 7.34057 6.95678
#
# Compressibility (1/GPa) = 0.02066635
#
# Stress axis : x y z
#
# Youngs Moduli (GPa) = 76.77409 38.23721 107.10392
#
# Poissons Ratio (x) = 0.20730 0.37385
# Poissons Ratio (y) = 0.41623 0.53681
# Poissons Ratio (z) = 0.26798 0.19165
#
# Static dielectric constant tensor:
#      x y z
#    x 3.720740 0.000000 -0.097460 
#    y 0.000000 3.550660 0.000000 
#    z -0.097460 0.000000 3.876400 
# 
# 
# High freq. dielectric constant tensor:
#      x y z
#    x 1.810650 0.000000 -0.006490 
#    y 0.000000 1.802740 0.000000 
#    z -0.006490 0.000000 1.811870 
# 
# From -- ./inp_files/307545.got.cif
#   From: 2010.06.25/outbox.cif.g09.slc.cpg/sg15_154_cif.got.tgz:307545.got - 2010.06.28 07:06:18.
