data_PCOD8147682
_publ_section_title
;
Structure prediction by ZEFSAII (Michael W. Deem and Ramdas Pophale) SiO2 
 PCOD8147682
Probable space group: C 2/C
;
_chemical_formula_sum "Si O2"
_cell_formula_units_Z 52
_cell_length_a 25.455488
_cell_length_b 11.928259
_cell_length_c 8.440338
_cell_angle_alpha 90.000000
_cell_angle_beta 63.338780
_cell_angle_gamma 90.000000
_cell_volume 2290.330102
_symmetry_space_group_name_H-M "C 2/C"
_symmetry_group_IT_number 15
_symmetry_cell_setting 'monoclinic'
loop_
_space_group_symop_operation_xyz
x,y,z
-x,y,1/2-z
-x,-y,-z
x,-y,1/2+z
1/2+x,1/2+y,z
1/2-x,1/2+y,1/2-z
1/2-x,1/2-y,-z
1/2+x,1/2-y,1/2+z
loop_
_atom_site_type_symbol
_atom_site_label
_atom_site_fract_x
_atom_site_fract_y
_atom_site_fract_z
Si Si1 0.286067 0.744078 0.790966
Si Si2 0.401805 0.139477 0.577034
Si Si3 0.000000 0.247312 0.750000
Si Si4 0.084110 0.778443 0.398372
Si Si5 0.818621 0.154268 0.201034
Si Si6 0.840947 0.931838 0.020863
Si Si7 0.064093 0.574196 0.628612
O O1 0.353277 0.779801 0.736071
O O2 0.251813 0.826827 0.715357
O O3 0.288695 0.622055 0.699935
O O4 0.250000 0.750000 0.000000
O O5 0.463298 0.182133 0.425584
O O6 0.349767 0.228107 0.616873
O O7 0.403896 0.122322 0.761456
O O8 0.392213 0.018899 0.505823
O O9 0.046421 0.178126 0.797265
O O10 0.096423 0.884358 0.497377
O O11 0.050278 0.678056 0.530967
O O12 0.835550 0.103219 0.346461
O O13 0.838950 0.065952 0.037815
O O14 0.000000 0.519981 0.750000
#
# Coordination Sequence:
#
# PCOD8147682 Si02
#       7
#     8   8   4   8   8   8   8
#     4  10  22  44  70 103 139 190 241 297 368 438
#     4  12  25  39  73  99 144 188 242 298 380 417
#     4  12  22  42  68 104 142 186 244 300 364 444
#     4  10  24  43  72 103 148 189 246 299 375 430
#     4  12  24  47  75 105 149 196 238 312 367 441
#     4  10  25  45  73 105 150 187 245 305 362 444
#     4  12  22  45  66 105 146 186 241 317 357 440
#
# _framework density 22.704149999999998
#
# number of rings (size 3 to 8) (size 9 to 14) (size 15 to 20)
#    0.923    0.000    3.846    3.692    2.154    1.231 
#    0.000    3.846    3.385    0.000    0.000    0.000 
#    0.000    0.000    0.000    0.000    0.000    0.000 
#
# Total GULP energy -322122.007702 kJ/mol
# GULP energy per Si atom -12389.307989 kJ/mol
# Density = 2.265247 g / cm^3
# Si number density = 22.704150 Si / 1000 Ang^3
#
#
#
# Elastic Constant Matrix: (Units=GPa)
#
#
# Indices 1 2 3 4 5 6 
#
# 1 153.2577 36.4323 33.7094 0.0000 25.8155 0.0000
# 2 36.4323 103.4359 11.3168 0.0000 5.6485 0.0000
# 3 33.7094 11.3168 79.5980 0.0000 11.4344 0.0000
# 4 0.0000 0.0000 0.0000 35.2473 0.0000 0.1030
# 5 25.8155 5.6485 11.4344 0.0000 38.1716 0.0000
# 6 0.0000 0.0000 0.0000 0.1030 0.0000 28.0593
#
#
#
# Elastic Compliance Matrix: (Units=1/GPa)
#
#
# Indices 1 2 3 4 5 6 
#
# 1 0.008442 -0.002442 -0.002570 0.000000 -0.004578 0.000000
# 2 -0.002442 0.010570 -0.000503 0.000000 0.000238 0.000000
# 3 -0.002570 -0.000503 0.014068 0.000000 -0.002401 0.000000
# 4 0.000000 0.000000 0.000000 0.028371 0.000000 -0.000104
# 5 -0.004578 0.000238 -0.002401 0.000000 0.029978 0.000000
# 6 0.000000 0.000000 0.000000 -0.000104 0.000000 0.035639
#
#
# Mechanical properties :
#
#
# Convention : Reuss Voigt Hill
#
# Bulk Modulus (GPa) = 45.35227 55.46763 50.40995
# Shear Modulus (GPa) = 34.37639 37.28452 35.83046
#
# Velocity S-wave (km/s) = 3.89537 4.05679 3.97690
# Velocity P-wave (km/s) = 6.34433 6.81374 6.58322
#
# Compressibility (1/GPa) = 0.02204961
#
# Stress axis : x y z
#
# Youngs Moduli (GPa) = 118.45511 94.60715 71.08286
#
# Poissons Ratio (x) = 0.23105 0.18270
# Poissons Ratio (y) = 0.28930 0.03573
# Poissons Ratio (z) = 0.30446 0.04756
#
# Static dielectric constant tensor:
#      x y z
#    x 4.159070 0.000000 0.187400 
#    y 0.000000 3.925730 0.000000 
#    z 0.187400 0.000000 4.033890 
# 
# 
# High freq. dielectric constant tensor:
#      x y z
#    x 1.893770 0.000000 0.019570 
#    y 0.000000 1.874400 0.000000 
#    z 0.019570 0.000000 1.902510 
# 
# From -- ./inp_files/65094.got.cif
#   From: 2010.06.25/outbox.cif.g09.slc.cpg/sg15_33_cif.got.tgz:65094.got - 2010.06.28 07:06:18.
