data_PCOD8147154
_publ_section_title
;
Structure prediction by ZEFSAII (Michael W. Deem and Ramdas Pophale) SiO2 
 PCOD8147154
Probable space group: C 2/C
;
_chemical_formula_sum "Si O2"
_cell_formula_units_Z 56
_cell_length_a 8.757664
_cell_length_b 14.353872
_cell_length_c 25.621822
_cell_angle_alpha 90.000000
_cell_angle_beta 126.102525
_cell_angle_gamma 90.000000
_cell_volume 2602.311758
_symmetry_space_group_name_H-M "C 2/C"
_symmetry_group_IT_number 15
_symmetry_cell_setting 'monoclinic'
loop_
_space_group_symop_operation_xyz
x,y,z
-x,y,1/2-z
-x,-y,-z
x,-y,1/2+z
1/2+x,1/2+y,z
1/2-x,1/2+y,1/2-z
1/2-x,1/2-y,-z
1/2+x,1/2-y,1/2+z
loop_
_atom_site_type_symbol
_atom_site_label
_atom_site_fract_x
_atom_site_fract_y
_atom_site_fract_z
Si Si1 0.637503 0.477787 0.980615
Si Si2 0.814547 0.747068 0.247969
Si Si3 0.656299 0.127534 0.149887
Si Si4 0.848041 0.654561 0.006450
Si Si5 0.013574 0.647215 0.930543
Si Si6 0.533327 0.666299 0.374519
Si Si7 0.222673 0.934353 0.297763
O O1 0.530422 0.416495 0.915836
O O2 0.500000 0.500000 0.000000
O O3 0.696243 0.573938 0.963971
O O4 0.821739 0.428084 0.041384
O O5 0.860156 0.715886 0.315515
O O6 0.673417 0.674455 0.192294
O O7 0.727723 0.852841 0.234454
O O8 0.000000 0.753198 0.250000
O O9 0.463313 0.119323 0.079673
O O10 0.826936 0.142329 0.144346
O O11 0.681528 0.035056 0.190938
O O12 0.750000 0.750000 0.000000
O O13 0.987769 0.671438 0.986175
O O14 0.086135 0.737967 0.914333
O O15 0.811685 0.607139 0.869630
O O16 0.000000 0.951585 0.250000
#
# Coordination Sequence:
#
# PCOD8147154 Si02
#       7
#     8   8   8   8   8   8   8
#     4  12  25  42  68 104 143 186 232 288 354 420
#     4  10  25  44  69  99 135 182 242 295 346 418
#     4  12  24  46  70  99 140 184 237 285 355 419
#     4  12  27  42  71 103 140 187 233 287 353 430
#     4  11  23  46  67 105 143 181 231 289 351 420
#     4  11  24  43  72 100 141 186 231 290 352 422
#     4  10  22  42  72  96 130 183 232 284 345 419
#
# _framework density 21.519328000000002
#
# number of rings (size 3 to 8) (size 9 to 14) (size 15 to 20)
#    0.000    0.857    2.857    3.857   10.000    0.000 
#    0.000    2.857    0.000    0.000    0.000    0.000 
#    0.000    0.000    0.000    0.000    0.000    0.000 
#
# Total GULP energy -347122.672088 kJ/mol
# GULP energy per Si atom -12397.238289 kJ/mol
# Density = 2.147035 g / cm^3
# Si number density = 21.519328 Si / 1000 Ang^3
#
#
#
# Elastic Constant Matrix: (Units=GPa)
#
#
# Indices 1 2 3 4 5 6 
#
# 1 104.7411 44.0715 26.5944 0.0000 -10.7095 0.0000
# 2 44.0715 147.5101 35.6231 0.0000 -4.6849 0.0000
# 3 26.5944 35.6231 88.7141 0.0000 2.2260 0.0000
# 4 0.0000 0.0000 0.0000 40.4766 0.0000 6.0961
# 5 -10.7095 -4.6849 2.2260 0.0000 43.4530 0.0000
# 6 0.0000 0.0000 0.0000 6.0961 0.0000 30.2819
#
#
#
# Elastic Compliance Matrix: (Units=1/GPa)
#
#
# Indices 1 2 3 4 5 6 
#
# 1 0.011616 -0.002799 -0.002425 0.000000 0.002685 0.000000
# 2 -0.002799 0.008222 -0.002471 0.000000 0.000323 0.000000
# 3 -0.002425 -0.002471 0.013030 0.000000 -0.001532 0.000000
# 4 0.000000 0.000000 0.000000 0.025478 0.000000 -0.005129
# 5 0.002685 0.000323 -0.001532 0.000000 0.023788 0.000000
# 6 0.000000 0.000000 0.000000 -0.005129 0.000000 0.034056
#
#
# Mechanical properties :
#
#
# Convention : Reuss Voigt Hill
#
# Bulk Modulus (GPa) = 57.21797 61.50482 59.36139
# Shear Modulus (GPa) = 36.38840 38.48741 37.43791
#
# Velocity S-wave (km/s) = 4.11659 4.23366 4.17554
# Velocity P-wave (km/s) = 7.01726 7.24857 7.13385
#
# Compressibility (1/GPa) = 0.01747703
#
# Stress axis : x y z
#
# Youngs Moduli (GPa) = 86.09104 121.61782 76.74746
#
# Poissons Ratio (x) = 0.34046 0.18614
# Poissons Ratio (y) = 0.24100 0.18962
# Poissons Ratio (z) = 0.20880 0.30047
#
# Static dielectric constant tensor:
#      x y z
#    x 4.045920 0.000000 0.456510 
#    y 0.000000 4.292950 0.000000 
#    z 0.456510 0.000000 4.576180 
# 
# 
# High freq. dielectric constant tensor:
#      x y z
#    x 1.822510 0.000000 0.016400 
#    y 0.000000 1.866220 0.000000 
#    z 0.016400 0.000000 1.857250 
# 
# From -- ./inp_files/264813.got.cif
#   From: 2010.06.25/outbox.cif.g09.slc.cpg/sg15_133_cif.got.tgz:264813.got - 2010.06.28 07:06:18.
