data_PCOD8147624
_publ_section_title
;
Structure prediction by ZEFSAII (Michael W. Deem and Ramdas Pophale) SiO2 
 PCOD8147624
Probable space group: C 2/C
;
_chemical_formula_sum "Si O2"
_cell_formula_units_Z 52
_cell_length_a 11.061388
_cell_length_b 14.794718
_cell_length_c 22.249277
_cell_angle_alpha 90.000000
_cell_angle_beta 45.063235
_cell_angle_gamma 90.000000
_cell_volume 2577.484174
_symmetry_space_group_name_H-M "C 2/C"
_symmetry_group_IT_number 15
_symmetry_cell_setting 'monoclinic'
loop_
_space_group_symop_operation_xyz
x,y,z
-x,y,1/2-z
-x,-y,-z
x,-y,1/2+z
1/2+x,1/2+y,z
1/2-x,1/2+y,1/2-z
1/2-x,1/2-y,-z
1/2+x,1/2-y,1/2+z
loop_
_atom_site_type_symbol
_atom_site_label
_atom_site_fract_x
_atom_site_fract_y
_atom_site_fract_z
Si Si1 0.000000 0.823083 0.250000
Si Si2 0.850890 0.702415 0.199939
Si Si3 0.824253 0.699330 0.844476
Si Si4 0.440409 0.945765 0.935037
Si Si5 0.851682 0.946560 0.021228
Si Si6 0.636069 0.881210 0.409423
Si Si7 0.503737 0.708149 0.386165
O O1 0.037443 0.763274 0.295187
O O2 0.162559 0.884404 0.176236
O O3 0.812808 0.754779 0.151301
O O4 0.673012 0.673840 0.292948
O O5 0.962067 0.613936 0.148317
O O6 0.755317 0.602949 0.889643
O O7 0.000000 0.677719 0.750000
O O8 0.857837 0.763626 0.889952
O O9 0.261070 0.979633 0.973055
O O10 0.559854 0.030782 0.905441
O O11 0.400703 0.884320 0.006911
O O12 0.927599 0.874927 0.948417
O O13 0.000000 0.000000 0.000000
O O14 0.547819 0.791407 0.414454
#
# Coordination Sequence:
#
# PCOD8147624 Si02
#       7
#     4   8   8   8   8   8   8
#     4  10  24  44  66  90 124 176 206 258 320 378
#     4  10  24  42  67  91 125 166 212 262 315 371
#     4  10  22  44  68  90 123 173 216 252 314 383
#     4  11  25  41  63  99 127 165 209 267 313 368
#     4  12  27  39  65  98 130 164 209 269 315 367
#     4  10  23  43  67  91 129 169 209 256 318 378
#     4  10  22  46  65  90 127 175 210 252 315 385
#
# _framework density 20.174713000000001
#
# number of rings (size 3 to 8) (size 9 to 14) (size 15 to 20)
#    0.000    1.538    1.538    1.385   10.769    3.077 
#    1.385    0.000    0.000    0.000    0.000    0.000 
#    0.000    0.000    0.000    0.000    0.000    0.000 
#
# Total GULP energy -322528.229371 kJ/mol
# GULP energy per Si atom -12404.931899 kJ/mol
# Density = 2.012879 g / cm^3
# Si number density = 20.174713 Si / 1000 Ang^3
#
#
#
# Elastic Constant Matrix: (Units=GPa)
#
#
# Indices 1 2 3 4 5 6 
#
# 1 169.2751 71.0855 63.2706 -0.0001 -0.0199 0.0000
# 2 71.0855 105.7147 77.7363 0.0000 8.2231 0.0000
# 3 63.2706 77.7363 101.7749 0.0009 -1.6294 0.0005
# 4 -0.0001 0.0000 0.0009 19.8956 0.0001 -19.0540
# 5 -0.0199 8.2231 -1.6294 0.0001 26.9576 0.0000
# 6 0.0000 0.0000 0.0005 -19.0540 0.0000 13.3033
#
#
#
# Elastic Compliance Matrix: (Units=1/GPa)
#
#
# Indices 1 2 3 4 5 6 
#
# 1 0.008458 -0.004407 -0.001872 0.000000 0.001237 -0.000001
# 2 -0.004407 0.025546 -0.016914 -0.000004 -0.008818 -0.000005
# 3 -0.001872 -0.016914 0.024014 0.000005 0.006609 0.000007
# 4 0.000000 -0.000004 0.000005 -0.135226 0.000002 -0.193681
# 5 0.001237 -0.008818 0.006609 0.000002 0.040186 0.000002
# 6 -0.000001 -0.000005 0.000007 -0.193681 0.000002 -0.202235
#
#
# Mechanical properties :
#
#
# Convention : Reuss Voigt Hill
#
# Bulk Modulus (GPa) = 85.96685 88.99440 87.48062
# Shear Modulus (GPa) = -26.45595 23.00944 -1.72326
#
# Velocity S-wave (km/s) = -3.62517 3.38081 -0.92521
# Velocity P-wave (km/s) = 5.01808 7.71022 6.50494
#
# Compressibility (1/GPa) = 0.01163239
#
# Stress axis : x y z
#
# Youngs Moduli (GPa) = 118.22868 39.14494 41.64196
#
# Poissons Ratio (x) = 0.17251 0.07797
# Poissons Ratio (y) = 0.52103 0.70432
# Poissons Ratio (z) = 0.22137 0.66209
#
# Static dielectric constant tensor:
#      x y z
#    x 3.884110 0.000000 0.079560 
#    y 0.000000 3.526570 0.000000 
#    z 0.079560 0.000000 3.831830 
# 
# 
# High freq. dielectric constant tensor:
#      x y z
#    x 1.804860 0.000000 -0.001530 
#    y 0.000000 1.780840 0.000000 
#    z -0.001530 0.000000 1.804550 
# 
# From -- ./inp_files/269888.got.cif
#   From: 2010.06.25/outbox.cif.g09.slc.cpg/sg15_135_cif.got.tgz:269888.got - 2010.06.28 07:06:18.
