data_PCOD8147725
_publ_section_title
;
Structure prediction by ZEFSAII (Michael W. Deem and Ramdas Pophale) SiO2 
 PCOD8147725
Probable space group: C 2/C
;
_chemical_formula_sum "Si O2"
_cell_formula_units_Z 48
_cell_length_a 8.761916
_cell_length_b 29.728715
_cell_length_c 8.403948
_cell_angle_alpha 90.000000
_cell_angle_beta 87.819060
_cell_angle_gamma 90.000000
_cell_volume 2187.478917
_symmetry_space_group_name_H-M "C 2/C"
_symmetry_group_IT_number 15
_symmetry_cell_setting 'monoclinic'
loop_
_space_group_symop_operation_xyz
x,y,z
-x,y,1/2-z
-x,-y,-z
x,-y,1/2+z
1/2+x,1/2+y,z
1/2-x,1/2+y,1/2-z
1/2-x,1/2-y,-z
1/2+x,1/2-y,1/2+z
loop_
_atom_site_type_symbol
_atom_site_label
_atom_site_fract_x
_atom_site_fract_y
_atom_site_fract_z
Si Si1 0.742739 0.890494 0.949937
Si Si2 0.681172 0.526645 0.231596
Si Si3 0.862928 0.463668 0.037356
Si Si4 0.845030 0.370913 0.201823
Si Si5 0.741947 0.698503 0.456996
Si Si6 0.500000 0.155266 0.250000
Si Si7 0.000000 0.161867 0.250000
O O1 0.764541 0.943436 0.920601
O O2 0.580984 0.875359 0.880570
O O3 0.881403 0.868733 0.848452
O O4 0.754778 0.882169 0.137766
O O5 0.500000 0.523463 0.250000
O O6 0.752488 0.478718 0.185562
O O7 0.758292 0.545460 0.387920
O O8 0.910647 0.414253 0.098625
O O9 0.000000 0.500000 0.000000
O O10 0.000000 0.345600 0.250000
O O11 0.744263 0.336324 0.104170
O O12 0.750000 0.750000 0.500000
O O13 0.880981 0.688316 0.335618
O O14 0.581890 0.693247 0.374407
#
# Coordination Sequence:
#
# PCOD8147725 Si02
#       7
#     8   8   8   8   8   4   4
#     4  11  23  43  72 102 146 187 236 289 361 425
#     4  12  25  43  66 101 150 192 239 298 360 428
#     4  12  26  44  70 105 142 192 253 292 355 436
#     4  12  25  44  71 107 139 186 243 302 352 421
#     4  11  26  46  75 106 140 184 240 293 367 431
#     4  10  22  44  72 100 142 192 226 296 348 434
#     4  10  24  46  66 106 140 188 230 294 364 430
#
# _framework density 21.943069000000001
#
# number of rings (size 3 to 8) (size 9 to 14) (size 15 to 20)
#    0.000    0.667    2.500    6.000    3.500    2.000 
#    0.000    3.333    0.000    0.000    0.000    0.000 
#    0.000    0.000    0.000    0.000    0.000    0.000 
#
# Total GULP energy -297543.766659 kJ/mol
# GULP energy per Si atom -12397.656944 kJ/mol
# Density = 2.189313 g / cm^3
# Si number density = 21.943069 Si / 1000 Ang^3
#
#
#
# Elastic Constant Matrix: (Units=GPa)
#
#
# Indices 1 2 3 4 5 6 
#
# 1 119.5234 38.2126 45.4432 0.0000 25.7504 0.0000
# 2 38.2126 109.5015 37.5161 0.0000 5.2881 0.0000
# 3 45.4432 37.5161 144.6004 0.0000 9.6244 0.0000
# 4 0.0000 0.0000 0.0000 24.4742 0.0000 -1.2589
# 5 25.7504 5.2881 9.6244 0.0000 33.5017 0.0000
# 6 0.0000 0.0000 0.0000 -1.2589 0.0000 22.7856
#
#
#
# Elastic Compliance Matrix: (Units=1/GPa)
#
#
# Indices 1 2 3 4 5 6 
#
# 1 0.011976 -0.002947 -0.002465 0.000000 -0.008032 0.000000
# 2 -0.002947 0.010772 -0.001943 0.000000 0.001123 0.000000
# 3 -0.002465 -0.001943 0.008205 0.000000 -0.000156 0.000000
# 4 0.000000 0.000000 0.000000 0.040976 0.000000 0.002264
# 5 -0.008032 0.001123 -0.000156 0.000000 0.035891 0.000000
# 6 0.000000 0.000000 0.000000 0.002264 0.000000 0.044012
#
#
# Mechanical properties :
#
#
# Convention : Reuss Voigt Hill
#
# Bulk Modulus (GPa) = 61.56410 68.44100 65.00255
# Shear Modulus (GPa) = 29.07710 32.98252 31.02981
#
# Velocity S-wave (km/s) = 3.64416 3.88118 3.76454
# Velocity P-wave (km/s) = 6.76932 7.16539 6.97017
#
# Compressibility (1/GPa) = 0.01624323
#
# Stress axis : x y z
#
# Youngs Moduli (GPa) = 83.49856 92.83046 121.88096
#
# Poissons Ratio (x) = 0.27358 0.30038
# Poissons Ratio (y) = 0.24608 0.23687
# Poissons Ratio (z) = 0.20578 0.18041
#
# Static dielectric constant tensor:
#      x y z
#    x 3.912890 0.000000 0.087270 
#    y 0.000000 3.789600 0.000000 
#    z 0.087270 0.000000 4.258320 
# 
# 
# High freq. dielectric constant tensor:
#      x y z
#    x 1.873540 0.000000 -0.002230 
#    y 0.000000 1.848690 0.000000 
#    z -0.002230 0.000000 1.882860 
# 
# From -- ./inp_files/26179.got.cif
#   From: 2010.06.25/outbox.cif.g09.slc.cpg/sg15_14_cif.got.tgz:26179.got - 2010.06.28 07:06:18.
