data_PCOD8147241
_publ_section_title
;
Structure prediction by ZEFSAII (Michael W. Deem and Ramdas Pophale) SiO2 
 PCOD8147241
Probable space group: C 2/C
;
_chemical_formula_sum "Si O2"
_cell_formula_units_Z 56
_cell_length_a 10.598188
_cell_length_b 31.085896
_cell_length_c 11.044681
_cell_angle_alpha 90.000000
_cell_angle_beta 51.934366
_cell_angle_gamma 90.000000
_cell_volume 2864.779388
_symmetry_space_group_name_H-M "C 2/C"
_symmetry_group_IT_number 15
_symmetry_cell_setting 'monoclinic'
loop_
_space_group_symop_operation_xyz
x,y,z
-x,y,1/2-z
-x,-y,-z
x,-y,1/2+z
1/2+x,1/2+y,z
1/2-x,1/2+y,1/2-z
1/2-x,1/2-y,-z
1/2+x,1/2-y,1/2+z
loop_
_atom_site_type_symbol
_atom_site_label
_atom_site_fract_x
_atom_site_fract_y
_atom_site_fract_z
Si Si1 0.924652 0.339994 0.168331
Si Si2 0.554729 0.335840 0.449419
Si Si3 0.500000 0.518365 0.250000
Si Si4 0.436326 0.746035 0.410262
Si Si5 0.500000 0.625429 0.750000
Si Si6 0.718978 0.442896 0.066081
Si Si7 0.023508 0.394602 0.874524
Si Si8 0.883117 0.084986 0.134067
O O1 0.737654 0.341761 0.303725
O O2 0.000000 0.358390 0.250000
O O3 0.981888 0.291366 0.110999
O O4 0.971965 0.363876 0.015811
O O5 0.519993 0.287463 0.510782
O O6 0.451173 0.343692 0.389648
O O7 0.491343 0.371693 0.582136
O O8 0.662560 0.490069 0.140234
O O9 0.477656 0.547955 0.147296
O O10 0.500000 0.724975 0.250000
O O11 0.250000 0.750000 0.500000
O O12 0.349647 0.594170 0.803316
O O13 0.630604 0.431984 0.993200
O O14 0.911751 0.437861 0.945617
O O15 0.206419 0.406778 0.792785
O O16 0.000000 0.374979 0.750000
#
# Coordination Sequence:
#
# PCOD8147241 Si02
#       8
#     8   8   4   8   4   8   8   8
#     4  11  23  40  65  93 126 166 212 257 315 374
#     4  11  22  40  63  88 126 163 212 252 315 374
#     4  11  22  36  62  96 122 158 208 258 318 374
#     4  11  23  40  59  88 128 167 201 258 320 366
#     4   9  18  38  62  86 108 172 200 242 306 378
#     4   9  19  41  62  80 127 163 199 250 319 370
#     4  10  22  43  65  91 124 171 210 258 310 370
#     4  10  24  36  63  94 121 160 212 259 307 376
#
# _framework density 19.547753
#
# number of rings (size 3 to 8) (size 9 to 14) (size 15 to 20)
#    0.000    1.714    4.286    0.429    5.000    0.571 
#    1.286    0.714    0.000    0.000    0.000    0.000 
#    0.000    0.000    0.000    0.000    0.000    0.000 
#
# Total GULP energy -346869.549483 kJ/mol
# GULP energy per Si atom -12388.198196 kJ/mol
# Density = 1.950326 g / cm^3
# Si number density = 19.547753 Si / 1000 Ang^3
#
#
#
# Elastic Constant Matrix: (Units=GPa)
#
#
# Indices 1 2 3 4 5 6 
#
# 1 66.0201 55.6916 43.7408 0.0000 -6.3057 0.0000
# 2 55.6916 123.1682 57.9909 0.0000 -0.9239 0.0000
# 3 43.7408 57.9909 123.2093 0.0000 -10.6735 0.0000
# 4 0.0000 0.0000 0.0000 22.4354 0.0000 2.0639
# 5 -6.3057 -0.9239 -10.6735 0.0000 44.2414 0.0000
# 6 0.0000 0.0000 0.0000 2.0639 0.0000 27.1263
#
#
#
# Elastic Compliance Matrix: (Units=1/GPa)
#
#
# Indices 1 2 3 4 5 6 
#
# 1 0.026835 -0.009933 -0.004635 0.000000 0.002499 0.000000
# 2 -0.009933 0.014149 -0.003299 0.000000 -0.001916 0.000000
# 3 -0.004635 -0.003299 0.011492 0.000000 0.002043 0.000000
# 4 0.000000 0.000000 0.000000 0.044887 0.000000 -0.003415
# 5 0.002499 -0.001916 0.002043 0.000000 0.023412 0.000000
# 6 0.000000 0.000000 0.000000 -0.003415 0.000000 0.037124
#
#
# Mechanical properties :
#
#
# Convention : Reuss Voigt Hill
#
# Bulk Modulus (GPa) = 59.73171 69.69381 64.71276
# Shear Modulus (GPa) = 25.09849 29.09224 27.09537
#
# Velocity S-wave (km/s) = 3.58712 3.86199 3.72709
# Velocity P-wave (km/s) = 6.91229 7.45769 7.19016
#
# Compressibility (1/GPa) = 0.01674153
#
# Stress axis : x y z
#
# Youngs Moduli (GPa) = 37.26410 70.67551 87.01864
#
# Poissons Ratio (x) = 0.70200 0.40337
# Poissons Ratio (y) = 0.37013 0.28711
# Poissons Ratio (z) = 0.17273 0.23319
#
# Static dielectric constant tensor:
#      x y z
#    x 3.599310 0.000000 0.039470 
#    y 0.000000 7.453970 0.000000 
#    z 0.039470 0.000000 3.922370 
# 
# 
# High freq. dielectric constant tensor:
#      x y z
#    x 1.752030 0.000000 -0.005210 
#    y 0.000000 1.746370 0.000000 
#    z -0.005210 0.000000 1.784710 
# 
# From -- ./inp_files/92027.got.cif
#   From: 2010.06.25/outbox.cif.g09.slc.cpg/sg15_47_cif.got.tgz:92027.got - 2010.06.28 07:06:18.
