data_PCOD8147133
_publ_section_title
;
Structure prediction by ZEFSAII (Michael W. Deem and Ramdas Pophale) SiO2 
 PCOD8147133
Probable space group: C 2/C
;
_chemical_formula_sum "Si O2"
_cell_formula_units_Z 52
_cell_length_a 18.986434
_cell_length_b 5.016057
_cell_length_c 21.099495
_cell_angle_alpha 90.000000
_cell_angle_beta 97.381880
_cell_angle_gamma 90.000000
_cell_volume 1992.798686
_symmetry_space_group_name_H-M "C 2/C"
_symmetry_group_IT_number 15
_symmetry_cell_setting 'monoclinic'
loop_
_space_group_symop_operation_xyz
x,y,z
-x,y,1/2-z
-x,-y,-z
x,-y,1/2+z
1/2+x,1/2+y,z
1/2-x,1/2+y,1/2-z
1/2-x,1/2-y,-z
1/2+x,1/2-y,1/2+z
loop_
_atom_site_type_symbol
_atom_site_label
_atom_site_fract_x
_atom_site_fract_y
_atom_site_fract_z
Si Si1 0.730315 0.853992 0.334096
Si Si2 0.500000 0.854131 0.750000
Si Si3 0.171989 0.016977 0.548486
Si Si4 0.356096 0.156859 0.273814
Si Si5 0.404073 0.026196 0.909500
Si Si6 0.849573 0.971103 0.093167
Si Si7 0.945331 0.535943 0.617326
O O1 0.757463 0.018473 0.399270
O O2 0.665377 0.998914 0.292251
O O3 0.793477 0.850414 0.289456
O O4 0.702689 0.561741 0.354843
O O5 0.570218 0.684026 0.736091
O O6 0.476700 0.050497 0.691371
O O7 0.137728 0.304169 0.556150
O O8 0.194691 0.985569 0.477787
O O9 0.111564 0.805894 0.559328
O O10 0.373914 0.960054 0.334137
O O11 0.488793 0.971851 0.921981
O O12 0.914886 0.176735 0.096104
O O13 0.882065 0.679516 0.106074
#
# Coordination Sequence:
#
# PCOD8147133 Si02
#       7
#     8   4   8   8   8   8   8
#     4  11  24  43  71 108 142 194 240 303 368 436
#     4  10  22  46  70 104 140 182 236 302 358 432
#     4  11  24  44  69 101 144 192 240 296 353 436
#     4  10  22  42  72 102 140 182 240 300 361 426
#     4  10  23  44  70 104 139 188 243 297 364 423
#     4  12  26  43  69 104 146 189 241 292 362 439
#     4  11  25  44  69 106 141 190 237 301 364 431
#
# _framework density 26.093958000000001
#
# number of rings (size 3 to 8) (size 9 to 14) (size 15 to 20)
#    0.000    1.231    1.538    3.231    2.154    6.769 
#    2.769    5.385    0.000    0.000    0.000    0.000 
#    0.000    0.000    0.000    0.000    0.000    0.000 
#
# Total GULP energy -322305.545394 kJ/mol
# GULP energy per Si atom -12396.367131 kJ/mol
# Density = 2.603457 g / cm^3
# Si number density = 26.093958 Si / 1000 Ang^3
#
#
#
# Elastic Constant Matrix: (Units=GPa)
#
#
# Indices 1 2 3 4 5 6 
#
# 1 164.8360 7.0757 27.9955 0.0000 -11.4796 0.0000
# 2 7.0757 47.0459 -1.0622 0.0000 -0.2718 0.0000
# 3 27.9955 -1.0622 119.9059 0.0000 -5.7326 0.0000
# 4 0.0000 0.0000 0.0000 21.8630 0.0000 -4.6491
# 5 -11.4796 -0.2718 -5.7326 0.0000 25.4483 0.0000
# 6 0.0000 0.0000 0.0000 -4.6491 0.0000 28.2653
#
#
#
# Elastic Compliance Matrix: (Units=1/GPa)
#
#
# Indices 1 2 3 4 5 6 
#
# 1 0.006531 -0.000999 -0.001409 0.000000 0.002618 0.000000
# 2 -0.000999 0.021415 0.000417 0.000000 -0.000128 0.000000
# 3 -0.001409 0.000417 0.008736 0.000000 0.001337 0.000000
# 4 0.000000 0.000000 0.000000 0.047397 0.000000 0.007796
# 5 0.002618 -0.000128 0.001337 0.000000 0.040776 0.000000
# 6 0.000000 0.000000 0.000000 0.007796 0.000000 0.036661
#
#
# Mechanical properties :
#
#
# Convention : Reuss Voigt Hill
#
# Bulk Modulus (GPa) = 30.58028 44.42287 37.50157
# Shear Modulus (GPa) = 28.34490 34.96723 31.65606
#
# Velocity S-wave (km/s) = 3.29943 3.66464 3.48682
# Velocity P-wave (km/s) = 5.12442 5.91331 5.53295
#
# Compressibility (1/GPa) = 0.03270081
#
# Stress axis : x y z
#
# Youngs Moduli (GPa) = 153.11408 46.69681 114.46424
#
# Poissons Ratio (x) = 0.04665 0.16123
# Poissons Ratio (y) = 0.15295 -0.04771
# Poissons Ratio (z) = 0.21567 -0.01946
#
# Static dielectric constant tensor:
#      x y z
#    x 5.123280 0.000000 0.037500 
#    y 0.000000 4.101460 0.000000 
#    z 0.037500 0.000000 5.135310 
# 
# 
# High freq. dielectric constant tensor:
#      x y z
#    x 2.071750 0.000000 -0.002060 
#    y 0.000000 2.003990 0.000000 
#    z -0.002060 0.000000 2.063190 
# 
# From -- ./inp_files/251104.got.cif
#   From: 2010.06.25/outbox.cif.g09.slc.cpg/sg15_126_cif.got.tgz:251104.got - 2010.06.28 07:06:18.
