data_PCOD8147480
_publ_section_title
;
Structure prediction by ZEFSAII (Michael W. Deem and Ramdas Pophale) SiO2 
 PCOD8147480
Probable space group: C 2/C
;
_chemical_formula_sum "Si O2"
_cell_formula_units_Z 60
_cell_length_a 8.855315
_cell_length_b 17.200699
_cell_length_c 19.957651
_cell_angle_alpha 90.000000
_cell_angle_beta 102.430133
_cell_angle_gamma 90.000000
_cell_volume 2968.643961
_symmetry_space_group_name_H-M "C 2/C"
_symmetry_group_IT_number 15
_symmetry_cell_setting 'monoclinic'
loop_
_space_group_symop_operation_xyz
x,y,z
-x,y,1/2-z
-x,-y,-z
x,-y,1/2+z
1/2+x,1/2+y,z
1/2-x,1/2+y,1/2-z
1/2-x,1/2-y,-z
1/2+x,1/2-y,1/2+z
loop_
_atom_site_type_symbol
_atom_site_label
_atom_site_fract_x
_atom_site_fract_y
_atom_site_fract_z
Si Si1 0.998091 0.022972 0.351049
Si Si2 0.431826 0.169836 0.315186
Si Si3 0.000146 0.819190 0.582162
Si Si4 0.291898 0.215382 0.638487
Si Si5 0.734347 0.990993 0.725097
Si Si6 0.000000 0.383172 0.250000
Si Si7 0.509012 0.622175 0.567717
Si Si8 0.692720 0.753851 0.918097
O O1 0.135857 0.991905 0.317819
O O2 0.826902 0.021080 0.303067
O O3 0.003122 0.969317 0.418042
O O4 0.028854 0.112617 0.368108
O O5 0.500000 0.196151 0.250000
O O6 0.287259 0.224807 0.317666
O O7 0.561743 0.180941 0.386685
O O8 0.375290 0.080962 0.305814
O O9 0.857557 0.760552 0.579068
O O10 0.016844 0.859470 0.512091
O O11 0.158289 0.771871 0.613353
O O12 0.431074 0.173089 0.687969
O O13 0.179815 0.148949 0.602084
O O14 0.626520 0.065461 0.723482
O O15 0.385778 0.669664 0.602259
O O16 0.750000 0.750000 0.000000
#
# Coordination Sequence:
#
# PCOD8147480 Si02
#       8
#     8   8   8   8   8   4   8   8
#     4  11  23  41  64  91 125 170 214 254 324 379
#     4  11  22  40  66  93 128 167 218 260 328 384
#     4  11  22  40  68  90 125 163 216 262 307 387
#     4  11  25  39  63  96 121 164 209 263 318 376
#     4  11  24  41  61  90 130 167 204 271 317 387
#     4  12  26  40  62  92 134 156 210 262 328 370
#     4  10  22  44  62  92 127 168 209 259 321 375
#     4   9  22  40  64  91 130 169 211 260 323 382
#
# _framework density 20.211248999999999
#
# number of rings (size 3 to 8) (size 9 to 14) (size 15 to 20)
#    0.000    1.333    3.333    1.600    5.600    1.067 
#    0.000    0.000    0.000    2.400    0.000    0.000 
#    0.000    0.000    0.000    0.000    0.000    0.000 
#
# Total GULP energy -371831.161119 kJ/mol
# GULP energy per Si atom -12394.372037 kJ/mol
# Density = 2.016525 g / cm^3
# Si number density = 20.211249 Si / 1000 Ang^3
#
#
#
# Elastic Constant Matrix: (Units=GPa)
#
#
# Indices 1 2 3 4 5 6 
#
# 1 106.7480 43.2768 37.2700 0.0000 -0.0654 0.0000
# 2 43.2768 84.1681 29.8476 0.0000 -0.5872 0.0000
# 3 37.2700 29.8476 79.7433 0.0000 12.6633 0.0000
# 4 0.0000 0.0000 0.0000 32.0310 0.0000 -4.5823
# 5 -0.0654 -0.5872 12.6633 0.0000 32.5346 0.0000
# 6 0.0000 0.0000 0.0000 -4.5823 0.0000 43.0525
#
#
#
# Elastic Compliance Matrix: (Units=1/GPa)
#
#
# Indices 1 2 3 4 5 6 
#
# 1 0.012977 -0.005093 -0.004422 0.000000 0.001655 0.000000
# 2 -0.005093 0.015875 -0.003843 0.000000 0.001772 0.000000
# 3 -0.004422 -0.003843 0.017116 0.000000 -0.006740 0.000000
# 4 0.000000 0.000000 0.000000 0.031702 0.000000 0.003374
# 5 0.001655 0.001772 -0.006740 0.000000 0.033395 0.000000
# 6 0.000000 0.000000 0.000000 0.003374 0.000000 0.023587
#
#
# Mechanical properties :
#
#
# Convention : Reuss Voigt Hill
#
# Bulk Modulus (GPa) = 51.94202 54.60534 53.27368
# Shear Modulus (GPa) = 29.79997 32.20795 31.00396
#
# Velocity S-wave (km/s) = 3.84399 3.99628 3.92087
# Velocity P-wave (km/s) = 6.74218 6.95483 6.84933
#
# Compressibility (1/GPa) = 0.01925223
#
# Stress axis : x y z
#
# Youngs Moduli (GPa) = 77.05645 62.99293 58.42601
#
# Poissons Ratio (x) = 0.32082 0.25835
# Poissons Ratio (y) = 0.39245 0.22453
# Poissons Ratio (z) = 0.34074 0.24208
#
# Static dielectric constant tensor:
#      x y z
#    x 3.939790 0.000000 0.074810 
#    y 0.000000 3.681310 0.000000 
#    z 0.074810 0.000000 3.619490 
# 
# 
# High freq. dielectric constant tensor:
#      x y z
#    x 1.805520 0.000000 0.006200 
#    y 0.000000 1.790540 0.000000 
#    z 0.006200 0.000000 1.777840 
# 
# From -- ./inp_files/232745.got.cif
#   From: 2010.06.25/outbox.cif.g09.slc.cpg/sg15_117_cif.got.tgz:232745.got - 2010.06.28 07:06:18.
