data_PCOD8147568
_publ_section_title
;
Structure prediction by ZEFSAII (Michael W. Deem and Ramdas Pophale) SiO2 
 PCOD8147568
Probable space group: C 2/C
;
_chemical_formula_sum "Si O2"
_cell_formula_units_Z 56
_cell_length_a 11.842842
_cell_length_b 8.872589
_cell_length_c 25.777879
_cell_angle_alpha 90.000000
_cell_angle_beta 69.451077
_cell_angle_gamma 90.000000
_cell_volume 2536.309673
_symmetry_space_group_name_H-M "C 2/C"
_symmetry_group_IT_number 15
_symmetry_cell_setting 'monoclinic'
loop_
_space_group_symop_operation_xyz
x,y,z
-x,y,1/2-z
-x,-y,-z
x,-y,1/2+z
1/2+x,1/2+y,z
1/2-x,1/2+y,1/2-z
1/2-x,1/2-y,-z
1/2+x,1/2-y,1/2+z
loop_
_atom_site_type_symbol
_atom_site_label
_atom_site_fract_x
_atom_site_fract_y
_atom_site_fract_z
Si Si1 0.577306 0.355879 0.974149
Si Si2 0.155652 0.633646 0.828322
Si Si3 0.136481 0.629702 0.718044
Si Si4 0.024319 0.822123 0.092219
Si Si5 0.780349 0.665866 0.128951
Si Si6 0.804317 0.359949 0.865487
Si Si7 0.051936 0.172719 0.101827
O O1 0.704354 0.389925 0.925910
O O2 0.488691 0.264620 0.948739
O O3 0.500000 0.500000 0.000000
O O4 0.599890 0.282800 0.027154
O O5 0.187855 0.573213 0.765534
O O6 0.165380 0.499987 0.869233
O O7 0.254861 0.755307 0.828084
O O8 0.024394 0.717970 0.847625
O O9 0.203434 0.783854 0.691419
O O10 0.152688 0.512260 0.668506
O O11 0.000000 0.669738 0.750000
O O12 0.078737 0.719588 0.128762
O O13 0.887383 0.780941 0.102005
O O14 0.016649 0.996036 0.111322
O O15 0.694141 0.677098 0.091789
#
# Coordination Sequence:
#
# PCOD8147568 Si02
#       7
#     8   8   8   8   8   8   8
#     4   9  20  41  70  97 137 182 225 280 342 401
#     4  11  23  44  66  98 136 178 226 283 342 401
#     4  12  24  42  66  98 136 175 230 282 339 407
#     4  11  23  43  71 101 135 184 224 276 351 400
#     4  12  24  42  69  96 137 177 221 287 337 406
#     4  11  23  43  71  98 143 179 230 282 336 418
#     4  10  22  44  66  96 137 173 224 281 329 409
#
# _framework density 22.079322999999999
#
# number of rings (size 3 to 8) (size 9 to 14) (size 15 to 20)
#    0.000    1.143    2.857    4.714    0.000    0.571 
#    0.000    3.571    0.000    0.000    0.000    0.000 
#    0.000    0.000    0.000    0.000    0.000    0.000 
#
# Total GULP energy -346929.311956 kJ/mol
# GULP energy per Si atom -12390.332570 kJ/mol
# Density = 2.202907 g / cm^3
# Si number density = 22.079323 Si / 1000 Ang^3
#
#
#
# Elastic Constant Matrix: (Units=GPa)
#
#
# Indices 1 2 3 4 5 6 
#
# 1 118.8101 44.6745 29.0841 0.0000 -11.6179 0.0000
# 2 44.6745 95.9467 32.1036 0.0000 -4.9100 0.0000
# 3 29.0841 32.1036 114.1896 0.0000 -6.2279 0.0000
# 4 0.0000 0.0000 0.0000 26.6225 0.0000 8.1346
# 5 -11.6179 -4.9100 -6.2279 0.0000 33.0721 0.0000
# 6 0.0000 0.0000 0.0000 8.1346 0.0000 34.7308
#
#
#
# Elastic Compliance Matrix: (Units=1/GPa)
#
#
# Indices 1 2 3 4 5 6 
#
# 1 0.010666 -0.004375 -0.001331 0.000000 0.002847 0.000000
# 2 -0.004375 0.013340 -0.002639 0.000000 -0.000053 0.000000
# 3 -0.001331 -0.002639 0.009893 0.000000 0.001004 0.000000
# 4 0.000000 0.000000 0.000000 0.040458 0.000000 -0.009476
# 5 0.002847 -0.000053 0.001004 0.000000 0.031418 0.000000
# 6 0.000000 0.000000 0.000000 -0.009476 0.000000 0.031012
#
#
# Mechanical properties :
#
#
# Convention : Reuss Voigt Hill
#
# Bulk Modulus (GPa) = 58.11208 60.07452 59.09330
# Shear Modulus (GPa) = 31.40424 33.75738 32.58081
#
# Velocity S-wave (km/s) = 3.77548 3.91437 3.84555
# Velocity P-wave (km/s) = 6.73665 6.90633 6.82202
#
# Compressibility (1/GPa) = 0.01720813
#
# Stress axis : x y z
#
# Youngs Moduli (GPa) = 93.75387 74.96311 101.08033
#
# Poissons Ratio (x) = 0.32798 0.13458
# Poissons Ratio (y) = 0.41020 0.26675
# Poissons Ratio (z) = 0.12482 0.19782
#
# Static dielectric constant tensor:
#      x y z
#    x 4.206010 0.000000 0.553050 
#    y 0.000000 3.873550 0.000000 
#    z 0.553050 0.000000 5.178890 
# 
# 
# High freq. dielectric constant tensor:
#      x y z
#    x 1.885970 0.000000 0.017660 
#    y 0.000000 1.858790 0.000000 
#    z 0.017660 0.000000 1.864760 
# 
# From -- ./inp_files/291533.got.cif
#   From: 2010.06.25/outbox.cif.g09.slc.cpg/sg15_146_cif.got.tgz:291533.got - 2010.06.28 07:06:18.
