data_PCOD8147865
_publ_section_title
;
Structure prediction by ZEFSAII (Michael W. Deem and Ramdas Pophale) SiO2 
 PCOD8147865
Probable space group: C 2/C
;
_chemical_formula_sum "Si O2"
_cell_formula_units_Z 48
_cell_length_a 8.546050
_cell_length_b 16.301768
_cell_length_c 21.240850
_cell_angle_alpha 90.000000
_cell_angle_beta 132.066130
_cell_angle_gamma 90.000000
_cell_volume 2196.815732
_symmetry_space_group_name_H-M "C 2/C"
_symmetry_group_IT_number 15
_symmetry_cell_setting 'monoclinic'
loop_
_space_group_symop_operation_xyz
x,y,z
-x,y,1/2-z
-x,-y,-z
x,-y,1/2+z
1/2+x,1/2+y,z
1/2-x,1/2+y,1/2-z
1/2-x,1/2-y,-z
1/2+x,1/2-y,1/2+z
loop_
_atom_site_type_symbol
_atom_site_label
_atom_site_fract_x
_atom_site_fract_y
_atom_site_fract_z
Si Si1 0.533106 0.578175 0.831814
Si Si2 0.693183 0.715999 0.416202
Si Si3 0.341608 0.588334 0.311106
Si Si4 0.300679 0.119515 0.656653
Si Si5 0.107494 0.548023 0.369481
Si Si6 0.559273 0.089398 0.494221
O O1 0.500000 0.601274 0.750000
O O2 0.514550 0.480301 0.839046
O O3 0.382889 0.620741 0.841615
O O4 0.760829 0.616335 0.908538
O O5 0.750000 0.750000 0.500000
O O6 0.462520 0.675531 0.341054
O O7 0.698748 0.791763 0.371702
O O8 0.868060 0.651410 0.443749
O O9 0.263962 0.588519 0.361838
O O10 0.138533 0.570002 0.211955
O O11 0.500000 0.095204 0.750000
O O12 0.317840 0.047965 0.608219
O O13 0.156805 0.585963 0.450434
O O14 0.500000 0.000000 0.500000
#
# Coordination Sequence:
#
# PCOD8147865 Si02
#       6
#     8   8   8   8   8   8
#     4  11  24  44  74  99 135 185 242 280 338 425
#     4  12  29  44  68 104 147 178 229 294 359 400
#     4  10  22  45  72  99 135 186 230 282 334 427
#     4  11  25  45  71 102 141 179 223 293 357 407
#     4  10  22  46  75 101 129 182 244 270 342 423
#     4  12  25  42  72 102 136 185 237 283 332 424
#
# _framework density 21.849806999999998
#
# number of rings (size 3 to 8) (size 9 to 14) (size 15 to 20)
#    0.000    1.000    5.000    2.000    7.000    2.000 
#    0.000    0.000    0.000    0.000    0.000    0.000 
#    0.000    0.000    0.000    0.000    0.000    0.000 
#
# Total GULP energy -297315.433023 kJ/mol
# GULP energy per Si atom -12388.143043 kJ/mol
# Density = 2.180008 g / cm^3
# Si number density = 21.849807 Si / 1000 Ang^3
#
#
#
# Elastic Constant Matrix: (Units=GPa)
#
#
# Indices 1 2 3 4 5 6 
#
# 1 96.5443 53.0686 36.7818 0.0000 0.7040 0.0000
# 2 53.0686 129.2776 26.5442 0.0000 0.8192 0.0000
# 3 36.7818 26.5442 85.4841 0.0000 -1.3161 0.0000
# 4 0.0000 0.0000 0.0000 37.9948 0.0000 3.0122
# 5 0.7040 0.8192 -1.3161 0.0000 44.2386 0.0000
# 6 0.0000 0.0000 0.0000 3.0122 0.0000 32.4930
#
#
#
# Elastic Compliance Matrix: (Units=1/GPa)
#
#
# Indices 1 2 3 4 5 6 
#
# 1 0.015067 -0.005181 -0.004878 0.000000 -0.000289 0.000000
# 2 -0.005181 0.010046 -0.000892 0.000000 -0.000130 0.000000
# 3 -0.004878 -0.000892 0.014082 0.000000 0.000513 0.000000
# 4 0.000000 0.000000 0.000000 0.026514 0.000000 -0.002458
# 5 -0.000289 -0.000130 0.000513 0.000000 0.022627 0.000000
# 6 0.000000 0.000000 0.000000 -0.002458 0.000000 0.031004
#
#
# Mechanical properties :
#
#
# Convention : Reuss Voigt Hill
#
# Bulk Modulus (GPa) = 57.83271 60.45502 59.14386
# Shear Modulus (GPa) = 34.01183 35.93937 34.97560
#
# Velocity S-wave (km/s) = 3.94968 4.06006 4.00525
# Velocity P-wave (km/s) = 6.87937 7.05034 6.96538
#
# Compressibility (1/GPa) = 0.01729125
#
# Stress axis : x y z
#
# Youngs Moduli (GPa) = 66.37123 99.53946 71.01236
#
# Poissons Ratio (x) = 0.51576 0.34643
# Poissons Ratio (y) = 0.34390 0.06335
# Poissons Ratio (z) = 0.32379 0.08880
#
# Static dielectric constant tensor:
#      x y z
#    x 4.013740 0.000000 -0.055270 
#    y 0.000000 4.271900 0.000000 
#    z -0.055270 0.000000 4.264260 
# 
# 
# High freq. dielectric constant tensor:
#      x y z
#    x 1.877060 0.000000 -0.001780 
#    y 0.000000 1.844990 0.000000 
#    z -0.001780 0.000000 1.867010 
# 
# From -- ./inp_files/232868.got.cif
#   From: 2010.06.25/outbox.cif.g09.slc.cpg/sg15_117_cif.got.tgz:232868.got - 2010.06.28 07:06:18.
