data_PCOD8147000
_publ_section_title
;
Structure prediction by ZEFSAII (Michael W. Deem and Ramdas Pophale) SiO2 
 PCOD8147000
Probable space group: C 2/C
;
_chemical_formula_sum "Si O2"
_cell_formula_units_Z 60
_cell_length_a 14.536662
_cell_length_b 9.280924
_cell_length_c 21.499779
_cell_angle_alpha 90.000000
_cell_angle_beta 74.676768
_cell_angle_gamma 90.000000
_cell_volume 2797.497954
_symmetry_space_group_name_H-M "C 2/C"
_symmetry_group_IT_number 15
_symmetry_cell_setting 'monoclinic'
loop_
_space_group_symop_operation_xyz
x,y,z
-x,y,1/2-z
-x,-y,-z
x,-y,1/2+z
1/2+x,1/2+y,z
1/2-x,1/2+y,1/2-z
1/2-x,1/2-y,-z
1/2+x,1/2-y,1/2+z
loop_
_atom_site_type_symbol
_atom_site_label
_atom_site_fract_x
_atom_site_fract_y
_atom_site_fract_z
Si Si1 0.799867 0.747354 0.590383
Si Si2 0.025275 0.768010 0.377874
Si Si3 0.707720 0.425442 0.218740
Si Si4 0.662704 0.222289 0.561314
Si Si5 0.500000 0.672450 0.750000
Si Si6 0.488856 0.429082 0.568611
Si Si7 0.234753 0.265377 0.830632
Si Si8 0.354652 0.901791 0.959302
O O1 0.759916 0.670108 0.657887
O O2 0.724086 0.862864 0.578284
O O3 0.814557 0.624698 0.535496
O O4 0.896463 0.829205 0.590684
O O5 0.006772 0.723928 0.309276
O O6 0.129959 0.717439 0.380247
O O7 0.949346 0.694357 0.436507
O O8 0.017872 0.941779 0.380756
O O9 0.594290 0.425156 0.228462
O O10 0.740558 0.589448 0.210202
O O11 0.735409 0.365463 0.281552
O O12 0.750000 0.250000 0.500000
O O13 0.583419 0.341080 0.565141
O O14 0.691992 0.229902 0.627987
O O15 0.617477 0.067359 0.554349
O O16 0.500000 0.500000 0.500000
#
# Coordination Sequence:
#
# PCOD8147000 Si02
#       8
#     8   8   8   8   4   8   8   8
#     4  11  24  42  71 101 141 188 233 285 355 421
#     4  11  23  43  70 100 137 186 227 284 350 425
#     4  11  25  45  70 100 142 187 233 285 348 423
#     4  12  27  44  69 105 143 181 236 298 343 416
#     4  10  22  42  68  94 134 184 230 274 344 414
#     4  12  25  45  70 100 141 187 233 285 362 419
#     4  11  27  46  71 103 142 183 234 286 351 418
#     4  11  24  42  74 104 139 178 233 294 343 413
#
# _framework density 21.447737
#
# number of rings (size 3 to 8) (size 9 to 14) (size 15 to 20)
#    0.000    0.800    2.667    4.000    9.333    0.533 
#    0.000    0.000    0.000    0.000    0.000    0.000 
#    0.000    0.000    0.000    0.000    0.000    0.000 
#
# Total GULP energy -372173.985521 kJ/mol
# GULP energy per Si atom -12405.799517 kJ/mol
# Density = 2.139892 g / cm^3
# Si number density = 21.447737 Si / 1000 Ang^3
#
#
#
# Elastic Constant Matrix: (Units=GPa)
#
#
# Indices 1 2 3 4 5 6 
#
# 1 139.5473 56.9667 40.4409 0.0000 -11.7311 0.0000
# 2 56.9667 116.3045 30.4064 0.0000 -3.7501 0.0000
# 3 40.4409 30.4064 97.6375 0.0000 1.4645 0.0000
# 4 0.0000 0.0000 0.0000 27.6685 0.0000 -2.4271
# 5 -11.7311 -3.7501 1.4645 0.0000 42.0359 0.0000
# 6 0.0000 0.0000 0.0000 -2.4271 0.0000 34.8999
#
#
#
# Elastic Compliance Matrix: (Units=1/GPa)
#
#
# Indices 1 2 3 4 5 6 
#
# 1 0.009834 -0.003986 -0.002869 0.000000 0.002489 0.000000
# 2 -0.003986 0.011013 -0.001778 0.000000 -0.000068 0.000000
# 3 -0.002869 -0.001778 0.012005 0.000000 -0.001377 0.000000
# 4 0.000000 0.000000 0.000000 0.036364 0.000000 0.002529
# 5 0.002489 -0.000068 -0.001377 0.000000 0.024526 0.000000
# 6 0.000000 0.000000 0.000000 0.002529 0.000000 0.028829
#
#
# Mechanical properties :
#
#
# Convention : Reuss Voigt Hill
#
# Bulk Modulus (GPa) = 64.16154 67.67970 65.92062
# Shear Modulus (GPa) = 34.47508 35.96587 35.22047
#
# Velocity S-wave (km/s) = 4.01359 4.09945 4.05675
# Velocity P-wave (km/s) = 7.17348 7.35061 7.26258
#
# Compressibility (1/GPa) = 0.01558566
#
# Stress axis : x y z
#
# Youngs Moduli (GPa) = 101.68711 90.79980 83.30166
#
# Poissons Ratio (x) = 0.36197 0.23900
# Poissons Ratio (y) = 0.40537 0.14807
# Poissons Ratio (z) = 0.29175 0.16140
#
# Static dielectric constant tensor:
#      x y z
#    x 3.982080 0.000000 -0.081080 
#    y 0.000000 3.888620 0.000000 
#    z -0.081080 0.000000 4.035230 
# 
# 
# High freq. dielectric constant tensor:
#      x y z
#    x 1.853720 0.000000 -0.000910 
#    y 0.000000 1.835660 0.000000 
#    z -0.000910 0.000000 1.857470 
# 
# From -- ./inp_files/273108.got.cif
#   From: 2010.06.25/outbox.cif.g09.slc.cpg/sg15_137_cif.got.tgz:273108.got - 2010.06.28 07:06:18.
