data_PCOD8147386
_publ_section_title
;
Structure prediction by ZEFSAII (Michael W. Deem and Ramdas Pophale) SiO2 
 PCOD8147386
Probable space group: C 2/C
;
_chemical_formula_sum "Si O2"
_cell_formula_units_Z 48
_cell_length_a 9.034488
_cell_length_b 16.846789
_cell_length_c 15.351842
_cell_angle_alpha 90.000000
_cell_angle_beta 97.355245
_cell_angle_gamma 90.000000
_cell_volume 2317.356138
_symmetry_space_group_name_H-M "C 2/C"
_symmetry_group_IT_number 15
_symmetry_cell_setting 'monoclinic'
loop_
_space_group_symop_operation_xyz
x,y,z
-x,y,1/2-z
-x,-y,-z
x,-y,1/2+z
1/2+x,1/2+y,z
1/2-x,1/2+y,1/2-z
1/2-x,1/2-y,-z
1/2+x,1/2-y,1/2+z
loop_
_atom_site_type_symbol
_atom_site_label
_atom_site_fract_x
_atom_site_fract_y
_atom_site_fract_z
Si Si1 0.753883 0.156811 0.514483
Si Si2 0.516212 0.306147 0.342300
Si Si3 0.989854 0.566127 0.573087
Si Si4 0.778728 0.348088 0.677387
Si Si5 0.000000 0.525486 0.250000
Si Si6 0.000000 0.223608 0.250000
Si Si7 0.708395 0.202518 0.909695
O O1 0.750000 0.250000 0.500000
O O2 0.901808 0.137335 0.581873
O O3 0.611346 0.132724 0.559730
O O4 0.763107 0.115479 0.420964
O O5 0.500000 0.353392 0.250000
O O6 0.609359 0.225790 0.328552
O O7 0.351733 0.286261 0.361034
O O8 0.025082 0.529298 0.668744
O O9 0.830242 0.612055 0.563735
O O10 0.000000 0.500000 0.500000
O O11 0.855212 0.419329 0.734573
O O12 0.631214 0.329141 0.720035
O O13 0.067738 0.271712 0.337961
O O14 0.750000 0.250000 0.000000
#
# Coordination Sequence:
#
# PCOD8147386 Si02
#       7
#     8   8   8   8   4   4   8
#     4  10  22  43  69  99 135 182 234 293 347 415
#     4  11  21  39  69  98 137 175 239 292 352 400
#     4  12  27  45  72 105 143 188 237 288 366 436
#     4  11  21  42  67 102 140 189 224 298 353 424
#     4  12  25  44  70  96 149 190 230 282 373 428
#     4  12  23  40  74 108 137 180 260 282 351 424
#     4  12  25  43  71 106 140 183 239 300 345 423
#
# _framework density 20.713259000000001
#
# number of rings (size 3 to 8) (size 9 to 14) (size 15 to 20)
#    0.000    0.667    4.167    5.500    4.667    0.000 
#    0.000    2.500    0.000    0.000    0.000    0.000 
#    0.000    0.000    0.000    0.000    0.000    0.000 
#
# Total GULP energy -297427.258150 kJ/mol
# GULP energy per Si atom -12392.802423 kJ/mol
# Density = 2.066611 g / cm^3
# Si number density = 20.713259 Si / 1000 Ang^3
#
#
#
# Elastic Constant Matrix: (Units=GPa)
#
#
# Indices 1 2 3 4 5 6 
#
# 1 142.3159 60.5518 68.4807 0.0000 -14.6267 0.0000
# 2 60.5518 81.6930 50.1898 0.0000 -7.7725 0.0000
# 3 68.4807 50.1898 186.6955 0.0000 7.2427 0.0000
# 4 0.0000 0.0000 0.0000 37.3528 0.0000 3.9564
# 5 -14.6267 -7.7725 7.2427 0.0000 51.6991 0.0000
# 6 0.0000 0.0000 0.0000 3.9564 0.0000 29.2598
#
#
#
# Elastic Compliance Matrix: (Units=1/GPa)
#
#
# Indices 1 2 3 4 5 6 
#
# 1 0.011285 -0.006611 -0.002461 0.000000 0.002544 0.000000
# 2 -0.006611 0.018941 -0.002720 0.000000 0.001358 0.000000
# 3 -0.002461 -0.002720 0.007071 0.000000 -0.002096 0.000000
# 4 0.000000 0.000000 0.000000 0.027161 0.000000 -0.003673
# 5 0.002544 0.001358 -0.002096 0.000000 0.020560 0.000000
# 6 0.000000 0.000000 0.000000 -0.003673 0.000000 0.034673
#
#
# Mechanical properties :
#
#
# Convention : Reuss Voigt Hill
#
# Bulk Modulus (GPa) = 72.91435 85.46101 79.18768
# Shear Modulus (GPa) = 33.81907 39.09446 36.45677
#
# Velocity S-wave (km/s) = 4.04508 4.34915 4.19987
# Velocity P-wave (km/s) = 7.55613 8.15897 7.86333
#
# Compressibility (1/GPa) = 0.01371472
#
# Stress axis : x y z
#
# Youngs Moduli (GPa) = 88.61472 52.79543 141.41339
#
# Poissons Ratio (x) = 0.34901 0.34800
# Poissons Ratio (y) = 0.58579 0.38463
# Poissons Ratio (z) = 0.21807 0.14360
#
# Static dielectric constant tensor:
#      x y z
#    x 3.919150 0.000000 0.566650 
#    y 0.000000 3.510980 0.000000 
#    z 0.566650 0.000000 5.612930 
# 
# 
# High freq. dielectric constant tensor:
#      x y z
#    x 1.815530 0.000000 0.001860 
#    y 0.000000 1.774320 0.000000 
#    z 0.001860 0.000000 1.850220 
# 
# From -- ./inp_files/134930.got.cif
#   From: 2010.06.25/outbox.cif.g09.slc.cpg/sg15_68_cif.got.tgz:134930.got - 2010.06.28 07:06:18.
