data_PCOD8147071
_publ_section_title
;
Structure prediction by ZEFSAII (Michael W. Deem and Ramdas Pophale) SiO2 
 PCOD8147071
Probable space group: C 2/C
;
_chemical_formula_sum "Si O2"
_cell_formula_units_Z 48
_cell_length_a 18.772246
_cell_length_b 11.643301
_cell_length_c 12.985641
_cell_angle_alpha 90.000000
_cell_angle_beta 50.194670
_cell_angle_gamma 90.000000
_cell_volume 2180.437335
_symmetry_space_group_name_H-M "C 2/C"
_symmetry_group_IT_number 15
_symmetry_cell_setting 'monoclinic'
loop_
_space_group_symop_operation_xyz
x,y,z
-x,y,1/2-z
-x,-y,-z
x,-y,1/2+z
1/2+x,1/2+y,z
1/2-x,1/2+y,1/2-z
1/2-x,1/2-y,-z
1/2+x,1/2-y,1/2+z
loop_
_atom_site_type_symbol
_atom_site_label
_atom_site_fract_x
_atom_site_fract_y
_atom_site_fract_z
Si Si1 0.520527 0.138254 0.117555
Si Si2 0.886327 0.186387 0.692684
Si Si3 0.307965 0.175296 0.867834
Si Si4 0.685414 0.259351 0.866995
Si Si5 0.000000 0.420770 0.250000
Si Si6 0.000000 0.044046 0.750000
Si Si7 0.649463 0.481172 0.460525
O O1 0.500000 0.191491 0.250000
O O2 0.447988 0.200642 0.107388
O O3 0.507976 0.000086 0.138697
O O4 0.622904 0.166215 0.983499
O O5 0.786715 0.234609 0.818259
O O6 0.932688 0.119854 0.742930
O O7 0.881095 0.102381 0.601736
O O8 0.318634 0.243519 0.751674
O O9 0.408655 0.155481 0.823750
O O10 0.251815 0.055653 0.904916
O O11 0.250000 0.250000 0.000000
O O12 0.651434 0.387346 0.922705
O O13 0.069423 0.964516 0.619731
#
# Coordination Sequence:
#
# PCOD8147071 Si02
#       7
#     8   8   8   8   4   4   8
#     4  10  22  42  70 102 129 177 230 282 347 396
#     4  11  23  42  65 105 136 181 234 285 343 413
#     4  11  28  47  70 102 139 193 226 283 352 413
#     4  11  25  43  69 101 141 179 237 288 342 416
#     4  10  25  49  70 102 138 180 235 283 348 416
#     4  12  23  39  72  96 136 180 223 291 348 400
#     4  11  26  43  69 104 143 182 231 291 346 410
#
# _framework density 22.013933999999999
#
# number of rings (size 3 to 8) (size 9 to 14) (size 15 to 20)
#    0.500    0.667    2.500    1.500    4.667    6.667 
#    0.000    0.000    0.000    0.000    0.000    0.000 
#    0.000    0.000    0.000    0.000    0.000    0.000 
#
# Total GULP energy -297544.656055 kJ/mol
# GULP energy per Si atom -12397.694002 kJ/mol
# Density = 2.196383 g / cm^3
# Si number density = 22.013934 Si / 1000 Ang^3
#
#
#
# Elastic Constant Matrix: (Units=GPa)
#
#
# Indices 1 2 3 4 5 6 
#
# 1 131.6556 39.2102 53.7818 0.0000 -28.2344 0.0000
# 2 39.2102 87.1330 45.7123 0.0000 -9.1968 0.0000
# 3 53.7818 45.7123 145.1071 0.0000 -13.0760 0.0000
# 4 0.0000 0.0000 0.0000 29.5118 0.0000 -13.8551
# 5 -28.2344 -9.1968 -13.0760 0.0000 42.6141 0.0000
# 6 0.0000 0.0000 0.0000 -13.8551 0.0000 28.1139
#
#
#
# Elastic Compliance Matrix: (Units=1/GPa)
#
#
# Indices 1 2 3 4 5 6 
#
# 1 0.010718 -0.002884 -0.002551 0.000000 0.005696 0.000000
# 2 -0.002884 0.014644 -0.003529 0.000000 0.000167 0.000000
# 3 -0.002551 -0.003529 0.008976 0.000000 0.000303 0.000000
# 4 0.000000 0.000000 0.000000 0.044085 0.000000 0.021726
# 5 0.005696 0.000167 0.000303 0.000000 0.027369 0.000000
# 6 0.000000 0.000000 0.000000 0.021726 0.000000 0.046277
#
#
# Mechanical properties :
#
#
# Convention : Reuss Voigt Hill
#
# Bulk Modulus (GPa) = 60.93819 71.25602 66.09711
# Shear Modulus (GPa) = 28.49568 35.06072 31.77820
#
# Velocity S-wave (km/s) = 3.60173 3.99514 3.80353
# Velocity P-wave (km/s) = 6.71106 7.32942 7.02705
#
# Compressibility (1/GPa) = 0.01641007
#
# Stress axis : x y z
#
# Youngs Moduli (GPa) = 93.30097 68.28961 111.40939
#
# Poissons Ratio (x) = 0.19693 0.28417
# Poissons Ratio (y) = 0.26906 0.39319
# Poissons Ratio (z) = 0.23798 0.24101
#
# Static dielectric constant tensor:
#      x y z
#    x 4.403970 0.000000 -0.275710 
#    y 0.000000 3.929420 0.000000 
#    z -0.275710 0.000000 4.185750 
# 
# 
# High freq. dielectric constant tensor:
#      x y z
#    x 1.869680 0.000000 -0.012520 
#    y 0.000000 1.864920 0.000000 
#    z -0.012520 0.000000 1.877050 
# 
# From -- ./inp_files/167886.got.cif
#   From: 2010.06.25/outbox.cif.g09.slc.cpg/sg15_84_cif.got.tgz:167886.got - 2010.06.28 07:06:18.
