data_PCOD8147921
_publ_section_title
;
Structure prediction by ZEFSAII (Michael W. Deem and Ramdas Pophale) SiO2 
 PCOD8147921
Probable space group: C 2/C
;
_chemical_formula_sum "Si O2"
_cell_formula_units_Z 40
_cell_length_a 8.733245
_cell_length_b 21.364495
_cell_length_c 17.926296
_cell_angle_alpha 90.000000
_cell_angle_beta 147.544737
_cell_angle_gamma 90.000000
_cell_volume 1794.909775
_symmetry_space_group_name_H-M "C 2/C"
_symmetry_group_IT_number 15
_symmetry_cell_setting 'monoclinic'
loop_
_space_group_symop_operation_xyz
x,y,z
-x,y,1/2-z
-x,-y,-z
x,-y,1/2+z
1/2+x,1/2+y,z
1/2-x,1/2+y,1/2-z
1/2-x,1/2-y,-z
1/2+x,1/2-y,1/2+z
loop_
_atom_site_type_symbol
_atom_site_label
_atom_site_fract_x
_atom_site_fract_y
_atom_site_fract_z
Si Si1 0.000000 0.440603 0.250000
Si Si2 0.311928 0.670522 0.373315
Si Si3 0.500000 0.710378 0.750000
Si Si4 0.102978 0.513553 0.424606
Si Si5 0.502991 0.573423 0.169273
Si Si6 0.494052 0.370220 0.101529
O O1 0.797253 0.483134 0.113665
O O2 0.808381 0.400189 0.228507
O O3 0.267243 0.744526 0.336418
O O4 0.484002 0.631659 0.382296
O O5 0.471731 0.671502 0.518116
O O6 0.000000 0.637409 0.250000
O O7 0.563994 0.668489 0.847851
O O8 0.210533 0.465556 0.533483
O O9 0.242847 0.579891 0.495357
O O10 0.761626 0.522827 0.275855
O O11 0.500000 0.603948 0.250000
#
# Coordination Sequence:
#
# PCOD8147921 Si02
#       6
#     4   8   4   8   8   8
#     4  12  24  41  68 108 141 180 222 280 354 432
#     4  10  22  46  69  91 130 185 227 274 344 399
#     4  10  26  45  72  98 129 186 238 286 336 396
#     4  12  23  41  69 102 147 180 219 285 356 414
#     4  12  25  41  69 106 141 181 230 287 345 415
#     4  12  23  44  72 100 137 179 232 282 348 409
#
# _framework density 22.285240999999999
#
# number of rings (size 3 to 8) (size 9 to 14) (size 15 to 20)
#    0.600    0.000    6.000    3.000    1.400    1.600 
#    1.800    1.000    0.000    0.000    0.000    0.000 
#    0.000    0.000    0.000    0.000    0.000    0.000 
#
# Total GULP energy -247866.975453 kJ/mol
# GULP energy per Si atom -12393.348773 kJ/mol
# Density = 2.223452 g / cm^3
# Si number density = 22.285241 Si / 1000 Ang^3
#
#
#
# Elastic Constant Matrix: (Units=GPa)
#
#
# Indices 1 2 3 4 5 6 
#
# 1 90.8026 46.8330 43.2255 0.0080 -31.4170 0.0015
# 2 46.8330 121.1235 52.4669 0.0059 -20.4791 0.0011
# 3 43.2255 52.4669 112.1604 -0.0204 -28.7886 -0.0048
# 4 0.0080 0.0059 -0.0204 24.8868 -0.0076 -12.2916
# 5 -31.4170 -20.4791 -28.7886 -0.0076 48.6319 -0.0009
# 6 0.0015 0.0011 -0.0048 -12.2916 -0.0009 28.5333
#
#
#
# Elastic Compliance Matrix: (Units=1/GPa)
#
#
# Indices 1 2 3 4 5 6 
#
# 1 0.017092 -0.004149 -0.002665 -0.000006 0.007716 -0.000004
# 2 -0.004149 0.011491 -0.003799 -0.000006 -0.000091 -0.000004
# 3 -0.002665 -0.003799 0.012815 0.000019 0.004264 0.000011
# 4 -0.000006 -0.000006 0.000019 0.051042 0.000013 0.021988
# 5 0.007716 -0.000091 0.004264 0.000013 0.028033 0.000007
# 6 -0.000004 -0.000004 0.000011 0.021988 0.000007 0.044519
#
#
# Mechanical properties :
#
#
# Convention : Reuss Voigt Hill
#
# Bulk Modulus (GPa) = 49.58114 67.68192 58.63153
# Shear Modulus (GPa) = 25.91441 32.51446 29.21443
#
# Velocity S-wave (km/s) = 3.41376 3.82385 3.62461
# Velocity P-wave (km/s) = 6.15102 7.06629 6.62448
#
# Compressibility (1/GPa) = 0.02016896
#
# Stress axis : x y z
#
# Youngs Moduli (GPa) = 58.50831 87.02581 78.03465
#
# Poissons Ratio (x) = 0.36110 0.20799
# Poissons Ratio (y) = 0.24277 0.29649
# Poissons Ratio (z) = 0.15595 0.33065
#
# Static dielectric constant tensor:
#      x y z
#    x 3.829620 0.000000 -0.224480 
#    y 0.000000 3.804920 0.000000 
#    z -0.224480 0.000000 4.147190 
# 
# 
# High freq. dielectric constant tensor:
#      x y z
#    x 1.860520 0.000000 -0.021710 
#    y 0.000000 1.866020 0.000000 
#    z -0.021710 0.000000 1.890720 
# 
# From -- ./inp_files/114799.got.cif
#   From: 2010.06.25/outbox.cif.g09.slc.cpg/sg15_58_cif.got.tgz:114799.got - 2010.06.28 07:06:18.
