data_PCOD8147598
_publ_section_title
;
Structure prediction by ZEFSAII (Michael W. Deem and Ramdas Pophale) SiO2 
 PCOD8147598
Probable space group: C 2/C
;
_chemical_formula_sum "Si O2"
_cell_formula_units_Z 48
_cell_length_a 15.972172
_cell_length_b 8.482460
_cell_length_c 30.368556
_cell_angle_alpha 90.000000
_cell_angle_beta 147.569746
_cell_angle_gamma 90.000000
_cell_volume 2206.457213
_symmetry_space_group_name_H-M "C 2/C"
_symmetry_group_IT_number 15
_symmetry_cell_setting 'monoclinic'
loop_
_space_group_symop_operation_xyz
x,y,z
-x,y,1/2-z
-x,-y,-z
x,-y,1/2+z
1/2+x,1/2+y,z
1/2-x,1/2+y,1/2-z
1/2-x,1/2-y,-z
1/2+x,1/2-y,1/2+z
loop_
_atom_site_type_symbol
_atom_site_label
_atom_site_fract_x
_atom_site_fract_y
_atom_site_fract_z
Si Si1 0.187028 0.725585 0.337226
Si Si2 0.673645 0.873007 0.335605
Si Si3 0.823062 0.606384 0.812450
Si Si4 0.349491 0.837071 0.080000
Si Si5 0.636507 0.256112 0.154311
Si Si6 0.800068 0.823912 0.977597
O O1 0.255676 0.545617 0.367643
O O2 0.278477 0.824267 0.340401
O O3 0.242930 0.783196 0.410697
O O4 0.000000 0.746309 0.250000
O O5 0.500000 0.926226 0.250000
O O6 0.681471 0.770924 0.384460
O O7 0.728312 0.756939 0.321864
O O8 0.677508 0.636436 0.715025
O O9 0.875812 0.424911 0.836923
O O10 0.973107 0.689111 0.857034
O O11 0.250000 0.750000 0.000000
O O12 0.292859 0.013660 0.063336
O O13 0.487613 0.330722 0.063258
O O14 0.750000 0.750000 0.000000
#
# Coordination Sequence:
#
# PCOD8147598 Si02
#       6
#     8   8   8   8   8   8
#     4  10  24  44  71  97 137 180 224 276 342 401
#     4  10  22  44  67  95 137 179 219 272 336 403
#     4  12  26  45  69 102 134 181 225 284 335 402
#     4  11  26  43  69 100 138 176 226 281 338 401
#     4  12  26  42  73  99 136 177 233 276 339 401
#     4  11  24  45  69  99 137 181 221 275 342 403
#
# _framework density 21.754331000000001
#
# number of rings (size 3 to 8) (size 9 to 14) (size 15 to 20)
#    0.000    1.000    3.333    2.000    9.333    4.000 
#    0.000    0.000    0.000    0.000    0.000    0.000 
#    0.000    0.000    0.000    0.000    0.000    0.000 
#
# Total GULP energy -297326.803053 kJ/mol
# GULP energy per Si atom -12388.616794 kJ/mol
# Density = 2.170482 g / cm^3
# Si number density = 21.754331 Si / 1000 Ang^3
#
#
#
# Elastic Constant Matrix: (Units=GPa)
#
#
# Indices 1 2 3 4 5 6 
#
# 1 140.5748 25.5649 51.9114 0.0000 -25.8136 0.0000
# 2 25.5649 27.3185 17.8902 0.0000 -3.1076 0.0001
# 3 51.9114 17.8902 150.1090 0.0000 -22.8688 0.0000
# 4 0.0000 0.0000 0.0000 30.8251 0.0000 -5.4299
# 5 -25.8136 -3.1076 -22.8688 0.0000 47.8429 0.0000
# 6 0.0000 0.0001 0.0000 -5.4299 0.0000 26.2978
#
#
#
# Elastic Compliance Matrix: (Units=1/GPa)
#
#
# Indices 1 2 3 4 5 6 
#
# 1 0.009928 -0.007579 -0.001930 0.000000 0.003942 0.000000
# 2 -0.007579 0.045495 -0.003207 0.000000 -0.002667 0.000000
# 3 -0.001930 -0.003207 0.008112 0.000000 0.002628 0.000000
# 4 0.000000 0.000000 0.000000 0.033666 0.000000 0.006951
# 5 0.003942 -0.002667 0.002628 0.000000 0.024112 0.000000
# 6 0.000000 0.000000 0.000000 0.006951 0.000000 0.039461
#
#
# Mechanical properties :
#
#
# Convention : Reuss Voigt Hill
#
# Bulk Modulus (GPa) = 26.24476 56.52613 41.38544
# Shear Modulus (GPa) = 25.13740 35.83556 30.48648
#
# Velocity S-wave (km/s) = 3.40297 4.06308 3.74759
# Velocity P-wave (km/s) = 5.24696 6.93193 6.14745
#
# Compressibility (1/GPa) = 0.03810284
#
# Stress axis : x y z
#
# Youngs Moduli (GPa) = 100.72062 21.98048 123.27767
#
# Poissons Ratio (x) = 0.16659 0.23788
# Poissons Ratio (y) = 0.76336 0.39541
# Poissons Ratio (z) = 0.19435 0.07050
#
# Static dielectric constant tensor:
#      x y z
#    x -0.683860 0.000000 1.262300 
#    y 0.000000 3.533070 0.000000 
#    z 1.262300 0.000000 3.216590 
# 
# 
# High freq. dielectric constant tensor:
#      x y z
#    x 1.876390 0.000000 -0.012400 
#    y 0.000000 1.826580 0.000000 
#    z -0.012400 0.000000 1.869100 
# 
# From -- ./inp_files/295457.got.cif
#   From: 2010.06.25/outbox.cif.g09.slc.cpg/sg15_148_cif.got.tgz:295457.got - 2010.06.28 07:06:18.
