data_PCOD8147126
_publ_section_title
;
Structure prediction by ZEFSAII (Michael W. Deem and Ramdas Pophale) SiO2 
 PCOD8147126
Probable space group: C 2/C
;
_chemical_formula_sum "Si O2"
_cell_formula_units_Z 52
_cell_length_a 20.233831
_cell_length_b 8.278076
_cell_length_c 19.445815
_cell_angle_alpha 90.000000
_cell_angle_beta 135.238511
_cell_angle_gamma 90.000000
_cell_volume 2293.523797
_symmetry_space_group_name_H-M "C 2/C"
_symmetry_group_IT_number 15
_symmetry_cell_setting 'monoclinic'
loop_
_space_group_symop_operation_xyz
x,y,z
-x,y,1/2-z
-x,-y,-z
x,-y,1/2+z
1/2+x,1/2+y,z
1/2-x,1/2+y,1/2-z
1/2-x,1/2-y,-z
1/2+x,1/2-y,1/2+z
loop_
_atom_site_type_symbol
_atom_site_label
_atom_site_fract_x
_atom_site_fract_y
_atom_site_fract_z
Si Si1 0.649828 0.810972 0.903328
Si Si2 0.061763 0.541013 0.946104
Si Si3 0.105811 0.006808 0.603475
Si Si4 0.000000 0.942719 0.250000
Si Si5 0.915323 0.795613 0.787139
Si Si6 0.207806 0.490150 0.320468
Si Si7 0.889659 0.362912 0.874137
O O1 0.625111 0.955886 0.936179
O O2 0.572505 0.669296 0.846010
O O3 0.656737 0.882585 0.831811
O O4 0.750000 0.750000 0.000000
O O5 0.006104 0.684178 0.866902
O O6 0.995310 0.406880 0.930957
O O7 0.125826 0.611210 0.055318
O O8 0.123113 0.861308 0.668838
O O9 0.178787 0.994076 0.592757
O O10 0.125901 0.176160 0.655922
O O11 0.000000 0.000000 0.500000
O O12 0.941824 0.054855 0.258682
O O13 0.831005 0.689878 0.691330
O O14 0.181778 0.527915 0.221847
#
# Coordination Sequence:
#
# PCOD8147126 Si02
#       7
#     8   8   8   4   8   8   8
#     4  12  28  45  73 101 143 193 235 295 351 428
#     4  10  22  43  70 101 138 181 233 280 361 409
#     4  12  24  40  69 102 136 175 232 288 345 412
#     4  12  26  48  70 104 142 182 242 290 356 420
#     4  11  23  44  74 100 141 187 224 298 350 421
#     4  11  26  45  68 103 142 185 234 283 355 421
#     4  10  22  42  71  98 136 183 227 288 338 425
#
# _framework density 22.672535
#
# number of rings (size 3 to 8) (size 9 to 14) (size 15 to 20)
#    0.000    0.923    1.538    5.538    4.308    3.692 
#    0.000    2.308    0.000    0.000    0.000    0.000 
#    0.000    0.000    0.000    0.000    0.000    0.000 
#
# Total GULP energy -322451.779983 kJ/mol
# GULP energy per Si atom -12401.991538 kJ/mol
# Density = 2.262093 g / cm^3
# Si number density = 22.672535 Si / 1000 Ang^3
#
#
#
# Elastic Constant Matrix: (Units=GPa)
#
#
# Indices 1 2 3 4 5 6 
#
# 1 127.8957 52.9093 44.2029 0.0000 7.4257 0.0000
# 2 52.9093 133.6050 31.6321 0.0000 3.7578 0.0000
# 3 44.2029 31.6321 91.8679 0.0000 5.8760 0.0000
# 4 0.0000 0.0000 0.0000 27.7771 0.0000 -5.9817
# 5 7.4257 3.7578 5.8760 0.0000 32.4481 0.0000
# 6 0.0000 0.0000 0.0000 -5.9817 0.0000 49.2106
#
#
#
# Elastic Compliance Matrix: (Units=1/GPa)
#
#
# Indices 1 2 3 4 5 6 
#
# 1 0.010578 -0.003230 -0.003892 0.000000 -0.001342 0.000000
# 2 -0.003230 0.009142 -0.001592 0.000000 -0.000031 0.000000
# 3 -0.003892 -0.001592 0.013392 0.000000 -0.001350 0.000000
# 4 0.000000 0.000000 0.000000 0.036969 0.000000 0.004494
# 5 -0.001342 -0.000031 -0.001350 0.000000 0.031374 0.000000
# 6 0.000000 0.000000 0.000000 0.004494 0.000000 0.020867
#
#
# Mechanical properties :
#
#
# Convention : Reuss Voigt Hill
#
# Bulk Modulus (GPa) = 63.75391 67.87300 65.81345
# Shear Modulus (GPa) = 34.48855 36.86211 35.67533
#
# Velocity S-wave (km/s) = 3.90444 4.03656 3.97105
# Velocity P-wave (km/s) = 6.96467 7.19210 7.07930
#
# Compressibility (1/GPa) = 0.01568531
#
# Stress axis : x y z
#
# Youngs Moduli (GPa) = 94.53582 109.39105 74.67101
#
# Poissons Ratio (x) = 0.35332 0.29060
# Poissons Ratio (y) = 0.30534 0.11884
# Poissons Ratio (z) = 0.36791 0.17410
#
# Static dielectric constant tensor:
#      x y z
#    x 4.199490 0.000000 -0.069140 
#    y 0.000000 4.267170 0.000000 
#    z -0.069140 0.000000 4.056890 
# 
# 
# High freq. dielectric constant tensor:
#      x y z
#    x 1.896290 0.000000 0.002340 
#    y 0.000000 1.911120 0.000000 
#    z 0.002340 0.000000 1.881410 
# 
# From -- ./inp_files/214344.got.cif
#   From: 2010.06.25/outbox.cif.g09.slc.cpg/sg15_108_cif.got.tgz:214344.got - 2010.06.28 07:06:18.
