data_PCOD8147578
_publ_section_title
;
Structure prediction by ZEFSAII (Michael W. Deem and Ramdas Pophale) SiO2 
 PCOD8147578
Probable space group: C 2/C
;
_chemical_formula_sum "Si O2"
_cell_formula_units_Z 36
_cell_length_a 8.763091
_cell_length_b 19.048470
_cell_length_c 14.398695
_cell_angle_alpha 90.000000
_cell_angle_beta 40.477257
_cell_angle_gamma 90.000000
_cell_volume 1560.209959
_symmetry_space_group_name_H-M "C 2/C"
_symmetry_group_IT_number 15
_symmetry_cell_setting 'monoclinic'
loop_
_space_group_symop_operation_xyz
x,y,z
-x,y,1/2-z
-x,-y,-z
x,-y,1/2+z
1/2+x,1/2+y,z
1/2-x,1/2+y,1/2-z
1/2-x,1/2-y,-z
1/2+x,1/2-y,1/2+z
loop_
_atom_site_type_symbol
_atom_site_label
_atom_site_fract_x
_atom_site_fract_y
_atom_site_fract_z
Si Si1 0.500000 0.127827 0.750000
Si Si2 0.631452 0.042381 0.859232
Si Si3 0.190410 0.590794 0.239054
Si Si4 0.171858 0.663499 0.963221
Si Si5 0.501171 0.310486 0.019427
O O1 0.469132 0.078540 0.855270
O O2 0.276974 0.179591 0.845254
O O3 0.769468 0.105910 0.844959
O O4 0.792055 0.982994 0.733966
O O5 0.500000 0.000000 0.000000
O O6 0.000000 0.570824 0.250000
O O7 0.060945 0.637123 0.376399
O O8 0.406695 0.633208 0.097335
O O9 0.389923 0.678471 0.929038
O O10 0.084523 0.733083 0.948556
#
# Coordination Sequence:
#
# PCOD8147578 Si02
#       5
#     4   8   8   8   8
#     4  12  26  42  66 102 144 174 224 286 344 400
#     4  10  22  44  66  98 136 177 228 280 341 404
#     4   9  18  41  67  91 132 175 225 277 335 400
#     4   9  21  43  70  97 129 178 232 276 342 413
#     4  10  23  42  69 100 136 179 225 284 339 408
#
# _framework density 23.073816999999998
#
# number of rings (size 3 to 8) (size 9 to 14) (size 15 to 20)
#    0.000    2.222    1.111    0.000    3.111    2.667 
#    4.000    2.222    0.000    0.000    0.000    0.000 
#    0.000    0.000    0.000    0.000    0.000    0.000 
#
# Total GULP energy -223016.007988 kJ/mol
# GULP energy per Si atom -12389.778222 kJ/mol
# Density = 2.302130 g / cm^3
# Si number density = 23.073817 Si / 1000 Ang^3
#
#
#
# Elastic Constant Matrix: (Units=GPa)
#
#
# Indices 1 2 3 4 5 6 
#
# 1 87.1491 66.9425 51.0838 -0.0021 -3.4791 0.0011
# 2 66.9425 207.7605 64.1950 -0.0001 3.0983 0.0002
# 3 51.0838 64.1950 88.7033 -0.0070 -12.9673 0.0036
# 4 -0.0021 -0.0001 -0.0070 27.4570 0.0022 19.7977
# 5 -3.4791 3.0983 -12.9673 0.0022 38.9513 -0.0012
# 6 0.0011 0.0002 0.0036 19.7977 -0.0012 40.7560
#
#
#
# Elastic Compliance Matrix: (Units=1/GPa)
#
#
# Indices 1 2 3 4 5 6 
#
# 1 0.019200 -0.003499 -0.008655 -0.000001 -0.000888 0.000001
# 2 -0.003499 0.007003 -0.003343 -0.000002 -0.001982 0.000001
# 3 -0.008655 -0.003343 0.019555 0.000007 0.006003 -0.000005
# 4 -0.000001 -0.000002 0.000007 0.056054 -0.000002 -0.027229
# 5 -0.000888 -0.001982 0.006003 -0.000002 0.027750 0.000001
# 6 0.000001 0.000001 -0.000005 -0.027229 0.000001 0.037763
#
#
# Mechanical properties :
#
#
# Convention : Reuss Voigt Hill
#
# Bulk Modulus (GPa) = 67.73089 83.11727 75.42408
# Shear Modulus (GPa) = 24.60159 34.85896 29.73028
#
# Velocity S-wave (km/s) = 3.26883 3.89106 3.59344
# Velocity P-wave (km/s) = 6.60793 7.50251 7.06939
#
# Compressibility (1/GPa) = 0.01476431
#
# Stress axis : x y z
#
# Youngs Moduli (GPa) = 52.08346 142.79329 51.13878
#
# Poissons Ratio (x) = 0.49963 0.44259
# Poissons Ratio (y) = 0.18224 0.17096
# Poissons Ratio (z) = 0.45077 0.47735
#
# Static dielectric constant tensor:
#      x y z
#    x 4.099360 0.000000 0.503120 
#    y 0.000000 4.697280 0.000000 
#    z 0.503120 0.000000 3.904860 
# 
# 
# High freq. dielectric constant tensor:
#      x y z
#    x 1.893230 0.000000 0.029030 
#    y 0.000000 1.936990 0.000000 
#    z 0.029030 0.000000 1.894300 
# 
# From -- ./inp_files/114342.got.cif
#   From: 2010.06.25/outbox.cif.g09.slc.cpg/sg15_58_cif.got.tgz:114342.got - 2010.06.28 07:06:18.
