data_PCOD8147872
_publ_section_title
;
Structure prediction by ZEFSAII (Michael W. Deem and Ramdas Pophale) SiO2 
 PCOD8147872
Probable space group: C 2/C
;
_chemical_formula_sum "Si O2"
_cell_formula_units_Z 52
_cell_length_a 8.918733
_cell_length_b 28.808502
_cell_length_c 15.412448
_cell_angle_alpha 90.000000
_cell_angle_beta 34.724625
_cell_angle_gamma 90.000000
_cell_volume 2255.747399
_symmetry_space_group_name_H-M "C 2/C"
_symmetry_group_IT_number 15
_symmetry_cell_setting 'monoclinic'
loop_
_space_group_symop_operation_xyz
x,y,z
-x,y,1/2-z
-x,-y,-z
x,-y,1/2+z
1/2+x,1/2+y,z
1/2-x,1/2+y,1/2-z
1/2-x,1/2-y,-z
1/2+x,1/2-y,1/2+z
loop_
_atom_site_type_symbol
_atom_site_label
_atom_site_fract_x
_atom_site_fract_y
_atom_site_fract_z
Si Si1 0.892617 0.047876 0.588057
Si Si2 0.069602 0.426748 0.080389
Si Si3 0.034243 0.255467 0.328582
Si Si4 0.229343 0.840850 0.209705
Si Si5 0.727055 0.156968 0.263356
Si Si6 0.686474 0.633271 0.472245
Si Si7 0.000000 0.083306 0.250000
O O1 0.690836 0.042574 0.767616
O O2 0.745200 0.076871 0.583147
O O3 0.154494 0.077001 0.488453
O O4 0.000000 0.000000 0.500000
O O5 0.975074 0.376548 0.088783
O O6 0.261856 0.446489 0.910230
O O7 0.175144 0.287860 0.333571
O O8 0.190050 0.207244 0.241900
O O9 0.000000 0.278585 0.250000
O O10 0.750000 0.250000 0.500000
O O11 0.000000 0.851248 0.250000
O O12 0.094965 0.847015 0.367126
O O13 0.416357 0.148113 0.431382
O O14 0.753188 0.155011 0.148454
O O15 0.896536 0.115932 0.222756
#
# Coordination Sequence:
#
# PCOD8147872 Si02
#       7
#     8   8   8   8   8   8   4
#     4  10  22  45  74 104 130 177 234 292 351 432
#     4  10  23  41  73  97 137 179 227 277 356 424
#     4  12  27  41  63  96 139 185 243 292 345 410
#     4  11  25  43  68  97 138 188 235 293 351 411
#     4  11  23  39  65  98 139 187 235 287 350 414
#     4  10  23  42  68  96 136 180 237 281 360 428
#     4  12  20  42  66  98 140 186 226 280 346 424
#
# _framework density 23.052226999999998
#
# number of rings (size 3 to 8) (size 9 to 14) (size 15 to 20)
#    0.000    1.231    2.308    2.769    8.615    3.077 
#    0.000    0.769    6.769    0.000    0.000    0.000 
#    0.000    0.000    0.000    0.000    0.000    0.000 
#
# Total GULP energy -322092.636066 kJ/mol
# GULP energy per Si atom -12388.178310 kJ/mol
# Density = 2.299976 g / cm^3
# Si number density = 23.052227 Si / 1000 Ang^3
#
#
#
# Elastic Constant Matrix: (Units=GPa)
#
#
# Indices 1 2 3 4 5 6 
#
# 1 106.2798 31.9105 17.6788 0.0000 -14.4046 0.0000
# 2 31.9105 102.4220 36.4744 0.0000 -15.7767 0.0000
# 3 17.6788 36.4744 152.3707 0.0000 -6.5035 0.0000
# 4 0.0000 0.0000 0.0000 22.5715 0.0000 -7.5866
# 5 -14.4046 -15.7767 -6.5035 0.0000 31.0746 0.0000
# 6 0.0000 0.0000 0.0000 -7.5866 0.0000 20.6967
#
#
#
# Elastic Compliance Matrix: (Units=1/GPa)
#
#
# Indices 1 2 3 4 5 6 
#
# 1 0.010760 -0.002640 -0.000465 0.000000 0.003550 0.000000
# 2 -0.002640 0.012125 -0.002407 0.000000 0.004429 0.000000
# 3 -0.000465 -0.002407 0.007196 0.000000 0.000068 0.000000
# 4 0.000000 0.000000 0.000000 0.050529 0.000000 0.018522
# 5 0.003550 0.004429 0.000068 0.000000 0.036089 0.000000
# 6 0.000000 0.000000 0.000000 0.018522 0.000000 0.055106
#
#
# Mechanical properties :
#
#
# Convention : Reuss Voigt Hill
#
# Bulk Modulus (GPa) = 52.47312 59.24443 55.85878
# Shear Modulus (GPa) = 26.42944 33.20250 29.81597
#
# Velocity S-wave (km/s) = 3.38968 3.79927 3.60030
# Velocity P-wave (km/s) = 6.17511 6.70834 6.44724
#
# Compressibility (1/GPa) = 0.01905738
#
# Stress axis : x y z
#
# Youngs Moduli (GPa) = 92.93400 82.47090 138.96508
#
# Poissons Ratio (x) = 0.21772 0.06461
# Poissons Ratio (y) = 0.24535 0.33453
# Poissons Ratio (z) = 0.04321 0.19853
#
# Static dielectric constant tensor:
#      x y z
#    x 4.263650 0.000000 -0.422550 
#    y 0.000000 0.429170 0.000000 
#    z -0.422550 0.000000 4.902460 
# 
# 
# High freq. dielectric constant tensor:
#      x y z
#    x 1.912500 0.000000 -0.004960 
#    y 0.000000 1.868410 0.000000 
#    z -0.004960 0.000000 1.944360 
# 
# From -- ./inp_files/139734.got.cif
#   From: 2010.06.25/outbox.cif.g09.slc.cpg/sg15_70_cif.got.tgz:139734.got - 2010.06.28 07:06:18.
