data_PCOD8147650
_publ_section_title
;
Structure prediction by ZEFSAII (Michael W. Deem and Ramdas Pophale) SiO2 
 PCOD8147650
Probable space group: C 2/C
;
_chemical_formula_sum "Si O2"
_cell_formula_units_Z 40
_cell_length_a 11.172191
_cell_length_b 30.858250
_cell_length_c 5.573114
_cell_angle_alpha 90.000000
_cell_angle_beta 105.243218
_cell_angle_gamma 90.000000
_cell_volume 1853.758572
_symmetry_space_group_name_H-M "C 2/C"
_symmetry_group_IT_number 15
_symmetry_cell_setting 'monoclinic'
loop_
_space_group_symop_operation_xyz
x,y,z
-x,y,1/2-z
-x,-y,-z
x,-y,1/2+z
1/2+x,1/2+y,z
1/2-x,1/2+y,1/2-z
1/2-x,1/2-y,-z
1/2+x,1/2-y,1/2+z
loop_
_atom_site_type_symbol
_atom_site_label
_atom_site_fract_x
_atom_site_fract_y
_atom_site_fract_z
Si Si1 0.665968 0.683351 0.211447
Si Si2 0.500000 0.643151 0.750000
Si Si3 0.738195 0.615755 0.633705
Si Si4 0.000000 0.746144 0.750000
Si Si5 0.355238 0.024046 0.668362
Si Si6 0.898555 0.675968 0.030517
O O1 0.703654 0.640450 0.373498
O O2 0.624596 0.724309 0.353162
O O3 0.781400 0.696281 0.106661
O O4 0.541895 0.673519 0.991740
O O5 0.617553 0.613549 0.741091
O O6 0.777491 0.567533 0.594038
O O7 0.852755 0.641230 0.813132
O O8 0.022809 0.715814 0.534189
O O9 0.500000 0.034852 0.750000
O O10 0.320090 0.996781 0.409403
O O11 0.000000 0.651352 0.250000
#
# Coordination Sequence:
#
# PCOD8147650 Si02
#       6
#     8   4   8   4   8   8
#     4  11  24  44  68  92 140 184 235 287 345 413
#     4  10  22  44  68  99 126 194 225 284 340 418
#     4  11  24  45  72  98 139 180 231 282 353 420
#     4  12  24  44  60  99 136 180 243 288 342 402
#     4  10  25  46  75 110 144 180 225 293 359 433
#     4  11  27  39  65  99 133 185 232 290 346 414
#
# _framework density 21.577781000000002
#
# number of rings (size 3 to 8) (size 9 to 14) (size 15 to 20)
#    0.000    1.200    2.000    1.800   11.200    4.000 
#    0.000    1.000    0.000    0.000    0.000    0.000 
#    0.000    0.000    0.000    0.000    0.000    0.000 
#
# Total GULP energy -247942.556953 kJ/mol
# GULP energy per Si atom -12397.127848 kJ/mol
# Density = 2.152867 g / cm^3
# Si number density = 21.577781 Si / 1000 Ang^3
#
#
#
# Elastic Constant Matrix: (Units=GPa)
#
#
# Indices 1 2 3 4 5 6 
#
# 1 84.5684 59.0707 47.5128 0.0000 0.4600 0.0000
# 2 59.0707 125.3692 59.9577 0.0000 -2.5668 0.0000
# 3 47.5128 59.9577 146.8616 0.0000 9.7703 0.0000
# 4 0.0000 0.0000 0.0000 16.7383 0.0000 2.5051
# 5 0.4600 -2.5668 9.7703 0.0000 43.2609 0.0000
# 6 0.0000 0.0000 0.0000 2.5051 0.0000 24.2494
#
#
#
# Elastic Compliance Matrix: (Units=1/GPa)
#
#
# Indices 1 2 3 4 5 6 
#
# 1 0.018658 -0.007333 -0.003046 0.000000 0.000054 0.000000
# 2 -0.007333 0.012894 -0.002993 0.000000 0.001519 0.000000
# 3 -0.003046 -0.002993 0.009164 0.000000 -0.002215 0.000000
# 4 0.000000 0.000000 0.000000 0.060682 0.000000 -0.006269
# 5 0.000054 0.001519 -0.002215 0.000000 0.023705 0.000000
# 6 0.000000 0.000000 0.000000 -0.006269 0.000000 0.041886
#
#
# Mechanical properties :
#
#
# Convention : Reuss Voigt Hill
#
# Bulk Modulus (GPa) = 71.57268 76.65351 74.11310
# Shear Modulus (GPa) = 25.20293 29.53359 27.36826
#
# Velocity S-wave (km/s) = 3.42131 3.70361 3.56526
# Velocity P-wave (km/s) = 6.98919 7.34101 7.16726
#
# Compressibility (1/GPa) = 0.01397181
#
# Stress axis : x y z
#
# Youngs Moduli (GPa) = 53.59609 77.55506 109.12609
#
# Poissons Ratio (x) = 0.56874 0.33240
# Poissons Ratio (y) = 0.39304 0.32658
# Poissons Ratio (z) = 0.16325 0.23210
#
# Static dielectric constant tensor:
#      x y z
#    x 4.185310 0.000000 -0.130630 
#    y 0.000000 3.578140 0.000000 
#    z -0.130630 0.000000 4.029270 
# 
# 
# High freq. dielectric constant tensor:
#      x y z
#    x 1.869160 0.000000 -0.008890 
#    y 0.000000 1.819430 0.000000 
#    z -0.008890 0.000000 1.855490 
# 
# From -- ./inp_files/5951.got.cif
#   From: 2010.06.25/outbox.cif.g09.slc.cpg/sg15_3_cif.got.tgz:5951.got - 2010.06.28 07:06:18.
