data_PCOD8147918
_publ_section_title
;
Structure prediction by ZEFSAII (Michael W. Deem and Ramdas Pophale) SiO2 
 PCOD8147918
Probable space group: C 2/C
;
_chemical_formula_sum "Si O2"
_cell_formula_units_Z 36
_cell_length_a 8.652510
_cell_length_b 14.896186
_cell_length_c 18.067296
_cell_angle_alpha 90.000000
_cell_angle_beta 137.326064
_cell_angle_gamma 90.000000
_cell_volume 1578.440158
_symmetry_space_group_name_H-M "C 2/C"
_symmetry_group_IT_number 15
_symmetry_cell_setting 'monoclinic'
loop_
_space_group_symop_operation_xyz
x,y,z
-x,y,1/2-z
-x,-y,-z
x,-y,1/2+z
1/2+x,1/2+y,z
1/2-x,1/2+y,1/2-z
1/2-x,1/2-y,-z
1/2+x,1/2-y,1/2+z
loop_
_atom_site_type_symbol
_atom_site_label
_atom_site_fract_x
_atom_site_fract_y
_atom_site_fract_z
Si Si1 0.143735 0.342946 0.491245
Si Si2 0.500000 0.098357 0.250000
Si Si3 0.438855 0.456193 0.841550
Si Si4 0.844738 0.319292 0.836041
Si Si5 0.831203 0.853297 0.250493
O O1 0.250000 0.250000 0.500000
O O2 0.321829 0.423968 0.539749
O O3 0.068928 0.334622 0.550729
O O4 0.918968 0.372959 0.369240
O O5 0.267173 0.040060 0.170945
O O6 0.471610 0.154674 0.163296
O O7 0.378944 0.381061 0.757658
O O8 0.461542 0.555436 0.817524
O O9 0.793833 0.213440 0.806673
O O10 0.000000 0.807017 0.250000
#
# Coordination Sequence:
#
# PCOD8147918 Si02
#       5
#     8   4   8   8   8
#     4  12  25  45  78 102 139 199 234 283 371 418
#     4   8  20  44  68  94 146 182 216 310 342 390
#     4  10  23  45  69 102 146 176 242 290 340 429
#     4  10  22  46  69 100 148 181 233 299 338 428
#     4  12  25  44  73 105 141 187 237 295 358 411
#
# _framework density 22.807326
#
# number of rings (size 3 to 8) (size 9 to 14) (size 15 to 20)
#    1.333    0.000    3.333    2.000    0.000    6.222 
#    0.000    2.222    0.000    0.000    0.000    0.000 
#    0.000    0.000    0.000    0.000    0.000    0.000 
#
# Total GULP energy -223015.667016 kJ/mol
# GULP energy per Si atom -12389.759279 kJ/mol
# Density = 2.275542 g / cm^3
# Si number density = 22.807326 Si / 1000 Ang^3
#
#
#
# Elastic Constant Matrix: (Units=GPa)
#
#
# Indices 1 2 3 4 5 6 
#
# 1 112.9316 -6.2117 15.4117 -0.0003 -0.8634 0.0000
# 2 -6.2117 104.1877 -1.9586 -0.0005 4.6347 0.0000
# 3 15.4117 -1.9586 58.6163 -0.0016 19.7171 0.0000
# 4 -0.0003 -0.0005 -0.0016 28.6826 -0.0002 7.4956
# 5 -0.8634 4.6347 19.7171 -0.0002 38.7629 0.0000
# 6 0.0000 0.0000 0.0000 7.4956 0.0000 24.3564
#
#
#
# Elastic Compliance Matrix: (Units=1/GPa)
#
#
# Indices 1 2 3 4 5 6 
#
# 1 0.009300 0.000423 -0.002996 0.000000 0.001681 0.000000
# 2 0.000423 0.009704 0.000724 0.000000 -0.001519 0.000000
# 3 -0.002996 0.000724 0.021623 0.000001 -0.011152 0.000000
# 4 0.000000 0.000000 0.000001 0.037913 0.000000 -0.011668
# 5 0.001681 -0.001519 -0.011152 0.000000 0.031690 0.000000
# 6 0.000000 0.000000 0.000000 -0.011668 0.000000 0.044648
#
#
# Mechanical properties :
#
#
# Convention : Reuss Voigt Hill
#
# Bulk Modulus (GPa) = 27.07837 32.24648 29.66243
# Shear Modulus (GPa) = 29.25913 36.25997 32.75955
#
# Velocity S-wave (km/s) = 3.58562 3.99160 3.79405
# Velocity P-wave (km/s) = 5.38894 5.95090 5.67688
#
# Compressibility (1/GPa) = 0.03692984
#
# Stress axis : x y z
#
# Youngs Moduli (GPa) = 107.52721 103.04504 46.24602
#
# Poissons Ratio (x) = -0.04363 0.13857
# Poissons Ratio (y) = -0.04552 -0.03348
# Poissons Ratio (z) = 0.32219 -0.07460
#
# Static dielectric constant tensor:
#      x y z
#    x 4.071790 0.000000 0.004850 
#    y 0.000000 3.918850 0.000000 
#    z 0.004850 0.000000 3.704330 
# 
# 
# High freq. dielectric constant tensor:
#      x y z
#    x 1.914500 0.000000 0.003670 
#    y 0.000000 1.898170 0.000000 
#    z 0.003670 0.000000 1.868650 
# 
# From -- ./inp_files/190753.got.cif
#   From: 2010.06.25/outbox.cif.g09.slc.cpg/sg15_96_cif.got.tgz:190753.got - 2010.06.28 07:06:18.
