data_PCOD8147587
_publ_section_title
;
Structure prediction by ZEFSAII (Michael W. Deem and Ramdas Pophale) SiO2 
 PCOD8147587
Probable space group: C 2/C
;
_chemical_formula_sum "Si O2"
_cell_formula_units_Z 40
_cell_length_a 8.626034
_cell_length_b 20.477804
_cell_length_c 13.447678
_cell_angle_alpha 90.000000
_cell_angle_beta 52.248880
_cell_angle_gamma 90.000000
_cell_volume 1878.197628
_symmetry_space_group_name_H-M "C 2/C"
_symmetry_group_IT_number 15
_symmetry_cell_setting 'monoclinic'
loop_
_space_group_symop_operation_xyz
x,y,z
-x,y,1/2-z
-x,-y,-z
x,-y,1/2+z
1/2+x,1/2+y,z
1/2-x,1/2+y,1/2-z
1/2-x,1/2-y,-z
1/2+x,1/2-y,1/2+z
loop_
_atom_site_type_symbol
_atom_site_label
_atom_site_fract_x
_atom_site_fract_y
_atom_site_fract_z
Si Si1 0.616048 0.090277 0.477500
Si Si2 0.027370 0.048531 0.399334
Si Si3 0.906603 0.500727 0.683066
Si Si4 0.806241 0.812194 0.604862
Si Si5 0.444456 0.214956 0.112551
O O1 0.475167 0.074620 0.627538
O O2 0.629954 0.165815 0.444074
O O3 0.831542 0.063962 0.417427
O O4 0.511837 0.051234 0.428546
O O5 0.131684 0.115337 0.391120
O O6 0.172710 0.007673 0.271575
O O7 0.000000 0.000000 0.500000
O O8 0.000000 0.479921 0.750000
O O9 0.727972 0.774224 0.736447
O O10 0.631923 0.815399 0.593842
O O11 0.992687 0.778516 0.476237
#
# Coordination Sequence:
#
# PCOD8147587 Si02
#       5
#     8   8   8   8   8
#     4  11  24  39  67  95 128 179 212 268 332 388
#     4  12  24  40  65  99 132 171 216 266 332 388
#     4  11  22  41  62  93 134 170 210 269 324 394
#     4  10  23  42  67  92 129 173 217 273 320 395
#     4  10  22  44  67  91 127 174 223 264 328 388
#
# _framework density 21.297013
#
# number of rings (size 3 to 8) (size 9 to 14) (size 15 to 20)
#    0.000    1.200    4.000    1.800    2.800    2.400 
#    0.000    0.000    0.000    0.000    0.000    0.000 
#    0.000    0.000    0.000    0.000    0.000    0.000 
#
# Total GULP energy -247783.446813 kJ/mol
# GULP energy per Si atom -12389.172341 kJ/mol
# Density = 2.124854 g / cm^3
# Si number density = 21.297013 Si / 1000 Ang^3
#
#
#
# Elastic Constant Matrix: (Units=GPa)
#
#
# Indices 1 2 3 4 5 6 
#
# 1 92.0652 26.6477 35.8312 0.0000 3.8396 0.0000
# 2 26.6477 52.0775 59.1903 0.0000 -4.8438 0.0000
# 3 35.8312 59.1903 146.2041 0.0000 -12.9059 0.0000
# 4 0.0000 0.0000 0.0000 36.1759 0.0000 -1.4599
# 5 3.8396 -4.8438 -12.9059 0.0000 23.2020 0.0000
# 6 0.0000 0.0000 0.0000 -1.4599 0.0000 31.5723
#
#
#
# Elastic Compliance Matrix: (Units=1/GPa)
#
#
# Indices 1 2 3 4 5 6 
#
# 1 0.013172 -0.005633 -0.001308 0.000000 -0.004083 0.000000
# 2 -0.005633 0.037986 -0.013898 0.000000 0.001132 0.000000
# 3 -0.001308 -0.013898 0.013198 0.000000 0.004656 0.000000
# 4 0.000000 0.000000 0.000000 0.027694 0.000000 0.001281
# 5 -0.004083 0.001132 0.004656 0.000000 0.046602 0.000000
# 6 0.000000 0.000000 0.000000 0.001281 0.000000 0.031733
#
#
# Mechanical properties :
#
#
# Convention : Reuss Voigt Hill
#
# Bulk Modulus (GPa) = 44.09662 59.29834 51.69748
# Shear Modulus (GPa) = 22.76637 29.43519 26.10078
#
# Velocity S-wave (km/s) = 3.27309 3.72173 3.50460
# Velocity P-wave (km/s) = 5.91901 6.80972 6.37993
#
# Compressibility (1/GPa) = 0.02267748
#
# Stress axis : x y z
#
# Youngs Moduli (GPa) = 75.92052 26.32532 75.76914
#
# Poissons Ratio (x) = 0.14829 0.09911
# Poissons Ratio (y) = 0.42766 1.05306
# Poissons Ratio (z) = 0.09930 0.36587
#
# Static dielectric constant tensor:
#      x y z
#    x 3.816820 0.000000 -0.206030 
#    y 0.000000 3.674930 0.000000 
#    z -0.206030 0.000000 4.540810 
# 
# 
# High freq. dielectric constant tensor:
#      x y z
#    x 1.836510 0.000000 0.007350 
#    y 0.000000 1.809950 0.000000 
#    z 0.007350 0.000000 1.852410 
# 
# From -- ./inp_files/76680.got.cif
#   From: 2010.06.25/outbox.cif.g09.slc.cpg/sg15_39_cif.got.tgz:76680.got - 2010.06.28 07:06:18.
