data_PCOD8147084
_publ_section_title
;
Structure prediction by ZEFSAII (Michael W. Deem and Ramdas Pophale) SiO2 
 PCOD8147084
Probable space group: C 2/C
;
_chemical_formula_sum "Si O2"
_cell_formula_units_Z 44
_cell_length_a 16.298537
_cell_length_b 7.645665
_cell_length_c 17.087682
_cell_angle_alpha 90.000000
_cell_angle_beta 73.041219
_cell_angle_gamma 90.000000
_cell_volume 2036.754830
_symmetry_space_group_name_H-M "C 2/C"
_symmetry_group_IT_number 15
_symmetry_cell_setting 'monoclinic'
loop_
_space_group_symop_operation_xyz
x,y,z
-x,y,1/2-z
-x,-y,-z
x,-y,1/2+z
1/2+x,1/2+y,z
1/2-x,1/2+y,1/2-z
1/2-x,1/2-y,-z
1/2+x,1/2-y,1/2+z
loop_
_atom_site_type_symbol
_atom_site_label
_atom_site_fract_x
_atom_site_fract_y
_atom_site_fract_z
Si Si1 0.096116 0.451051 0.997157
Si Si2 0.133562 0.237861 0.597062
Si Si3 0.215867 0.608562 0.841809
Si Si4 0.403199 0.555730 0.514029
Si Si5 0.500000 0.395878 0.250000
Si Si6 0.851221 0.950891 0.693018
O O1 0.160105 0.471817 0.906344
O O2 0.100971 0.249075 0.022601
O O3 0.129559 0.573362 0.057780
O O4 0.000000 0.500000 0.000000
O O5 0.219085 0.224432 0.624289
O O6 0.048861 0.225032 0.674030
O O7 0.140217 0.081614 0.532314
O O8 0.149408 0.744214 0.822307
O O9 0.264201 0.503451 0.760977
O O10 0.500000 0.500000 0.500000
O O11 0.355961 0.557808 0.610716
O O12 0.566497 0.519072 0.276000
#
# Coordination Sequence:
#
# PCOD8147084 Si02
#       6
#     8   8   8   8   4   8
#     4  12  23  41  70  98 129 179 222 270 339 395
#     4  11  24  45  67 101 136 175 224 283 330 398
#     4  11  25  44  66 101 141 171 226 280 333 398
#     4  12  22  42  72  97 135 177 224 276 331 398
#     4  10  22  42  70  92 136 178 220 276 332 392
#     4  11  22  43  66  96 137 178 215 279 331 390
#
# _framework density 21.602993000000001
#
# number of rings (size 3 to 8) (size 9 to 14) (size 15 to 20)
#    0.000    0.727    5.455    1.636    0.000    2.182 
#    6.545    0.909    0.000    0.000    0.000    0.000 
#    0.000    0.000    0.000    0.000    0.000    0.000 
#
# Total GULP energy -272915.353830 kJ/mol
# GULP energy per Si atom -12405.243356 kJ/mol
# Density = 2.155382 g / cm^3
# Si number density = 21.602993 Si / 1000 Ang^3
#
#
#
# Elastic Constant Matrix: (Units=GPa)
#
#
# Indices 1 2 3 4 5 6 
#
# 1 63.1734 16.1350 34.0558 0.0000 -24.8410 0.0000
# 2 16.1350 147.7706 39.9167 0.0001 1.7524 0.0001
# 3 34.0558 39.9167 139.9661 0.0000 -21.2050 0.0000
# 4 0.0000 0.0001 0.0000 22.4472 0.0000 -0.7876
# 5 -24.8410 1.7524 -21.2050 0.0000 36.8535 0.0000
# 6 0.0000 0.0001 0.0000 -0.7876 0.0000 25.5646
#
#
#
# Elastic Compliance Matrix: (Units=1/GPa)
#
#
# Indices 1 2 3 4 5 6 
#
# 1 0.023543 -0.001922 -0.003026 0.000000 0.014219 0.000000
# 2 -0.001922 0.007588 -0.002133 0.000000 -0.002884 0.000000
# 3 -0.003026 -0.002133 0.008978 0.000000 0.003228 0.000000
# 4 0.000000 0.000000 0.000000 0.044597 0.000000 0.001374
# 5 0.014219 -0.002884 0.003228 0.000000 0.038713 0.000000
# 6 0.000000 0.000000 0.000000 0.001374 0.000000 0.039159
#
#
# Mechanical properties :
#
#
# Convention : Reuss Voigt Hill
#
# Bulk Modulus (GPa) = 38.54068 59.01390 48.77729
# Shear Modulus (GPa) = 26.97037 34.35991 30.66514
#
# Velocity S-wave (km/s) = 3.53718 3.99245 3.77169
# Velocity P-wave (km/s) = 5.87889 6.97350 6.44946
#
# Compressibility (1/GPa) = 0.02594661
#
# Stress axis : x y z
#
# Youngs Moduli (GPa) = 42.47571 131.79570 111.38094
#
# Poissons Ratio (x) = 0.25329 0.33704
# Poissons Ratio (y) = 0.08163 0.23759
# Poissons Ratio (z) = 0.12853 0.28114
#
# Static dielectric constant tensor:
#      x y z
#    x 3.966030 0.000000 -0.158050 
#    y 0.000000 3.919720 0.000000 
#    z -0.158050 0.000000 4.465180 
# 
# 
# High freq. dielectric constant tensor:
#      x y z
#    x 1.855930 0.000000 -0.014280 
#    y 0.000000 1.842450 0.000000 
#    z -0.014280 0.000000 1.862800 
# 
# From -- ./inp_files/159280.got.cif
#   From: 2010.06.25/outbox.cif.g09.slc.cpg/sg15_80_cif.got.tgz:159280.got - 2010.06.28 07:06:18.
