data_PCOD8147090
_publ_section_title
;
Structure prediction by ZEFSAII (Michael W. Deem and Ramdas Pophale) SiO2 
 PCOD8147090
Probable space group: C 2/C
;
_chemical_formula_sum "Si O2"
_cell_formula_units_Z 60
_cell_length_a 24.195772
_cell_length_b 20.498735
_cell_length_c 8.564030
_cell_angle_alpha 90.000000
_cell_angle_beta 140.751153
_cell_angle_gamma 90.000000
_cell_volume 2687.419843
_symmetry_space_group_name_H-M "C 2/C"
_symmetry_group_IT_number 15
_symmetry_cell_setting 'monoclinic'
loop_
_space_group_symop_operation_xyz
x,y,z
-x,y,1/2-z
-x,-y,-z
x,-y,1/2+z
1/2+x,1/2+y,z
1/2-x,1/2+y,1/2-z
1/2-x,1/2-y,-z
1/2+x,1/2-y,1/2+z
loop_
_atom_site_type_symbol
_atom_site_label
_atom_site_fract_x
_atom_site_fract_y
_atom_site_fract_z
Si Si1 0.564984 0.525960 0.015126
Si Si2 0.446873 0.735908 0.475334
Si Si3 0.164949 0.101499 0.651685
Si Si4 0.005950 0.381451 0.932000
Si Si5 0.805673 0.864878 0.616368
Si Si6 0.000000 0.811838 0.750000
Si Si7 0.329205 0.079490 0.169806
Si Si8 0.844292 0.441207 0.058997
O O1 0.630893 0.473314 0.082377
O O2 0.615202 0.585250 0.198146
O O3 0.500000 0.557947 0.750000
O O4 0.500000 0.500000 0.000000
O O5 0.442299 0.813702 0.477175
O O6 0.348225 0.705083 0.259619
O O7 0.484070 0.726259 0.378700
O O8 0.500000 0.711432 0.750000
O O9 0.220319 0.124841 0.621091
O O10 0.081016 0.145786 0.482750
O O11 0.234632 0.114573 0.944490
O O12 0.060176 0.428329 0.163194
O O13 0.000000 0.415920 0.750000
O O14 0.907456 0.374079 0.781513
O O15 0.723111 0.883974 0.539690
O O16 0.350658 0.059970 0.389789
O O17 0.315581 0.013473 0.041045
#
# Coordination Sequence:
#
# PCOD8147090 Si02
#       8
#     8   8   8   8   8   4   8   8
#     4  12  21  33  58  90 135 174 214 260 339 411
#     4  10  24  44  71  98 137 183 241 282 344 417
#     4  11  22  40  59 100 133 183 217 274 342 410
#     4  11  25  49  73  93 130 184 233 294 344 408
#     4  11  23  40  63 100 139 178 224 285 341 420
#     4  10  22  42  70  94 148 178 230 282 342 414
#     4  12  26  43  69 104 141 174 231 283 354 424
#     4  12  26  42  71 102 141 174 225 290 355 421
#
# _framework density 22.326246000000001
#
# number of rings (size 3 to 8) (size 9 to 14) (size 15 to 20)
#    0.000    0.800    3.333    4.400    5.600    0.533 
#    0.000    2.000    0.000    0.000    0.000    0.000 
#    0.000    0.000    0.000    0.000    0.000    0.000 
#
# Total GULP energy -371672.024457 kJ/mol
# GULP energy per Si atom -12389.067482 kJ/mol
# Density = 2.227543 g / cm^3
# Si number density = 22.326246 Si / 1000 Ang^3
#
#
#
# Elastic Constant Matrix: (Units=GPa)
#
#
# Indices 1 2 3 4 5 6 
#
# 1 96.4812 10.0946 36.4431 0.0000 -11.2305 0.0000
# 2 10.0946 50.7192 23.8464 0.0000 1.7689 0.0000
# 3 36.4431 23.8464 149.7790 0.0000 -9.7111 0.0000
# 4 0.0000 0.0000 0.0000 54.2580 0.0000 -20.7080
# 5 -11.2305 1.7689 -9.7111 0.0000 52.2298 0.0000
# 6 0.0000 0.0000 0.0000 -20.7080 0.0000 37.4227
#
#
#
# Elastic Compliance Matrix: (Units=1/GPa)
#
#
# Indices 1 2 3 4 5 6 
#
# 1 0.011684 -0.001216 -0.002514 0.000000 0.002086 0.000000
# 2 -0.001216 0.021535 -0.003236 0.000000 -0.001593 0.000000
# 3 -0.002514 -0.003236 0.007870 0.000000 0.001032 0.000000
# 4 0.000000 0.000000 0.000000 0.023365 0.000000 0.012929
# 5 0.002086 -0.001593 0.001032 0.000000 0.019841 0.000000
# 6 0.000000 0.000000 0.000000 0.012929 0.000000 0.033876
#
#
# Mechanical properties :
#
#
# Convention : Reuss Voigt Hill
#
# Bulk Modulus (GPa) = 36.82215 48.63862 42.73038
# Shear Modulus (GPa) = 35.42153 43.88845 39.65499
#
# Velocity S-wave (km/s) = 3.98746 4.43852 4.21902
# Velocity P-wave (km/s) = 6.14234 6.93541 6.55089
#
# Compressibility (1/GPa) = 0.02715757
#
# Stress axis : x y z
#
# Youngs Moduli (GPa) = 85.58408 46.43507 127.05922
#
# Poissons Ratio (x) = 0.05648 0.31944
# Poissons Ratio (y) = 0.10409 0.41116
# Poissons Ratio (z) = 0.21516 0.15026
#
# Static dielectric constant tensor:
#      x y z
#    x 4.096170 0.000000 -0.187050 
#    y 0.000000 4.229900 0.000000 
#    z -0.187050 0.000000 4.436810 
# 
# 
# High freq. dielectric constant tensor:
#      x y z
#    x 1.882150 0.000000 -0.007440 
#    y 0.000000 1.854100 0.000000 
#    z -0.007440 0.000000 1.905540 
# 
# From -- ./inp_files/63943.got.cif
#   From: 2010.06.25/outbox.cif.g09.slc.cpg/sg15_32_cif.got.tgz:63943.got - 2010.06.28 07:06:18.
