data_PCOD8147269
_publ_section_title
;
Structure prediction by ZEFSAII (Michael W. Deem and Ramdas Pophale) SiO2 
 PCOD8147269
Probable space group: C 2/C
;
_chemical_formula_sum "Si O2"
_cell_formula_units_Z 40
_cell_length_a 14.207250
_cell_length_b 17.838558
_cell_length_c 13.953665
_cell_angle_alpha 90.000000
_cell_angle_beta 30.316926
_cell_angle_gamma 90.000000
_cell_volume 1785.099748
_symmetry_space_group_name_H-M "C 2/C"
_symmetry_group_IT_number 15
_symmetry_cell_setting 'monoclinic'
loop_
_space_group_symop_operation_xyz
x,y,z
-x,y,1/2-z
-x,-y,-z
x,-y,1/2+z
1/2+x,1/2+y,z
1/2-x,1/2+y,1/2-z
1/2-x,1/2-y,-z
1/2+x,1/2-y,1/2+z
loop_
_atom_site_type_symbol
_atom_site_label
_atom_site_fract_x
_atom_site_fract_y
_atom_site_fract_z
Si Si1 0.672587 0.569078 0.299498
Si Si2 0.833484 0.988953 0.003652
Si Si3 0.000000 0.881642 0.250000
Si Si4 0.495330 0.834659 0.457435
Si Si5 0.000000 0.378265 0.250000
Si Si6 0.909334 0.182356 0.633462
O O1 0.704730 0.504659 0.350080
O O2 0.548421 0.542272 0.316690
O O3 0.570623 0.639819 0.436350
O O4 0.876871 0.591435 0.084832
O O5 0.682214 0.930613 0.099325
O O6 0.835316 0.064797 0.937750
O O7 0.928919 0.825187 0.230653
O O8 0.473094 0.821680 0.362810
O O9 0.709851 0.853262 0.286647
O O10 0.417702 0.767776 0.591078
#
# Coordination Sequence:
#
# PCOD8147269 Si02
#       6
#     8   8   4   8   4   8
#     4  10  22  45  69  94 143 173 215 284 333 394
#     4  10  22  43  66 104 134 175 222 274 338 400
#     4  10  24  44  70  96 138 176 226 278 334 402
#     4  12  25  44  68  97 138 178 225 277 329 402
#     4  12  26  40  70 106 128 184 226 266 346 396
#     4  11  24  46  65 102 134 181 224 275 338 391
#
# _framework density 22.407712
#
# number of rings (size 3 to 8) (size 9 to 14) (size 15 to 20)
#    0.000    1.200    4.000    1.200    2.800    2.400 
#    0.000    0.000    0.000    0.000    0.000    0.000 
#    0.000    0.000    0.000    0.000    0.000    0.000 
#
# Total GULP energy -247939.352059 kJ/mol
# GULP energy per Si atom -12396.967603 kJ/mol
# Density = 2.235671 g / cm^3
# Si number density = 22.407712 Si / 1000 Ang^3
#
#
#
# Elastic Constant Matrix: (Units=GPa)
#
#
# Indices 1 2 3 4 5 6 
#
# 1 159.2140 48.6689 39.5627 0.0143 11.0984 -0.0075
# 2 48.6689 75.0618 12.8019 0.0003 11.8754 0.0048
# 3 39.5627 12.8019 79.3589 0.0144 -0.9037 -0.0089
# 4 0.0143 0.0003 0.0144 21.3667 -0.0034 9.7851
# 5 11.0984 11.8754 -0.9037 -0.0034 28.0149 0.0035
# 6 -0.0075 0.0048 -0.0089 9.7851 0.0035 40.2483
#
#
#
# Elastic Compliance Matrix: (Units=1/GPa)
#
#
# Indices 1 2 3 4 5 6 
#
# 1 0.008758 -0.004819 -0.003606 -0.000005 -0.001543 0.000003
# 2 -0.004819 0.017393 -0.000466 0.000004 -0.005479 -0.000004
# 3 -0.003606 -0.000466 0.014498 -0.000009 0.002094 0.000005
# 4 -0.000005 0.000004 -0.000009 0.052666 0.000008 -0.012804
# 5 -0.001543 -0.005479 0.002094 0.000008 0.038696 -0.000004
# 6 0.000003 -0.000004 0.000005 -0.012804 -0.000004 0.027959
#
#
# Mechanical properties :
#
#
# Convention : Reuss Voigt Hill
#
# Bulk Modulus (GPa) = 43.73190 57.30019 50.51605
# Shear Modulus (GPa) = 26.97260 32.09941 29.53600
#
# Velocity S-wave (km/s) = 3.47323 3.78897 3.63453
# Velocity P-wave (km/s) = 5.97020 6.69095 6.34082
#
# Compressibility (1/GPa) = 0.02286660
#
# Stress axis : x y z
#
# Youngs Moduli (GPa) = 114.18654 57.49360 68.97652
#
# Poissons Ratio (x) = 0.27707 0.24873
# Poissons Ratio (y) = 0.55028 0.03212
# Poissons Ratio (z) = 0.41176 0.02678
#
# Static dielectric constant tensor:
#      x y z
#    x 4.282410 -0.000030 0.097730 
#    y -0.000030 3.750990 0.000070 
#    z 0.097730 0.000070 4.029420 
# 
# 
# High freq. dielectric constant tensor:
#      x y z
#    x 1.893200 -0.000010 0.007560 
#    y -0.000010 1.869070 0.000010 
#    z 0.007560 0.000010 1.888000 
# 
# From -- ./inp_files/56869.got.cif
#   From: 2010.06.25/outbox.cif.g09.slc.cpg/sg15_29_cif.got.tgz:56869.got - 2010.06.28 07:06:18.
