data_PCOD8147818
_publ_section_title
;
Structure prediction by ZEFSAII (Michael W. Deem and Ramdas Pophale) SiO2 
 PCOD8147818
Probable space group: C 2/C
;
_chemical_formula_sum "Si O2"
_cell_formula_units_Z 44
_cell_length_a 19.278619
_cell_length_b 7.026353
_cell_length_c 15.758770
_cell_angle_alpha 90.000000
_cell_angle_beta 64.221916
_cell_angle_gamma 90.000000
_cell_volume 1922.227446
_symmetry_space_group_name_H-M "C 2/C"
_symmetry_group_IT_number 15
_symmetry_cell_setting 'monoclinic'
loop_
_space_group_symop_operation_xyz
x,y,z
-x,y,1/2-z
-x,-y,-z
x,-y,1/2+z
1/2+x,1/2+y,z
1/2-x,1/2+y,1/2-z
1/2-x,1/2-y,-z
1/2+x,1/2-y,1/2+z
loop_
_atom_site_type_symbol
_atom_site_label
_atom_site_fract_x
_atom_site_fract_y
_atom_site_fract_z
Si Si1 0.461513 0.844864 0.640191
Si Si2 0.000000 0.036898 0.750000
Si Si3 0.152320 0.162187 0.126663
Si Si4 0.270663 0.117648 0.620822
Si Si5 0.409744 0.897178 0.486313
Si Si6 0.301067 0.010967 0.288465
O O1 0.500548 0.664812 0.664708
O O2 0.441683 0.792716 0.553387
O O3 0.386033 0.900978 0.733017
O O4 0.521133 0.021908 0.608429
O O5 0.926412 0.901158 0.787211
O O6 0.209610 0.983183 0.090841
O O7 0.137931 0.240103 0.039754
O O8 0.194464 0.320907 0.159844
O O9 0.356624 0.077151 0.541381
O O10 0.260534 0.034265 0.720934
O O11 0.253216 0.341985 0.631530
#
# Coordination Sequence:
#
# PCOD8147818 Si02
#       6
#     8   4   8   8   8   8
#     4  10  22  45  68  97 134 179 221 278 329 403
#     4  12  24  42  72 100 130 182 234 262 336 408
#     4  12  24  41  67 102 132 181 221 279 331 403
#     4  11  23  43  67 101 129 181 222 282 332 395
#     4  10  24  43  67 101 141 169 223 283 347 384
#     4  11  22  44  72  93 138 176 233 270 328 403
#
# _framework density 22.89011
#
# number of rings (size 3 to 8) (size 9 to 14) (size 15 to 20)
#    0.000    1.091    3.636    2.727    0.000    1.455 
#    3.273    0.000    0.000    0.000    0.000    0.000 
#    0.000    0.000    0.000    0.000    0.000    0.000 
#
# Total GULP energy -272937.303759 kJ/mol
# GULP energy per Si atom -12406.241080 kJ/mol
# Density = 2.283801 g / cm^3
# Si number density = 22.890110 Si / 1000 Ang^3
#
#
#
# Elastic Constant Matrix: (Units=GPa)
#
#
# Indices 1 2 3 4 5 6 
#
# 1 98.8422 26.3341 23.4018 0.0000 10.5266 0.0000
# 2 26.3341 84.5620 21.4299 0.0000 9.7900 -0.0002
# 3 23.4018 21.4299 66.8767 0.0000 9.8283 0.0000
# 4 0.0000 0.0000 0.0000 32.6712 0.0000 -2.0629
# 5 10.5266 9.7900 9.8283 0.0000 39.3305 0.0001
# 6 0.0000 -0.0002 0.0000 -2.0629 0.0001 38.6530
#
#
#
# Elastic Compliance Matrix: (Units=1/GPa)
#
#
# Indices 1 2 3 4 5 6 
#
# 1 0.011726 -0.002695 -0.002986 0.000000 -0.001721 0.000000
# 2 -0.002695 0.013686 -0.003164 0.000000 -0.001895 0.000000
# 3 -0.002986 -0.003164 0.017418 0.000000 -0.002766 0.000000
# 4 0.000000 0.000000 0.000000 0.030711 0.000000 0.001639
# 5 -0.001721 -0.001895 -0.002766 0.000000 0.027049 0.000000
# 6 0.000000 0.000000 0.000000 0.001639 0.000000 0.025959
#
#
# Mechanical properties :
#
#
# Convention : Reuss Voigt Hill
#
# Bulk Modulus (GPa) = 39.77979 43.62361 41.70170
# Shear Modulus (GPa) = 32.76102 34.07195 33.41649
#
# Velocity S-wave (km/s) = 3.78727 3.86230 3.82496
# Velocity P-wave (km/s) = 6.04490 6.24412 6.14532
#
# Compressibility (1/GPa) = 0.02513839
#
# Stress axis : x y z
#
# Youngs Moduli (GPa) = 85.28316 73.06615 57.41114
#
# Poissons Ratio (x) = 0.19695 0.17145
# Poissons Ratio (y) = 0.22988 0.18165
# Poissons Ratio (z) = 0.25469 0.23118
#
# Static dielectric constant tensor:
#      x y z
#    x 4.328280 0.000000 0.088900 
#    y 0.000000 3.955040 0.000000 
#    z 0.088900 0.000000 3.952000 
# 
# 
# High freq. dielectric constant tensor:
#      x y z
#    x 1.923090 0.000000 0.004690 
#    y 0.000000 1.892410 0.000000 
#    z 0.004690 0.000000 1.896320 
# 
# From -- ./inp_files/212832.got.cif
#   From: 2010.06.25/outbox.cif.g09.slc.cpg/sg15_107_cif.got.tgz:212832.got - 2010.06.28 07:06:18.
