data_PCOD8147937
_publ_section_title
;
Structure prediction by ZEFSAII (Michael W. Deem and Ramdas Pophale) SiO2 
 PCOD8147937
Probable space group: C 2/C
;
_chemical_formula_sum "Si O2"
_cell_formula_units_Z 56
_cell_length_a 14.559878
_cell_length_b 12.757451
_cell_length_c 21.412359
_cell_angle_alpha 90.000000
_cell_angle_beta 140.745513
_cell_angle_gamma 90.000000
_cell_volume 2516.687413
_symmetry_space_group_name_H-M "C 2/C"
_symmetry_group_IT_number 15
_symmetry_cell_setting 'monoclinic'
loop_
_space_group_symop_operation_xyz
x,y,z
-x,y,1/2-z
-x,-y,-z
x,-y,1/2+z
1/2+x,1/2+y,z
1/2-x,1/2+y,1/2-z
1/2-x,1/2-y,-z
1/2+x,1/2-y,1/2+z
loop_
_atom_site_type_symbol
_atom_site_label
_atom_site_fract_x
_atom_site_fract_y
_atom_site_fract_z
Si Si1 0.036326 0.485497 0.887409
Si Si2 0.699485 0.167462 0.266133
Si Si3 0.329485 0.574533 0.561374
Si Si4 0.500000 0.300306 0.250000
Si Si5 0.267877 0.854161 0.966735
Si Si6 0.545127 0.614212 0.005234
Si Si7 0.000000 0.408345 0.250000
Si Si8 0.247556 0.234975 0.661176
O O1 0.083565 0.516992 0.841952
O O2 0.873170 0.439471 0.801514
O O3 0.155900 0.397564 0.969845
O O4 0.067848 0.593757 0.943599
O O5 0.577115 0.229152 0.239217
O O6 0.830970 0.147358 0.381472
O O7 0.756788 0.231579 0.237571
O O8 0.388878 0.624514 0.655780
O O9 0.343874 0.446261 0.569838
O O10 0.405238 0.621397 0.540319
O O11 0.228862 0.830228 0.874560
O O12 0.250000 0.750000 0.000000
O O13 0.500000 0.500000 0.000000
O O14 0.406759 0.688161 0.939603
O O15 0.880360 0.344150 0.224593
#
# Coordination Sequence:
#
# PCOD8147937 Si02
#       8
#     8   8   8   4   8   8   4   8
#     4  10  23  45  73 104 144 197 243 293 371 444
#     4  12  28  44  77 109 147 200 245 302 375 442
#     4  10  24  44  75 103 145 196 242 301 367 446
#     4  12  25  49  72 108 156 200 239 301 386 436
#     4  10  22  46  71 103 146 196 244 308 373 428
#     4  12  25  46  71 107 149 186 253 302 360 450
#     4  12  23  47  74 100 144 196 245 297 376 450
#     4  12  27  46  73 112 144 191 249 309 373 442
#
# _framework density 22.251472
#
# number of rings (size 3 to 8) (size 9 to 14) (size 15 to 20)
#    0.857    0.000    2.857    4.714    4.000    4.571 
#    2.571    0.000    0.000    0.000    0.000    0.000 
#    0.000    0.000    0.000    0.000    0.000    0.000 
#
# Total GULP energy -346930.152502 kJ/mol
# GULP energy per Si atom -12390.362589 kJ/mol
# Density = 2.220083 g / cm^3
# Si number density = 22.251472 Si / 1000 Ang^3
#
#
#
# Elastic Constant Matrix: (Units=GPa)
#
#
# Indices 1 2 3 4 5 6 
#
# 1 93.8590 25.3140 44.9865 0.0000 -6.8486 0.0000
# 2 25.3140 90.1535 48.4289 0.0000 3.9418 0.0000
# 3 44.9865 48.4289 150.7536 0.0000 -7.2339 0.0000
# 4 0.0000 0.0000 0.0000 38.6429 0.0000 0.0321
# 5 -6.8486 3.9418 -7.2339 0.0000 39.3742 0.0000
# 6 0.0000 0.0000 0.0000 0.0321 0.0000 35.6887
#
#
#
# Elastic Compliance Matrix: (Units=1/GPa)
#
#
# Indices 1 2 3 4 5 6 
#
# 1 0.012814 -0.002023 -0.003085 0.000000 0.001865 0.000000
# 2 -0.002023 0.013908 -0.003983 0.000000 -0.002476 0.000000
# 3 -0.003085 -0.003983 0.008905 0.000000 0.001498 0.000000
# 4 0.000000 0.000000 0.000000 0.025878 0.000000 -0.000023
# 5 0.001865 -0.002476 0.001498 0.000000 0.026245 0.000000
# 6 0.000000 0.000000 0.000000 -0.000023 0.000000 0.028020
#
#
# Mechanical properties :
#
#
# Convention : Reuss Voigt Hill
#
# Bulk Modulus (GPa) = 57.31708 63.58054 60.44881
# Shear Modulus (GPa) = 35.77382 37.14361 36.45871
#
# Velocity S-wave (km/s) = 4.01397 4.09010 4.05221
# Velocity P-wave (km/s) = 6.87730 7.13729 7.00850
#
# Compressibility (1/GPa) = 0.01744681
#
# Stress axis : x y z
#
# Youngs Moduli (GPa) = 78.03766 71.90087 112.29251
#
# Poissons Ratio (x) = 0.14543 0.34639
# Poissons Ratio (y) = 0.15784 0.44728
# Poissons Ratio (z) = 0.24072 0.28639
#
# Static dielectric constant tensor:
#      x y z
#    x 3.826410 0.000000 -0.079620 
#    y 0.000000 4.041680 0.000000 
#    z -0.079620 0.000000 4.140810 
# 
# 
# High freq. dielectric constant tensor:
#      x y z
#    x 1.858020 0.000000 -0.009710 
#    y 0.000000 1.878070 0.000000 
#    z -0.009710 0.000000 1.899640 
# 
# From -- ./inp_files/244607.got.cif
#   From: 2010.06.25/outbox.cif.g09.slc.cpg/sg15_123_cif.got.tgz:244607.got - 2010.06.28 07:06:18.
