data_PCOD8147636
_publ_section_title
;
Structure prediction by ZEFSAII (Michael W. Deem and Ramdas Pophale) SiO2 
 PCOD8147636
Probable space group: C 2/C
;
_chemical_formula_sum "Si O2"
_cell_formula_units_Z 52
_cell_length_a 10.898067
_cell_length_b 8.835759
_cell_length_c 25.291534
_cell_angle_alpha 90.000000
_cell_angle_beta 95.955732
_cell_angle_gamma 90.000000
_cell_volume 2422.244574
_symmetry_space_group_name_H-M "C 2/C"
_symmetry_group_IT_number 15
_symmetry_cell_setting 'monoclinic'
loop_
_space_group_symop_operation_xyz
x,y,z
-x,y,1/2-z
-x,-y,-z
x,-y,1/2+z
1/2+x,1/2+y,z
1/2-x,1/2+y,1/2-z
1/2-x,1/2-y,-z
1/2+x,1/2-y,1/2+z
loop_
_atom_site_type_symbol
_atom_site_label
_atom_site_fract_x
_atom_site_fract_y
_atom_site_fract_z
Si Si1 0.894970 0.129258 0.282798
Si Si2 0.006497 0.188931 0.101649
Si Si3 0.500000 0.914997 0.750000
Si Si4 0.736434 0.160383 0.434705
Si Si5 0.807698 0.193630 0.776402
Si Si6 0.121881 0.040517 0.971990
Si Si7 0.640383 0.068166 0.848792
O O1 0.783583 0.248087 0.273964
O O2 0.000000 0.196498 0.250000
O O3 0.941596 0.105178 0.344306
O O4 0.853085 0.968364 0.257787
O O5 0.951908 0.350937 0.115169
O O6 0.122340 0.221939 0.067735
O O7 0.891449 0.087813 0.073835
O O8 0.419340 0.811295 0.785614
O O9 0.579345 0.020700 0.791193
O O10 0.757430 0.036506 0.483615
O O11 0.637804 0.291792 0.445534
O O12 0.691985 0.079622 0.379879
O O13 0.748723 0.180477 0.832974
O O14 0.000000 0.000000 0.000000
#
# Coordination Sequence:
#
# PCOD8147636 Si02
#       7
#     8   8   4   8   8   8   8
#     4  12  24  40  64  92 132 175 220 260 322 384
#     4  11  23  40  66  94 128 167 214 268 322 385
#     4  12  26  38  60  92 132 174 222 260 318 378
#     4  10  22  44  68  95 128 165 212 272 332 388
#     4  12  24  40  60  90 128 175 213 268 309 381
#     4   9  22  44  70  95 127 165 213 272 333 392
#     4  12  25  40  63  95 130 171 219 267 317 386
#
# _framework density 21.467690999999999
#
# number of rings (size 3 to 8) (size 9 to 14) (size 15 to 20)
#    0.000    0.923    5.385    0.923    2.154    3.077 
#    0.000    6.923    0.000    0.000    0.000    0.000 
#    0.000    0.000    0.000    0.000    0.000    0.000 
#
# Total GULP energy -322099.566761 kJ/mol
# GULP energy per Si atom -12388.444875 kJ/mol
# Density = 2.141883 g / cm^3
# Si number density = 21.467691 Si / 1000 Ang^3
#
#
#
# Elastic Constant Matrix: (Units=GPa)
#
#
# Indices 1 2 3 4 5 6 
#
# 1 96.4411 53.1331 25.4888 0.0000 -13.8788 0.0000
# 2 53.1331 101.0168 34.5195 0.0000 -7.2332 0.0000
# 3 25.4888 34.5195 100.4443 0.0000 -0.9173 0.0000
# 4 0.0000 0.0000 0.0000 24.9962 0.0000 -12.1284
# 5 -13.8788 -7.2332 -0.9173 0.0000 24.8502 0.0000
# 6 0.0000 0.0000 0.0000 -12.1284 0.0000 34.5151
#
#
#
# Elastic Compliance Matrix: (Units=1/GPa)
#
#
# Indices 1 2 3 4 5 6 
#
# 1 0.015722 -0.007313 -0.001416 0.000000 0.006600 0.000000
# 2 -0.007313 0.014866 -0.003252 0.000000 0.000123 0.000000
# 3 -0.001416 -0.003252 0.011421 0.000000 -0.001316 0.000000
# 4 0.000000 0.000000 0.000000 0.048229 0.000000 0.016947
# 5 0.006600 0.000123 -0.001316 0.000000 0.043914 0.000000
# 6 0.000000 0.000000 0.000000 0.016947 0.000000 0.034928
#
#
# Mechanical properties :
#
#
# Convention : Reuss Voigt Hill
#
# Bulk Modulus (GPa) = 55.41295 58.24277 56.82786
# Shear Modulus (GPa) = 25.11828 29.18970 27.15399
#
# Velocity S-wave (km/s) = 3.42431 3.69142 3.56037
# Velocity P-wave (km/s) = 6.44227 6.73484 6.59018
#
# Compressibility (1/GPa) = 0.01804632
#
# Stress axis : x y z
#
# Youngs Moduli (GPa) = 63.60464 67.26773 87.56002
#
# Poissons Ratio (x) = 0.49193 0.12399
# Poissons Ratio (y) = 0.46515 0.28475
# Poissons Ratio (z) = 0.09007 0.21876
#
# Static dielectric constant tensor:
#      x y z
#    x 4.159540 0.000000 0.013990 
#    y 0.000000 3.869410 0.000000 
#    z 0.013990 0.000000 4.009020 
# 
# 
# High freq. dielectric constant tensor:
#      x y z
#    x 1.844730 0.000000 -0.003300 
#    y 0.000000 1.834140 0.000000 
#    z -0.003300 0.000000 1.843900 
# 
# From -- ./inp_files/291218.got.cif
#   From: 2010.06.25/outbox.cif.g09.slc.cpg/sg15_146_cif.got.tgz:291218.got - 2010.06.28 07:06:18.
