data_PCOD8147579
_publ_section_title
;
Structure prediction by ZEFSAII (Michael W. Deem and Ramdas Pophale) SiO2 
 PCOD8147579
Probable space group: C 2/C
;
_chemical_formula_sum "Si O2"
_cell_formula_units_Z 64
_cell_length_a 9.243698
_cell_length_b 14.445381
_cell_length_c 30.269077
_cell_angle_alpha 90.000000
_cell_angle_beta 133.449808
_cell_angle_gamma 90.000000
_cell_volume 2934.248223
_symmetry_space_group_name_H-M "C 2/C"
_symmetry_group_IT_number 15
_symmetry_cell_setting 'monoclinic'
loop_
_space_group_symop_operation_xyz
x,y,z
-x,y,1/2-z
-x,-y,-z
x,-y,1/2+z
1/2+x,1/2+y,z
1/2-x,1/2+y,1/2-z
1/2-x,1/2-y,-z
1/2+x,1/2-y,1/2+z
loop_
_atom_site_type_symbol
_atom_site_label
_atom_site_fract_x
_atom_site_fract_y
_atom_site_fract_z
Si Si1 0.185548 0.507361 0.465962
Si Si2 0.367524 0.151684 0.904398
Si Si3 0.345837 0.234159 0.807042
Si Si4 0.765888 0.566827 0.203564
Si Si5 0.879697 0.018657 0.419072
Si Si6 0.087401 0.876226 0.190676
Si Si7 0.926391 0.306832 0.515086
Si Si8 0.276879 0.313554 0.372876
O O1 0.247387 0.554995 0.432387
O O2 0.385764 0.460335 0.526953
O O3 0.098743 0.584462 0.480552
O O4 0.019704 0.429751 0.424710
O O5 0.370171 0.224502 0.864885
O O6 0.148100 0.108458 0.861715
O O7 0.427937 0.204591 0.962280
O O8 0.306826 0.341220 0.786686
O O9 0.157173 0.175147 0.749872
O O10 0.539835 0.197128 0.822608
O O11 0.688939 0.573444 0.137714
O O12 0.684125 0.477591 0.211549
O O13 0.000000 0.560100 0.250000
O O14 0.846883 0.908535 0.409760
O O15 0.153601 0.812796 0.163236
O O16 0.750000 0.250000 0.500000
O O17 0.131782 0.270702 0.579415
#
# Coordination Sequence:
#
# PCOD8147579 Si02
#       8
#     8   8   8   8   8   8   8   8
#     4  11  24  41  68  98 141 177 225 275 345 408
#     4  12  26  43  69 101 143 177 225 288 346 407
#     4  12  27  46  70 103 134 180 239 288 334 414
#     4  11  25  43  73  95 133 183 230 283 348 406
#     4  10  22  44  66  99 134 182 222 276 341 410
#     4  11  24  49  69  97 140 182 226 289 347 412
#     4  12  24  41  66 103 139 181 220 280 347 412
#     4  11  23  45  70  98 136 182 228 279 347 409
#
# _framework density 21.811378999999999
#
# number of rings (size 3 to 8) (size 9 to 14) (size 15 to 20)
#    0.000    0.750    3.750    4.125    5.250    1.500 
#    0.000    1.250    0.000    0.000    0.000    0.000 
#    0.000    0.000    0.000    0.000    0.000    0.000 
#
# Total GULP energy -396959.474137 kJ/mol
# GULP energy per Si atom -12404.983567 kJ/mol
# Density = 2.176174 g / cm^3
# Si number density = 21.811379 Si / 1000 Ang^3
#
#
#
# Elastic Constant Matrix: (Units=GPa)
#
#
# Indices 1 2 3 4 5 6 
#
# 1 93.2808 32.1342 37.9918 0.0000 16.1497 0.0000
# 2 32.1342 101.7050 48.4272 0.0000 6.2507 0.0000
# 3 37.9918 48.4272 106.6412 0.0000 2.4055 0.0000
# 4 0.0000 0.0000 0.0000 31.4528 0.0000 1.6556
# 5 16.1497 6.2507 2.4055 0.0000 42.6751 0.0000
# 6 0.0000 0.0000 0.0000 1.6556 0.0000 24.1495
#
#
#
# Elastic Compliance Matrix: (Units=1/GPa)
#
#
# Indices 1 2 3 4 5 6 
#
# 1 0.013867 -0.002285 -0.003797 0.000000 -0.004699 0.000000
# 2 -0.002285 0.013020 -0.005082 0.000000 -0.000756 0.000000
# 3 -0.003797 -0.005082 0.013005 0.000000 0.001448 0.000000
# 4 0.000000 0.000000 0.000000 0.031909 0.000000 -0.002188
# 5 -0.004699 -0.000756 0.001448 0.000000 0.025240 0.000000
# 6 0.000000 0.000000 0.000000 -0.002188 0.000000 0.041559
#
#
# Mechanical properties :
#
#
# Convention : Reuss Voigt Hill
#
# Bulk Modulus (GPa) = 56.92807 59.85927 58.39367
# Shear Modulus (GPa) = 29.97918 31.86040 30.91979
#
# Velocity S-wave (km/s) = 3.71141 3.82609 3.76919
# Velocity P-wave (km/s) = 6.67255 6.85728 6.76554
#
# Compressibility (1/GPa) = 0.01756603
#
# Stress axis : x y z
#
# Youngs Moduli (GPa) = 72.11186 76.80267 76.89419
#
# Poissons Ratio (x) = 0.17548 0.29195
# Poissons Ratio (y) = 0.16476 0.39075
# Poissons Ratio (z) = 0.27380 0.39029
#
# Static dielectric constant tensor:
#      x y z
#    x 3.995970 0.000000 -0.021290 
#    y 0.000000 3.899960 0.000000 
#    z -0.021290 0.000000 4.168930 
# 
# 
# High freq. dielectric constant tensor:
#      x y z
#    x 1.863300 0.000000 0.004540 
#    y 0.000000 1.847870 0.000000 
#    z 0.004540 0.000000 1.872010 
# 
# From -- ./inp_files/308273.got.cif
#   From: 2010.06.25/outbox.cif.g09.slc.cpg/sg15_155_cif.got.tgz:308273.got - 2010.06.28 07:06:18.
