data_PCOD8147309
_publ_section_title
;
Structure prediction by ZEFSAII (Michael W. Deem and Ramdas Pophale) SiO2 
 PCOD8147309
Probable space group: C 2/C
;
_chemical_formula_sum "Si O2"
_cell_formula_units_Z 48
_cell_length_a 22.548977
_cell_length_b 19.283529
_cell_length_c 8.858000
_cell_angle_alpha 90.000000
_cell_angle_beta 144.868243
_cell_angle_gamma 90.000000
_cell_volume 2216.476576
_symmetry_space_group_name_H-M "C 2/C"
_symmetry_group_IT_number 15
_symmetry_cell_setting 'monoclinic'
loop_
_space_group_symop_operation_xyz
x,y,z
-x,y,1/2-z
-x,-y,-z
x,-y,1/2+z
1/2+x,1/2+y,z
1/2-x,1/2+y,1/2-z
1/2-x,1/2-y,-z
1/2+x,1/2-y,1/2+z
loop_
_atom_site_type_symbol
_atom_site_label
_atom_site_fract_x
_atom_site_fract_y
_atom_site_fract_z
Si Si1 0.332765 0.943879 0.020836
Si Si2 0.302958 0.485100 0.011210
Si Si3 0.000000 0.463597 0.750000
Si Si4 0.000000 0.768390 0.250000
Si Si5 0.864450 0.654202 0.825120
Si Si6 0.055844 0.135978 0.609154
Si Si7 0.351380 0.371322 0.510518
O O1 0.355100 0.865266 0.127803
O O2 0.247931 0.980572 0.949136
O O3 0.439127 0.987390 0.240805
O O4 0.282966 0.937213 0.750690
O O5 0.403638 0.440014 0.260690
O O6 0.335231 0.546009 0.962208
O O7 0.912904 0.416339 0.492805
O O8 0.067916 0.721315 0.503174
O O9 0.071253 0.813933 0.286323
O O10 0.752422 0.668805 0.661615
O O11 0.116230 0.160214 0.584208
O O12 0.935066 0.137406 0.317802
#
# Coordination Sequence:
#
# PCOD8147309 Si02
#       7
#     8   8   4   4   8   8   8
#     4  11  21  37  68 100 132 161 204 266 337 373
#     4  11  21  39  63 105 128 160 206 271 336 376
#     4  11  18  38  66  98 132 157 210 268 334 385
#     4  11  28  44  64  88 130 179 226 250 310 371
#     4  10  23  42  63  93 130 170 208 268 309 381
#     4  11  24  41  64  94 127 175 210 259 317 389
#     4  10  22  43  67  92 132 158 215 269 329 374
#
# _framework density 21.655991
#
# number of rings (size 3 to 8) (size 9 to 14) (size 15 to 20)
#    0.000    1.333    5.000    1.000    4.667    2.667 
#    0.000    1.667    0.000    0.000    0.000    0.000 
#    0.000    0.000    0.000    0.000    0.000    0.000 
#
# Total GULP energy -297473.466269 kJ/mol
# GULP energy per Si atom -12394.727761 kJ/mol
# Density = 2.160670 g / cm^3
# Si number density = 21.655991 Si / 1000 Ang^3
#
#
#
# Elastic Constant Matrix: (Units=GPa)
#
#
# Indices 1 2 3 4 5 6 
#
# 1 90.8829 33.7389 9.8491 0.0000 12.3033 0.0000
# 2 33.7389 73.2893 6.0958 0.0000 0.6235 0.0000
# 3 9.8491 6.0958 64.6672 0.0000 6.7548 0.0000
# 4 0.0000 0.0000 0.0000 30.5174 0.0000 -6.2892
# 5 12.3033 0.6235 6.7548 0.0000 38.3666 0.0000
# 6 0.0000 0.0000 0.0000 -6.2892 0.0000 21.2997
#
#
#
# Elastic Compliance Matrix: (Units=1/GPa)
#
#
# Indices 1 2 3 4 5 6 
#
# 1 0.014045 -0.006338 -0.001102 0.000000 -0.004207 0.000000
# 2 -0.006338 0.016613 -0.000799 0.000000 0.001903 0.000000
# 3 -0.001102 -0.000799 0.015962 0.000000 -0.002444 0.000000
# 4 0.000000 0.000000 0.000000 0.034891 0.000000 0.010302
# 5 -0.004207 0.001903 -0.002444 0.000000 0.027813 0.000000
# 6 0.000000 0.000000 0.000000 0.010302 0.000000 0.049991
#
#
# Mechanical properties :
#
#
# Convention : Reuss Voigt Hill
#
# Bulk Modulus (GPa) = 33.17821 36.46744 34.82282
# Shear Modulus (GPa) = 26.90461 29.98045 28.44253
#
# Velocity S-wave (km/s) = 3.52854 3.72478 3.62799
# Velocity P-wave (km/s) = 5.65284 5.94766 5.80212
#
# Compressibility (1/GPa) = 0.03014026
#
# Stress axis : x y z
#
# Youngs Moduli (GPa) = 71.19923 60.19500 62.64763
#
# Poissons Ratio (x) = 0.38153 0.06905
# Poissons Ratio (y) = 0.45128 0.05008
# Poissons Ratio (z) = 0.07848 0.04812
#
# Static dielectric constant tensor:
#      x y z
#    x 3.813740 0.000000 -0.027500 
#    y 0.000000 3.673200 0.000000 
#    z -0.027500 0.000000 4.144360 
# 
# 
# High freq. dielectric constant tensor:
#      x y z
#    x 1.847260 0.000000 0.001090 
#    y 0.000000 1.816970 0.000000 
#    z 0.001090 0.000000 1.868870 
# 
# From -- ./inp_files/63330.got.cif
#   From: 2010.06.25/outbox.cif.g09.slc.cpg/sg15_32_cif.got.tgz:63330.got - 2010.06.28 07:06:18.
