data_PCOD8147216
_publ_section_title
;
Structure prediction by ZEFSAII (Michael W. Deem and Ramdas Pophale) SiO2 
 PCOD8147216
Probable space group: C 2/C
;
_chemical_formula_sum "Si O2"
_cell_formula_units_Z 60
_cell_length_a 17.393322
_cell_length_b 12.019937
_cell_length_c 16.150231
_cell_angle_alpha 90.000000
_cell_angle_beta 116.682619
_cell_angle_gamma 90.000000
_cell_volume 3016.905748
_symmetry_space_group_name_H-M "C 2/C"
_symmetry_group_IT_number 15
_symmetry_cell_setting 'monoclinic'
loop_
_space_group_symop_operation_xyz
x,y,z
-x,y,1/2-z
-x,-y,-z
x,-y,1/2+z
1/2+x,1/2+y,z
1/2-x,1/2+y,1/2-z
1/2-x,1/2-y,-z
1/2+x,1/2-y,1/2+z
loop_
_atom_site_type_symbol
_atom_site_label
_atom_site_fract_x
_atom_site_fract_y
_atom_site_fract_z
Si Si1 0.464129 0.811105 0.414675
Si Si2 0.297826 0.600104 0.792058
Si Si3 0.084225 0.068332 0.063463
Si Si4 0.646695 0.042179 0.281813
Si Si5 0.500000 0.098138 0.750000
Si Si6 0.801202 0.549744 0.900458
Si Si7 0.374759 0.831766 0.885094
Si Si8 0.737775 0.630327 0.031786
O O1 0.435905 0.683723 0.402082
O O2 0.483709 0.834194 0.327202
O O3 0.391032 0.890223 0.418749
O O4 0.547744 0.823508 0.512900
O O5 0.365814 0.504784 0.845339
O O6 0.202921 0.561201 0.774706
O O7 0.281295 0.608741 0.684981
O O8 0.327891 0.713952 0.849085
O O9 0.140116 0.094261 0.007237
O O10 0.000000 0.000000 0.000000
O O11 0.595077 0.114304 0.187701
O O12 0.707539 0.128467 0.357987
O O13 0.579286 0.982870 0.309201
O O14 0.803540 0.418353 0.882794
O O15 0.780605 0.547293 0.987416
O O16 0.750000 0.750000 0.000000
#
# Coordination Sequence:
#
# PCOD8147216 Si02
#       8
#     8   8   8   8   4   8   8   8
#     4  12  24  43  69  93 136 173 220 275 336 394
#     4  10  22  43  64  93 131 174 212 267 337 392
#     4  11  24  47  64  93 137 176 216 280 339 403
#     4  10  24  38  64  96 135 168 219 276 329 393
#     4  12  24  42  62 100 132 166 220 274 336 378
#     4  11  23  40  68  98 125 168 226 271 326 397
#     4  11  22  41  68  94 130 173 214 273 330 392
#     4  11  22  41  69  95 129 175 224 274 330 398
#
# _framework density 19.887926
#
# number of rings (size 3 to 8) (size 9 to 14) (size 15 to 20)
#    0.000    1.067    5.333    2.000    5.600    0.000 
#    4.800    2.000    0.000    0.000    0.000    0.000 
#    0.000    0.000    0.000    0.000    0.000    0.000 
#
# Total GULP energy -371701.559676 kJ/mol
# GULP energy per Si atom -12390.051989 kJ/mol
# Density = 1.984266 g / cm^3
# Si number density = 19.887926 Si / 1000 Ang^3
#
#
#
# Elastic Constant Matrix: (Units=GPa)
#
#
# Indices 1 2 3 4 5 6 
#
# 1 110.0808 45.8802 52.4797 0.0000 -4.5932 0.0000
# 2 45.8802 141.7619 47.6586 0.0000 3.4997 0.0000
# 3 52.4797 47.6586 125.2485 0.0000 5.5947 0.0000
# 4 0.0000 0.0000 0.0000 34.6167 0.0000 2.1513
# 5 -4.5932 3.4997 5.5947 0.0000 38.1205 0.0000
# 6 0.0000 0.0000 0.0000 2.1513 0.0000 30.0703
#
#
#
# Elastic Compliance Matrix: (Units=1/GPa)
#
#
# Indices 1 2 3 4 5 6 
#
# 1 0.012303 -0.002605 -0.004269 0.000000 0.002348 0.000000
# 2 -0.002605 0.008643 -0.002162 0.000000 -0.000790 0.000000
# 3 -0.004269 -0.002162 0.010680 0.000000 -0.001883 0.000000
# 4 0.000000 0.000000 0.000000 0.029017 0.000000 -0.002076
# 5 0.002348 -0.000790 -0.001883 0.000000 0.026864 0.000000
# 6 0.000000 0.000000 0.000000 -0.002076 0.000000 0.033404
#
#
# Mechanical properties :
#
#
# Convention : Reuss Voigt Hill
#
# Bulk Modulus (GPa) = 73.77538 74.34758 74.06148
# Shear Modulus (GPa) = 34.84303 35.96635 35.40469
#
# Velocity S-wave (km/s) = 4.19019 4.25720 4.22383
# Velocity P-wave (km/s) = 7.78373 7.85044 7.81716
#
# Compressibility (1/GPa) = 0.01355466
#
# Stress axis : x y z
#
# Youngs Moduli (GPa) = 81.28201 115.69403 93.63585
#
# Poissons Ratio (x) = 0.30133 0.39971
# Poissons Ratio (y) = 0.21171 0.20247
# Poissons Ratio (z) = 0.34697 0.25017
#
# Static dielectric constant tensor:
#      x y z
#    x 4.328860 0.000000 -0.900330 
#    y 0.000000 3.787970 0.000000 
#    z -0.900330 0.000000 5.147210 
# 
# 
# High freq. dielectric constant tensor:
#      x y z
#    x 1.763010 0.000000 0.005660 
#    y 0.000000 1.786640 0.000000 
#    z 0.005660 0.000000 1.792030 
# 
# From -- ./inp_files/210658.got.cif
#   From: 2010.06.25/outbox.cif.g09.slc.cpg/sg15_106_cif.got.tgz:210658.got - 2010.06.28 07:06:18.
