data_PCOD8147507
_publ_section_title
;
Structure prediction by ZEFSAII (Michael W. Deem and Ramdas Pophale) SiO2 
 PCOD8147507
Probable space group: C 2/C
;
_chemical_formula_sum "Si O2"
_cell_formula_units_Z 52
_cell_length_a 15.277010
_cell_length_b 9.630163
_cell_length_c 18.285544
_cell_angle_alpha 90.000000
_cell_angle_beta 124.890516
_cell_angle_gamma 90.000000
_cell_volume 2206.603534
_symmetry_space_group_name_H-M "C 2/C"
_symmetry_group_IT_number 15
_symmetry_cell_setting 'monoclinic'
loop_
_space_group_symop_operation_xyz
x,y,z
-x,y,1/2-z
-x,-y,-z
x,-y,1/2+z
1/2+x,1/2+y,z
1/2-x,1/2+y,1/2-z
1/2-x,1/2-y,-z
1/2+x,1/2-y,1/2+z
loop_
_atom_site_type_symbol
_atom_site_label
_atom_site_fract_x
_atom_site_fract_y
_atom_site_fract_z
Si Si1 0.140989 0.422724 0.869866
Si Si2 0.546342 0.887487 0.076041
Si Si3 0.865916 0.874124 0.951417
Si Si4 0.000000 0.066667 0.250000
Si Si5 0.071217 0.928803 0.138598
Si Si6 0.421370 0.131957 0.319072
Si Si7 0.367091 0.774238 0.091004
O O1 0.259542 0.379274 0.950207
O O2 0.121196 0.355065 0.782164
O O3 0.133408 0.588378 0.860255
O O4 0.052276 0.365467 0.883666
O O5 0.621894 0.783826 0.068702
O O6 0.453674 0.792857 0.067613
O O7 0.615648 0.983208 0.165193
O O8 0.500000 0.000000 0.000000
O O9 0.851956 0.970344 0.871509
O O10 0.955629 0.937053 0.046019
O O11 0.092575 0.154400 0.335055
O O12 0.060943 0.973998 0.218464
O O13 0.115669 0.769850 0.154880
O O14 0.250000 0.750000 0.000000
#
# Coordination Sequence:
#
# PCOD8147507 Si02
#       7
#     8   8   8   4   8   8   8
#     4  10  23  41  67  94 133 173 226 278 341 410
#     4  11  22  45  67  96 135 181 219 287 348 413
#     4  11  24  44  68 101 134 175 230 287 352 400
#     4  12  22  44  72  98 142 188 234 280 358 418
#     4  11  24  42  69  97 137 174 226 292 342 407
#     4  10  22  44  64  94 137 175 222 278 342 414
#     4  11  24  44  70 101 133 186 234 284 347 424
#
# _framework density 23.565628
#
# number of rings (size 3 to 8) (size 9 to 14) (size 15 to 20)
#    0.000    1.231    3.077    3.692    2.154    1.846 
#    8.308    0.000    0.000    0.000    0.000    0.000 
#    0.000    0.000    0.000    0.000    0.000    0.000 
#
# Total GULP energy -322293.084892 kJ/mol
# GULP energy per Si atom -12395.887880 kJ/mol
# Density = 2.351199 g / cm^3
# Si number density = 23.565628 Si / 1000 Ang^3
#
#
#
# Elastic Constant Matrix: (Units=GPa)
#
#
# Indices 1 2 3 4 5 6 
#
# 1 44.3997 20.1773 1.6381 0.0000 -0.7098 0.0000
# 2 20.1773 131.9931 16.1654 0.0000 -4.5182 0.0000
# 3 1.6381 16.1654 71.7598 0.0000 -7.5385 0.0000
# 4 0.0000 0.0000 0.0000 43.7253 0.0000 -14.3182
# 5 -0.7098 -4.5182 -7.5385 0.0000 35.4985 0.0000
# 6 0.0000 0.0000 0.0000 -14.3182 0.0000 29.9341
#
#
#
# Elastic Compliance Matrix: (Units=1/GPa)
#
#
# Indices 1 2 3 4 5 6 
#
# 1 0.024210 -0.003735 0.000296 0.000000 0.000072 0.000000
# 2 -0.003735 0.008381 -0.001737 0.000000 0.000623 0.000000
# 3 0.000296 -0.001737 0.014624 0.000000 0.002890 0.000000
# 4 0.000000 0.000000 0.000000 0.027118 0.000000 0.012971
# 5 0.000072 0.000623 0.002890 0.000000 0.028865 0.000000
# 6 0.000000 0.000000 0.000000 0.012971 0.000000 0.039611
#
#
# Mechanical properties :
#
#
# Convention : Reuss Voigt Hill
#
# Bulk Modulus (GPa) = 27.12730 36.01268 31.56999
# Shear Modulus (GPa) = 30.22102 35.84303 33.03202
#
# Velocity S-wave (km/s) = 3.58497 3.90421 3.74799
# Velocity P-wave (km/s) = 5.35466 5.96983 5.67060
#
# Compressibility (1/GPa) = 0.03686323
#
# Stress axis : x y z
#
# Youngs Moduli (GPa) = 41.30499 119.31508 68.38253
#
# Poissons Ratio (x) = 0.44561 -0.02026
# Poissons Ratio (y) = 0.15426 0.11880
# Poissons Ratio (z) = -0.01223 0.20729
#
# Static dielectric constant tensor:
#      x y z
#    x 4.341420 0.000000 -0.206690 
#    y 0.000000 4.771930 0.000000 
#    z -0.206690 0.000000 4.276750 
# 
# 
# High freq. dielectric constant tensor:
#      x y z
#    x 1.913910 0.000000 -0.014600 
#    y 0.000000 1.950440 0.000000 
#    z -0.014600 0.000000 1.929900 
# 
# From -- ./inp_files/247872.got.cif
#   From: 2010.06.25/outbox.cif.g09.slc.cpg/sg15_124_cif.got.tgz:247872.got - 2010.06.28 07:06:18.
