data_PCOD8147380
_publ_section_title
;
Structure prediction by ZEFSAII (Michael W. Deem and Ramdas Pophale) SiO2 
 PCOD8147380
Probable space group: C 2/C
;
_chemical_formula_sum "Si O2"
_cell_formula_units_Z 48
_cell_length_a 13.986968
_cell_length_b 20.024681
_cell_length_c 8.243692
_cell_angle_alpha 90.000000
_cell_angle_beta 108.849477
_cell_angle_gamma 90.000000
_cell_volume 2185.104411
_symmetry_space_group_name_H-M "C 2/C"
_symmetry_group_IT_number 15
_symmetry_cell_setting 'monoclinic'
loop_
_space_group_symop_operation_xyz
x,y,z
-x,y,1/2-z
-x,-y,-z
x,-y,1/2+z
1/2+x,1/2+y,z
1/2-x,1/2+y,1/2-z
1/2-x,1/2-y,-z
1/2+x,1/2-y,1/2+z
loop_
_atom_site_type_symbol
_atom_site_label
_atom_site_fract_x
_atom_site_fract_y
_atom_site_fract_z
Si Si1 0.395979 0.936434 0.121411
Si Si2 0.567383 0.550661 0.139368
Si Si3 0.103220 0.285121 0.371842
Si Si4 0.788231 0.242317 0.760100
Si Si5 0.800642 0.856697 0.986493
Si Si6 0.269853 0.974592 0.344013
O O1 0.500000 0.966777 0.250000
O O2 0.415017 0.860516 0.079592
O O3 0.302938 0.939348 0.196637
O O4 0.360449 0.975786 0.942750
O O5 0.500000 0.578255 0.250000
O O6 0.600617 0.615221 0.052464
O O7 0.664700 0.512630 0.263204
O O8 0.500000 0.500000 0.000000
O O9 0.136682 0.243072 0.546569
O O10 0.180659 0.283392 0.264855
O O11 0.000000 0.253010 0.250000
O O12 0.834347 0.191509 0.652860
O O13 0.772722 0.315826 0.674476
O O14 0.739312 0.920207 0.018488
#
# Coordination Sequence:
#
# PCOD8147380 Si02
#       6
#     8   8   8   8   8   8
#     4  11  23  40  69 100 131 173 224 281 342 408
#     4  12  24  43  67 103 139 179 227 285 350 421
#     4  10  22  43  69  98 131 175 235 280 335 415
#     4  10  23  45  67  94 137 186 223 286 346 404
#     4  11  23  43  67  96 139 178 232 276 348 412
#     4  12  22  42  65  99 138 173 217 284 347 406
#
# _framework density 21.966913000000002
#
# number of rings (size 3 to 8) (size 9 to 14) (size 15 to 20)
#    0.000    1.000    5.000    1.500    0.000    0.667 
#    6.000    2.500    0.000    0.000    0.000    0.000 
#    0.000    0.000    0.000    0.000    0.000    0.000 
#
# Total GULP energy -297677.518851 kJ/mol
# GULP energy per Si atom -12403.229952 kJ/mol
# Density = 2.191691 g / cm^3
# Si number density = 21.966913 Si / 1000 Ang^3
#
#
#
# Elastic Constant Matrix: (Units=GPa)
#
#
# Indices 1 2 3 4 5 6 
#
# 1 119.8412 44.3399 59.3467 0.0000 3.0585 0.0000
# 2 44.3399 97.9047 42.2299 0.0000 3.3314 0.0000
# 3 59.3467 42.2299 114.3969 0.0000 8.1320 0.0000
# 4 0.0000 0.0000 0.0000 32.7317 0.0000 -12.3412
# 5 3.0585 3.3314 8.1320 0.0000 52.6582 0.0000
# 6 0.0000 0.0000 0.0000 -12.3412 0.0000 35.9189
#
#
#
# Elastic Compliance Matrix: (Units=1/GPa)
#
#
# Indices 1 2 3 4 5 6 
#
# 1 0.012061 -0.003288 -0.005064 0.000000 0.000289 0.000000
# 2 -0.003288 0.013045 -0.003099 0.000000 -0.000156 0.000000
# 3 -0.005064 -0.003099 0.012616 0.000000 -0.001458 0.000000
# 4 0.000000 0.000000 0.000000 0.035098 0.000000 0.012059
# 5 0.000289 -0.000156 -0.001458 0.000000 0.019209 0.000000
# 6 0.000000 0.000000 0.000000 0.012059 0.000000 0.031984
#
#
# Mechanical properties :
#
#
# Convention : Reuss Voigt Hill
#
# Bulk Modulus (GPa) = 67.47191 69.33065 68.40128
# Shear Modulus (GPa) = 32.92619 36.67684 34.80152
#
# Velocity S-wave (km/s) = 3.87576 4.09056 3.98461
# Velocity P-wave (km/s) = 7.12816 7.34439 7.23708
#
# Compressibility (1/GPa) = 0.01482098
#
# Stress axis : x y z
#
# Youngs Moduli (GPa) = 82.91039 76.65748 79.26364
#
# Poissons Ratio (x) = 0.25205 0.40138
# Poissons Ratio (y) = 0.27261 0.24562
# Poissons Ratio (z) = 0.41985 0.23755
#
# Static dielectric constant tensor:
#      x y z
#    x 4.045080 0.000000 -0.105080 
#    y 0.000000 3.936410 0.000000 
#    z -0.105080 0.000000 4.013670 
# 
# 
# High freq. dielectric constant tensor:
#      x y z
#    x 1.857150 0.000000 -0.008530 
#    y 0.000000 1.864240 0.000000 
#    z -0.008530 0.000000 1.872630 
# 
# From -- ./inp_files/40952.got.cif
#   From: 2010.06.25/outbox.cif.g09.slc.cpg/sg15_21_cif.got.tgz:40952.got - 2010.06.28 07:06:18.
