data_PCOD8147438
_publ_section_title
;
Structure prediction by ZEFSAII (Michael W. Deem and Ramdas Pophale) SiO2 
 PCOD8147438
Probable space group: C 2/C
;
_chemical_formula_sum "Si O2"
_cell_formula_units_Z 48
_cell_length_a 5.445890
_cell_length_b 22.718768
_cell_length_c 16.860873
_cell_angle_alpha 90.000000
_cell_angle_beta 84.663573
_cell_angle_gamma 90.000000
_cell_volume 2077.051552
_symmetry_space_group_name_H-M "C 2/C"
_symmetry_group_IT_number 15
_symmetry_cell_setting 'monoclinic'
loop_
_space_group_symop_operation_xyz
x,y,z
-x,y,1/2-z
-x,-y,-z
x,-y,1/2+z
1/2+x,1/2+y,z
1/2-x,1/2+y,1/2-z
1/2-x,1/2-y,-z
1/2+x,1/2-y,1/2+z
loop_
_atom_site_type_symbol
_atom_site_label
_atom_site_fract_x
_atom_site_fract_y
_atom_site_fract_z
Si Si1 0.833538 0.600414 0.954461
Si Si2 0.099804 0.391323 0.872751
Si Si3 0.500000 0.427124 0.250000
Si Si4 0.834444 0.850768 0.388469
Si Si5 0.146079 0.721320 0.166236
Si Si6 0.000000 0.851473 0.750000
Si Si7 0.150976 0.496108 0.167311
O O1 0.593477 0.631217 0.922680
O O2 0.915974 0.540023 0.909734
O O3 0.086240 0.637955 0.945475
O O4 0.773470 0.588720 0.048879
O O5 0.294975 0.394369 0.794401
O O6 0.999724 0.325235 0.884016
O O7 0.877494 0.435354 0.853739
O O8 0.313633 0.383001 0.302754
O O9 0.418892 0.472360 0.183122
O O10 0.824612 0.780590 0.382864
O O11 0.403913 0.691062 0.182682
O O12 0.000000 0.735917 0.250000
O O13 0.000000 0.476974 0.250000
#
# Coordination Sequence:
#
# PCOD8147438 Si02
#       7
#     8   8   4   8   8   4   8
#     4  11  27  46  71 106 144 184 231 299 353 422
#     4  11  26  46  66 103 141 188 237 285 362 419
#     4  10  22  43  72 104 136 181 240 294 354 420
#     4  11  24  45  74 104 141 181 235 291 355 420
#     4  10  23  42  72 101 138 187 235 291 345 423
#     4  10  24  45  68 102 138 193 242 288 348 428
#     4  11  22  44  72  99 137 181 236 288 351 418
#
# _framework density 23.109680999999998
#
# number of rings (size 3 to 8) (size 9 to 14) (size 15 to 20)
#    0.000    1.333    2.500    2.000    7.000    4.000 
#    0.000    2.500    0.000    0.000    0.000    0.000 
#    0.000    0.000    0.000    0.000    0.000    0.000 
#
# Total GULP energy -297359.688187 kJ/mol
# GULP energy per Si atom -12389.987008 kJ/mol
# Density = 2.305708 g / cm^3
# Si number density = 23.109681 Si / 1000 Ang^3
#
#
#
# Elastic Constant Matrix: (Units=GPa)
#
#
# Indices 1 2 3 4 5 6 
#
# 1 98.1674 38.8169 30.0153 0.0000 -1.8612 0.0000
# 2 38.8169 155.0121 55.8549 0.0000 1.8027 0.0000
# 3 30.0153 55.8549 101.7363 0.0000 17.3433 0.0000
# 4 0.0000 0.0000 0.0000 18.9248 0.0000 -0.4684
# 5 -1.8612 1.8027 17.3433 0.0000 30.6350 0.0000
# 6 0.0000 0.0000 0.0000 -0.4684 0.0000 21.7753
#
#
#
# Elastic Compliance Matrix: (Units=1/GPa)
#
#
# Indices 1 2 3 4 5 6 
#
# 1 0.011884 -0.001983 -0.002834 0.000000 0.002443 0.000000
# 2 -0.001983 0.008515 -0.004409 0.000000 0.001875 0.000000
# 3 -0.002834 -0.004409 0.014467 0.000000 -0.008103 0.000000
# 4 0.000000 0.000000 0.000000 0.052869 0.000000 0.001137
# 5 0.002443 0.001875 -0.008103 0.000000 0.037268 0.000000
# 6 0.000000 0.000000 0.000000 0.001137 0.000000 0.045948
#
#
# Mechanical properties :
#
#
# Convention : Reuss Voigt Hill
#
# Bulk Modulus (GPa) = 60.92489 67.14331 64.03410
# Shear Modulus (GPa) = 25.65765 29.61560 27.63663
#
# Velocity S-wave (km/s) = 3.33566 3.58372 3.46192
# Velocity P-wave (km/s) = 6.42309 6.80010 6.61428
#
# Compressibility (1/GPa) = 0.01641365
#
# Stress axis : x y z
#
# Youngs Moduli (GPa) = 84.14967 117.44464 69.12088
#
# Poissons Ratio (x) = 0.23291 0.19587
# Poissons Ratio (y) = 0.16688 0.30477
# Poissons Ratio (z) = 0.23845 0.51783
#
# Static dielectric constant tensor:
#      x y z
#    x 4.176530 0.000000 0.075550 
#    y 0.000000 4.033760 0.000000 
#    z 0.075550 0.000000 4.153370 
# 
# 
# High freq. dielectric constant tensor:
#      x y z
#    x 1.904860 0.000000 0.007100 
#    y 0.000000 1.916730 0.000000 
#    z 0.007100 0.000000 1.910930 
# 
# From -- ./inp_files/185513.got.cif
#   From: 2010.06.25/outbox.cif.g09.slc.cpg/sg15_93_cif.got.tgz:185513.got - 2010.06.28 07:06:18.
