data_PCOD8147005
_publ_section_title
;
Structure prediction by ZEFSAII (Michael W. Deem and Ramdas Pophale) SiO2 
 PCOD8147005
Probable space group: C 2/C
;
_chemical_formula_sum "Si O2"
_cell_formula_units_Z 36
_cell_length_a 5.289189
_cell_length_b 18.364256
_cell_length_c 16.338699
_cell_angle_alpha 90.000000
_cell_angle_beta 110.457807
_cell_angle_gamma 90.000000
_cell_volume 1486.917808
_symmetry_space_group_name_H-M "C 2/C"
_symmetry_group_IT_number 15
_symmetry_cell_setting 'monoclinic'
loop_
_space_group_symop_operation_xyz
x,y,z
-x,y,1/2-z
-x,-y,-z
x,-y,1/2+z
1/2+x,1/2+y,z
1/2-x,1/2+y,1/2-z
1/2-x,1/2-y,-z
1/2+x,1/2-y,1/2+z
loop_
_atom_site_type_symbol
_atom_site_label
_atom_site_fract_x
_atom_site_fract_y
_atom_site_fract_z
Si Si1 0.278037 0.254158 0.160104
Si Si2 0.500000 0.653331 0.250000
Si Si3 0.472955 0.113240 0.115402
Si Si4 0.381688 0.907158 0.419168
Si Si5 0.134163 0.013274 0.600644
O O1 0.500000 0.281879 0.250000
O O2 0.053269 0.207155 0.180190
O O3 0.406940 0.199022 0.108007
O O4 0.153321 0.321555 0.098372
O O5 0.745505 0.601333 0.305554
O O6 0.248766 0.066033 0.142038
O O7 0.486524 0.081588 0.024536
O O8 0.605078 0.934215 0.380246
O O9 0.096847 0.949338 0.369224
O O10 0.000000 0.000000 0.500000
#
# Coordination Sequence:
#
# PCOD8147005 Si02
#       5
#     8   4   8   8   8
#     4  10  24  43  62  96 133 172 223 271 323 391
#     4  10  24  40  68  92 142 172 224 272 326 398
#     4  10  22  42  68  95 130 173 220 266 332 393
#     4  11  24  42  73  96 130 170 220 277 327 385
#     4  10  23  42  68  99 131 163 218 278 326 390
#
# _framework density 24.211157
#
# number of rings (size 3 to 8) (size 9 to 14) (size 15 to 20)
#    0.000    1.778    0.000    3.333   15.556    0.889 
#    2.000    0.000    0.000    0.000    0.000    0.000 
#    0.000    0.000    0.000    0.000    0.000    0.000 
#
# Total GULP energy -223095.516755 kJ/mol
# GULP energy per Si atom -12394.195375 kJ/mol
# Density = 2.415605 g / cm^3
# Si number density = 24.211157 Si / 1000 Ang^3
#
#
#
# Elastic Constant Matrix: (Units=GPa)
#
#
# Indices 1 2 3 4 5 6 
#
# 1 140.3362 40.5238 25.2504 0.0000 33.2963 0.0000
# 2 40.5238 128.8078 30.0553 0.0000 31.9828 0.0000
# 3 25.2504 30.0553 55.6396 0.0000 16.1464 0.0000
# 4 0.0000 0.0000 0.0000 16.7943 0.0000 7.4564
# 5 33.2963 31.9828 16.1464 0.0000 33.3273 0.0000
# 6 0.0000 0.0000 0.0000 7.4564 0.0000 33.5946
#
#
#
# Elastic Compliance Matrix: (Units=1/GPa)
#
#
# Indices 1 2 3 4 5 6 
#
# 1 0.009526 -0.000589 -0.001637 0.000000 -0.008159 0.000000
# 2 -0.000589 0.010711 -0.003149 0.000000 -0.008164 0.000000
# 3 -0.001637 -0.003149 0.022184 0.000000 -0.006090 0.000000
# 4 0.000000 0.000000 0.000000 0.066053 0.000000 -0.014661
# 5 -0.008159 -0.008164 -0.006090 0.000000 0.048942 0.000000
# 6 0.000000 0.000000 0.000000 -0.014661 0.000000 0.033021
#
#
# Mechanical properties :
#
#
# Convention : Reuss Voigt Hill
#
# Bulk Modulus (GPa) = 31.57551 57.38252 44.47901
# Shear Modulus (GPa) = 23.61331 32.00684 27.81008
#
# Velocity S-wave (km/s) = 3.12638 3.63986 3.39285
# Velocity P-wave (km/s) = 5.10905 6.43561 5.81031
#
# Compressibility (1/GPa) = 0.03167012
#
# Stress axis : x y z
#
# Youngs Moduli (GPa) = 104.97343 93.36290 45.07706
#
# Poissons Ratio (x) = 0.05501 0.07381
# Poissons Ratio (y) = 0.06185 0.14195
# Poissons Ratio (z) = 0.17188 0.29401
#
# Static dielectric constant tensor:
#      x y z
#    x 5.080430 0.000000 0.133860 
#    y 0.000000 4.528210 0.000000 
#    z 0.133860 0.000000 3.993300 
# 
# 
# High freq. dielectric constant tensor:
#      x y z
#    x 1.971370 0.000000 0.012180 
#    y 0.000000 1.969250 0.000000 
#    z 0.012180 0.000000 1.934870 
# 
# From -- ./inp_files/184114.got.cif
#   From: 2010.06.25/outbox.cif.g09.slc.cpg/sg15_93_cif.got.tgz:184114.got - 2010.06.28 07:06:18.
