data_PCOD8147412
_publ_section_title
;
Structure prediction by ZEFSAII (Michael W. Deem and Ramdas Pophale) SiO2 
 PCOD8147412
Probable space group: C 2/C
;
_chemical_formula_sum "Si O2"
_cell_formula_units_Z 64
_cell_length_a 29.941203
_cell_length_b 10.960571
_cell_length_c 18.043297
_cell_angle_alpha 90.000000
_cell_angle_beta 151.470492
_cell_angle_gamma 90.000000
_cell_volume 2828.087973
_symmetry_space_group_name_H-M "C 2/C"
_symmetry_group_IT_number 15
_symmetry_cell_setting 'monoclinic'
loop_
_space_group_symop_operation_xyz
x,y,z
-x,y,1/2-z
-x,-y,-z
x,-y,1/2+z
1/2+x,1/2+y,z
1/2-x,1/2+y,1/2-z
1/2-x,1/2-y,-z
1/2+x,1/2-y,1/2+z
loop_
_atom_site_type_symbol
_atom_site_label
_atom_site_fract_x
_atom_site_fract_y
_atom_site_fract_z
Si Si1 0.397434 0.469217 0.636117
Si Si2 0.906045 0.417139 0.441318
Si Si3 0.107316 0.550253 0.305572
Si Si4 0.936889 0.290201 0.228585
Si Si5 0.120371 0.046610 0.727766
Si Si6 0.779051 0.409506 0.668030
Si Si7 0.975707 0.204252 0.442167
Si Si8 0.201001 0.648259 0.572327
O O1 0.500000 0.484600 0.750000
O O2 0.374204 0.328011 0.619286
O O3 0.392948 0.552342 0.703135
O O4 0.315210 0.509726 0.460797
O O5 0.866291 0.536168 0.341308
O O6 0.917519 0.306173 0.401143
O O7 0.829424 0.385415 0.390231
O O8 0.003975 0.448590 0.621285
O O9 0.128478 0.407469 0.353713
O O10 0.187275 0.598388 0.367514
O O11 0.113159 0.637476 0.387018
O O12 0.996414 0.253558 0.389278
O O13 0.000000 0.322397 0.250000
O O14 0.227388 0.050209 0.857943
O O15 0.072108 0.169354 0.623803
O O16 0.082648 0.920337 0.640740
O O17 0.749820 0.277509 0.652258
#
# Coordination Sequence:
#
# PCOD8147412 Si02
#       8
#     8   8   8   8   8   8   8   8
#     4  10  24  44  72 105 142 190 239 298 360 435
#     4  12  28  45  72 107 144 193 238 302 364 433
#     4  12  25  50  71 103 146 194 243 291 372 431
#     4  10  22  43  71 102 137 191 238 297 354 437
#     4  10  23  44  70 103 141 186 238 297 363 424
#     4  12  27  47  73 108 142 190 245 302 362 439
#     4  10  23  43  71 101 140 188 236 301 363 425
#     4  12  28  44  71 104 145 189 240 297 359 434
#
# _framework density 22.630130000000001
#
# number of rings (size 3 to 8) (size 9 to 14) (size 15 to 20)
#    0.000    1.000    2.500    2.625    7.000    4.500 
#    0.000    0.000    0.000    0.000    0.000    0.000 
#    0.000    0.000    0.000    0.000    0.000    0.000 
#
# Total GULP energy -396785.517161 kJ/mol
# GULP energy per Si atom -12399.547411 kJ/mol
# Density = 2.257862 g / cm^3
# Si number density = 22.630130 Si / 1000 Ang^3
#
#
#
# Elastic Constant Matrix: (Units=GPa)
#
#
# Indices 1 2 3 4 5 6 
#
# 1 140.6245 33.9039 18.5655 0.0000 -5.9254 0.0000
# 2 33.9039 99.0358 26.7967 0.0000 -6.0263 0.0000
# 3 18.5655 26.7967 99.3127 0.0000 -0.9759 0.0000
# 4 0.0000 0.0000 0.0000 36.3715 0.0000 -1.9708
# 5 -5.9254 -6.0263 -0.9759 0.0000 32.9285 0.0000
# 6 0.0000 0.0000 0.0000 -1.9708 0.0000 29.9176
#
#
#
# Elastic Compliance Matrix: (Units=1/GPa)
#
#
# Indices 1 2 3 4 5 6 
#
# 1 0.007838 -0.002407 -0.000806 0.000000 0.000946 0.000000
# 2 -0.002407 0.011753 -0.002705 0.000000 0.001638 0.000000
# 3 -0.000806 -0.002705 0.010947 0.000000 -0.000316 0.000000
# 4 0.000000 0.000000 0.000000 0.027593 0.000000 0.001818
# 5 0.000946 0.001638 -0.000316 0.000000 0.030829 0.000000
# 6 0.000000 0.000000 0.000000 0.001818 0.000000 0.033545
#
#
# Mechanical properties :
#
#
# Convention : Reuss Voigt Hill
#
# Bulk Modulus (GPa) = 53.47620 55.27835 54.37727
# Shear Modulus (GPa) = 35.56804 37.15731 36.36267
#
# Velocity S-wave (km/s) = 3.96878 4.05648 4.01287
# Velocity P-wave (km/s) = 6.68457 6.81322 6.74920
#
# Compressibility (1/GPa) = 0.01869991
#
# Stress axis : x y z
#
# Youngs Moduli (GPa) = 127.58548 85.08386 91.35149
#
# Poissons Ratio (x) = 0.20484 0.07366
# Poissons Ratio (y) = 0.30716 0.24711
# Poissons Ratio (z) = 0.10288 0.23016
#
# Static dielectric constant tensor:
#      x y z
#    x 4.127740 0.000000 -0.116320 
#    y 0.000000 4.182980 0.000000 
#    z -0.116320 0.000000 4.153600 
# 
# 
# High freq. dielectric constant tensor:
#      x y z
#    x 1.895160 0.000000 -0.006460 
#    y 0.000000 1.904190 0.000000 
#    z -0.006460 0.000000 1.891400 
# 
# From -- ./inp_files/225202.got.cif
#   From: 2010.06.25/outbox.cif.g09.slc.cpg/sg15_113_cif.got.tgz:225202.got - 2010.06.28 07:06:18.
