data_PCOD8147055
_publ_section_title
;
Structure prediction by ZEFSAII (Michael W. Deem and Ramdas Pophale) SiO2 
 PCOD8147055
Probable space group: C 2/C
;
_chemical_formula_sum "Si O2"
_cell_formula_units_Z 44
_cell_length_a 14.995324
_cell_length_b 11.369743
_cell_length_c 27.866181
_cell_angle_alpha 90.000000
_cell_angle_beta 26.802736
_cell_angle_gamma 90.000000
_cell_volume 2142.316393
_symmetry_space_group_name_H-M "C 2/C"
_symmetry_group_IT_number 15
_symmetry_cell_setting 'monoclinic'
loop_
_space_group_symop_operation_xyz
x,y,z
-x,y,1/2-z
-x,-y,-z
x,-y,1/2+z
1/2+x,1/2+y,z
1/2-x,1/2+y,1/2-z
1/2-x,1/2-y,-z
1/2+x,1/2-y,1/2+z
loop_
_atom_site_type_symbol
_atom_site_label
_atom_site_fract_x
_atom_site_fract_y
_atom_site_fract_z
Si Si1 0.784913 0.671860 0.300826
Si Si2 0.169217 0.515200 0.457386
Si Si3 0.365539 0.132382 0.431973
Si Si4 0.000000 0.125699 0.750000
Si Si5 0.668715 0.726416 0.986626
Si Si6 0.221518 0.001447 0.411276
O O1 0.844055 0.794714 0.296636
O O2 0.554618 0.680061 0.399341
O O3 0.839246 0.560407 0.309723
O O4 0.909323 0.657135 0.192428
O O5 0.110256 0.460582 0.536884
O O6 0.377271 0.456710 0.344384
O O7 0.194810 0.654182 0.445657
O O8 0.000000 0.500000 0.500000
O O9 0.250000 0.250000 0.500000
O O10 0.236915 0.084454 0.449906
O O11 0.750000 0.750000 0.000000
O O12 0.787674 0.629119 0.897328
O O13 0.000000 0.000000 0.500000
#
# Coordination Sequence:
#
# PCOD8147055 Si02
#       6
#     8   8   8   4   8   8
#     4  11  22  44  74  97 134 182 231 275 333 422
#     4  12  26  44  68 100 140 180 226 285 338 402
#     4  12  23  43  72 100 131 183 236 270 334 418
#     4  12  22  44  70  98 134 180 234 276 334 408
#     4  11  24  46  66 103 144 171 221 293 344 394
#     4  10  22  42  69  98 134 174 220 282 340 401
#
# _framework density 20.538513999999999
#
# number of rings (size 3 to 8) (size 9 to 14) (size 15 to 20)
#    0.000    0.727    7.273    0.000    2.545    1.455 
#    9.818    0.000    0.000    0.000    0.000    0.000 
#    0.000    0.000    0.000    0.000    0.000    0.000 
#
# Total GULP energy -272691.490926 kJ/mol
# GULP energy per Si atom -12395.067769 kJ/mol
# Density = 2.049177 g / cm^3
# Si number density = 20.538514 Si / 1000 Ang^3
#
#
#
# Elastic Constant Matrix: (Units=GPa)
#
#
# Indices 1 2 3 4 5 6 
#
# 1 109.0125 32.2715 28.6690 0.0000 3.7890 -0.0002
# 2 32.2715 164.9427 52.9781 0.0007 16.9462 -0.0004
# 3 28.6690 52.9781 116.7022 -0.0069 17.1252 0.0030
# 4 0.0000 0.0007 -0.0069 39.7664 0.0006 3.8677
# 5 3.7890 16.9462 17.1252 0.0006 36.0245 -0.0004
# 6 -0.0002 -0.0004 0.0030 3.8677 -0.0004 37.4792
#
#
#
# Elastic Compliance Matrix: (Units=1/GPa)
#
#
# Indices 1 2 3 4 5 6 
#
# 1 0.010075 -0.001410 -0.001910 0.000000 0.000512 0.000000
# 2 -0.001410 0.007424 -0.002723 -0.000001 -0.002049 0.000000
# 3 -0.001910 -0.002723 0.010811 0.000002 -0.003657 -0.000001
# 4 0.000000 -0.000001 0.000002 0.025402 -0.000001 -0.002621
# 5 0.000512 -0.002049 -0.003657 -0.000001 0.030408 0.000001
# 6 0.000000 0.000000 -0.000001 -0.002621 0.000001 0.026952
#
#
# Mechanical properties :
#
#
# Convention : Reuss Voigt Hill
#
# Bulk Modulus (GPa) = 61.63894 68.72160 65.18027
# Shear Modulus (GPa) = 38.89064 41.10328 39.99696
#
# Velocity S-wave (km/s) = 4.35621 4.47842 4.41774
# Velocity P-wave (km/s) = 7.44168 7.76364 7.60437
#
# Compressibility (1/GPa) = 0.01622351
#
# Stress axis : x y z
#
# Youngs Moduli (GPa) = 99.25285 134.70228 92.50019
#
# Poissons Ratio (x) = 0.18998 0.17667
# Poissons Ratio (y) = 0.13998 0.25187
# Poissons Ratio (z) = 0.18956 0.36678
#
# Static dielectric constant tensor:
#      x y z
#    x 3.760300 -0.000010 0.119400 
#    y -0.000010 4.072290 -0.000010 
#    z 0.119400 -0.000010 3.818240 
# 
# 
# High freq. dielectric constant tensor:
#      x y z
#    x 1.813720 0.000000 -0.001070 
#    y 0.000000 1.821090 0.000000 
#    z -0.001070 0.000000 1.797990 
# 
# From -- ./inp_files/151734.got.cif
#   From: 2010.06.25/outbox.cif.g09.slc.cpg/sg15_76_cif.got.tgz:151734.got - 2010.06.28 07:06:18.
