data_PCOD8147298
_publ_section_title
;
Structure prediction by ZEFSAII (Michael W. Deem and Ramdas Pophale) SiO2 
 PCOD8147298
Probable space group: C 2/C
;
_chemical_formula_sum "Si O2"
_cell_formula_units_Z 32
_cell_length_a 13.175042
_cell_length_b 8.225147
_cell_length_c 11.961153
_cell_angle_alpha 90.000000
_cell_angle_beta 96.699007
_cell_angle_gamma 90.000000
_cell_volume 1287.340650
_symmetry_space_group_name_H-M "C 2/C"
_symmetry_group_IT_number 15
_symmetry_cell_setting 'monoclinic'
loop_
_space_group_symop_operation_xyz
x,y,z
-x,y,1/2-z
-x,-y,-z
x,-y,1/2+z
1/2+x,1/2+y,z
1/2-x,1/2+y,1/2-z
1/2-x,1/2-y,-z
1/2+x,1/2-y,1/2+z
loop_
_atom_site_type_symbol
_atom_site_label
_atom_site_fract_x
_atom_site_fract_y
_atom_site_fract_z
Si Si1 0.286863 0.898494 0.616951
Si Si2 0.853117 0.722581 0.745313
Si Si3 0.462280 0.819722 0.481058
Si Si4 0.846937 0.867314 0.522250
O O1 0.252041 0.767741 0.704299
O O2 0.139630 0.699018 0.458115
O O3 0.343354 0.049536 0.682317
O O4 0.185620 0.960234 0.534836
O O5 0.943994 0.710748 0.846636
O O6 0.873869 0.867215 0.658133
O O7 0.552816 0.697628 0.532043
O O8 0.500000 0.000000 0.500000
O O9 0.750000 0.750000 0.500000
#
# Coordination Sequence:
#
# PCOD8147298 Si02
#       4
#     8   8   8   8
#     4  11  25  45  72 103 145 184 236 292 354 420
#     4  11  24  43  70 103 140 185 233 290 358 417
#     4  12  23  42  72 100 134 186 236 286 353 419
#     4  10  22  43  67 100 139 178 233 290 337 419
#
# _framework density 24.857444999999998
#
# number of rings (size 3 to 8) (size 9 to 14) (size 15 to 20)
#    0.000    1.000    5.000    3.000    3.500    1.000 
#    0.000    2.500    0.000    0.000    0.000    0.000 
#    0.000    0.000    0.000    0.000    0.000    0.000 
#
# Total GULP energy -198340.353221 kJ/mol
# GULP energy per Si atom -12396.272076 kJ/mol
# Density = 2.480087 g / cm^3
# Si number density = 24.857445 Si / 1000 Ang^3
#
#
#
# Elastic Constant Matrix: (Units=GPa)
#
#
# Indices 1 2 3 4 5 6 
#
# 1 156.3868 42.4279 50.9733 0.0000 2.6095 0.0000
# 2 42.4279 65.8244 35.0779 0.0000 -4.1015 0.0000
# 3 50.9733 35.0779 121.8424 0.0000 -6.0444 0.0000
# 4 0.0000 0.0000 0.0000 37.9888 0.0000 -8.0834
# 5 2.6095 -4.1015 -6.0444 0.0000 41.0735 0.0000
# 6 0.0000 0.0000 0.0000 -8.0834 0.0000 38.8442
#
#
#
# Elastic Compliance Matrix: (Units=1/GPa)
#
#
# Indices 1 2 3 4 5 6 
#
# 1 0.008315 -0.004196 -0.002335 0.000000 -0.001291 0.000000
# 2 -0.004196 0.020107 -0.003949 0.000000 0.001693 0.000000
# 3 -0.002335 -0.003949 0.010385 0.000000 0.001282 0.000000
# 4 0.000000 0.000000 0.000000 0.027543 0.000000 0.005732
# 5 -0.001291 0.001693 0.001282 0.000000 0.024786 0.000000
# 6 0.000000 0.000000 0.000000 0.005732 0.000000 0.026937
#
#
# Mechanical properties :
#
#
# Convention : Reuss Voigt Hill
#
# Bulk Modulus (GPa) = 56.03302 66.77910 61.40606
# Shear Modulus (GPa) = 34.48717 37.95293 36.22005
#
# Velocity S-wave (km/s) = 3.72882 3.91170 3.82135
# Velocity P-wave (km/s) = 6.41323 6.87932 6.65036
#
# Compressibility (1/GPa) = 0.01784662
#
# Stress axis : x y z
#
# Youngs Moduli (GPa) = 120.25987 49.73504 96.29594
#
# Poissons Ratio (x) = 0.20869 0.22483
# Poissons Ratio (y) = 0.50461 0.38029
# Poissons Ratio (z) = 0.28078 0.19641
#
# Static dielectric constant tensor:
#      x y z
#    x 4.963840 0.000000 -0.164800 
#    y 0.000000 4.543990 0.000000 
#    z -0.164800 0.000000 5.091940 
# 
# 
# High freq. dielectric constant tensor:
#      x y z
#    x 2.004840 0.000000 -0.002100 
#    y 0.000000 1.979900 0.000000 
#    z -0.002100 0.000000 1.993650 
# 
# From -- ./inp_files/149956.got.cif
#   From: 2010.06.25/outbox.cif.g09.slc.cpg/sg15_75_cif.got.tgz:149956.got - 2010.06.28 07:06:18.
