data_PCOD8147840
_publ_section_title
;
Structure prediction by ZEFSAII (Michael W. Deem and Ramdas Pophale) SiO2 
 PCOD8147840
Probable space group: C 2/C
;
_chemical_formula_sum "Si O2"
_cell_formula_units_Z 60
_cell_length_a 13.155186
_cell_length_b 28.778644
_cell_length_c 13.108132
_cell_angle_alpha 90.000000
_cell_angle_beta 34.501717
_cell_angle_gamma 90.000000
_cell_volume 2810.962738
_symmetry_space_group_name_H-M "C 2/C"
_symmetry_group_IT_number 15
_symmetry_cell_setting 'monoclinic'
loop_
_space_group_symop_operation_xyz
x,y,z
-x,y,1/2-z
-x,-y,-z
x,-y,1/2+z
1/2+x,1/2+y,z
1/2-x,1/2+y,1/2-z
1/2-x,1/2-y,-z
1/2+x,1/2-y,1/2+z
loop_
_atom_site_type_symbol
_atom_site_label
_atom_site_fract_x
_atom_site_fract_y
_atom_site_fract_z
Si Si1 0.408387 0.386400 0.113622
Si Si2 0.331886 0.725920 0.335750
Si Si3 0.000000 0.937721 0.250000
Si Si4 0.388788 0.977779 0.936713
Si Si5 0.465911 0.932801 0.086146
Si Si6 0.058448 0.698601 0.314740
Si Si7 0.744706 0.364041 0.720110
Si Si8 0.245059 0.289037 0.280618
O O1 0.474835 0.406113 0.168853
O O2 0.230195 0.412987 0.220101
O O3 0.375602 0.331093 0.142349
O O4 0.559742 0.391496 0.898955
O O5 0.500000 0.702465 0.250000
O O6 0.250000 0.750000 0.500000
O O7 0.239124 0.682595 0.360556
O O8 0.362435 0.766688 0.226260
O O9 0.825188 0.971278 0.406201
O O10 0.500000 0.956802 0.750000
O O11 0.457902 0.030573 0.895011
O O12 0.450399 0.951051 0.985076
O O13 0.619944 0.894842 0.955593
O O14 0.192215 0.655253 0.221900
O O15 0.134835 0.749911 0.266360
O O16 0.000000 0.692796 0.250000
O O17 0.891782 0.689619 0.526528
#
# Coordination Sequence:
#
# PCOD8147840 Si02
#       8
#     8   8   4   8   8   8   8   8
#     4  11  23  39  66  97 136 167 220 271 330 392
#     4  11  23  42  63  86 125 186 230 273 323 365
#     4  10  24  40  70 106 124 174 210 260 338 426
#     4  10  22  45  70  97 131 165 210 264 344 406
#     4  10  23  44  67  95 133 169 208 276 330 402
#     4  11  23  36  61  91 136 185 213 274 336 389
#     4  11  23  42  62  98 132 172 230 273 324 392
#     4  11  22  40  58  93 134 170 235 270 323 395
#
# _framework density 21.344999999999999
#
# number of rings (size 3 to 8) (size 9 to 14) (size 15 to 20)
#    0.000    1.333    1.333    5.200    2.800    1.600 
#    6.000    4.000    0.000    0.000    0.000    0.000 
#    0.000    0.000    0.000    0.000    0.000    0.000 
#
# Total GULP energy -371659.305162 kJ/mol
# GULP energy per Si atom -12388.643505 kJ/mol
# Density = 2.129642 g / cm^3
# Si number density = 21.345000 Si / 1000 Ang^3
#
#
#
# Elastic Constant Matrix: (Units=GPa)
#
#
# Indices 1 2 3 4 5 6 
#
# 1 82.6873 17.9251 33.8315 0.0000 2.8454 0.0000
# 2 17.9251 80.4871 18.2258 0.0000 -8.9086 0.0001
# 3 33.8315 18.2258 84.4922 0.0000 -0.6873 0.0000
# 4 0.0000 0.0000 0.0000 31.0720 0.0000 0.8784
# 5 2.8454 -8.9086 -0.6873 0.0000 33.8972 0.0000
# 6 0.0000 0.0001 0.0000 0.8784 0.0000 69.5606
#
#
#
# Elastic Compliance Matrix: (Units=1/GPa)
#
#
# Indices 1 2 3 4 5 6 
#
# 1 0.014905 -0.002294 -0.005489 0.000000 -0.001965 0.000000
# 2 -0.002294 0.013814 -0.002030 0.000000 0.003782 0.000000
# 3 -0.005489 -0.002030 0.014473 0.000000 0.000221 0.000000
# 4 0.000000 0.000000 0.000000 0.032195 0.000000 -0.000407
# 5 -0.001965 0.003782 0.000221 0.000000 0.030664 0.000000
# 6 0.000000 0.000000 0.000000 -0.000407 0.000000 0.014381
#
#
# Mechanical properties :
#
#
# Convention : Reuss Voigt Hill
#
# Bulk Modulus (GPa) = 42.43710 43.07015 42.75363
# Shear Modulus (GPa) = 33.80365 38.75157 36.27761
#
# Velocity S-wave (km/s) = 3.98386 4.26548 4.12707
# Velocity P-wave (km/s) = 6.40986 6.66940 6.54092
#
# Compressibility (1/GPa) = 0.02356429
#
# Stress axis : x y z
#
# Youngs Moduli (GPa) = 67.09373 72.39254 69.09385
#
# Poissons Ratio (x) = 0.16606 0.37926
# Poissons Ratio (y) = 0.15391 0.14029
# Poissons Ratio (z) = 0.36828 0.14699
#
# Static dielectric constant tensor:
#      x y z
#    x 4.044250 0.000000 -0.209660 
#    y 0.000000 3.959210 0.000000 
#    z -0.209660 0.000000 4.018300 
# 
# 
# High freq. dielectric constant tensor:
#      x y z
#    x 1.842040 0.000000 -0.007040 
#    y 0.000000 1.835670 0.000000 
#    z -0.007040 0.000000 1.845810 
# 
# From -- ./inp_files/157333.got.cif
#   From: 2010.06.25/outbox.cif.g09.slc.cpg/sg15_79_cif.got.tgz:157333.got - 2010.06.28 07:06:18.
