data_PCOD8147779
_publ_section_title
;
Structure prediction by ZEFSAII (Michael W. Deem and Ramdas Pophale) SiO2 
 PCOD8147779
Probable space group: C 2/C
;
_chemical_formula_sum "Si O2"
_cell_formula_units_Z 56
_cell_length_a 27.916742
_cell_length_b 9.010729
_cell_length_c 20.338365
_cell_angle_alpha 90.000000
_cell_angle_beta 30.412128
_cell_angle_gamma 90.000000
_cell_volume 2589.863317
_symmetry_space_group_name_H-M "C 2/C"
_symmetry_group_IT_number 15
_symmetry_cell_setting 'monoclinic'
loop_
_space_group_symop_operation_xyz
x,y,z
-x,y,1/2-z
-x,-y,-z
x,-y,1/2+z
1/2+x,1/2+y,z
1/2-x,1/2+y,1/2-z
1/2-x,1/2-y,-z
1/2+x,1/2-y,1/2+z
loop_
_atom_site_type_symbol
_atom_site_label
_atom_site_fract_x
_atom_site_fract_y
_atom_site_fract_z
Si Si1 0.475928 0.122804 0.174408
Si Si2 0.871133 0.134532 0.440373
Si Si3 0.500000 0.878607 0.250000
Si Si4 0.873814 0.225850 0.580153
Si Si5 0.059626 0.702178 0.940965
Si Si6 0.214369 0.929984 0.793702
Si Si7 0.191296 0.494038 0.193490
Si Si8 0.500000 0.375067 0.250000
O O1 0.484724 0.274519 0.203967
O O2 0.511133 0.979605 0.172700
O O3 0.364632 0.101782 0.289447
O O4 0.539163 0.123073 0.034307
O O5 0.911813 0.162353 0.466043
O O6 0.756669 0.123694 0.576007
O O7 0.907454 0.272171 0.352968
O O8 0.909046 0.978843 0.367525
O O9 0.806999 0.369448 0.645578
O O10 0.960534 0.257325 0.525049
O O11 0.803652 0.104859 0.698065
O O12 0.118792 0.849648 0.884848
O O13 0.115760 0.590631 0.828218
O O14 0.238257 0.909591 0.843526
#
# Coordination Sequence:
#
# PCOD8147779 Si02
#       8
#     8   8   4   8   8   8   8   4
#     4  11  23  40  66  95 128 172 221 260 325 389
#     4  10  22  45  64  90 133 168 221 267 319 388
#     4  10  24  40  66  90 122 184 220 262 314 384
#     4  11  23  40  68  98 133 167 211 275 336 383
#     4  12  23  40  69 103 136 165 210 276 344 383
#     4  11  22  40  61 103 131 167 206 262 342 388
#     4  11  23  38  68  96 132 163 214 282 330 382
#     4  10  24  46  64  86 130 186 216 266 308 390
#
# _framework density 21.622762000000002
#
# number of rings (size 3 to 8) (size 9 to 14) (size 15 to 20)
#    0.000    1.143    4.286    3.429    2.000    1.143 
#    0.000    0.000    3.143    0.000    0.000    0.000 
#    0.000    0.000    0.000    0.000    0.000    0.000 
#
# Total GULP energy -347129.056009 kJ/mol
# GULP energy per Si atom -12397.466286 kJ/mol
# Density = 2.157355 g / cm^3
# Si number density = 21.622762 Si / 1000 Ang^3
#
#
#
# Elastic Constant Matrix: (Units=GPa)
#
#
# Indices 1 2 3 4 5 6 
#
# 1 67.4275 30.6773 33.9528 0.0002 -22.5759 -0.0017
# 2 30.6773 112.9472 47.4447 -0.0077 -1.6553 0.0093
# 3 33.9528 47.4447 123.0270 -0.0065 -5.6246 0.0054
# 4 0.0002 -0.0077 -0.0065 30.5259 0.0014 -8.2426
# 5 -22.5759 -1.6553 -5.6246 0.0014 26.3993 -0.0034
# 6 -0.0017 0.0093 0.0054 -8.2426 -0.0034 21.3955
#
#
#
# Elastic Compliance Matrix: (Units=1/GPa)
#
#
# Indices 1 2 3 4 5 6 
#
# 1 0.026506 -0.005040 -0.004392 -0.000001 0.021415 0.000008
# 2 -0.005040 0.011525 -0.003249 0.000001 -0.004280 -0.000005
# 3 -0.004392 -0.003249 0.010515 0.000001 -0.001720 -0.000001
# 4 -0.000001 0.000001 0.000001 0.036563 -0.000001 0.014086
# 5 0.021415 -0.004280 -0.001720 -0.000001 0.055559 0.000012
# 6 0.000008 -0.000005 -0.000001 0.014086 0.000012 0.052165
#
#
# Mechanical properties :
#
#
# Convention : Reuss Voigt Hill
#
# Bulk Modulus (GPa) = 43.13673 58.61682 50.87677
# Shear Modulus (GPa) = 22.13149 28.41927 25.27538
#
# Velocity S-wave (km/s) = 3.20273 3.62929 3.42266
# Velocity P-wave (km/s) = 5.80256 6.68805 6.26098
#
# Compressibility (1/GPa) = 0.02318210
#
# Stress axis : x y z
#
# Youngs Moduli (GPa) = 37.72772 86.76954 95.10364
#
# Poissons Ratio (x) = 0.43734 0.41771
# Poissons Ratio (y) = 0.19016 0.30900
# Poissons Ratio (z) = 0.16571 0.28193
#
# Static dielectric constant tensor:
#      x y z
#    x 3.962890 0.000000 -0.091110 
#    y 0.000000 4.049970 0.000020 
#    z -0.091110 0.000020 4.047340 
# 
# 
# High freq. dielectric constant tensor:
#      x y z
#    x 1.837140 0.000000 -0.007040 
#    y 0.000000 1.856070 0.000000 
#    z -0.007040 0.000000 1.853410 
# 
# From -- ./inp_files/258992.got.cif
#   From: 2010.06.25/outbox.cif.g09.slc.cpg/sg15_130_cif.got.tgz:258992.got - 2010.06.28 07:06:18.
