data_PCOD8147317
_publ_section_title
;
Structure prediction by ZEFSAII (Michael W. Deem and Ramdas Pophale) SiO2 
 PCOD8147317
Probable space group: C 2/C
;
_chemical_formula_sum "Si O2"
_cell_formula_units_Z 40
_cell_length_a 7.279236
_cell_length_b 28.074282
_cell_length_c 9.299525
_cell_angle_alpha 90.000000
_cell_angle_beta 97.330562
_cell_angle_gamma 90.000000
_cell_volume 1884.911406
_symmetry_space_group_name_H-M "C 2/C"
_symmetry_group_IT_number 15
_symmetry_cell_setting 'monoclinic'
loop_
_space_group_symop_operation_xyz
x,y,z
-x,y,1/2-z
-x,-y,-z
x,-y,1/2+z
1/2+x,1/2+y,z
1/2-x,1/2+y,1/2-z
1/2-x,1/2-y,-z
1/2+x,1/2-y,1/2+z
loop_
_atom_site_type_symbol
_atom_site_label
_atom_site_fract_x
_atom_site_fract_y
_atom_site_fract_z
Si Si1 0.323441 0.187886 0.645273
Si Si2 0.000000 0.144515 0.250000
Si Si3 0.364069 0.403681 0.476466
Si Si4 0.000000 0.974385 0.250000
Si Si5 0.375273 0.029379 0.376501
Si Si6 0.332526 0.214465 0.328884
O O1 0.500000 0.170225 0.750000
O O2 0.189817 0.142485 0.621638
O O3 0.389835 0.209260 0.500195
O O4 0.221000 0.231197 0.716478
O O5 0.983777 0.111276 0.389482
O O6 0.174436 0.178016 0.273905
O O7 0.453847 0.443047 0.384340
O O8 0.182577 0.422804 0.543942
O O9 0.182528 0.004413 0.308933
O O10 0.500000 0.041570 0.250000
O O11 0.500000 0.000000 0.500000
O O12 0.500000 0.197792 0.250000
#
# Coordination Sequence:
#
# PCOD8147317 Si02
#       6
#     8   4   8   4   8   8
#     4  10  23  42  64 100 137 170 232 274 322 409
#     4  10  23  46  64 102 136 172 230 276 325 412
#     4  11  26  43  71 102 135 176 230 280 337 408
#     4  12  27  48  70 104 140 178 230 288 349 412
#     4  12  27  49  74 101 138 182 227 285 354 412
#     4  10  22  43  67  94 133 184 218 273 341 385
#
# _framework density 21.221156000000001
#
# number of rings (size 3 to 8) (size 9 to 14) (size 15 to 20)
#    0.000    1.200    3.000    1.200    7.000    5.600 
#    0.000    0.000    0.000    0.000    0.000    0.000 
#    0.000    0.000    0.000    0.000    0.000    0.000 
#
# Total GULP energy -247996.215044 kJ/mol
# GULP energy per Si atom -12399.810752 kJ/mol
# Density = 2.117286 g / cm^3
# Si number density = 21.221156 Si / 1000 Ang^3
#
#
#
# Elastic Constant Matrix: (Units=GPa)
#
#
# Indices 1 2 3 4 5 6 
#
# 1 109.1781 27.1604 55.9192 0.0000 -3.5900 0.0000
# 2 27.1604 91.3523 28.7584 0.0000 2.9242 0.0000
# 3 55.9192 28.7584 94.6576 0.0000 13.1898 0.0000
# 4 0.0000 0.0000 0.0000 35.4578 0.0000 7.2636
# 5 -3.5900 2.9242 13.1898 0.0000 53.4557 0.0000
# 6 0.0000 0.0000 0.0000 7.2636 0.0000 0.8467
#
#
#
# Elastic Compliance Matrix: (Units=1/GPa)
#
#
# Indices 1 2 3 4 5 6 
#
# 1 0.013805 -0.001660 -0.008070 0.000000 0.003009 0.000000
# 2 -0.001660 0.012307 -0.002743 0.000000 -0.000108 0.000000
# 3 -0.008070 -0.002743 0.016797 0.000000 -0.004537 0.000000
# 4 0.000000 0.000000 0.000000 -0.037239 0.000000 0.319455
# 5 0.003009 -0.000108 -0.004537 0.000000 0.020034 0.000000
# 6 0.000000 0.000000 0.000000 0.319455 0.000000 -1.559436
#
#
# Mechanical properties :
#
#
# Convention : Reuss Voigt Hill
#
# Bulk Modulus (GPa) = 55.67244 57.65155 56.66200
# Shear Modulus (GPa) = -3.32713 30.17538 13.42412
#
# Velocity S-wave (km/s) = -1.25349 3.77496 2.51785
# Velocity P-wave (km/s) = 4.91898 6.79900 5.93392
#
# Compressibility (1/GPa) = 0.01796221
#
# Stress axis : x y z
#
# Youngs Moduli (GPa) = 72.43947 81.25256 59.53296
#
# Poissons Ratio (x) = 0.13489 0.48043
# Poissons Ratio (y) = 0.12026 0.16332
# Poissons Ratio (z) = 0.58459 0.22291
#
# Static dielectric constant tensor:
#      x y z
#    x 3.632310 0.000000 -0.041050 
#    y 0.000000 4.031230 0.000000 
#    z -0.041050 0.000000 4.300200 
# 
# 
# High freq. dielectric constant tensor:
#      x y z
#    x 1.824550 0.000000 0.008500 
#    y 0.000000 1.847240 0.000000 
#    z 0.008500 0.000000 1.846350 
# 
# From -- ./inp_files/23802.got.cif
#   From: 2010.06.25/outbox.cif.g09.slc.cpg/sg15_12_cif.got.tgz:23802.got - 2010.06.28 07:06:18.
