data_PCOD8147335
_publ_section_title
;
Structure prediction by ZEFSAII (Michael W. Deem and Ramdas Pophale) SiO2 
 PCOD8147335
Probable space group: C 2/C
;
_chemical_formula_sum "Si O2"
_cell_formula_units_Z 40
_cell_length_a 9.653847
_cell_length_b 17.445833
_cell_length_c 10.956789
_cell_angle_alpha 90.000000
_cell_angle_beta 76.955625
_cell_angle_gamma 90.000000
_cell_volume 1797.717981
_symmetry_space_group_name_H-M "C 2/C"
_symmetry_group_IT_number 15
_symmetry_cell_setting 'monoclinic'
loop_
_space_group_symop_operation_xyz
x,y,z
-x,y,1/2-z
-x,-y,-z
x,-y,1/2+z
1/2+x,1/2+y,z
1/2-x,1/2+y,1/2-z
1/2-x,1/2-y,-z
1/2+x,1/2-y,1/2+z
loop_
_atom_site_type_symbol
_atom_site_label
_atom_site_fract_x
_atom_site_fract_y
_atom_site_fract_z
Si Si1 0.843212 0.030125 0.547154
Si Si2 0.059648 0.679200 0.361026
Si Si3 0.313791 0.013388 0.175147
Si Si4 0.761044 0.312897 0.358702
Si Si5 0.427356 0.855585 0.116009
O O1 0.766740 0.005369 0.437643
O O2 0.838518 0.122462 0.561161
O O3 0.781392 0.995754 0.684926
O O4 0.000000 0.000000 0.500000
O O5 0.119026 0.595844 0.321861
O O6 0.184912 0.731266 0.397000
O O7 0.000000 0.718272 0.250000
O O8 0.922537 0.667474 0.475247
O O9 0.434604 0.947100 0.142611
O O10 0.784107 0.322772 0.207475
O O11 0.922632 0.319227 0.372387
#
# Coordination Sequence:
#
# PCOD8147335 Si02
#       5
#     8   8   8   8   8
#     4  11  24  43  67  99 137 175 222 278 339 401
#     4  12  25  39  67 101 131 167 229 280 327 404
#     4  11  24  42  72  99 129 181 232 272 328 407
#     4  10  24  42  66  94 133 178 209 278 345 385
#     4  10  22  43  68  90 134 176 222 267 335 399
#
# _framework density 22.250430999999999
#
# number of rings (size 3 to 8) (size 9 to 14) (size 15 to 20)
#    0.000    1.200    2.000    3.000    5.600    5.600 
#    3.600    0.000    0.000    0.000    0.000    0.000 
#    0.000    0.000    0.000    0.000    0.000    0.000 
#
# Total GULP energy -247786.557929 kJ/mol
# GULP energy per Si atom -12389.327896 kJ/mol
# Density = 2.219979 g / cm^3
# Si number density = 22.250431 Si / 1000 Ang^3
#
#
#
# Elastic Constant Matrix: (Units=GPa)
#
#
# Indices 1 2 3 4 5 6 
#
# 1 80.7269 26.8757 44.3469 0.0000 -3.3139 0.0000
# 2 26.8757 114.1001 33.2500 0.0000 -17.1687 0.0000
# 3 44.3469 33.2500 176.4642 0.0000 -7.3854 0.0000
# 4 0.0000 0.0000 0.0000 31.0585 0.0000 -5.2400
# 5 -3.3139 -17.1687 -7.3854 0.0000 35.1730 0.0000
# 6 0.0000 0.0000 0.0000 -5.2400 0.0000 35.2010
#
#
#
# Elastic Compliance Matrix: (Units=1/GPa)
#
#
# Indices 1 2 3 4 5 6 
#
# 1 0.015071 -0.002673 -0.003308 0.000000 -0.000579 0.000000
# 2 -0.002673 0.010405 -0.001096 0.000000 0.004597 0.000000
# 3 -0.003308 -0.001096 0.006728 0.000000 0.000566 0.000000
# 4 0.000000 0.000000 0.000000 0.033027 0.000000 0.004916
# 5 -0.000579 0.004597 0.000566 0.000000 0.030739 0.000000
# 6 0.000000 0.000000 0.000000 0.004916 0.000000 0.029140
#
#
# Mechanical properties :
#
#
# Convention : Reuss Voigt Hill
#
# Bulk Modulus (GPa) = 55.40346 64.47071 59.93709
# Shear Modulus (GPa) = 34.41593 38.07442 36.24517
#
# Velocity S-wave (km/s) = 3.93715 4.14112 4.04042
# Velocity P-wave (km/s) = 6.75442 7.20438 6.98303
#
# Compressibility (1/GPa) = 0.01804941
#
# Stress axis : x y z
#
# Youngs Moduli (GPa) = 66.35344 96.10709 148.62212
#
# Poissons Ratio (x) = 0.25690 0.49164
# Poissons Ratio (y) = 0.17737 0.16295
# Poissons Ratio (z) = 0.21950 0.10537
#
# Static dielectric constant tensor:
#      x y z
#    x 4.695560 0.000000 0.030010 
#    y 0.000000 4.026170 0.000000 
#    z 0.030010 0.000000 5.377000 
# 
# 
# High freq. dielectric constant tensor:
#      x y z
#    x 1.847580 0.000000 -0.001140 
#    y 0.000000 1.871820 0.000000 
#    z -0.001140 0.000000 1.921030 
# 
# From -- ./inp_files/76699.got.cif
#   From: 2010.06.25/outbox.cif.g09.slc.cpg/sg15_39_cif.got.tgz:76699.got - 2010.06.28 07:06:18.
