data_PCOD8147328
_publ_section_title
;
Structure prediction by ZEFSAII (Michael W. Deem and Ramdas Pophale) SiO2 
 PCOD8147328
Probable space group: C 2/C
;
_chemical_formula_sum "Si O2"
_cell_formula_units_Z 48
_cell_length_a 28.244422
_cell_length_b 17.869692
_cell_length_c 9.094602
_cell_angle_alpha 90.000000
_cell_angle_beta 150.250819
_cell_angle_gamma 90.000000
_cell_volume 2277.685723
_symmetry_space_group_name_H-M "C 2/C"
_symmetry_group_IT_number 15
_symmetry_cell_setting 'monoclinic'
loop_
_space_group_symop_operation_xyz
x,y,z
-x,y,1/2-z
-x,-y,-z
x,-y,1/2+z
1/2+x,1/2+y,z
1/2-x,1/2+y,1/2-z
1/2-x,1/2-y,-z
1/2+x,1/2-y,1/2+z
loop_
_atom_site_type_symbol
_atom_site_label
_atom_site_fract_x
_atom_site_fract_y
_atom_site_fract_z
Si Si1 0.877195 0.921312 0.679755
Si Si2 0.371427 0.300939 0.160705
Si Si3 0.208712 0.641117 0.574128
Si Si4 0.500000 0.344467 0.250000
Si Si5 0.248493 0.935512 0.611856
Si Si6 0.500000 0.373214 0.750000
Si Si7 0.570302 0.026636 0.310740
O O1 0.795515 0.859616 0.424647
O O2 0.948120 0.925926 0.730315
O O3 0.832478 0.001841 0.590896
O O4 0.929565 0.897133 0.968789
O O5 0.441640 0.293351 0.209423
O O6 0.426248 0.320791 0.460593
O O7 0.315777 0.224341 0.042519
O O8 0.291289 0.363546 0.907538
O O9 0.239257 0.586447 0.524419
O O10 0.115625 0.606311 0.396783
O O11 0.349533 0.962968 0.946846
O O12 0.500000 0.043457 0.250000
O O13 0.500000 0.000000 0.000000
#
# Coordination Sequence:
#
# PCOD8147328 Si02
#       7
#     8   8   8   4   8   4   8
#     4  10  24  43  67  98 133 170 220 265 324 390
#     4  11  25  42  68  97 139 170 214 267 335 394
#     4  11  24  45  67  96 133 172 220 269 334 384
#     4  10  26  43  64 104 129 172 214 268 329 386
#     4  11  24  41  69  96 130 173 214 270 331 377
#     4  10  22  43  68 100 131 174 218 262 321 398
#     4  11  24  44  67  95 125 172 226 275 315 384
#
# _framework density 21.074020999999998
#
# number of rings (size 3 to 8) (size 9 to 14) (size 15 to 20)
#    0.000    1.333    3.333    0.500    5.833    6.000 
#    3.000    0.000    0.000    0.000    0.000    0.000 
#    0.000    0.000    0.000    0.000    0.000    0.000 
#
# Total GULP energy -297561.542141 kJ/mol
# GULP energy per Si atom -12398.397589 kJ/mol
# Density = 2.102606 g / cm^3
# Si number density = 21.074021 Si / 1000 Ang^3
#
#
#
# Elastic Constant Matrix: (Units=GPa)
#
#
# Indices 1 2 3 4 5 6 
#
# 1 135.0020 52.8981 46.9883 0.0000 -2.6353 0.0000
# 2 52.8981 140.8831 67.4577 0.0000 8.1567 0.0000
# 3 46.9883 67.4577 151.0065 0.0000 -0.2897 0.0000
# 4 0.0000 0.0000 0.0000 -0.3559 0.0000 -14.0535
# 5 -2.6353 8.1567 -0.2897 0.0000 36.7830 0.0000
# 6 0.0000 0.0000 0.0000 -14.0535 0.0000 15.1714
#
#
#
# Elastic Compliance Matrix: (Units=1/GPa)
#
#
# Indices 1 2 3 4 5 6 
#
# 1 0.009049 -0.002699 -0.001607 0.000000 0.001234 0.000000
# 2 -0.002699 0.009990 -0.003627 0.000000 -0.002437 0.000000
# 3 -0.001607 -0.003627 0.008744 0.000000 0.000758 0.000000
# 4 0.000000 0.000000 0.000000 -0.074773 0.000000 -0.069263
# 5 0.001234 -0.002437 0.000758 0.000000 0.027821 0.000000
# 6 0.000000 0.000000 0.000000 -0.069263 0.000000 0.001754
#
#
# Mechanical properties :
#
#
# Convention : Reuss Voigt Hill
#
# Bulk Modulus (GPa) = 83.93247 84.61997 84.27622
# Shear Modulus (GPa) = 2063.30777 27.62290 1045.46534
#
# Velocity S-wave (km/s) = 31.32414 3.62436 22.29729
# Velocity P-wave (km/s) = 36.71761 7.59971 26.51357
#
# Compressibility (1/GPa) = 0.01191434
#
# Stress axis : x y z
#
# Youngs Moduli (GPa) = 110.51527 100.10503 114.36110
#
# Poissons Ratio (x) = 0.27021 0.18383
# Poissons Ratio (y) = 0.29831 0.41482
# Poissons Ratio (z) = 0.17764 0.36311
#
# Static dielectric constant tensor:
#      x y z
#    x 4.101020 0.000000 0.185560 
#    y 0.000000 3.533480 0.000000 
#    z 0.185560 0.000000 4.063790 
# 
# 
# High freq. dielectric constant tensor:
#      x y z
#    x 1.848190 0.000000 0.010100 
#    y 0.000000 1.806540 0.000000 
#    z 0.010100 0.000000 1.839240 
# 
# From -- ./inp_files/70654.got.cif
#   From: 2010.06.25/outbox.cif.g09.slc.cpg/sg15_36_cif.got.tgz:70654.got - 2010.06.28 07:06:18.
