data_PCOD8147026
_publ_section_title
;
Structure prediction by ZEFSAII (Michael W. Deem and Ramdas Pophale) SiO2 
 PCOD8147026
Probable space group: C 2/C
;
_chemical_formula_sum "Si O2"
_cell_formula_units_Z 32
_cell_length_a 9.307692
_cell_length_b 12.793291
_cell_length_c 25.143214
_cell_angle_alpha 90.000000
_cell_angle_beta 152.189191
_cell_angle_gamma 90.000000
_cell_volume 1396.839590
_symmetry_space_group_name_H-M "C 2/C"
_symmetry_group_IT_number 15
_symmetry_cell_setting 'monoclinic'
loop_
_space_group_symop_operation_xyz
x,y,z
-x,y,1/2-z
-x,-y,-z
x,-y,1/2+z
1/2+x,1/2+y,z
1/2-x,1/2+y,1/2-z
1/2-x,1/2-y,-z
1/2+x,1/2-y,1/2+z
loop_
_atom_site_type_symbol
_atom_site_label
_atom_site_fract_x
_atom_site_fract_y
_atom_site_fract_z
Si Si1 0.889400 0.110279 0.822515
Si Si2 0.886286 0.306077 0.654055
Si Si3 0.539052 0.598663 0.204034
Si Si4 0.728432 0.318819 0.098292
O O1 0.906827 0.151219 0.888418
O O2 0.532570 0.113457 0.685650
O O3 0.098409 0.182648 0.853160
O O4 0.020339 0.992935 0.858646
O O5 0.534552 0.344800 0.531222
O O6 0.000000 0.334091 0.750000
O O7 0.110171 0.362603 0.685817
O O8 0.500000 0.551101 0.250000
O O9 0.307764 0.695697 0.120556
#
# Coordination Sequence:
#
# PCOD8147026 Si02
#       4
#     8   8   8   8
#     4  10  22  42  69 101 131 180 230 273 346 403
#     4  11  24  43  66  98 139 181 227 281 335 403
#     4  11  23  43  68 102 137 177 228 276 344 405
#     4  10  22  46  67  97 145 176 219 292 336 395
#
# _framework density 22.908857000000001
#
# number of rings (size 3 to 8) (size 9 to 14) (size 15 to 20)
#    0.000    1.500    5.000    1.500    3.500    6.000 
#    4.500    0.000    0.000    0.000    0.000    0.000 
#    0.000    0.000    0.000    0.000    0.000    0.000 
#
# Total GULP energy -198366.673911 kJ/mol
# GULP energy per Si atom -12397.917119 kJ/mol
# Density = 2.285672 g / cm^3
# Si number density = 22.908857 Si / 1000 Ang^3
#
#
#
# Elastic Constant Matrix: (Units=GPa)
#
#
# Indices 1 2 3 4 5 6 
#
# 1 96.5373 46.0619 40.5924 -0.0005 -3.2003 0.0000
# 2 46.0619 129.0970 10.7577 -0.0010 -11.1972 -0.0001
# 3 40.5924 10.7577 156.7437 -0.0072 -10.1205 -0.0009
# 4 -0.0005 -0.0010 -0.0072 5.4769 0.0002 -5.0295
# 5 -3.2003 -11.1972 -10.1205 0.0002 20.1785 0.0002
# 6 0.0000 -0.0001 -0.0009 -5.0295 0.0002 40.9986
#
#
#
# Elastic Compliance Matrix: (Units=1/GPa)
#
#
# Indices 1 2 3 4 5 6 
#
# 1 0.014092 -0.004934 -0.003455 -0.000005 -0.002236 -0.000001
# 2 -0.004934 0.009877 0.000933 0.000003 0.005166 0.000000
# 3 -0.003455 0.000933 0.007450 0.000011 0.003706 0.000001
# 4 -0.000005 0.000003 0.000011 0.205767 0.000004 0.025243
# 5 -0.002236 0.005166 0.003706 0.000004 0.053929 0.000000
# 6 -0.000001 0.000000 0.000001 0.025243 0.000000 0.027488
#
#
# Mechanical properties :
#
#
# Convention : Reuss Voigt Hill
#
# Bulk Modulus (GPa) = 60.57946 64.13357 62.35652
# Shear Modulus (GPa) = 14.74859 32.32853 23.53856
#
# Velocity S-wave (km/s) = 2.54006 3.76064 3.20892
# Velocity P-wave (km/s) = 5.92483 6.84927 6.40375
#
# Compressibility (1/GPa) = 0.01650724
#
# Stress axis : x y z
#
# Youngs Moduli (GPa) = 70.96459 101.24681 134.23071
#
# Poissons Ratio (x) = 0.49954 0.46378
# Poissons Ratio (y) = 0.35013 -0.12530
# Poissons Ratio (z) = 0.24519 -0.09451
#
# Static dielectric constant tensor:
#      x y z
#    x 4.136490 0.000000 0.199080 
#    y 0.000000 4.126290 0.000000 
#    z 0.199080 0.000000 3.860800 
# 
# 
# High freq. dielectric constant tensor:
#      x y z
#    x 1.904670 0.000000 0.011960 
#    y 0.000000 1.902360 0.000000 
#    z 0.011960 0.000000 1.883640 
# 
# From -- ./inp_files/75536.got.cif
#   From: 2010.06.25/outbox.cif.g09.slc.cpg/sg15_38_cif.got.tgz:75536.got - 2010.06.28 07:06:18.
