data_PCOD8147027
_publ_section_title
;
Structure prediction by ZEFSAII (Michael W. Deem and Ramdas Pophale) SiO2 
 PCOD8147027
Probable space group: C 2/C
;
_chemical_formula_sum "Si O2"
_cell_formula_units_Z 44
_cell_length_a 26.987542
_cell_length_b 5.459074
_cell_length_c 17.083728
_cell_angle_alpha 90.000000
_cell_angle_beta 127.227701
_cell_angle_gamma 90.000000
_cell_volume 2004.045593
_symmetry_space_group_name_H-M "C 2/C"
_symmetry_group_IT_number 15
_symmetry_cell_setting 'monoclinic'
loop_
_space_group_symop_operation_xyz
x,y,z
-x,y,1/2-z
-x,-y,-z
x,-y,1/2+z
1/2+x,1/2+y,z
1/2-x,1/2+y,1/2-z
1/2-x,1/2-y,-z
1/2+x,1/2-y,1/2+z
loop_
_atom_site_type_symbol
_atom_site_label
_atom_site_fract_x
_atom_site_fract_y
_atom_site_fract_z
Si Si1 0.272284 0.998549 0.481198
Si Si2 0.274360 0.513352 0.736988
Si Si3 0.496223 0.257605 0.093493
Si Si4 0.095924 0.100247 0.579898
Si Si5 0.406110 0.128156 0.574289
Si Si6 0.500000 0.433325 0.750000
O O1 0.250000 0.750000 0.500000
O O2 0.242628 0.006767 0.368624
O O3 0.250000 0.250000 0.500000
O O4 0.347904 0.976891 0.552554
O O5 0.243526 0.285849 0.752072
O O6 0.348035 0.484418 0.817829
O O7 0.558269 0.210848 0.100854
O O8 0.515491 0.414920 0.187299
O O9 0.465378 0.014001 0.096536
O O10 0.447933 0.380185 0.988221
O O11 0.122277 0.222046 0.525803
O O12 0.436133 0.284713 0.673139
#
# Coordination Sequence:
#
# PCOD8147027 Si02
#       6
#     8   8   8   8   8   4
#     4  12  29  47  73 108 148 195 243 301 367 432
#     4  12  25  47  74 104 143 198 241 296 357 431
#     4  10  22  42  69 101 134 179 229 297 358 416
#     4  10  23  41  70 100 133 177 242 289 352 428
#     4  11  23  45  68  98 145 180 236 295 358 425
#     4  10  24  38  68 100 142 182 222 286 368 420
#
# _framework density 21.955586
#
# number of rings (size 3 to 8) (size 9 to 14) (size 15 to 20)
#    0.000    1.091    1.818    3.273    7.636    1.455 
#    0.000    0.000    0.000    0.000    0.000    0.000 
#    0.000    0.000    0.000    0.000    0.000    0.000 
#
# Total GULP energy -272694.929041 kJ/mol
# GULP energy per Si atom -12395.224047 kJ/mol
# Density = 2.190561 g / cm^3
# Si number density = 21.955586 Si / 1000 Ang^3
#
#
#
# Elastic Constant Matrix: (Units=GPa)
#
#
# Indices 1 2 3 4 5 6 
#
# 1 88.8452 17.3251 53.1146 0.0005 1.0710 -0.0003
# 2 17.3251 87.4735 31.7079 -0.0091 -3.1520 0.0084
# 3 53.1146 31.7079 173.1160 -0.0004 -2.2073 -0.0002
# 4 0.0005 -0.0091 -0.0004 2.7769 0.0001 -4.7395
# 5 1.0710 -3.1520 -2.2073 0.0001 18.4822 0.0002
# 6 -0.0003 0.0084 -0.0002 -4.7395 0.0002 38.8600
#
#
#
# Elastic Compliance Matrix: (Units=1/GPa)
#
#
# Indices 1 2 3 4 5 6 
#
# 1 0.013962 -0.001350 -0.004056 -0.000009 -0.001524 -0.000001
# 2 -0.001350 0.012437 -0.001839 0.000046 0.001980 0.000003
# 3 -0.004056 -0.001839 0.007368 -0.000004 0.000801 0.000000
# 4 -0.000009 0.000046 -0.000004 0.454790 0.000005 0.055468
# 5 -0.001524 0.001980 0.000801 0.000005 0.054628 0.000000
# 6 -0.000001 0.000003 0.000000 0.055468 0.000000 0.032499
#
#
# Mechanical properties :
#
#
# Convention : Reuss Voigt Hill
#
# Bulk Modulus (GPa) = 51.87244 61.52554 56.69899
# Shear Modulus (GPa) = 8.38086 28.50963 18.44525
#
# Velocity S-wave (km/s) = 1.95588 3.60740 2.90162
# Velocity P-wave (km/s) = 5.36451 6.74052 6.09150
#
# Compressibility (1/GPa) = 0.01927806
#
# Stress axis : x y z
#
# Youngs Moduli (GPa) = 71.62349 80.40394 135.72491
#
# Poissons Ratio (x) = 0.10855 0.55048
# Poissons Ratio (y) = 0.09669 0.24954
# Poissons Ratio (z) = 0.29050 0.14783
#
# Static dielectric constant tensor:
#      x y z
#    x 4.111820 0.000000 -0.107280 
#    y 0.000000 3.902470 0.000000 
#    z -0.107280 0.000000 4.161860 
# 
# 
# High freq. dielectric constant tensor:
#      x y z
#    x 1.865190 0.000000 -0.002920 
#    y 0.000000 1.858410 0.000000 
#    z -0.002920 0.000000 1.888190 
# 
# From -- ./inp_files/221108.got.cif
#   From: 2010.06.25/outbox.cif.g09.slc.cpg/sg15_111_cif.got.tgz:221108.got - 2010.06.28 07:06:18.
