data_PCOD8147544
_publ_section_title
;
Structure prediction by ZEFSAII (Michael W. Deem and Ramdas Pophale) SiO2 
 PCOD8147544
Probable space group: C 2/C
;
_chemical_formula_sum "Si O2"
_cell_formula_units_Z 36
_cell_length_a 10.857786
_cell_length_b 18.894530
_cell_length_c 8.437897
_cell_angle_alpha 90.000000
_cell_angle_beta 63.162571
_cell_angle_gamma 90.000000
_cell_volume 1544.607525
_symmetry_space_group_name_H-M "C 2/C"
_symmetry_group_IT_number 15
_symmetry_cell_setting 'monoclinic'
loop_
_space_group_symop_operation_xyz
x,y,z
-x,y,1/2-z
-x,-y,-z
x,-y,1/2+z
1/2+x,1/2+y,z
1/2-x,1/2+y,1/2-z
1/2-x,1/2-y,-z
1/2+x,1/2-y,1/2+z
loop_
_atom_site_type_symbol
_atom_site_label
_atom_site_fract_x
_atom_site_fract_y
_atom_site_fract_z
Si Si1 0.193406 0.052179 0.384788
Si Si2 0.239398 0.834330 0.303806
Si Si3 0.500000 0.408439 0.250000
Si Si4 0.345863 0.684180 0.303647
Si Si5 0.636877 0.954073 0.423492
O O1 0.063849 0.038713 0.578706
O O2 0.158547 0.126634 0.328754
O O3 0.331743 0.058980 0.410623
O O4 0.227127 0.991988 0.236078
O O5 0.261453 0.750298 0.282510
O O6 0.217208 0.851773 0.502075
O O7 0.374085 0.879327 0.164775
O O8 0.113273 0.856187 0.262550
O O9 0.500000 0.710516 0.250000
O O10 0.500000 0.000000 0.500000
#
# Coordination Sequence:
#
# PCOD8147544 Si02
#       5
#     8   8   4   8   8
#     4  11  24  43  69 100 139 181 230 285 349 410
#     4  10  24  44  73 102 142 182 229 292 347 415
#     4  10  22  44  66 106 138 178 234 280 344 420
#     4  11  23  45  69 104 140 184 230 286 351 422
#     4  11  25  46  69 102 138 185 236 289 350 416
#
# _framework density 23.306892000000001
#
# number of rings (size 3 to 8) (size 9 to 14) (size 15 to 20)
#    0.000    1.333    2.222    2.000    0.000   12.444 
#   14.000    0.000    0.000    0.000    0.000    0.000 
#    0.000    0.000    0.000    0.000    0.000    0.000 
#
# Total GULP energy -223100.266536 kJ/mol
# GULP energy per Si atom -12394.459252 kJ/mol
# Density = 2.325384 g / cm^3
# Si number density = 23.306892 Si / 1000 Ang^3
#
#
#
# Elastic Constant Matrix: (Units=GPa)
#
#
# Indices 1 2 3 4 5 6 
#
# 1 83.9570 23.3253 18.3997 0.0000 6.9629 0.0000
# 2 23.3253 80.6912 42.9246 0.0000 14.6631 0.0000
# 3 18.3997 42.9246 101.4453 0.0000 5.5350 0.0000
# 4 0.0000 0.0000 0.0000 36.8378 0.0000 -4.2110
# 5 6.9629 14.6631 5.5350 0.0000 33.1344 0.0000
# 6 0.0000 0.0000 0.0000 -4.2110 0.0000 41.2922
#
#
#
# Elastic Compliance Matrix: (Units=1/GPa)
#
#
# Indices 1 2 3 4 5 6 
#
# 1 0.013075 -0.003004 -0.001032 0.000000 -0.001246 0.000000
# 2 -0.003004 0.017960 -0.006717 0.000000 -0.006195 0.000000
# 3 -0.001032 -0.006717 0.012830 0.000000 0.001046 0.000000
# 4 0.000000 0.000000 0.000000 0.027466 0.000000 0.002801
# 5 -0.001246 -0.006195 0.001046 0.000000 0.033008 0.000000
# 6 0.000000 0.000000 0.000000 0.002801 0.000000 0.024503
#
#
# Mechanical properties :
#
#
# Convention : Reuss Voigt Hill
#
# Bulk Modulus (GPa) = 44.72538 48.37698 46.55118
# Shear Modulus (GPa) = 31.68538 34.34915 33.01727
#
# Velocity S-wave (km/s) = 3.69112 3.84314 3.76790
# Velocity P-wave (km/s) = 6.11533 6.36354 6.24067
#
# Compressibility (1/GPa) = 0.02235867
#
# Stress axis : x y z
#
# Youngs Moduli (GPa) = 76.48171 55.67950 77.94419
#
# Poissons Ratio (x) = 0.16726 0.08047
# Poissons Ratio (y) = 0.22975 0.52352
# Poissons Ratio (z) = 0.07896 0.37397
#
# Static dielectric constant tensor:
#      x y z
#    x 4.198250 0.000000 -0.004940 
#    y 0.000000 4.018970 0.000000 
#    z -0.004940 0.000000 4.645720 
# 
# 
# High freq. dielectric constant tensor:
#      x y z
#    x 1.921710 0.000000 0.010640 
#    y 0.000000 1.913080 0.000000 
#    z 0.010640 0.000000 1.944010 
# 
# From -- ./inp_files/28976.got.cif
#   From: 2010.06.25/outbox.cif.g09.slc.cpg/sg15_15_cif.got.tgz:28976.got - 2010.06.28 07:06:18.
