data_PCOD8147065
_publ_section_title
;
Structure prediction by ZEFSAII (Michael W. Deem and Ramdas Pophale) SiO2 
 PCOD8147065
Probable space group: C 2/C
;
_chemical_formula_sum "Si O2"
_cell_formula_units_Z 64
_cell_length_a 7.943311
_cell_length_b 31.539405
_cell_length_c 14.711955
_cell_angle_alpha 90.000000
_cell_angle_beta 52.870031
_cell_angle_gamma 90.000000
_cell_volume 2938.528795
_symmetry_space_group_name_H-M "C 2/C"
_symmetry_group_IT_number 15
_symmetry_cell_setting 'monoclinic'
loop_
_space_group_symop_operation_xyz
x,y,z
-x,y,1/2-z
-x,-y,-z
x,-y,1/2+z
1/2+x,1/2+y,z
1/2-x,1/2+y,1/2-z
1/2-x,1/2-y,-z
1/2+x,1/2-y,1/2+z
loop_
_atom_site_type_symbol
_atom_site_label
_atom_site_fract_x
_atom_site_fract_y
_atom_site_fract_z
Si Si1 0.583839 0.169480 0.002828
Si Si2 0.116440 0.133695 0.455449
Si Si3 0.257579 0.149225 0.811380
Si Si4 0.169408 0.473472 0.125983
Si Si5 0.232964 0.770963 0.203909
Si Si6 0.355279 0.089721 0.629586
Si Si7 0.621841 0.451119 0.043124
Si Si8 0.185286 0.182117 0.254795
O O1 0.790306 0.163612 0.996508
O O2 0.399499 0.182594 0.129900
O O3 0.627721 0.208008 0.920407
O O4 0.530129 0.126024 0.967865
O O5 0.185195 0.085066 0.449270
O O6 0.193783 0.147271 0.331519
O O7 0.865513 0.139292 0.554754
O O8 0.500000 0.142932 0.750000
O O9 0.208940 0.196765 0.795218
O O10 0.201512 0.114016 0.752214
O O11 0.367028 0.456933 0.122830
O O12 0.000000 0.494660 0.250000
O O13 0.047348 0.435837 0.113466
O O14 0.255224 0.506424 0.024512
O O15 0.359102 0.728873 0.191518
O O16 0.000000 0.757007 0.250000
O O17 0.202837 0.060243 0.617826
O O18 0.000000 0.167553 0.250000
#
# Coordination Sequence:
#
# PCOD8147065 Si02
#       8
#     8   8   8   8   8   8   8   8
#     4  10  24  43  67  97 127 179 225 274 338 404
#     4  11  23  44  68  93 131 178 225 274 338 408
#     4  11  23  39  70 104 128 170 224 290 337 392
#     4  11  23  41  66 101 134 180 220 280 339 402
#     4  11  23  43  69  96 131 169 228 279 337 396
#     4  10  22  42  70 100 138 171 225 283 343 398
#     4  10  24  41  67  97 139 174 229 274 339 414
#     4  12  29  42  63  94 134 183 223 278 338 399
#
# _framework density 21.779605
#
# number of rings (size 3 to 8) (size 9 to 14) (size 15 to 20)
#    0.000    1.250    1.250    3.750    7.000    6.000 
#    0.000    0.000    0.000    0.000    0.000    0.000 
#    0.000    0.000    0.000    0.000    0.000    0.000 
#
# Total GULP energy -396816.638615 kJ/mol
# GULP energy per Si atom -12400.519957 kJ/mol
# Density = 2.173003 g / cm^3
# Si number density = 21.779605 Si / 1000 Ang^3
#
#
#
# Elastic Constant Matrix: (Units=GPa)
#
#
# Indices 1 2 3 4 5 6 
#
# 1 90.3883 15.5999 17.2680 0.0000 -5.6158 0.0000
# 2 15.5999 68.5322 17.2846 0.0000 -3.9734 0.0000
# 3 17.2680 17.2846 109.9440 0.0000 -11.4979 0.0000
# 4 0.0000 0.0000 0.0000 25.3769 0.0000 0.4325
# 5 -5.6158 -3.9734 -11.4979 0.0000 29.3217 0.0000
# 6 0.0000 0.0000 0.0000 0.4325 0.0000 32.1515
#
#
#
# Elastic Compliance Matrix: (Units=1/GPa)
#
#
# Indices 1 2 3 4 5 6 
#
# 1 0.011800 -0.002263 -0.001349 0.000000 0.001424 0.000000
# 2 -0.002263 0.015667 -0.002013 0.000000 0.000900 0.000000
# 3 -0.001349 -0.002013 0.009978 0.000000 0.003381 0.000000
# 4 0.000000 0.000000 0.000000 0.039415 0.000000 -0.000530
# 5 0.001424 0.000900 0.003381 0.000000 0.035825 0.000000
# 6 0.000000 0.000000 0.000000 -0.000530 0.000000 0.031110
#
#
# Mechanical properties :
#
#
# Convention : Reuss Voigt Hill
#
# Bulk Modulus (GPa) = 38.17686 41.01884 39.59785
# Shear Modulus (GPa) = 30.52943 31.95082 31.24013
#
# Velocity S-wave (km/s) = 3.74805 3.83431 3.79142
# Velocity P-wave (km/s) = 6.02472 6.20299 6.11450
#
# Compressibility (1/GPa) = 0.02619388
#
# Stress axis : x y z
#
# Youngs Moduli (GPa) = 84.74481 63.82893 100.22544
#
# Poissons Ratio (x) = 0.14447 0.13516
# Poissons Ratio (y) = 0.19181 0.20180
# Poissons Ratio (z) = 0.11428 0.12851
#
# Static dielectric constant tensor:
#      x y z
#    x 4.039220 0.000000 0.276060 
#    y 0.000000 3.988670 0.000000 
#    z 0.276060 0.000000 3.650400 
# 
# 
# High freq. dielectric constant tensor:
#      x y z
#    x 1.865320 0.000000 0.000060 
#    y 0.000000 1.858110 0.000000 
#    z 0.000060 0.000000 1.851000 
# 
# From -- ./inp_files/139828.got.cif
#   From: 2010.06.25/outbox.cif.g09.slc.cpg/sg15_70_cif.got.tgz:139828.got - 2010.06.28 07:06:18.
