data_PCOD8147150
_publ_section_title
;
Structure prediction by ZEFSAII (Michael W. Deem and Ramdas Pophale) SiO2 
 PCOD8147150
Probable space group: C 2/C
;
_chemical_formula_sum "Si O2"
_cell_formula_units_Z 60
_cell_length_a 12.078819
_cell_length_b 8.694371
_cell_length_c 28.290712
_cell_angle_alpha 90.000000
_cell_angle_beta 75.132874
_cell_angle_gamma 90.000000
_cell_volume 2871.566749
_symmetry_space_group_name_H-M "C 2/C"
_symmetry_group_IT_number 15
_symmetry_cell_setting 'monoclinic'
loop_
_space_group_symop_operation_xyz
x,y,z
-x,y,1/2-z
-x,-y,-z
x,-y,1/2+z
1/2+x,1/2+y,z
1/2-x,1/2+y,1/2-z
1/2-x,1/2-y,-z
1/2+x,1/2-y,1/2+z
loop_
_atom_site_type_symbol
_atom_site_label
_atom_site_fract_x
_atom_site_fract_y
_atom_site_fract_z
Si Si1 0.614665 0.467496 0.321877
Si Si2 0.803356 0.724048 0.116699
Si Si3 0.000000 0.811700 0.250000
Si Si4 0.863599 0.981991 0.385137
Si Si5 0.281043 0.006370 0.925357
Si Si6 0.303761 0.186793 0.333926
Si Si7 0.011009 0.579207 0.047999
Si Si8 0.102518 0.089738 0.514519
O O1 0.675254 0.315652 0.337134
O O2 0.581137 0.424828 0.271885
O O3 0.499738 0.485683 0.364572
O O4 0.691837 0.625403 0.316016
O O5 0.683891 0.634805 0.134688
O O6 0.897521 0.595849 0.092182
O O7 0.793308 0.839765 0.073159
O O8 0.916271 0.700128 0.288799
O O9 0.795991 0.843749 0.365414
O O10 0.844966 0.989939 0.443952
O O11 0.317404 0.946549 0.870199
O O12 0.402705 0.037322 0.935759
O O13 0.204779 0.890845 0.965403
O O14 0.063541 0.746704 0.037258
O O15 0.000000 0.500000 0.000000
O O16 0.000000 0.000000 0.500000
#
# Coordination Sequence:
#
# PCOD8147150 Si02
#       8
#     8   8   4   8   8   8   8   8
#     4  10  22  46  67  96 128 160 206 263 325 388
#     4  11  24  42  61  93 131 169 213 264 306 372
#     4  10  22  42  72  96 126 154 202 268 332 384
#     4  11  23  41  66  91 130 174 215 259 310 366
#     4  11  23  41  61  88 130 171 215 257 316 369
#     4  10  22  43  69  92 122 170 205 260 325 384
#     4  12  24  36  56  91 129 174 224 258 302 362
#     4  12  22  40  62  88 135 180 215 264 309 360
#
# _framework density 20.894518000000001
#
# number of rings (size 3 to 8) (size 9 to 14) (size 15 to 20)
#    0.000    1.067    4.000    2.800    3.733    4.267 
#    0.000    2.667    0.000    1.600    0.000    0.000 
#    0.000    0.000    0.000    0.000    0.000    0.000 
#
# Total GULP energy -371688.552449 kJ/mol
# GULP energy per Si atom -12389.618415 kJ/mol
# Density = 2.084696 g / cm^3
# Si number density = 20.894518 Si / 1000 Ang^3
#
#
#
# Elastic Constant Matrix: (Units=GPa)
#
#
# Indices 1 2 3 4 5 6 
#
# 1 123.2808 45.0129 48.3189 0.0000 21.1219 0.0000
# 2 45.0129 55.4797 25.1139 0.0000 6.1006 0.0000
# 3 48.3189 25.1139 111.3013 0.0000 8.8108 0.0000
# 4 0.0000 0.0000 0.0000 17.4942 0.0000 7.6322
# 5 21.1219 6.1006 8.8108 0.0000 32.1209 0.0000
# 6 0.0000 0.0000 0.0000 7.6322 0.0000 46.0278
#
#
#
# Elastic Compliance Matrix: (Units=1/GPa)
#
#
# Indices 1 2 3 4 5 6 
#
# 1 0.013850 -0.008951 -0.003482 0.000000 -0.006452 0.000000
# 2 -0.008951 0.026080 -0.002118 0.000000 0.001514 0.000000
# 3 -0.003482 -0.002118 0.011000 0.000000 -0.000325 0.000000
# 4 0.000000 0.000000 0.000000 0.061620 0.000000 -0.010218
# 5 -0.006452 0.001514 -0.000325 0.000000 0.035177 0.000000
# 6 0.000000 0.000000 0.000000 -0.010218 0.000000 0.023420
#
#
# Mechanical properties :
#
#
# Convention : Reuss Voigt Hill
#
# Bulk Modulus (GPa) = 45.81702 58.55034 52.18368
# Shear Modulus (GPa) = 24.09333 30.56965 27.33149
#
# Velocity S-wave (km/s) = 3.39941 3.82913 3.62065
# Velocity P-wave (km/s) = 6.11419 6.90162 6.51980
#
# Compressibility (1/GPa) = 0.02182595
#
# Stress axis : x y z
#
# Youngs Moduli (GPa) = 72.20074 38.34396 90.90857
#
# Poissons Ratio (x) = 0.34324 0.31656
# Poissons Ratio (y) = 0.64630 0.19258
# Poissons Ratio (z) = 0.25142 0.08123
#
# Static dielectric constant tensor:
#      x y z
#    x 4.190460 0.000000 0.131110 
#    y 0.000000 10.227400 0.000000 
#    z 0.131110 0.000000 3.643760 
# 
# 
# High freq. dielectric constant tensor:
#      x y z
#    x 1.836240 0.000000 0.009560 
#    y 0.000000 1.804040 0.000000 
#    z 0.009560 0.000000 1.811570 
# 
# From -- ./inp_files/309969.got.cif
#   From: 2010.06.25/outbox.cif.g09.slc.cpg/sg15_155_cif.got.tgz:309969.got - 2010.06.28 07:06:18.
