data_PCOD8147863
_publ_section_title
;
Structure prediction by ZEFSAII (Michael W. Deem and Ramdas Pophale) SiO2 
 PCOD8147863
Probable space group: C 2/C
;
_chemical_formula_sum "Si O2"
_cell_formula_units_Z 48
_cell_length_a 11.690855
_cell_length_b 18.398290
_cell_length_c 10.981285
_cell_angle_alpha 90.000000
_cell_angle_beta 73.794937
_cell_angle_gamma 90.000000
_cell_volume 2268.139798
_symmetry_space_group_name_H-M "C 2/C"
_symmetry_group_IT_number 15
_symmetry_cell_setting 'monoclinic'
loop_
_space_group_symop_operation_xyz
x,y,z
-x,y,1/2-z
-x,-y,-z
x,-y,1/2+z
1/2+x,1/2+y,z
1/2-x,1/2+y,1/2-z
1/2-x,1/2-y,-z
1/2+x,1/2-y,1/2+z
loop_
_atom_site_type_symbol
_atom_site_label
_atom_site_fract_x
_atom_site_fract_y
_atom_site_fract_z
Si Si1 0.159363 0.711677 0.438996
Si Si2 0.283718 0.811181 0.841399
Si Si3 0.435570 0.297267 0.434620
Si Si4 0.827173 0.452209 0.984471
Si Si5 0.519103 0.087432 0.610709
Si Si6 0.059738 0.966595 0.104715
O O1 0.250000 0.750000 0.500000
O O2 0.227280 0.682572 0.299783
O O3 0.100833 0.641185 0.512301
O O4 0.063401 0.772662 0.439273
O O5 0.386162 0.751403 0.838038
O O6 0.315967 0.888718 0.888946
O O7 0.155953 0.785146 0.927220
O O8 0.448889 0.379969 0.390405
O O9 0.912394 0.511273 0.897870
O O10 0.699900 0.486837 0.059838
O O11 0.889987 0.420898 0.086750
O O12 0.500000 0.119889 0.750000
O O13 0.000000 0.995770 0.250000
O O14 0.000000 0.000000 0.000000
#
# Coordination Sequence:
#
# PCOD8147863 Si02
#       6
#     8   8   8   8   8   8
#     4  12  27  40  69 102 137 172 220 292 343 396
#     4  10  22  45  72  92 130 179 236 265 340 421
#     4  10  23  44  69  92 126 179 225 277 332 419
#     4  10  25  46  71  98 135 189 226 281 342 420
#     4  11  27  42  70 102 141 176 230 284 339 409
#     4  11  26  45  71  99 136 181 235 288 347 416
#
# _framework density 21.162716
#
# number of rings (size 3 to 8) (size 9 to 14) (size 15 to 20)
#    0.000    1.333    1.667    1.500   11.667    1.333 
#    0.000    0.000    0.000    0.000    0.000    0.000 
#    0.000    0.000    0.000    0.000    0.000    0.000 
#
# Total GULP energy -297655.946111 kJ/mol
# GULP energy per Si atom -12402.331088 kJ/mol
# Density = 2.111455 g / cm^3
# Si number density = 21.162716 Si / 1000 Ang^3
#
#
#
# Elastic Constant Matrix: (Units=GPa)
#
#
# Indices 1 2 3 4 5 6 
#
# 1 144.9158 14.7792 64.7560 0.0000 2.4570 0.0000
# 2 14.7792 34.2337 18.4956 0.0000 -3.0081 0.0000
# 3 64.7560 18.4956 169.2973 0.0000 16.7758 0.0000
# 4 0.0000 0.0000 0.0000 17.2477 0.0000 3.8055
# 5 2.4570 -3.0081 16.7758 0.0000 23.2930 0.0000
# 6 0.0000 0.0000 0.0000 3.8055 0.0000 33.8138
#
#
#
# Elastic Compliance Matrix: (Units=1/GPa)
#
#
# Indices 1 2 3 4 5 6 
#
# 1 0.008480 -0.001857 -0.003153 0.000000 0.001137 0.000000
# 2 -0.001857 0.032530 -0.003531 0.000000 0.006940 0.000000
# 3 -0.003153 -0.003531 0.008088 0.000000 -0.005949 0.000000
# 4 0.000000 0.000000 0.000000 0.059455 0.000000 -0.006691
# 5 0.001137 0.006940 -0.005949 0.000000 0.047992 0.000000
# 6 0.000000 0.000000 0.000000 -0.006691 0.000000 0.030327
#
#
# Mechanical properties :
#
#
# Convention : Reuss Voigt Hill
#
# Bulk Modulus (GPa) = 31.23561 60.50095 45.86828
# Shear Modulus (GPa) = 23.29622 31.56529 27.43076
#
# Velocity S-wave (km/s) = 3.32145 3.86625 3.60416
# Velocity P-wave (km/s) = 5.43150 6.97001 6.24829
#
# Compressibility (1/GPa) = 0.03201475
#
# Stress axis : x y z
#
# Youngs Moduli (GPa) = 117.92830 30.74045 123.63862
#
# Poissons Ratio (x) = 0.05710 0.38986
# Poissons Ratio (y) = 0.21904 0.43659
# Poissons Ratio (z) = 0.37185 0.10855
#
# Static dielectric constant tensor:
#      x y z
#    x 4.007630 0.000000 -0.104350 
#    y 0.000000 3.755360 0.000000 
#    z -0.104350 0.000000 3.912010 
# 
# 
# High freq. dielectric constant tensor:
#      x y z
#    x 1.837100 0.000000 -0.008110 
#    y 0.000000 1.831660 0.000000 
#    z -0.008110 0.000000 1.839710 
# 
# From -- ./inp_files/87753.got.cif
#   From: 2010.06.25/outbox.cif.g09.slc.cpg/sg15_44_cif.got.tgz:87753.got - 2010.06.28 07:06:18.
