data_PCOD8147286
_publ_section_title
;
Structure prediction by ZEFSAII (Michael W. Deem and Ramdas Pophale) SiO2 
 PCOD8147286
Probable space group: C 2/C
;
_chemical_formula_sum "Si O2"
_cell_formula_units_Z 56
_cell_length_a 24.111917
_cell_length_b 8.970487
_cell_length_c 14.932336
_cell_angle_alpha 90.000000
_cell_angle_beta 120.753859
_cell_angle_gamma 90.000000
_cell_volume 2775.598860
_symmetry_space_group_name_H-M "C 2/C"
_symmetry_group_IT_number 15
_symmetry_cell_setting 'monoclinic'
loop_
_space_group_symop_operation_xyz
x,y,z
-x,y,1/2-z
-x,-y,-z
x,-y,1/2+z
1/2+x,1/2+y,z
1/2-x,1/2+y,1/2-z
1/2-x,1/2-y,-z
1/2+x,1/2-y,1/2+z
loop_
_atom_site_type_symbol
_atom_site_label
_atom_site_fract_x
_atom_site_fract_y
_atom_site_fract_z
Si Si1 0.677615 0.285747 0.906949
Si Si2 0.679021 0.617424 0.929031
Si Si3 0.043287 0.836512 0.367457
Si Si4 0.457729 0.686478 0.129630
Si Si5 0.467327 0.155878 0.964895
Si Si6 0.745086 0.831481 0.841374
Si Si7 0.674879 0.122397 0.722201
O O1 0.671774 0.458627 0.873918
O O2 0.617275 0.255740 0.925499
O O3 0.663157 0.184915 0.810511
O O4 0.750000 0.250000 0.000000
O O5 0.614229 0.707112 0.894299
O O6 0.714406 0.720932 0.888176
O O7 0.707222 0.580451 0.052133
O O8 0.022180 0.746003 0.436006
O O9 0.000000 0.784419 0.250000
O O10 0.039952 0.010938 0.384922
O O11 0.500000 0.732432 0.250000
O O12 0.493822 0.756149 0.076862
O O13 0.392200 0.128161 0.884885
O O14 0.500000 0.000000 0.000000
O O15 0.775859 0.728714 0.790198
O O16 0.700130 0.951624 0.753004
#
# Coordination Sequence:
#
# PCOD8147286 Si02
#       7
#     8   8   8   8   8   8   8
#     4  11  22  42  71  99 129 171 224 276 332 399
#     4  10  22  43  66  95 129 170 218 270 330 394
#     4  10  23  45  69  93 127 176 224 269 325 402
#     4  10  22  44  70  94 132 180 222 271 337 404
#     4  12  27  43  64 102 136 175 220 278 339 400
#     4  11  24  42  67  95 133 175 215 275 334 390
#     4  12  25  45  66  97 136 174 223 276 332 402
#
# _framework density 20.175827000000002
#
# number of rings (size 3 to 8) (size 9 to 14) (size 15 to 20)
#    0.000    1.143    4.286    1.286    2.000    4.000 
#    0.000    0.000    0.000    0.000    0.000    0.000 
#    0.000    0.000    0.000    0.000    0.000    0.000 
#
# Total GULP energy -346999.181016 kJ/mol
# GULP energy per Si atom -12392.827893 kJ/mol
# Density = 2.012991 g / cm^3
# Si number density = 20.175827 Si / 1000 Ang^3
#
#
#
# Elastic Constant Matrix: (Units=GPa)
#
#
# Indices 1 2 3 4 5 6 
#
# 1 130.6217 47.8624 72.9100 0.0000 0.4959 0.0000
# 2 47.8624 79.7203 50.7981 0.0000 -11.2378 0.0000
# 3 72.9100 50.7981 113.2199 0.0000 -1.5182 0.0000
# 4 0.0000 0.0000 0.0000 4.3693 0.0000 -41.3603
# 5 0.4959 -11.2378 -1.5182 0.0000 33.3347 0.0000
# 6 0.0000 0.0000 0.0000 -41.3603 0.0000 4.2735
#
#
#
# Elastic Compliance Matrix: (Units=1/GPa)
#
#
# Indices 1 2 3 4 5 6 
#
# 1 0.012650 -0.003687 -0.006515 0.000000 -0.001728 0.000000
# 2 -0.003687 0.019737 -0.006395 0.000000 0.006417 0.000000
# 3 -0.006515 -0.006395 0.015879 0.000000 -0.001336 0.000000
# 4 0.000000 0.000000 0.000000 -0.002526 0.000000 -0.024445
# 5 -0.001728 0.006417 -0.001336 0.000000 0.032127 0.000000
# 6 0.000000 0.000000 0.000000 -0.024445 0.000000 -0.002582
#
#
# Mechanical properties :
#
#
# Convention : Reuss Voigt Hill
#
# Bulk Modulus (GPa) = 66.34816 74.07809 70.21313
# Shear Modulus (GPa) = 44.05193 18.52830 31.29011
#
# Velocity S-wave (km/s) = 4.67776 3.03370 3.94238
# Velocity P-wave (km/s) = 7.88236 7.00479 7.45650
#
# Compressibility (1/GPa) = 0.01507201
#
# Stress axis : x y z
#
# Youngs Moduli (GPa) = 79.05332 50.66657 62.97550
#
# Poissons Ratio (x) = 0.18680 0.41029
# Poissons Ratio (y) = 0.29145 0.40273
# Poissons Ratio (z) = 0.51503 0.32402
#
# Static dielectric constant tensor:
#      x y z
#    x 3.834300 0.000000 0.116420 
#    y 0.000000 3.603200 0.000000 
#    z 0.116420 0.000000 3.829140 
# 
# 
# High freq. dielectric constant tensor:
#      x y z
#    x 1.805580 0.000000 0.001880 
#    y 0.000000 1.793000 0.000000 
#    z 0.001880 0.000000 1.791180 
# 
# From -- ./inp_files/172298.got.cif
#   From: 2010.06.25/outbox.cif.g09.slc.cpg/sg15_87_cif.got.tgz:172298.got - 2010.06.28 07:06:18.
