data_PCOD8147354
_publ_section_title
;
Structure prediction by ZEFSAII (Michael W. Deem and Ramdas Pophale) SiO2 
 PCOD8147354
Probable space group: C 2/C
;
_chemical_formula_sum "Si O2"
_cell_formula_units_Z 48
_cell_length_a 12.501874
_cell_length_b 18.368860
_cell_length_c 12.251993
_cell_angle_alpha 90.000000
_cell_angle_beta 51.638188
_cell_angle_gamma 90.000000
_cell_volume 2206.172917
_symmetry_space_group_name_H-M "C 2/C"
_symmetry_group_IT_number 15
_symmetry_cell_setting 'monoclinic'
loop_
_space_group_symop_operation_xyz
x,y,z
-x,y,1/2-z
-x,-y,-z
x,-y,1/2+z
1/2+x,1/2+y,z
1/2-x,1/2+y,1/2-z
1/2-x,1/2-y,-z
1/2+x,1/2-y,1/2+z
loop_
_atom_site_type_symbol
_atom_site_label
_atom_site_fract_x
_atom_site_fract_y
_atom_site_fract_z
Si Si1 0.000000 0.966698 0.250000
Si Si2 0.378685 0.945282 0.595201
Si Si3 0.933078 0.296945 0.675327
Si Si4 0.817257 0.910552 0.961076
Si Si5 0.779675 0.922967 0.236655
Si Si6 0.641126 0.219069 0.862167
Si Si7 0.500000 0.712667 0.250000
O O1 0.082421 0.913558 0.279533
O O2 0.097046 0.016772 0.114835
O O3 0.414020 0.880498 0.653764
O O4 0.327156 0.915595 0.510592
O O5 0.500000 0.000000 0.500000
O O6 0.260169 0.992271 0.728631
O O7 0.786098 0.259216 0.775146
O O8 0.000000 0.294113 0.750000
O O9 0.037206 0.257490 0.524645
O O10 0.887225 0.837276 0.876855
O O11 0.800291 0.900875 0.099573
O O12 0.665293 0.868041 0.357076
O O13 0.570738 0.235422 0.792259
#
# Coordination Sequence:
#
# PCOD8147354 Si02
#       7
#     4   8   8   8   8   8   4
#     4   9  22  42  62  98 139 178 240 284 353 422
#     4  11  24  45  68 103 138 180 239 294 360 414
#     4  12  28  50  73 103 147 193 237 294 361 431
#     4  10  22  43  68  98 139 185 233 293 353 426
#     4  11  24  40  71 100 136 186 234 296 353 422
#     4  12  27  47  73 105 143 189 239 297 353 431
#     4  11  24  46  70 102 145 184 240 286 363 430
#
# _framework density 21.757134000000001
#
# number of rings (size 3 to 8) (size 9 to 14) (size 15 to 20)
#    0.000    1.000    3.333    2.000    5.833    1.333 
#    6.000    0.000    0.000    0.000    0.000    0.000 
#    0.000    0.000    0.000    0.000    0.000    0.000 
#
# Total GULP energy -297659.751385 kJ/mol
# GULP energy per Si atom -12402.489641 kJ/mol
# Density = 2.170761 g / cm^3
# Si number density = 21.757134 Si / 1000 Ang^3
#
#
#
# Elastic Constant Matrix: (Units=GPa)
#
#
# Indices 1 2 3 4 5 6 
#
# 1 186.4227 50.4297 65.3562 0.0000 16.9330 0.0000
# 2 50.4297 95.0142 31.3789 0.0000 1.0672 0.0000
# 3 65.3562 31.3789 125.0699 0.0000 6.8966 0.0000
# 4 0.0000 0.0000 0.0000 19.9861 0.0000 -1.1139
# 5 16.9330 1.0672 6.8966 0.0000 41.3633 0.0000
# 6 0.0000 0.0000 0.0000 -1.1139 0.0000 37.3956
#
#
#
# Elastic Compliance Matrix: (Units=1/GPa)
#
#
# Indices 1 2 3 4 5 6 
#
# 1 0.007436 -0.002923 -0.003017 0.000000 -0.002466 0.000000
# 2 -0.002923 0.012626 -0.001704 0.000000 0.001155 0.000000
# 3 -0.003017 -0.001704 0.010021 0.000000 -0.000392 0.000000
# 4 0.000000 0.000000 0.000000 0.050118 0.000000 0.001493
# 5 -0.002466 0.001155 -0.000392 0.000000 0.025221 0.000000
# 6 0.000000 0.000000 0.000000 0.001493 0.000000 0.026786
#
#
# Mechanical properties :
#
#
# Convention : Reuss Voigt Hill
#
# Bulk Modulus (GPa) = 67.58519 77.87073 72.72796
# Shear Modulus (GPa) = 32.80255 37.03847 34.92051
#
# Velocity S-wave (km/s) = 3.88708 4.13044 4.01061
# Velocity P-wave (km/s) = 7.16078 7.65611 7.41258
#
# Compressibility (1/GPa) = 0.01479614
#
# Stress axis : x y z
#
# Youngs Moduli (GPa) = 134.47348 79.20213 99.79024
#
# Poissons Ratio (x) = 0.23151 0.30103
# Poissons Ratio (y) = 0.39307 0.17004
# Poissons Ratio (z) = 0.40566 0.13496
#
# Static dielectric constant tensor:
#      x y z
#    x 4.406310 0.000000 -0.169190 
#    y 0.000000 4.152240 0.000000 
#    z -0.169190 0.000000 4.067240 
# 
# 
# High freq. dielectric constant tensor:
#      x y z
#    x 1.876380 0.000000 -0.003170 
#    y 0.000000 1.861570 0.000000 
#    z -0.003170 0.000000 1.852380 
# 
# From -- ./inp_files/88809.got.cif
#   From: 2010.06.25/outbox.cif.g09.slc.cpg/sg15_45_cif.got.tgz:88809.got - 2010.06.28 07:06:18.
