data_PCOD8147156
_publ_section_title
;
Structure prediction by ZEFSAII (Michael W. Deem and Ramdas Pophale) SiO2 
 PCOD8147156
Probable space group: C 2/C
;
_chemical_formula_sum "Si O2"
_cell_formula_units_Z 48
_cell_length_a 17.383627
_cell_length_b 13.232579
_cell_length_c 18.567554
_cell_angle_alpha 90.000000
_cell_angle_beta 149.809996
_cell_angle_gamma 90.000000
_cell_volume 2147.803686
_symmetry_space_group_name_H-M "C 2/C"
_symmetry_group_IT_number 15
_symmetry_cell_setting 'monoclinic'
loop_
_space_group_symop_operation_xyz
x,y,z
-x,y,1/2-z
-x,-y,-z
x,-y,1/2+z
1/2+x,1/2+y,z
1/2-x,1/2+y,1/2-z
1/2-x,1/2-y,-z
1/2+x,1/2-y,1/2+z
loop_
_atom_site_type_symbol
_atom_site_label
_atom_site_fract_x
_atom_site_fract_y
_atom_site_fract_z
Si Si1 0.456114 0.218027 0.425667
Si Si2 0.586966 0.512285 0.957316
Si Si3 0.811961 0.336022 0.270004
Si Si4 0.181223 0.332693 0.387078
Si Si5 0.914029 0.778533 0.111299
Si Si6 0.715160 0.548405 0.212602
O O1 0.364481 0.323573 0.347109
O O2 0.567296 0.224330 0.584010
O O3 0.545559 0.206678 0.423722
O O4 0.322040 0.136848 0.328116
O O5 0.563333 0.601679 0.881234
O O6 0.423331 0.460707 0.842028
O O7 0.708555 0.431653 0.022187
O O8 0.650227 0.567958 0.080209
O O9 0.818264 0.291870 0.194253
O O10 0.834010 0.454713 0.300870
O O11 0.250000 0.250000 0.500000
O O12 0.000000 0.359368 0.250000
O O13 0.000000 0.739365 0.250000
O O14 0.750000 0.750000 0.000000
#
# Coordination Sequence:
#
# PCOD8147156 Si02
#       6
#     8   8   8   8   8   8
#     4  12  24  43  72 102 135 182 235 291 341 419
#     4  10  23  45  69 101 138 182 227 290 350 410
#     4  11  24  43  70 102 134 180 234 281 348 413
#     4  11  26  46  68 103 142 183 226 284 354 417
#     4  12  26  45  69 102 140 183 228 287 357 414
#     4  10  22  42  73 100 134 177 237 289 338 412
#
# _framework density 22.348412
#
# number of rings (size 3 to 8) (size 9 to 14) (size 15 to 20)
#    0.000    1.000    1.667    4.500    7.000    4.000 
#    3.000    0.000    0.000    0.000    0.000    0.000 
#    0.000    0.000    0.000    0.000    0.000    0.000 
#
# Total GULP energy -297394.467767 kJ/mol
# GULP energy per Si atom -12391.436157 kJ/mol
# Density = 2.229755 g / cm^3
# Si number density = 22.348412 Si / 1000 Ang^3
#
#
#
# Elastic Constant Matrix: (Units=GPa)
#
#
# Indices 1 2 3 4 5 6 
#
# 1 142.4568 35.7050 66.9196 0.0012 12.1680 0.0004
# 2 35.7050 53.1342 27.5992 0.0022 0.1992 0.0014
# 3 66.9196 27.5992 154.4169 0.0027 -3.4860 0.0018
# 4 0.0012 0.0022 0.0027 36.2729 0.0016 5.0266
# 5 12.1680 0.1992 -3.4860 0.0016 45.7948 0.0010
# 6 0.0004 0.0014 0.0018 5.0266 0.0010 35.5621
#
#
#
# Elastic Compliance Matrix: (Units=1/GPa)
#
#
# Indices 1 2 3 4 5 6 
#
# 1 0.010214 -0.004981 -0.003603 0.000000 -0.002967 0.000000
# 2 -0.004981 0.023182 -0.001960 -0.000001 0.001073 -0.000001
# 3 -0.003603 -0.001960 0.008424 0.000000 0.001607 0.000000
# 4 0.000000 -0.000001 0.000000 0.028120 -0.000001 -0.003975
# 5 -0.002967 0.001073 0.001607 -0.000001 0.022742 -0.000001
# 6 0.000000 -0.000001 0.000000 -0.003975 -0.000001 0.028682
#
#
# Mechanical properties :
#
#
# Convention : Reuss Voigt Hill
#
# Bulk Modulus (GPa) = 48.23767 67.82838 58.03302
# Shear Modulus (GPa) = 33.47550 38.17823 35.82687
#
# Velocity S-wave (km/s) = 3.87446 4.13767 4.00822
# Velocity P-wave (km/s) = 6.45341 7.29680 6.88803
#
# Compressibility (1/GPa) = 0.02073069
#
# Stress axis : x y z
#
# Youngs Moduli (GPa) = 97.90405 43.13762 118.70608
#
# Poissons Ratio (x) = 0.21487 0.42772
# Poissons Ratio (y) = 0.48765 0.23272
# Poissons Ratio (z) = 0.35277 0.08457
#
# Static dielectric constant tensor:
#      x y z
#    x 4.235440 0.000000 0.157550 
#    y 0.000000 3.731360 0.000000 
#    z 0.157550 0.000000 4.073220 
# 
# 
# High freq. dielectric constant tensor:
#      x y z
#    x 1.887890 0.000000 0.012120 
#    y 0.000000 1.881690 0.000000 
#    z 0.012120 0.000000 1.891910 
# 
# From -- ./inp_files/66491.got.cif
#   From: 2010.06.25/outbox.cif.g09.slc.cpg/sg15_34_cif.got.tgz:66491.got - 2010.06.28 07:06:18.
