data_PCOD8147783
_publ_section_title
;
Structure prediction by ZEFSAII (Michael W. Deem and Ramdas Pophale) SiO2 
 PCOD8147783
Probable space group: C 2/C
;
_chemical_formula_sum "Si O2"
_cell_formula_units_Z 44
_cell_length_a 6.714859
_cell_length_b 13.419642
_cell_length_c 22.419272
_cell_angle_alpha 90.000000
_cell_angle_beta 110.658936
_cell_angle_gamma 90.000000
_cell_volume 1890.316955
_symmetry_space_group_name_H-M "C 2/C"
_symmetry_group_IT_number 15
_symmetry_cell_setting 'monoclinic'
loop_
_space_group_symop_operation_xyz
x,y,z
-x,y,1/2-z
-x,-y,-z
x,-y,1/2+z
1/2+x,1/2+y,z
1/2-x,1/2+y,1/2-z
1/2-x,1/2-y,-z
1/2+x,1/2-y,1/2+z
loop_
_atom_site_type_symbol
_atom_site_label
_atom_site_fract_x
_atom_site_fract_y
_atom_site_fract_z
Si Si1 0.000000 0.179022 0.750000
Si Si2 0.822106 0.907172 0.553241
Si Si3 0.424683 0.803298 0.560645
Si Si4 0.718114 0.659358 0.159146
Si Si5 0.783644 0.452745 0.201759
Si Si6 0.921832 0.101578 0.928554
O O1 0.195761 0.241945 0.799026
O O2 0.086499 0.106096 0.708374
O O3 0.576308 0.883087 0.542525
O O4 0.868945 0.872639 0.491011
O O5 0.965617 0.844047 0.616098
O O6 0.875612 0.026237 0.558941
O O7 0.250000 0.750000 0.500000
O O8 0.327073 0.861157 0.606346
O O9 0.547353 0.708207 0.599936
O O10 0.767714 0.571298 0.211874
O O11 0.776696 0.444055 0.128763
O O12 0.000000 0.407754 0.250000
#
# Coordination Sequence:
#
# PCOD8147783 Si02
#       6
#     4   8   8   8   8   8
#     4  12  26  46  70  96 138 192 234 290 356 410
#     4  10  24  44  70 102 146 178 229 298 344 428
#     4  12  24  42  73 107 139 183 230 291 361 419
#     4  11  25  48  68 106 141 177 246 287 348 429
#     4  11  26  46  70 101 140 185 239 290 341 419
#     4  10  22  45  65 104 139 183 233 279 361 413
#
# _framework density 23.276519
#
# number of rings (size 3 to 8) (size 9 to 14) (size 15 to 20)
#    0.000    1.091    4.545    0.545    2.545    3.636 
#    1.636    0.000    0.000    0.000    0.000    0.000 
#    0.000    0.000    0.000    0.000    0.000    0.000 
#
# Total GULP energy -272539.073506 kJ/mol
# GULP energy per Si atom -12388.139705 kJ/mol
# Density = 2.322354 g / cm^3
# Si number density = 23.276519 Si / 1000 Ang^3
#
#
#
# Elastic Constant Matrix: (Units=GPa)
#
#
# Indices 1 2 3 4 5 6 
#
# 1 87.3081 37.2997 30.3059 0.0000 3.9756 0.0000
# 2 37.2997 102.6000 22.0824 0.0000 -13.0321 0.0000
# 3 30.3059 22.0824 102.8594 0.0000 10.3437 0.0000
# 4 0.0000 0.0000 0.0000 25.1261 0.0000 -7.7638
# 5 3.9756 -13.0321 10.3437 0.0000 26.7777 0.0000
# 6 0.0000 0.0000 0.0000 -7.7638 0.0000 37.4872
#
#
#
# Elastic Compliance Matrix: (Units=1/GPa)
#
#
# Indices 1 2 3 4 5 6 
#
# 1 0.014862 -0.005245 -0.002887 0.000000 -0.003644 0.000000
# 2 -0.005245 0.013109 -0.002069 0.000000 0.007958 0.000000
# 3 -0.002887 -0.002069 0.011523 0.000000 -0.005029 0.000000
# 4 0.000000 0.000000 0.000000 0.042520 0.000000 0.008806
# 5 -0.003644 0.007958 -0.005029 0.000000 0.043701 0.000000
# 6 0.000000 0.000000 0.000000 0.008806 0.000000 0.028500
#
#
# Mechanical properties :
#
#
# Convention : Reuss Voigt Hill
#
# Bulk Modulus (GPa) = 52.37529 52.46040 52.41785
# Shear Modulus (GPa) = 27.62722 31.41684 29.52203
#
# Velocity S-wave (km/s) = 3.44890 3.67784 3.56521
# Velocity P-wave (km/s) = 6.19759 6.37355 6.28619
#
# Compressibility (1/GPa) = 0.01909297
#
# Stress axis : x y z
#
# Youngs Moduli (GPa) = 67.28478 76.28066 86.78657
#
# Poissons Ratio (x) = 0.40007 0.25051
# Poissons Ratio (y) = 0.35289 0.17960
# Poissons Ratio (z) = 0.19422 0.15786
#
# Static dielectric constant tensor:
#      x y z
#    x 3.978680 0.000000 0.153110 
#    y 0.000000 4.805360 0.000000 
#    z 0.153110 0.000000 4.253710 
# 
# 
# High freq. dielectric constant tensor:
#      x y z
#    x 1.888770 0.000000 0.009950 
#    y 0.000000 1.934390 0.000000 
#    z 0.009950 0.000000 1.932720 
# 
# From -- ./inp_files/285490.got.cif
#   From: 2010.06.25/outbox.cif.g09.slc.cpg/sg15_143_cif.got.tgz:285490.got - 2010.06.28 07:06:18.
