data_PCOD8147932
_publ_section_title
;
Structure prediction by ZEFSAII (Michael W. Deem and Ramdas Pophale) SiO2 
 PCOD8147932
Probable space group: C 2/C
;
_chemical_formula_sum "Si O2"
_cell_formula_units_Z 64
_cell_length_a 18.502691
_cell_length_b 21.161381
_cell_length_c 15.675376
_cell_angle_alpha 90.000000
_cell_angle_beta 151.569996
_cell_angle_gamma 90.000000
_cell_volume 2922.006479
_symmetry_space_group_name_H-M "C 2/C"
_symmetry_group_IT_number 15
_symmetry_cell_setting 'monoclinic'
loop_
_space_group_symop_operation_xyz
x,y,z
-x,y,1/2-z
-x,-y,-z
x,-y,1/2+z
1/2+x,1/2+y,z
1/2-x,1/2+y,1/2-z
1/2-x,1/2-y,-z
1/2+x,1/2-y,1/2+z
loop_
_atom_site_type_symbol
_atom_site_label
_atom_site_fract_x
_atom_site_fract_y
_atom_site_fract_z
Si Si1 0.088506 0.608476 0.255324
Si Si2 0.673717 0.317389 0.412142
Si Si3 0.643521 0.322283 0.192171
Si Si4 0.565279 0.150280 0.906545
Si Si5 0.472267 0.197802 0.987761
Si Si6 0.065384 0.055929 0.514393
Si Si7 0.343313 0.035851 0.692735
Si Si8 0.363020 0.598129 0.159464
O O1 0.258834 0.633946 0.448201
O O2 0.088239 0.533802 0.240974
O O3 0.000000 0.627598 0.250000
O O4 0.022497 0.640476 0.101493
O O5 0.500000 0.308612 0.250000
O O6 0.750000 0.250000 0.500000
O O7 0.698271 0.344735 0.342386
O O8 0.790557 0.301366 0.290905
O O9 0.554249 0.378175 0.052752
O O10 0.529381 0.263656 0.085841
O O11 0.500000 0.179426 0.750000
O O12 0.535793 0.193917 0.957358
O O13 0.487329 0.082420 0.843945
O O14 0.748029 0.146268 0.086131
O O15 0.241081 0.043779 0.671396
O O16 0.951076 0.054904 0.317043
O O17 0.000000 0.000000 0.500000
O O18 0.237102 0.051289 0.502172
O O19 0.500000 0.634250 0.250000
#
# Coordination Sequence:
#
# PCOD8147932 Si02
#       8
#     8   8   8   8   8   8   8   8
#     4  12  25  42  69 108 141 187 234 284 356 421
#     4  12  25  43  67  97 142 189 231 282 348 422
#     4  12  27  47  68 103 145 181 242 295 346 432
#     4  10  22  46  70  99 134 180 234 295 355 418
#     4  12  27  45  73 102 141 188 238 295 355 420
#     4  11  26  42  66 101 140 183 233 289 354 416
#     4  10  23  44  68  98 141 182 234 290 351 419
#     4   9  21  41  66  94 133 178 223 287 353 410
#
# _framework density 21.902757999999999
#
# number of rings (size 3 to 8) (size 9 to 14) (size 15 to 20)
#    0.000    1.000    3.750    2.250    7.000    2.000 
#    0.000    2.500    0.000    0.000    0.000    0.000 
#    0.000    0.000    0.000    0.000    0.000    0.000 
#
# Total GULP energy -396816.877652 kJ/mol
# GULP energy per Si atom -12400.527427 kJ/mol
# Density = 2.185291 g / cm^3
# Si number density = 21.902758 Si / 1000 Ang^3
#
#
#
# Elastic Constant Matrix: (Units=GPa)
#
#
# Indices 1 2 3 4 5 6 
#
# 1 123.8641 4.1998 28.6475 0.0000 6.2074 0.0000
# 2 4.1998 76.0254 21.0683 0.0000 -3.5599 0.0000
# 3 28.6475 21.0683 81.8706 0.0000 17.3865 0.0000
# 4 0.0000 0.0000 0.0000 23.8932 0.0000 1.2023
# 5 6.2074 -3.5599 17.3865 0.0000 43.6986 0.0000
# 6 0.0000 0.0000 0.0000 1.2023 0.0000 33.8873
#
#
#
# Elastic Compliance Matrix: (Units=1/GPa)
#
#
# Indices 1 2 3 4 5 6 
#
# 1 0.008795 0.000401 -0.003192 0.000000 0.000053 0.000000
# 2 0.000401 0.014513 -0.004494 0.000000 0.002913 0.000000
# 3 -0.003192 -0.004494 0.015805 0.000000 -0.006201 0.000000
# 4 0.000000 0.000000 0.000000 0.041928 0.000000 -0.001488
# 5 0.000053 0.002913 -0.006201 0.000000 0.025581 0.000000
# 6 0.000000 0.000000 0.000000 -0.001488 0.000000 0.029562
#
#
# Mechanical properties :
#
#
# Convention : Reuss Voigt Hill
#
# Bulk Modulus (GPa) = 40.74385 43.28791 42.01588
# Shear Modulus (GPa) = 31.45940 35.48544 33.47242
#
# Velocity S-wave (km/s) = 3.79399 4.02946 3.91350
# Velocity P-wave (km/s) = 6.15102 6.43858 6.29644
#
# Compressibility (1/GPa) = 0.02454358
#
# Stress axis : x y z
#
# Youngs Moduli (GPa) = 113.69598 68.90335 63.27244
#
# Poissons Ratio (x) = -0.02765 0.20198
# Poissons Ratio (y) = -0.04562 0.28434
# Poissons Ratio (z) = 0.36294 0.30964
#
# Static dielectric constant tensor:
#      x y z
#    x 4.380480 0.000000 -0.059530 
#    y 0.000000 3.567110 0.000000 
#    z -0.059530 0.000000 4.287800 
# 
# 
# High freq. dielectric constant tensor:
#      x y z
#    x 1.880290 0.000000 0.004320 
#    y 0.000000 1.835370 0.000000 
#    z 0.004320 0.000000 1.872880 
# 
# From -- ./inp_files/164249.got.cif
#   From: 2010.06.25/outbox.cif.g09.slc.cpg/sg15_83_cif.got.tgz:164249.got - 2010.06.28 07:06:18.
