data_PCOD8147360
_publ_section_title
;
Structure prediction by ZEFSAII (Michael W. Deem and Ramdas Pophale) SiO2 
 PCOD8147360
Probable space group: C 2/C
;
_chemical_formula_sum "Si O2"
_cell_formula_units_Z 44
_cell_length_a 17.798530
_cell_length_b 15.560181
_cell_length_c 7.365480
_cell_angle_alpha 90.000000
_cell_angle_beta 98.301034
_cell_angle_gamma 90.000000
_cell_volume 2018.486308
_symmetry_space_group_name_H-M "C 2/C"
_symmetry_group_IT_number 15
_symmetry_cell_setting 'monoclinic'
loop_
_space_group_symop_operation_xyz
x,y,z
-x,y,1/2-z
-x,-y,-z
x,-y,1/2+z
1/2+x,1/2+y,z
1/2-x,1/2+y,1/2-z
1/2-x,1/2-y,-z
1/2+x,1/2-y,1/2+z
loop_
_atom_site_type_symbol
_atom_site_label
_atom_site_fract_x
_atom_site_fract_y
_atom_site_fract_z
Si Si1 0.249613 0.655398 0.420208
Si Si2 0.579945 0.618776 0.987437
Si Si3 0.987953 0.292729 0.452932
Si Si4 0.500000 0.506848 0.250000
Si Si5 0.361264 0.884853 0.925346
Si Si6 0.141028 0.576802 0.661735
O O1 0.250000 0.750000 0.500000
O O2 0.334298 0.622206 0.411736
O O3 0.207562 0.656764 0.211616
O O4 0.212056 0.591978 0.553948
O O5 0.548336 0.715069 0.945003
O O6 0.521984 0.570868 0.099221
O O7 0.572292 0.558023 0.807492
O O8 0.066252 0.322801 0.572252
O O9 0.000000 0.262441 0.250000
O O10 0.931166 0.372959 0.440275
O O11 0.380723 0.976843 0.844054
O O12 0.337734 0.892736 0.127915
#
# Coordination Sequence:
#
# PCOD8147360 Si02
#       6
#     8   8   8   4   8   8
#     4  12  27  45  68 105 139 178 231 278 346 412
#     4  11  24  46  66  98 130 179 232 282 335 410
#     4  10  22  43  69 100 139 178 230 278 340 416
#     4  10  26  44  70  90 130 184 230 284 332 394
#     4  11  25  43  73 102 141 182 219 290 341 407
#     4  11  23  45  68 109 140 179 225 279 350 413
#
# _framework density 21.798513
#
# number of rings (size 3 to 8) (size 9 to 14) (size 15 to 20)
#    0.000    1.091    4.545    0.545    5.091    1.455 
#    3.273    0.000    0.000    0.000    0.000    0.000 
#    0.000    0.000    0.000    0.000    0.000    0.000 
#
# Total GULP energy -272802.445507 kJ/mol
# GULP energy per Si atom -12400.111159 kJ/mol
# Density = 2.174890 g / cm^3
# Si number density = 21.798513 Si / 1000 Ang^3
#
#
#
# Elastic Constant Matrix: (Units=GPa)
#
#
# Indices 1 2 3 4 5 6 
#
# 1 130.0632 40.4976 46.4902 0.0000 29.5950 0.0000
# 2 40.4976 101.7947 37.2316 0.0000 24.8814 0.0000
# 3 46.4902 37.2316 104.4744 0.0000 29.3836 0.0000
# 4 0.0000 0.0000 0.0000 29.3056 0.0000 7.2652
# 5 29.5950 24.8814 29.3836 0.0000 41.6557 0.0000
# 6 0.0000 0.0000 0.0000 7.2652 0.0000 32.5891
#
#
#
# Elastic Compliance Matrix: (Units=1/GPa)
#
#
# Indices 1 2 3 4 5 6 
#
# 1 0.010228 -0.002088 -0.002638 0.000000 -0.004159 0.000000
# 2 -0.002088 0.012576 -0.002317 0.000000 -0.004394 0.000000
# 3 -0.002638 -0.002317 0.013292 0.000000 -0.006118 0.000000
# 4 0.000000 0.000000 0.000000 0.036119 0.000000 -0.008052
# 5 -0.004159 -0.004394 -0.006118 0.000000 0.033902 0.000000
# 6 0.000000 0.000000 0.000000 -0.008052 0.000000 0.032480
#
#
# Mechanical properties :
#
#
# Convention : Reuss Voigt Hill
#
# Bulk Modulus (GPa) = 45.43139 64.97458 55.20298
# Shear Modulus (GPa) = 31.24663 34.85096 33.04879
#
# Velocity S-wave (km/s) = 3.79017 4.00281 3.89794
# Velocity P-wave (km/s) = 6.32777 7.15786 6.75557
#
# Compressibility (1/GPa) = 0.02201121
#
# Stress axis : x y z
#
# Youngs Moduli (GPa) = 97.77344 79.51873 75.23447
#
# Poissons Ratio (x) = 0.16601 0.19843
# Poissons Ratio (y) = 0.20412 0.17430
# Poissons Ratio (z) = 0.25788 0.18422
#
# Static dielectric constant tensor:
#      x y z
#    x 3.887710 0.000000 0.146940 
#    y 0.000000 4.085090 0.000000 
#    z 0.146940 0.000000 4.280030 
# 
# 
# High freq. dielectric constant tensor:
#      x y z
#    x 1.844890 0.000000 0.006330 
#    y 0.000000 1.872960 0.000000 
#    z 0.006330 0.000000 1.862200 
# 
# From -- ./inp_files/47076.got.cif
#   From: 2010.06.25/outbox.cif.g09.slc.cpg/sg15_24_cif.got.tgz:47076.got - 2010.06.28 07:06:18.
