data_PCOD8147938
_publ_section_title
;
Structure prediction by ZEFSAII (Michael W. Deem and Ramdas Pophale) SiO2 
 PCOD8147938
Probable space group: C 2/C
;
_chemical_formula_sum "Si O2"
_cell_formula_units_Z 44
_cell_length_a 14.221200
_cell_length_b 16.334411
_cell_length_c 8.850240
_cell_angle_alpha 90.000000
_cell_angle_beta 101.954669
_cell_angle_gamma 90.000000
_cell_volume 2011.277791
_symmetry_space_group_name_H-M "C 2/C"
_symmetry_group_IT_number 15
_symmetry_cell_setting 'monoclinic'
loop_
_space_group_symop_operation_xyz
x,y,z
-x,y,1/2-z
-x,-y,-z
x,-y,1/2+z
1/2+x,1/2+y,z
1/2-x,1/2+y,1/2-z
1/2-x,1/2-y,-z
1/2+x,1/2-y,1/2+z
loop_
_atom_site_type_symbol
_atom_site_label
_atom_site_fract_x
_atom_site_fract_y
_atom_site_fract_z
Si Si1 0.276746 0.019189 0.386025
Si Si2 0.114464 0.278509 0.017238
Si Si3 0.321528 0.326305 0.512432
Si Si4 0.500000 0.273152 0.750000
Si Si5 0.400349 0.061227 0.153718
Si Si6 0.314204 0.651509 0.674287
O O1 0.236653 0.091890 0.473337
O O2 0.308256 0.050973 0.232464
O O3 0.375709 0.988185 0.494288
O O4 0.198974 0.945758 0.353122
O O5 0.087754 0.343005 0.878673
O O6 0.119876 0.189295 0.937637
O O7 0.212854 0.301110 0.134655
O O8 0.032290 0.281077 0.117839
O O9 0.250000 0.250000 0.500000
O O10 0.409118 0.325588 0.661488
O O11 0.361089 0.331586 0.353911
O O12 0.500000 0.025991 0.250000
#
# Coordination Sequence:
#
# PCOD8147938 Si02
#       6
#     8   8   8   4   8   8
#     4  11  24  45  69 101 138 189 228 287 355 411
#     4  10  24  43  69 104 136 183 229 282 345 420
#     4  12  25  46  71 100 142 185 233 288 350 413
#     4  12  28  42  74 106 132 180 248 282 342 420
#     4  11  24  41  69 103 145 177 233 284 353 420
#     4  10  22  46  71  95 142 184 226 282 351 411
#
# _framework density 21.876639999999998
#
# number of rings (size 3 to 8) (size 9 to 14) (size 15 to 20)
#    0.000    1.091    3.636    1.636   10.182    0.000 
#    8.182    3.636    0.000    0.000    0.000    0.000 
#    0.000    0.000    0.000    0.000    0.000    0.000 
#
# Total GULP energy -272822.602139 kJ/mol
# GULP energy per Si atom -12401.027370 kJ/mol
# Density = 2.182685 g / cm^3
# Si number density = 21.876640 Si / 1000 Ang^3
#
#
#
# Elastic Constant Matrix: (Units=GPa)
#
#
# Indices 1 2 3 4 5 6 
#
# 1 74.6107 36.8176 32.9749 0.0000 -7.4181 0.0000
# 2 36.8176 144.1393 48.6767 0.0000 -15.3420 0.0000
# 3 32.9749 48.6767 118.1548 0.0000 -6.2640 0.0000
# 4 0.0000 0.0000 0.0000 30.4666 0.0000 -5.3064
# 5 -7.4181 -15.3420 -6.2640 0.0000 60.2945 0.0000
# 6 0.0000 0.0000 0.0000 -5.3064 0.0000 14.8815
#
#
#
# Elastic Compliance Matrix: (Units=1/GPa)
#
#
# Indices 1 2 3 4 5 6 
#
# 1 0.016427 -0.002981 -0.003308 0.000000 0.000919 0.000000
# 2 -0.002981 0.008780 -0.002701 0.000000 0.001587 0.000000
# 3 -0.003308 -0.002701 0.010499 0.000000 -0.000003 0.000000
# 4 0.000000 0.000000 0.000000 0.034996 0.000000 0.012479
# 5 0.000919 0.001587 -0.000003 0.000000 0.017102 0.000000
# 6 0.000000 0.000000 0.000000 0.012479 0.000000 0.071647
#
#
# Mechanical properties :
#
#
# Convention : Reuss Voigt Hill
#
# Bulk Modulus (GPa) = 56.41195 63.76034 60.08614
# Shear Modulus (GPa) = 27.27162 35.69090 31.48126
#
# Velocity S-wave (km/s) = 3.53457 4.04352 3.79758
# Velocity P-wave (km/s) = 6.51919 7.14204 6.83771
#
# Compressibility (1/GPa) = 0.01772674
#
# Stress axis : x y z
#
# Youngs Moduli (GPa) = 60.87459 113.89133 95.24543
#
# Poissons Ratio (x) = 0.33953 0.31504
# Poissons Ratio (y) = 0.18148 0.25727
# Poissons Ratio (z) = 0.20135 0.30764
#
# Static dielectric constant tensor:
#      x y z
#    x 3.671040 0.000000 0.014420 
#    y 0.000000 3.854250 0.000000 
#    z 0.014420 0.000000 4.183650 
# 
# 
# High freq. dielectric constant tensor:
#      x y z
#    x 1.834970 0.000000 -0.003170 
#    y 0.000000 1.852590 0.000000 
#    z -0.003170 0.000000 1.884390 
# 
# From -- ./inp_files/39291.got.cif
#   From: 2010.06.25/outbox.cif.g09.slc.cpg/sg15_20_cif.got.tgz:39291.got - 2010.06.28 07:06:18.
