data_PCOD8147657
_publ_section_title
;
Structure prediction by ZEFSAII (Michael W. Deem and Ramdas Pophale) SiO2 
 PCOD8147657
Probable space group: C 2/C
;
_chemical_formula_sum "Si O2"
_cell_formula_units_Z 56
_cell_length_a 8.782276
_cell_length_b 22.737947
_cell_length_c 16.766621
_cell_angle_alpha 90.000000
_cell_angle_beta 54.350881
_cell_angle_gamma 90.000000
_cell_volume 2720.704990
_symmetry_space_group_name_H-M "C 2/C"
_symmetry_group_IT_number 15
_symmetry_cell_setting 'monoclinic'
loop_
_space_group_symop_operation_xyz
x,y,z
-x,y,1/2-z
-x,-y,-z
x,-y,1/2+z
1/2+x,1/2+y,z
1/2-x,1/2+y,1/2-z
1/2-x,1/2-y,-z
1/2+x,1/2-y,1/2+z
loop_
_atom_site_type_symbol
_atom_site_label
_atom_site_fract_x
_atom_site_fract_y
_atom_site_fract_z
Si Si1 0.725424 0.167302 0.184397
Si Si2 0.693797 0.039324 0.235471
Si Si3 0.208278 0.142613 0.661205
Si Si4 0.298642 0.228678 0.772271
Si Si5 0.057662 0.172330 0.544391
Si Si6 0.682587 0.017664 0.900196
Si Si7 0.514265 0.537759 0.918353
O O1 0.500000 0.172592 0.250000
O O2 0.794079 0.100728 0.181296
O O3 0.788170 0.205373 0.241406
O O4 0.825454 0.188935 0.071227
O O5 0.500000 0.040817 0.250000
O O6 0.690172 0.033214 0.331441
O O7 0.788762 0.978870 0.179480
O O8 0.292628 0.187613 0.697239
O O9 0.198460 0.174921 0.577556
O O10 0.000000 0.122040 0.750000
O O11 0.337883 0.084820 0.624063
O O12 0.500000 0.218868 0.750000
O O13 0.124673 0.214446 0.885940
O O14 0.985305 0.105798 0.560574
O O15 0.858152 0.015813 0.904813
O O16 0.500000 0.000000 0.000000
O O17 0.500000 0.500000 0.000000
#
# Coordination Sequence:
#
# PCOD8147657 Si02
#       7
#     8   8   8   8   8   8   8
#     4  11  25  43  66  93 126 176 220 265 319 388
#     4  11  23  40  63  94 133 168 215 265 317 388
#     4   9  20  41  66  88 119 169 216 256 308 389
#     4  11  25  43  66  95 127 161 217 277 331 375
#     4  10  22  44  69  93 125 173 222 257 317 396
#     4  11  23  36  60  97 129 165 209 253 319 385
#     4  11  21  40  66  93 130 170 207 263 320 382
#
# _framework density 20.582902000000001
#
# number of rings (size 3 to 8) (size 9 to 14) (size 15 to 20)
#    0.000    1.429    1.429    5.143    6.000    7.429 
#    0.000    0.000    0.000    0.000    0.000    0.000 
#    0.000    0.000    0.000    0.000    0.000    0.000 
#
# Total GULP energy -346998.845967 kJ/mol
# GULP energy per Si atom -12392.815927 kJ/mol
# Density = 2.053605 g / cm^3
# Si number density = 20.582902 Si / 1000 Ang^3
#
#
#
# Elastic Constant Matrix: (Units=GPa)
#
#
# Indices 1 2 3 4 5 6 
#
# 1 77.3226 47.5806 34.7372 0.0000 2.8953 0.0000
# 2 47.5806 83.1383 34.0986 0.0000 -7.4584 0.0000
# 3 34.7372 34.0986 147.2783 0.0000 -1.9034 0.0000
# 4 0.0000 0.0000 0.0000 35.9829 0.0000 4.2147
# 5 2.8953 -7.4584 -1.9034 0.0000 30.0310 0.0000
# 6 0.0000 0.0000 0.0000 4.2147 0.0000 80.7543
#
#
#
# Elastic Compliance Matrix: (Units=1/GPa)
#
#
# Indices 1 2 3 4 5 6 
#
# 1 0.021428 -0.011738 -0.002403 0.000000 -0.005133 0.000000
# 2 -0.011738 0.020017 -0.001788 0.000000 0.005990 0.000000
# 3 -0.002403 -0.001788 0.007774 0.000000 0.000280 0.000000
# 4 0.000000 0.000000 0.000000 0.027962 0.000000 -0.001459
# 5 -0.005133 0.005990 0.000280 0.000000 0.035299 0.000000
# 6 0.000000 0.000000 0.000000 -0.001459 0.000000 0.012459
#
#
# Mechanical properties :
#
#
# Convention : Reuss Voigt Hill
#
# Bulk Modulus (GPa) = 57.60302 60.06355 58.83328
# Shear Modulus (GPa) = 30.75328 42.10849 36.43089
#
# Velocity S-wave (km/s) = 3.86958 4.52796 4.21165
# Velocity P-wave (km/s) = 6.92903 7.52205 7.23162
#
# Compressibility (1/GPa) = 0.01736020
#
# Stress axis : x y z
#
# Youngs Moduli (GPa) = 46.66888 49.95791 128.63027
#
# Poissons Ratio (x) = 0.58642 0.30904
# Poissons Ratio (y) = 0.54781 0.23004
# Poissons Ratio (z) = 0.11213 0.08934
#
# Static dielectric constant tensor:
#      x y z
#    x 3.561060 0.000000 0.276430 
#    y 0.000000 4.226360 0.000000 
#    z 0.276430 0.000000 3.511440 
# 
# 
# High freq. dielectric constant tensor:
#      x y z
#    x 1.791690 0.000000 0.010030 
#    y 0.000000 1.813410 0.000000 
#    z 0.010030 0.000000 1.818540 
# 
# From -- ./inp_files/192887.got.cif
#   From: 2010.06.25/outbox.cif.g09.slc.cpg/sg15_97_cif.got.tgz:192887.got - 2010.06.28 07:06:18.
