data_PCOD8147692
_publ_section_title
;
Structure prediction by ZEFSAII (Michael W. Deem and Ramdas Pophale) SiO2 
 PCOD8147692
Probable space group: C 2/C
;
_chemical_formula_sum "Si O2"
_cell_formula_units_Z 52
_cell_length_a 17.499795
_cell_length_b 18.137422
_cell_length_c 8.915679
_cell_angle_alpha 90.000000
_cell_angle_beta 61.835293
_cell_angle_gamma 90.000000
_cell_volume 2494.777100
_symmetry_space_group_name_H-M "C 2/C"
_symmetry_group_IT_number 15
_symmetry_cell_setting 'monoclinic'
loop_
_space_group_symop_operation_xyz
x,y,z
-x,y,1/2-z
-x,-y,-z
x,-y,1/2+z
1/2+x,1/2+y,z
1/2-x,1/2+y,1/2-z
1/2-x,1/2-y,-z
1/2+x,1/2-y,1/2+z
loop_
_atom_site_type_symbol
_atom_site_label
_atom_site_fract_x
_atom_site_fract_y
_atom_site_fract_z
Si Si1 0.023981 0.715936 0.397578
Si Si2 0.031256 0.428289 0.388119
Si Si3 0.000000 0.032520 0.750000
Si Si4 0.326816 0.451778 0.826457
Si Si5 0.084555 0.144334 0.485151
Si Si6 0.763868 0.422266 0.282310
Si Si7 0.186329 0.796843 0.160876
O O1 0.123256 0.742933 0.312682
O O2 0.000000 0.696345 0.250000
O O3 0.015186 0.643734 0.503975
O O4 0.960499 0.779456 0.521363
O O5 0.133510 0.424110 0.310145
O O6 0.000000 0.436334 0.250000
O O7 0.000000 0.500000 0.500000
O O8 0.012257 0.081638 0.586845
O O9 0.083586 0.982310 0.693179
O O10 0.348336 0.380420 0.704590
O O11 0.273442 0.510029 0.778273
O O12 0.269042 0.424803 0.017423
O O13 0.132046 0.150339 0.601709
O O14 0.738572 0.344992 0.231250
O O15 0.250000 0.750000 0.000000
#
# Coordination Sequence:
#
# PCOD8147692 Si02
#       7
#     8   8   4   8   8   8   8
#     4  10  22  44  70  96 132 182 221 270 343 407
#     4  12  28  49  71  94 129 178 235 289 342 399
#     4  12  20  40  66 102 144 180 216 256 352 410
#     4  12  25  37  68 101 142 177 216 282 338 415
#     4  11  21  41  65  98 139 178 220 261 338 420
#     4  12  24  44  65 102 134 177 229 285 336 398
#     4  11  23  41  68  95 132 175 227 282 338 403
#
# _framework density 20.843544999999999
#
# number of rings (size 3 to 8) (size 9 to 14) (size 15 to 20)
#    0.000    0.615    5.385    3.692    2.154    4.923 
#    0.000    2.308    0.000    0.000    0.000    0.000 
#    0.000    0.000    0.000    0.000    0.000    0.000 
#
# Total GULP energy -322520.576561 kJ/mol
# GULP energy per Si atom -12404.637560 kJ/mol
# Density = 2.079610 g / cm^3
# Si number density = 20.843545 Si / 1000 Ang^3
#
#
#
# Elastic Constant Matrix: (Units=GPa)
#
#
# Indices 1 2 3 4 5 6 
#
# 1 127.5391 61.7779 61.0728 0.0000 -17.8112 0.0000
# 2 61.7779 139.7033 90.0218 0.0000 -6.5246 0.0000
# 3 61.0728 90.0218 169.7360 0.0000 -11.5280 0.0000
# 4 0.0000 0.0000 0.0000 56.7578 0.0000 -2.1981
# 5 -17.8112 -6.5246 -11.5280 0.0000 33.0404 0.0000
# 6 0.0000 0.0000 0.0000 -2.1981 0.0000 23.0565
#
#
#
# Elastic Compliance Matrix: (Units=1/GPa)
#
#
# Indices 1 2 3 4 5 6 
#
# 1 0.011050 -0.003511 -0.001799 0.000000 0.004636 0.000000
# 2 -0.003511 0.011990 -0.005187 0.000000 -0.001334 0.000000
# 3 -0.001799 -0.005187 0.009376 0.000000 0.001277 0.000000
# 4 0.000000 0.000000 0.000000 0.017684 0.000000 0.001686
# 5 0.004636 -0.001334 0.001277 0.000000 0.032947 0.000000
# 6 0.000000 0.000000 0.000000 0.001686 0.000000 0.043532
#
#
# Mechanical properties :
#
#
# Convention : Reuss Voigt Hill
#
# Bulk Modulus (GPa) = 87.53551 95.85817 91.69684
# Shear Modulus (GPa) = 33.02908 37.51133 35.27021
#
# Velocity S-wave (km/s) = 3.98505 4.24684 4.11803
# Velocity P-wave (km/s) = 7.95373 8.37477 8.16696
#
# Compressibility (1/GPa) = 0.01142394
#
# Stress axis : x y z
#
# Youngs Moduli (GPa) = 90.49620 83.40061 106.64978
#
# Poissons Ratio (x) = 0.29278 0.19189
# Poissons Ratio (y) = 0.31769 0.55316
# Poissons Ratio (z) = 0.16282 0.43257
#
# Static dielectric constant tensor:
#      x y z
#    x 3.938340 0.000000 -0.151980 
#    y 0.000000 3.880810 0.000000 
#    z -0.151980 0.000000 3.922830 
# 
# 
# High freq. dielectric constant tensor:
#      x y z
#    x 1.818120 0.000000 -0.011800 
#    y 0.000000 1.823160 0.000000 
#    z -0.011800 0.000000 1.825030 
# 
# From -- ./inp_files/48941.got.cif
#   From: 2010.06.25/outbox.cif.g09.slc.cpg/sg15_25_cif.got.tgz:48941.got - 2010.06.28 07:06:18.
