data_PCOD8147802
_publ_section_title
;
Structure prediction by ZEFSAII (Michael W. Deem and Ramdas Pophale) SiO2 
 PCOD8147802
Probable space group: C 2/C
;
_chemical_formula_sum "Si O2"
_cell_formula_units_Z 52
_cell_length_a 12.400890
_cell_length_b 13.955516
_cell_length_c 15.568115
_cell_angle_alpha 90.000000
_cell_angle_beta 114.571307
_cell_angle_gamma 90.000000
_cell_volume 2450.253219
_symmetry_space_group_name_H-M "C 2/C"
_symmetry_group_IT_number 15
_symmetry_cell_setting 'monoclinic'
loop_
_space_group_symop_operation_xyz
x,y,z
-x,y,1/2-z
-x,-y,-z
x,-y,1/2+z
1/2+x,1/2+y,z
1/2-x,1/2+y,1/2-z
1/2-x,1/2-y,-z
1/2+x,1/2-y,1/2+z
loop_
_atom_site_type_symbol
_atom_site_label
_atom_site_fract_x
_atom_site_fract_y
_atom_site_fract_z
Si Si1 0.433986 0.665759 0.346331
Si Si2 0.197839 0.474279 0.367661
Si Si3 0.739787 0.058288 0.206591
Si Si4 0.639989 0.511205 0.423723
Si Si5 0.000000 0.327103 0.250000
Si Si6 0.485356 0.135295 0.149517
Si Si7 0.373295 0.699679 0.519798
O O1 0.324460 0.650738 0.243741
O O2 0.525299 0.576963 0.370241
O O3 0.490227 0.764396 0.332899
O O4 0.381475 0.680331 0.422394
O O5 0.268983 0.500928 0.304470
O O6 0.291234 0.442984 0.471555
O O7 0.126340 0.563286 0.386239
O O8 0.112747 0.390711 0.308830
O O9 0.774852 0.004753 0.131036
O O10 0.600538 0.078916 0.155466
O O11 0.603690 0.401302 0.426425
O O12 0.500000 0.176570 0.250000
O O13 0.472785 0.225280 0.082401
O O14 0.250000 0.750000 0.500000
#
# Coordination Sequence:
#
# PCOD8147802 Si02
#       7
#     8   8   8   8   4   8   8
#     4  12  27  49  64 106 147 183 235 292 353 426
#     4  11  24  45  72 104 140 181 235 294 346 416
#     4  11  23  47  70  97 146 182 232 291 350 415
#     4  12  26  46  72 103 145 185 233 294 357 415
#     4  12  26  46  74  96 146 184 230 286 356 414
#     4  10  22  45  67 106 137 179 237 288 346 423
#     4  12  25  44  73 104 138 185 232 292 351 421
#
# _framework density 21.222296
#
# number of rings (size 3 to 8) (size 9 to 14) (size 15 to 20)
#    0.000    0.615    6.923    1.385    4.308    3.692 
#    0.000    0.000    0.000    0.000    0.000    0.000 
#    0.000    0.000    0.000    0.000    0.000    0.000 
#
# Total GULP energy -322362.694679 kJ/mol
# GULP energy per Si atom -12398.565180 kJ/mol
# Density = 2.117399 g / cm^3
# Si number density = 21.222296 Si / 1000 Ang^3
#
#
#
# Elastic Constant Matrix: (Units=GPa)
#
#
# Indices 1 2 3 4 5 6 
#
# 1 89.8039 19.3238 27.2926 0.0000 -28.4263 0.0000
# 2 19.3238 108.5295 24.3689 0.0000 -13.6512 0.0000
# 3 27.2926 24.3689 87.1472 0.0000 -27.5160 0.0000
# 4 0.0000 0.0000 0.0000 36.2226 0.0000 10.7470
# 5 -28.4263 -13.6512 -27.5160 0.0000 41.0118 0.0000
# 6 0.0000 0.0000 0.0000 10.7470 0.0000 34.8794
#
#
#
# Elastic Compliance Matrix: (Units=1/GPa)
#
#
# Indices 1 2 3 4 5 6 
#
# 1 0.014604 -0.001167 -0.001489 0.000000 0.008735 0.000000
# 2 -0.001167 0.010032 -0.002082 0.000000 0.001133 0.000000
# 3 -0.001489 -0.002082 0.015198 0.000000 0.008472 0.000000
# 4 0.000000 0.000000 0.000000 0.030385 0.000000 -0.009362
# 5 0.008735 0.001133 0.008472 0.000000 0.036499 0.000000
# 6 0.000000 0.000000 0.000000 -0.009362 0.000000 0.031555
#
#
# Mechanical properties :
#
#
# Convention : Reuss Voigt Hill
#
# Bulk Modulus (GPa) = 32.94086 47.49458 40.21772
# Shear Modulus (GPa) = 31.67201 36.72246 34.19724
#
# Velocity S-wave (km/s) = 3.86734 4.16429 4.01856
# Velocity P-wave (km/s) = 5.95796 6.74906 6.36581
#
# Compressibility (1/GPa) = 0.03035744
#
# Stress axis : x y z
#
# Youngs Moduli (GPa) = 68.47445 99.68185 65.79696
#
# Poissons Ratio (x) = 0.11634 0.09800
# Poissons Ratio (y) = 0.07992 0.13698
# Poissons Ratio (z) = 0.10199 0.20752
#
# Static dielectric constant tensor:
#      x y z
#    x 4.054910 0.000000 -0.120600 
#    y 0.000000 3.905200 0.000000 
#    z -0.120600 0.000000 4.080110 
# 
# 
# High freq. dielectric constant tensor:
#      x y z
#    x 1.845610 0.000000 -0.004100 
#    y 0.000000 1.826640 0.000000 
#    z -0.004100 0.000000 1.842160 
# 
# From -- ./inp_files/144345.got.cif
#   From: 2010.06.25/outbox.cif.g09.slc.cpg/sg15_73_cif.got.tgz:144345.got - 2010.06.28 07:06:18.
