data_PCOD8147577
_publ_section_title
;
Structure prediction by ZEFSAII (Michael W. Deem and Ramdas Pophale) SiO2 
 PCOD8147577
Probable space group: C 2/C
;
_chemical_formula_sum "Si O2"
_cell_formula_units_Z 52
_cell_length_a 18.132077
_cell_length_b 18.459832
_cell_length_c 9.136266
_cell_angle_alpha 90.000000
_cell_angle_beta 130.622229
_cell_angle_gamma 90.000000
_cell_volume 2321.114422
_symmetry_space_group_name_H-M "C 2/C"
_symmetry_group_IT_number 15
_symmetry_cell_setting 'monoclinic'
loop_
_space_group_symop_operation_xyz
x,y,z
-x,y,1/2-z
-x,-y,-z
x,-y,1/2+z
1/2+x,1/2+y,z
1/2-x,1/2+y,1/2-z
1/2-x,1/2-y,-z
1/2+x,1/2-y,1/2+z
loop_
_atom_site_type_symbol
_atom_site_label
_atom_site_fract_x
_atom_site_fract_y
_atom_site_fract_z
Si Si1 0.500000 0.911448 0.250000
Si Si2 0.629466 0.702072 0.669243
Si Si3 0.172149 0.641263 0.150825
Si Si4 0.500000 0.351657 0.250000
Si Si5 0.851696 0.508957 0.178691
Si Si6 0.000000 0.146740 0.250000
Si Si7 0.767048 0.055625 0.738168
Si Si8 0.622631 0.421416 0.662399
O O1 0.585027 0.860008 0.420696
O O2 0.452563 0.964694 0.310772
O O3 0.683953 0.778666 0.732958
O O4 0.572828 0.698578 0.750293
O O5 0.557396 0.696902 0.437969
O O6 0.710271 0.638973 0.765067
O O7 0.139941 0.586524 0.235508
O O8 0.274012 0.619542 0.210466
O O9 0.558941 0.400830 0.439571
O O10 0.766997 0.458693 0.139926
O O11 0.821875 0.524296 0.972734
O O12 0.926489 0.096451 0.246213
O O13 0.863798 0.008524 0.828206
#
# Coordination Sequence:
#
# PCOD8147577 Si02
#       8
#     4   8   8   4   8   4   8   8
#     4  12  23  47  71  99 130 176 230 286 319 401
#     4  11  24  42  63  99 135 178 216 278 338 403
#     4  11  25  43  69  96 140 172 223 279 341 391
#     4  10  24  42  65  96 139 170 224 268 337 401
#     4  11  23  43  67 100 125 174 229 276 321 398
#     4  10  23  41  66  97 133 178 232 260 340 394
#     4  11  23  41  69  98 131 174 228 265 345 390
#     4  10  22  44  66  98 132 176 224 277 319 400
#
# _framework density 22.403030000000001
#
# number of rings (size 3 to 8) (size 9 to 14) (size 15 to 20)
#    0.000    1.231    3.077    3.692    0.000    7.385 
#    5.538    0.000    0.000    0.000    0.000    0.000 
#    0.000    0.000    0.000    0.000    0.000    0.000 
#
# Total GULP energy -322425.948532 kJ/mol
# GULP energy per Si atom -12400.998020 kJ/mol
# Density = 2.235204 g / cm^3
# Si number density = 22.403030 Si / 1000 Ang^3
#
#
#
# Elastic Constant Matrix: (Units=GPa)
#
#
# Indices 1 2 3 4 5 6 
#
# 1 121.0835 69.1433 21.0193 0.0000 -0.4827 0.0000
# 2 69.1433 161.2760 12.1118 0.0000 0.9641 0.0000
# 3 21.0193 12.1118 69.0246 0.0000 5.7745 0.0000
# 4 0.0000 0.0000 0.0000 21.5725 0.0000 6.0795
# 5 -0.4827 0.9641 5.7745 0.0000 35.9412 0.0000
# 6 0.0000 0.0000 0.0000 6.0795 0.0000 23.9567
#
#
#
# Elastic Compliance Matrix: (Units=1/GPa)
#
#
# Indices 1 2 3 4 5 6 
#
# 1 0.011412 -0.004693 -0.002712 0.000000 0.000715 0.000000
# 2 -0.004693 0.008214 0.000012 0.000000 -0.000285 0.000000
# 3 -0.002712 0.000012 0.015523 0.000000 -0.002531 0.000000
# 4 0.000000 0.000000 0.000000 0.049926 0.000000 -0.012670
# 5 0.000715 -0.000285 -0.002531 0.000000 0.028247 0.000000
# 6 0.000000 0.000000 0.000000 -0.012670 0.000000 0.044957
#
#
# Mechanical properties :
#
#
# Convention : Reuss Voigt Hill
#
# Bulk Modulus (GPa) = 49.10939 61.77031 55.43985
# Shear Modulus (GPa) = 27.80050 32.90140 30.35095
#
# Velocity S-wave (km/s) = 3.52650 3.83641 3.68471
# Velocity P-wave (km/s) = 6.20887 6.87431 6.55005
#
# Compressibility (1/GPa) = 0.02036271
#
# Stress axis : x y z
#
# Youngs Moduli (GPa) = 87.62350 121.74967 64.42082
#
# Poissons Ratio (x) = 0.57143 0.17468
# Poissons Ratio (y) = 0.41126 -0.00076
# Poissons Ratio (z) = 0.23760 -0.00145
#
# Static dielectric constant tensor:
#      x y z
#    x 4.085210 0.000000 -0.039710 
#    y 0.000000 3.850680 0.000000 
#    z -0.039710 0.000000 4.154400 
# 
# 
# High freq. dielectric constant tensor:
#      x y z
#    x 1.888200 0.000000 -0.003440 
#    y 0.000000 1.871040 0.000000 
#    z -0.003440 0.000000 1.894830 
# 
# From -- ./inp_files/50739.got.cif
#   From: 2010.06.25/outbox.cif.g09.slc.cpg/sg15_26_cif.got.tgz:50739.got - 2010.06.28 07:06:18.
