data_PCOD8147503
_publ_section_title
;
Structure prediction by ZEFSAII (Michael W. Deem and Ramdas Pophale) SiO2 
 PCOD8147503
Probable space group: C 2/C
;
_chemical_formula_sum "Si O2"
_cell_formula_units_Z 52
_cell_length_a 20.976686
_cell_length_b 8.818523
_cell_length_c 24.665869
_cell_angle_alpha 90.000000
_cell_angle_beta 146.295861
_cell_angle_gamma 90.000000
_cell_volume 2531.905060
_symmetry_space_group_name_H-M "C 2/C"
_symmetry_group_IT_number 15
_symmetry_cell_setting 'monoclinic'
loop_
_space_group_symop_operation_xyz
x,y,z
-x,y,1/2-z
-x,-y,-z
x,-y,1/2+z
1/2+x,1/2+y,z
1/2-x,1/2+y,1/2-z
1/2-x,1/2-y,-z
1/2+x,1/2-y,1/2+z
loop_
_atom_site_type_symbol
_atom_site_label
_atom_site_fract_x
_atom_site_fract_y
_atom_site_fract_z
Si Si1 0.000000 0.023272 0.750000
Si Si2 0.283806 0.288841 0.290700
Si Si3 0.382128 0.253721 0.086335
Si Si4 0.742117 0.422201 0.670526
Si Si5 0.914658 0.153799 0.290875
Si Si6 0.478235 0.410295 0.054069
Si Si7 0.968376 0.532537 0.787083
O O1 0.924052 0.924647 0.738543
O O2 0.919435 0.131507 0.659049
O O3 0.234748 0.458123 0.264557
O O4 0.257387 0.242083 0.209429
O O5 0.220172 0.177896 0.289035
O O6 0.421363 0.298836 0.396879
O O7 0.403089 0.314253 0.041654
O O8 0.437998 0.088651 0.128534
O O9 0.250000 0.250000 0.000000
O O10 0.611505 0.451995 0.557363
O O11 0.841636 0.451681 0.696343
O O12 0.974428 0.319710 0.329979
O O13 0.973164 0.059838 0.381165
O O14 0.000000 0.590238 0.750000
#
# Coordination Sequence:
#
# PCOD8147503 Si02
#       7
#     4   8   8   8   8   8   8
#     4  10  22  44  64  90 136 168 216 268 318 392
#     4  11  22  42  67  91 129 171 213 266 328 387
#     4  11  23  40  66  96 127 173 216 267 327 385
#     4  11  24  43  66  93 129 172 215 272 323 392
#     4  10  23  41  65  96 129 174 213 265 330 381
#     4  11  23  42  66  94 131 171 217 266 331 389
#     4  11  21  42  65  92 131 169 219 269 318 379
#
# _framework density 20.537894999999999
#
# number of rings (size 3 to 8) (size 9 to 14) (size 15 to 20)
#    0.000    1.231    4.615    1.385    0.000    0.000 
#    5.538    3.077    0.000    0.000    0.000    0.000 
#    0.000    0.000    0.000    0.000    0.000    0.000 
#
# Total GULP energy -322182.625190 kJ/mol
# GULP energy per Si atom -12391.639430 kJ/mol
# Density = 2.049115 g / cm^3
# Si number density = 20.537895 Si / 1000 Ang^3
#
#
#
# Elastic Constant Matrix: (Units=GPa)
#
#
# Indices 1 2 3 4 5 6 
#
# 1 139.5406 63.8549 66.5444 0.0000 23.8852 0.0000
# 2 63.8549 109.1373 51.0103 0.0000 4.2008 0.0005
# 3 66.5444 51.0103 105.5499 0.0001 18.9535 0.0001
# 4 0.0000 0.0000 0.0001 23.9151 0.0000 7.8920
# 5 23.8852 4.2008 18.9535 0.0000 44.0085 0.0001
# 6 0.0000 0.0005 0.0001 7.8920 0.0001 51.2827
#
#
#
# Elastic Compliance Matrix: (Units=1/GPa)
#
#
# Indices 1 2 3 4 5 6 
#
# 1 0.012349 -0.004881 -0.004668 0.000000 -0.004226 0.000000
# 2 -0.004881 0.013851 -0.004178 0.000000 0.003126 0.000000
# 3 -0.004668 -0.004178 0.015076 0.000000 -0.003560 0.000000
# 4 0.000000 0.000000 0.000000 0.044052 0.000000 -0.006779
# 5 -0.004226 0.003126 -0.003560 0.000000 0.026252 0.000000
# 6 0.000000 0.000000 0.000000 -0.006779 0.000000 0.020543
#
#
# Mechanical properties :
#
#
# Convention : Reuss Voigt Hill
#
# Bulk Modulus (GPa) = 72.34836 79.67190 76.01013
# Shear Modulus (GPa) = 30.45361 35.36246 32.90804
#
# Velocity S-wave (km/s) = 3.85489 4.15398 4.00723
# Velocity P-wave (km/s) = 7.42407 7.86665 7.64856
#
# Compressibility (1/GPa) = 0.01382201
#
# Stress axis : x y z
#
# Youngs Moduli (GPa) = 80.97523 72.19641 66.33208
#
# Poissons Ratio (x) = 0.35240 0.30963
# Poissons Ratio (y) = 0.39525 0.27714
# Poissons Ratio (z) = 0.37799 0.30164
#
# Static dielectric constant tensor:
#      x y z
#    x 4.192880 0.000000 0.196590 
#    y 0.000000 4.035250 0.000000 
#    z 0.196590 0.000000 3.344000 
# 
# 
# High freq. dielectric constant tensor:
#      x y z
#    x 1.839600 0.000000 0.014350 
#    y 0.000000 1.810270 0.000000 
#    z 0.014350 0.000000 1.767060 
# 
# From -- ./inp_files/300386.got.cif
#   From: 2010.06.25/outbox.cif.g09.slc.cpg/sg15_151_cif.got.tgz:300386.got - 2010.06.28 07:06:18.
