data_PCOD8147049
_publ_section_title
;
Structure prediction by ZEFSAII (Michael W. Deem and Ramdas Pophale) SiO2 
 PCOD8147049
Probable space group: C 2/C
;
_chemical_formula_sum "Si O2"
_cell_formula_units_Z 48
_cell_length_a 10.779568
_cell_length_b 11.487423
_cell_length_c 21.787319
_cell_angle_alpha 90.000000
_cell_angle_beta 50.689306
_cell_angle_gamma 90.000000
_cell_volume 2087.433725
_symmetry_space_group_name_H-M "C 2/C"
_symmetry_group_IT_number 15
_symmetry_cell_setting 'monoclinic'
loop_
_space_group_symop_operation_xyz
x,y,z
-x,y,1/2-z
-x,-y,-z
x,-y,1/2+z
1/2+x,1/2+y,z
1/2-x,1/2+y,1/2-z
1/2-x,1/2-y,-z
1/2+x,1/2-y,1/2+z
loop_
_atom_site_type_symbol
_atom_site_label
_atom_site_fract_x
_atom_site_fract_y
_atom_site_fract_z
Si Si1 0.469600 0.342420 0.914179
Si Si2 0.639993 0.020073 0.844192
Si Si3 0.676972 0.873711 0.090566
Si Si4 0.318711 0.560932 0.667142
Si Si5 0.204587 0.690658 0.919709
Si Si6 0.012446 0.287573 0.601229
O O1 0.377770 0.263905 0.890901
O O2 0.565524 0.451383 0.856866
O O3 0.601195 0.264591 0.905593
O O4 0.343846 0.389276 0.003082
O O5 0.454593 0.057208 0.906930
O O6 0.723307 0.080744 0.759758
O O7 0.731653 0.065026 0.877181
O O8 0.630094 0.880050 0.840213
O O9 0.690707 0.941182 0.151475
O O10 0.426779 0.668242 0.612028
O O11 0.370673 0.760808 0.877803
O O12 0.116370 0.667517 0.011376
#
# Coordination Sequence:
#
# PCOD8147049 Si02
#       6
#     8   8   8   8   8   8
#     4  10  22  42  70  99 133 173 234 282 323 411
#     4  11  26  43  66  97 142 177 222 284 347 408
#     4  10  22  42  69  97 128 180 228 274 334 405
#     4  12  25  42  67 103 137 176 222 288 350 396
#     4  10  23  45  70  98 130 179 232 275 333 415
#     4  11  25  42  70  98 132 180 227 277 342 410
#
# _framework density 22.994741000000001
#
# number of rings (size 3 to 8) (size 9 to 14) (size 15 to 20)
#    0.000    1.333    1.667    2.500    9.333    2.000 
#    0.000    0.000    0.000    0.000    0.000    0.000 
#    0.000    0.000    0.000    0.000    0.000    0.000 
#
# Total GULP energy -297500.141720 kJ/mol
# GULP energy per Si atom -12395.839238 kJ/mol
# Density = 2.294240 g / cm^3
# Si number density = 22.994741 Si / 1000 Ang^3
#
#
#
# Elastic Constant Matrix: (Units=GPa)
#
#
# Indices 1 2 3 4 5 6 
#
# 1 82.7475 39.3539 30.8871 0.0000 7.3213 0.0000
# 2 39.3539 101.3419 33.2820 0.0000 -0.3829 0.0000
# 3 30.8871 33.2820 70.9313 0.0000 9.8541 0.0000
# 4 0.0000 0.0000 0.0000 28.4764 0.0000 -2.4697
# 5 7.3213 -0.3829 9.8541 0.0000 23.8882 0.0000
# 6 0.0000 0.0000 0.0000 -2.4697 0.0000 32.7570
#
#
#
# Elastic Compliance Matrix: (Units=1/GPa)
#
#
# Indices 1 2 3 4 5 6 
#
# 1 0.016344 -0.004932 -0.004345 0.000000 -0.003296 0.000000
# 2 -0.004932 0.013307 -0.004599 0.000000 0.003622 0.000000
# 3 -0.004345 -0.004599 0.019066 0.000000 -0.006607 0.000000
# 4 0.000000 0.000000 0.000000 0.035348 0.000000 0.002665
# 5 -0.003296 0.003622 -0.006607 0.000000 0.045655 0.000000
# 6 0.000000 0.000000 0.000000 0.002665 0.000000 0.030729
#
#
# Mechanical properties :
#
#
# Convention : Reuss Voigt Hill
#
# Bulk Modulus (GPa) = 47.70026 51.34075 49.52051
# Shear Modulus (GPa) = 25.61597 27.12415 26.37006
#
# Velocity S-wave (km/s) = 3.34127 3.43823 3.39010
# Velocity P-wave (km/s) = 5.97281 6.17556 6.07503
#
# Compressibility (1/GPa) = 0.02096425
#
# Stress axis : x y z
#
# Youngs Moduli (GPa) = 61.18384 75.14753 52.44923
#
# Poissons Ratio (x) = 0.37066 0.22788
# Poissons Ratio (y) = 0.30179 0.24123
# Poissons Ratio (z) = 0.26583 0.34563
#
# Static dielectric constant tensor:
#      x y z
#    x 4.559450 0.000000 -0.053130 
#    y 0.000000 4.620900 0.000000 
#    z -0.053130 0.000000 3.782660 
# 
# 
# High freq. dielectric constant tensor:
#      x y z
#    x 1.915300 0.000000 -0.005490 
#    y 0.000000 1.912350 0.000000 
#    z -0.005490 0.000000 1.887160 
# 
# From -- ./inp_files/196526.got.cif
#   From: 2010.06.25/outbox.cif.g09.slc.cpg/sg15_99_cif.got.tgz:196526.got - 2010.06.28 07:06:18.
