data_PCOD8147208
_publ_section_title
;
Structure prediction by ZEFSAII (Michael W. Deem and Ramdas Pophale) SiO2 
 PCOD8147208
Probable space group: C 2/C
;
_chemical_formula_sum "Si O2"
_cell_formula_units_Z 36
_cell_length_a 6.832732
_cell_length_b 20.919939
_cell_length_c 11.707022
_cell_angle_alpha 90.000000
_cell_angle_beta 90.516718
_cell_angle_gamma 90.000000
_cell_volume 1673.337615
_symmetry_space_group_name_H-M "C 2/C"
_symmetry_group_IT_number 15
_symmetry_cell_setting 'monoclinic'
loop_
_space_group_symop_operation_xyz
x,y,z
-x,y,1/2-z
-x,-y,-z
x,-y,1/2+z
1/2+x,1/2+y,z
1/2-x,1/2+y,1/2-z
1/2-x,1/2-y,-z
1/2+x,1/2-y,1/2+z
loop_
_atom_site_type_symbol
_atom_site_label
_atom_site_fract_x
_atom_site_fract_y
_atom_site_fract_z
Si Si1 0.826706 0.849562 0.672987
Si Si2 0.797590 0.467576 0.962516
Si Si3 0.431123 0.296693 0.021242
Si Si4 0.500000 0.232048 0.250000
Si Si5 0.534175 0.427093 0.377609
O O1 0.688620 0.901605 0.609069
O O2 0.693022 0.811742 0.762802
O O3 0.000000 0.881477 0.750000
O O4 0.917501 0.798235 0.583428
O O5 0.689712 0.516259 0.877637
O O6 0.671712 0.452978 0.074700
O O7 0.000000 0.500000 0.000000
O O8 0.536918 0.273169 0.136807
O O9 0.372471 0.370594 0.044393
O O10 0.250000 0.250000 0.000000
O O11 0.500000 0.402101 0.250000
#
# Coordination Sequence:
#
# PCOD8147208 Si02
#       5
#     8   8   8   4   8
#     4  11  24  42  67  97 132 175 219 275 326 396
#     4  10  24  41  65  95 125 166 221 269 325 388
#     4  11  23  43  66  97 132 171 220 267 331 393
#     4  12  24  42  70  92 136 176 214 270 332 396
#     4  10  22  43  64  90 131 167 210 273 324 380
#
# _framework density 21.513888999999999
#
# number of rings (size 3 to 8) (size 9 to 14) (size 15 to 20)
#    0.000    1.333    3.333    1.333    3.111    4.444 
#    0.000    2.222    0.000    0.000    0.000    0.000 
#    0.000    0.000    0.000    0.000    0.000    0.000 
#
# Total GULP energy -223128.883948 kJ/mol
# GULP energy per Si atom -12396.049108 kJ/mol
# Density = 2.146492 g / cm^3
# Si number density = 21.513889 Si / 1000 Ang^3
#
#
#
# Elastic Constant Matrix: (Units=GPa)
#
#
# Indices 1 2 3 4 5 6 
#
# 1 108.0549 60.6729 43.2270 0.0000 1.5903 0.0000
# 2 60.6729 102.1553 26.6412 0.0000 -4.0031 0.0000
# 3 43.2270 26.6412 102.7416 0.0000 -1.5443 0.0000
# 4 0.0000 0.0000 0.0000 37.2247 0.0000 9.2405
# 5 1.5903 -4.0031 -1.5443 0.0000 28.3283 0.0000
# 6 0.0000 0.0000 0.0000 9.2405 0.0000 41.7089
#
#
#
# Elastic Compliance Matrix: (Units=1/GPa)
#
#
# Indices 1 2 3 4 5 6 
#
# 1 0.015728 -0.008255 -0.004511 0.000000 -0.002295 0.000000
# 2 -0.008255 0.014882 -0.000348 0.000000 0.002547 0.000000
# 3 -0.004511 -0.000348 0.011734 0.000000 0.000844 0.000000
# 4 0.000000 0.000000 0.000000 0.028427 0.000000 -0.006298
# 5 -0.002295 0.002547 0.000844 0.000000 0.035835 0.000000
# 6 0.000000 0.000000 0.000000 -0.006298 0.000000 0.025371
#
#
# Mechanical properties :
#
#
# Convention : Reuss Voigt Hill
#
# Bulk Modulus (GPa) = 62.04694 63.78156 62.91425
# Shear Modulus (GPa) = 30.56644 33.61310 32.08977
#
# Velocity S-wave (km/s) = 3.77341 3.95700 3.86629
# Velocity P-wave (km/s) = 6.92010 7.11253 7.01698
#
# Compressibility (1/GPa) = 0.01611683
#
# Stress axis : x y z
#
# Youngs Moduli (GPa) = 63.58004 67.19400 85.22176
#
# Poissons Ratio (x) = 0.55468 0.38447
# Poissons Ratio (y) = 0.52484 0.02963
# Poissons Ratio (z) = 0.28684 0.02336
#
# Static dielectric constant tensor:
#      x y z
#    x 3.667700 0.000000 -0.177990 
#    y 0.000000 3.965430 0.000000 
#    z -0.177990 0.000000 3.958040 
# 
# 
# High freq. dielectric constant tensor:
#      x y z
#    x 1.826690 0.000000 -0.005770 
#    y 0.000000 1.852920 0.000000 
#    z -0.005770 0.000000 1.854870 
# 
# From -- ./inp_files/72583.got.cif
#   From: 2010.06.25/outbox.cif.g09.slc.cpg/sg15_37_cif.got.tgz:72583.got - 2010.06.28 07:06:18.
