data_PCOD8147799
_publ_section_title
;
Structure prediction by ZEFSAII (Michael W. Deem and Ramdas Pophale) SiO2 
 PCOD8147799
Probable space group: C 2/C
;
_chemical_formula_sum "Si O2"
_cell_formula_units_Z 52
_cell_length_a 16.330452
_cell_length_b 8.740353
_cell_length_c 22.896327
_cell_angle_alpha 90.000000
_cell_angle_beta 132.647260
_cell_angle_gamma 90.000000
_cell_volume 2403.800490
_symmetry_space_group_name_H-M "C 2/C"
_symmetry_group_IT_number 15
_symmetry_cell_setting 'monoclinic'
loop_
_space_group_symop_operation_xyz
x,y,z
-x,y,1/2-z
-x,-y,-z
x,-y,1/2+z
1/2+x,1/2+y,z
1/2-x,1/2+y,1/2-z
1/2-x,1/2-y,-z
1/2+x,1/2-y,1/2+z
loop_
_atom_site_type_symbol
_atom_site_label
_atom_site_fract_x
_atom_site_fract_y
_atom_site_fract_z
Si Si1 0.220678 0.154439 0.904791
Si Si2 0.933282 0.710750 0.077922
Si Si3 0.000000 0.654185 0.750000
Si Si4 0.224789 0.774310 0.690700
Si Si5 0.523407 0.512938 0.078605
Si Si6 0.352319 0.335120 0.581787
Si Si7 0.604640 0.005700 0.697411
O O1 0.127059 0.258604 0.889595
O O2 0.217361 0.185778 0.834699
O O3 0.200354 0.978051 0.909685
O O4 0.343204 0.206692 0.983291
O O5 0.990382 0.543681 0.109806
O O6 0.021768 0.844896 0.106885
O O7 0.924797 0.746976 0.666325
O O8 0.915332 0.546554 0.744523
O O9 0.322652 0.852624 0.774535
O O10 0.156346 0.653189 0.693792
O O11 0.146042 0.917606 0.639205
O O12 0.434440 0.618659 0.069130
O O13 0.500000 0.500000 0.000000
O O14 0.250000 0.250000 0.500000
#
# Coordination Sequence:
#
# PCOD8147799 Si02
#       7
#     8   8   4   8   8   8   8
#     4  10  23  41  73  95 136 177 237 279 354 416
#     4  10  22  45  67 101 130 185 226 283 348 432
#     4  12  26  46  68 100 144 188 240 290 352 436
#     4  12  26  44  65 105 134 183 229 292 352 416
#     4  11  23  44  70 103 144 178 235 290 356 422
#     4  11  26  45  73 106 142 190 236 293 360 427
#     4  12  27  43  68  95 144 178 232 286 356 415
#
# _framework density 21.63241
#
# number of rings (size 3 to 8) (size 9 to 14) (size 15 to 20)
#    0.000    0.923    3.077    2.769    4.308    4.308 
#    0.000    0.000    0.000    0.000    0.000    0.000 
#    0.000    0.000    0.000    0.000    0.000    0.000 
#
# Total GULP energy -322298.476714 kJ/mol
# GULP energy per Si atom -12396.095258 kJ/mol
# Density = 2.158317 g / cm^3
# Si number density = 21.632410 Si / 1000 Ang^3
#
#
#
# Elastic Constant Matrix: (Units=GPa)
#
#
# Indices 1 2 3 4 5 6 
#
# 1 78.3618 24.4435 36.3217 0.0000 1.8182 0.0000
# 2 24.4435 99.0031 43.3713 0.0000 12.7945 0.0000
# 3 36.3217 43.3713 94.9436 0.0000 -2.4335 0.0000
# 4 0.0000 0.0000 0.0000 46.7808 0.0000 11.2761
# 5 1.8182 12.7945 -2.4335 0.0000 23.4516 0.0000
# 6 0.0000 0.0000 0.0000 11.2761 0.0000 42.5991
#
#
#
# Elastic Compliance Matrix: (Units=1/GPa)
#
#
# Indices 1 2 3 4 5 6 
#
# 1 0.015724 -0.001378 -0.005412 0.000000 -0.001029 0.000000
# 2 -0.001378 0.014221 -0.006181 0.000000 -0.008293 0.000000
# 3 -0.005412 -0.006181 0.015565 0.000000 0.005407 0.000000
# 4 0.000000 0.000000 0.000000 0.022833 0.000000 -0.006044
# 5 -0.001029 -0.008293 0.005407 0.000000 0.047806 0.000000
# 6 0.000000 0.000000 0.000000 -0.006044 0.000000 0.025075
#
#
# Mechanical properties :
#
#
# Convention : Reuss Voigt Hill
#
# Bulk Modulus (GPa) = 51.10852 53.39794 52.25323
# Shear Modulus (GPa) = 28.78708 33.77777 31.28243
#
# Velocity S-wave (km/s) = 3.65189 3.95580 3.80688
# Velocity P-wave (km/s) = 6.43886 6.75294 6.59777
#
# Compressibility (1/GPa) = 0.01956621
#
# Stress axis : x y z
#
# Youngs Moduli (GPa) = 63.59846 70.32012 64.24531
#
# Poissons Ratio (x) = 0.09692 0.34770
# Poissons Ratio (y) = 0.08766 0.39713
# Poissons Ratio (z) = 0.34420 0.43468
#
# Static dielectric constant tensor:
#      x y z
#    x 4.900940 0.000000 0.773020 
#    y 0.000000 3.931990 0.000000 
#    z 0.773020 0.000000 4.425240 
# 
# 
# High freq. dielectric constant tensor:
#      x y z
#    x 1.863310 0.000000 0.009350 
#    y 0.000000 1.862840 0.000000 
#    z 0.009350 0.000000 1.849480 
# 
# From -- ./inp_files/298443.got.cif
#   From: 2010.06.25/outbox.cif.g09.slc.cpg/sg15_150_cif.got.tgz:298443.got - 2010.06.28 07:06:18.
