data_PCOD8147663
_publ_section_title
;
Structure prediction by ZEFSAII (Michael W. Deem and Ramdas Pophale) SiO2 
 PCOD8147663
Probable space group: C 2/C
;
_chemical_formula_sum "Si O2"
_cell_formula_units_Z 44
_cell_length_a 7.573292
_cell_length_b 17.322792
_cell_length_c 14.015631
_cell_angle_alpha 90.000000
_cell_angle_beta 93.245685
_cell_angle_gamma 90.000000
_cell_volume 1835.769089
_symmetry_space_group_name_H-M "C 2/C"
_symmetry_group_IT_number 15
_symmetry_cell_setting 'monoclinic'
loop_
_space_group_symop_operation_xyz
x,y,z
-x,y,1/2-z
-x,-y,-z
x,-y,1/2+z
1/2+x,1/2+y,z
1/2-x,1/2+y,1/2-z
1/2-x,1/2-y,-z
1/2+x,1/2-y,1/2+z
loop_
_atom_site_type_symbol
_atom_site_label
_atom_site_fract_x
_atom_site_fract_y
_atom_site_fract_z
Si Si1 0.701259 0.512859 0.762031
Si Si2 0.500000 0.762765 0.750000
Si Si3 0.737477 0.634791 0.145977
Si Si4 0.815007 0.894732 0.063477
Si Si5 0.298937 0.645916 0.865780
Si Si6 0.960069 0.716149 0.856885
O O1 0.500000 0.538858 0.750000
O O2 0.730794 0.424286 0.735104
O O3 0.747654 0.531268 0.874630
O O4 0.790630 0.570978 0.688903
O O5 0.584696 0.816064 0.835037
O O6 0.345468 0.709864 0.787048
O O7 0.565875 0.691071 0.139153
O O8 0.742327 0.587773 0.046813
O O9 0.716258 0.819699 0.101595
O O10 0.026740 0.876965 0.068627
O O11 0.136525 0.685931 0.920234
O O12 0.000000 0.689286 0.750000
#
# Coordination Sequence:
#
# PCOD8147663 Si02
#       6
#     8   4   8   8   8   8
#     4  10  22  44  69  96 140 192 222 283 352 409
#     4  12  22  44  66 106 142 180 224 302 342 392
#     4  12  26  42  72 107 138 178 240 297 332 409
#     4  11  24  47  72  99 146 185 229 283 354 411
#     4  11  21  43  71  95 141 191 217 272 360 415
#     4  12  21  40  76 105 134 185 230 277 348 411
#
# _framework density 23.968154999999999
#
# number of rings (size 3 to 8) (size 9 to 14) (size 15 to 20)
#    0.000    0.727    8.182    1.091    0.000    5.091 
#    0.000    3.636    0.000    0.000    0.000    0.000 
#    0.000    0.000    0.000    0.000    0.000    0.000 
#
# Total GULP energy -272576.789705 kJ/mol
# GULP energy per Si atom -12389.854078 kJ/mol
# Density = 2.391360 g / cm^3
# Si number density = 23.968155 Si / 1000 Ang^3
#
#
#
# Elastic Constant Matrix: (Units=GPa)
#
#
# Indices 1 2 3 4 5 6 
#
# 1 89.7146 27.0238 -0.2502 0.0000 2.8587 0.0000
# 2 27.0238 126.6263 21.3623 0.0000 -2.6454 0.0000
# 3 -0.2502 21.3623 88.1620 0.0000 6.3308 0.0000
# 4 0.0000 0.0000 0.0000 27.2789 0.0000 -0.7541
# 5 2.8587 -2.6454 6.3308 0.0000 18.7137 0.0000
# 6 0.0000 0.0000 0.0000 -0.7541 0.0000 20.4435
#
#
#
# Elastic Compliance Matrix: (Units=1/GPa)
#
#
# Indices 1 2 3 4 5 6 
#
# 1 0.012067 -0.002778 0.000890 0.000000 -0.002537 0.000000
# 2 -0.002778 0.008939 -0.002352 0.000000 0.002484 0.000000
# 3 0.000890 -0.002352 0.012246 0.000000 -0.004611 0.000000
# 4 0.000000 0.000000 0.000000 0.036696 0.000000 0.001354
# 5 -0.002537 0.002484 -0.004611 0.000000 0.055735 0.000000
# 6 0.000000 0.000000 0.000000 0.001354 0.000000 0.048965
#
#
# Mechanical properties :
#
#
# Convention : Reuss Voigt Hill
#
# Bulk Modulus (GPa) = 40.37109 44.53052 42.45081
# Shear Modulus (GPa) = 26.12510 30.37835 28.25172
#
# Velocity S-wave (km/s) = 3.30508 3.56398 3.43697
# Velocity P-wave (km/s) = 5.60758 5.96283 5.78793
#
# Compressibility (1/GPa) = 0.02477020
#
# Stress axis : x y z
#
# Youngs Moduli (GPa) = 82.87310 111.87073 81.65682
#
# Poissons Ratio (x) = 0.31081 -0.07264
# Poissons Ratio (y) = 0.23024 0.19207
# Poissons Ratio (z) = -0.07373 0.26314
#
# Static dielectric constant tensor:
#      x y z
#    x 4.458960 0.000000 0.061610 
#    y 0.000000 4.163600 0.000000 
#    z 0.061610 0.000000 4.045200 
# 
# 
# High freq. dielectric constant tensor:
#      x y z
#    x 1.948710 0.000000 0.011020 
#    y 0.000000 1.945320 0.000000 
#    z 0.011020 0.000000 1.920060 
# 
# From -- ./inp_files/134492.got.cif
#   From: 2010.06.25/outbox.cif.g09.slc.cpg/sg15_68_cif.got.tgz:134492.got - 2010.06.28 07:06:18.
