data_PCOD8147989
_publ_section_title
;
Structure prediction by ZEFSAII (Michael W. Deem and Ramdas Pophale) SiO2 
 PCOD8147989
Probable space group: C 2/C
;
_chemical_formula_sum "Si O2"
_cell_formula_units_Z 32
_cell_length_a 5.367380
_cell_length_b 14.300620
_cell_length_c 16.570124
_cell_angle_alpha 90.000000
_cell_angle_beta 75.373049
_cell_angle_gamma 90.000000
_cell_volume 1230.650016
_symmetry_space_group_name_H-M "C 2/C"
_symmetry_group_IT_number 15
_symmetry_cell_setting 'monoclinic'
loop_
_space_group_symop_operation_xyz
x,y,z
-x,y,1/2-z
-x,-y,-z
x,-y,1/2+z
1/2+x,1/2+y,z
1/2-x,1/2+y,1/2-z
1/2-x,1/2-y,-z
1/2+x,1/2-y,1/2+z
loop_
_atom_site_type_symbol
_atom_site_label
_atom_site_fract_x
_atom_site_fract_y
_atom_site_fract_z
Si Si1 0.936964 0.819980 0.151731
Si Si2 0.341948 0.593654 0.502355
Si Si3 0.562274 0.079377 0.842025
Si Si4 0.241840 0.122706 0.174107
O O1 0.672260 0.879653 0.196023
O O2 0.823966 0.859847 0.316611
O O3 0.925099 0.711169 0.174874
O O4 0.975520 0.830364 0.051632
O O5 0.500000 0.500000 0.500000
O O6 0.356604 0.627455 0.409916
O O7 0.045396 0.580140 0.556743
O O8 0.608838 0.971568 0.815703
O O9 0.000000 0.133831 0.250000
#
# Coordination Sequence:
#
# PCOD8147989 Si02
#       4
#     8   8   8   8
#     4  10  25  44  75  97 140 185 243 279 352 423
#     4  10  22  47  75 101 138 193 241 283 349 430
#     4  10  24  46  73  98 140 187 240 285 346 428
#     4  12  25  44  71 108 143 183 236 302 360 411
#
# _framework density 26.002520000000001
#
# number of rings (size 3 to 8) (size 9 to 14) (size 15 to 20)
#    1.500    0.000    2.500    1.500    0.000    7.000 
#    0.000    6.250    0.000    0.000    0.000    0.000 
#    0.000    0.000    0.000    0.000    0.000    0.000 
#
# Total GULP energy -198385.362102 kJ/mol
# GULP energy per Si atom -12399.085131 kJ/mol
# Density = 2.594334 g / cm^3
# Si number density = 26.002520 Si / 1000 Ang^3
#
#
#
# Elastic Constant Matrix: (Units=GPa)
#
#
# Indices 1 2 3 4 5 6 
#
# 1 182.7155 83.4712 93.5421 0.0000 2.6309 0.0000
# 2 83.4712 237.9772 52.6131 0.0000 -7.2932 0.0000
# 3 93.5421 52.6131 148.0482 0.0000 6.8371 0.0000
# 4 0.0000 0.0000 0.0000 30.0423 0.0000 -30.5823
# 5 2.6309 -7.2932 6.8371 0.0000 53.9231 0.0000
# 6 0.0000 0.0000 0.0000 -30.5823 0.0000 43.1542
#
#
#
# Elastic Compliance Matrix: (Units=1/GPa)
#
#
# Indices 1 2 3 4 5 6 
#
# 1 0.008920 -0.002047 -0.004905 0.000000 -0.000090 0.000000
# 2 -0.002047 0.005067 -0.000547 0.000000 0.000855 0.000000
# 3 -0.004905 -0.000547 0.010099 0.000000 -0.001115 0.000000
# 4 0.000000 0.000000 0.000000 0.119481 0.000000 0.084673
# 5 -0.000090 0.000855 -0.001115 0.000000 0.018806 0.000000
# 6 0.000000 0.000000 0.000000 0.084673 0.000000 0.083178
#
#
# Mechanical properties :
#
#
# Convention : Reuss Voigt Hill
#
# Bulk Modulus (GPa) = 110.01302 114.22156 112.11729
# Shear Modulus (GPa) = 18.96958 48.03157 33.50057
#
# Velocity S-wave (km/s) = 2.70391 4.30256 3.59327
# Velocity P-wave (km/s) = 7.22140 8.28886 7.77347
#
# Compressibility (1/GPa) = 0.00908983
#
# Stress axis : x y z
#
# Youngs Moduli (GPa) = 112.10146 197.34591 99.01786
#
# Poissons Ratio (x) = 0.40403 0.48564
# Poissons Ratio (y) = 0.22951 0.05413
# Poissons Ratio (z) = 0.54981 0.10788
#
# Static dielectric constant tensor:
#      x y z
#    x 4.404870 0.000000 -0.468980 
#    y 0.000000 4.633900 0.000000 
#    z -0.468980 0.000000 2.720440 
# 
# 
# High freq. dielectric constant tensor:
#      x y z
#    x 2.039450 0.000000 0.002990 
#    y 0.000000 2.035840 0.000000 
#    z 0.002990 0.000000 2.087350 
# 
# From -- ./inp_files/187536.got.cif
#   From: 2010.06.25/outbox.cif.g09.slc.cpg/sg15_94_cif.got.tgz:187536.got - 2010.06.28 07:06:18.
