data_PCOD8147633
_publ_section_title
;
Structure prediction by ZEFSAII (Michael W. Deem and Ramdas Pophale) SiO2 
 PCOD8147633
Probable space group: C 2/C
;
_chemical_formula_sum "Si O2"
_cell_formula_units_Z 52
_cell_length_a 10.750014
_cell_length_b 22.871325
_cell_length_c 11.992454
_cell_angle_alpha 90.000000
_cell_angle_beta 126.741893
_cell_angle_gamma 90.000000
_cell_volume 2362.786091
_symmetry_space_group_name_H-M "C 2/C"
_symmetry_group_IT_number 15
_symmetry_cell_setting 'monoclinic'
loop_
_space_group_symop_operation_xyz
x,y,z
-x,y,1/2-z
-x,-y,-z
x,-y,1/2+z
1/2+x,1/2+y,z
1/2-x,1/2+y,1/2-z
1/2-x,1/2-y,-z
1/2+x,1/2-y,1/2+z
loop_
_atom_site_type_symbol
_atom_site_label
_atom_site_fract_x
_atom_site_fract_y
_atom_site_fract_z
Si Si1 0.894688 0.216049 0.790794
Si Si2 0.625847 0.862415 0.091201
Si Si3 0.810363 0.665911 0.335397
Si Si4 0.923675 0.879599 0.967625
Si Si5 0.335474 0.544304 0.614797
Si Si6 0.500000 0.108743 0.750000
Si Si7 0.295256 0.583372 0.031645
O O1 0.755657 0.186782 0.645004
O O2 0.826741 0.263477 0.841880
O O3 0.000000 0.245171 0.750000
O O4 0.991588 0.168283 0.911167
O O5 0.700038 0.926598 0.116150
O O6 0.560685 0.851849 0.180935
O O7 0.487143 0.857819 0.927247
O O8 0.715181 0.649168 0.175481
O O9 0.725498 0.640399 0.400403
O O10 0.049902 0.909079 0.955825
O O11 0.836881 0.930576 0.990021
O O12 0.500000 0.563963 0.750000
O O13 0.312358 0.474995 0.613550
O O14 0.353934 0.071289 0.627101
#
# Coordination Sequence:
#
# PCOD8147633 Si02
#       7
#     8   8   8   8   8   4   8
#     4  12  24  47  73  96 137 181 230 279 340 411
#     4  11  23  46  66 102 136 176 229 277 347 397
#     4  11  28  40  67 104 139 174 228 287 331 406
#     4  12  23  45  70 104 132 184 229 274 351 397
#     4  12  23  43  73  96 138 181 230 283 334 413
#     4  10  22  44  68  94 134 178 220 274 338 414
#     4  11  25  45  68 100 139 177 231 278 345 406
#
# _framework density 22.007916000000002
#
# number of rings (size 3 to 8) (size 9 to 14) (size 15 to 20)
#    0.000    0.615    4.615    2.769    2.154    6.769 
#    2.769    0.000    1.692    0.000    0.000    0.000 
#    0.000    0.000    0.000    0.000    0.000    0.000 
#
# Total GULP energy -322326.770485 kJ/mol
# GULP energy per Si atom -12397.183480 kJ/mol
# Density = 2.195782 g / cm^3
# Si number density = 22.007916 Si / 1000 Ang^3
#
#
#
# Elastic Constant Matrix: (Units=GPa)
#
#
# Indices 1 2 3 4 5 6 
#
# 1 110.7014 46.6009 31.0135 0.0000 2.2063 0.0000
# 2 46.6009 114.7223 21.2920 0.0000 -8.0391 0.0000
# 3 31.0135 21.2920 112.2382 0.0000 30.1209 0.0000
# 4 0.0000 0.0000 0.0000 23.8823 0.0000 -9.0562
# 5 2.2063 -8.0391 30.1209 0.0000 40.6287 0.0000
# 6 0.0000 0.0000 0.0000 -9.0562 0.0000 32.1205
#
#
#
# Elastic Compliance Matrix: (Units=1/GPa)
#
#
# Indices 1 2 3 4 5 6 
#
# 1 0.011479 -0.004174 -0.002486 0.000000 0.000394 0.000000
# 2 -0.004174 0.011053 -0.001987 0.000000 0.003886 0.000000
# 3 -0.002486 -0.001987 0.012537 0.000000 -0.009553 0.000000
# 4 0.000000 0.000000 0.000000 0.046885 0.000000 0.013219
# 5 0.000394 0.003886 -0.009553 0.000000 0.032443 0.000000
# 6 0.000000 0.000000 0.000000 0.013219 0.000000 0.034860
#
#
# Mechanical properties :
#
#
# Convention : Reuss Voigt Hill
#
# Bulk Modulus (GPa) = 56.25284 59.49720 57.87502
# Shear Modulus (GPa) = 28.98991 35.24333 32.11662
#
# Velocity S-wave (km/s) = 3.63333 4.00608 3.82425
# Velocity P-wave (km/s) = 6.57398 6.96358 6.77158
#
# Compressibility (1/GPa) = 0.01777688
#
# Stress axis : x y z
#
# Youngs Moduli (GPa) = 87.11657 90.47159 79.76466
#
# Poissons Ratio (x) = 0.37762 0.19827
# Poissons Ratio (y) = 0.36362 0.15845
# Poissons Ratio (z) = 0.21654 0.17972
#
# Static dielectric constant tensor:
#      x y z
#    x 4.172770 0.000000 0.173670 
#    y 0.000000 3.722210 0.000000 
#    z 0.173670 0.000000 4.241670 
# 
# 
# High freq. dielectric constant tensor:
#      x y z
#    x 1.875000 0.000000 0.013550 
#    y 0.000000 1.847820 0.000000 
#    z 0.013550 0.000000 1.881530 
# 
# From -- ./inp_files/91316.got.cif
#   From: 2010.06.25/outbox.cif.g09.slc.cpg/sg15_46_cif.got.tgz:91316.got - 2010.06.28 07:06:18.
