data_PCOD8147996
_publ_section_title
;
Structure prediction by ZEFSAII (Michael W. Deem and Ramdas Pophale) SiO2 
 PCOD8147996
Probable space group: C 2/C
;
_chemical_formula_sum "Si O2"
_cell_formula_units_Z 60
_cell_length_a 15.469837
_cell_length_b 12.615499
_cell_length_c 16.363675
_cell_angle_alpha 90.000000
_cell_angle_beta 120.264589
_cell_angle_gamma 90.000000
_cell_volume 2758.274968
_symmetry_space_group_name_H-M "C 2/C"
_symmetry_group_IT_number 15
_symmetry_cell_setting 'monoclinic'
loop_
_space_group_symop_operation_xyz
x,y,z
-x,y,1/2-z
-x,-y,-z
x,-y,1/2+z
1/2+x,1/2+y,z
1/2-x,1/2+y,1/2-z
1/2-x,1/2-y,-z
1/2+x,1/2-y,1/2+z
loop_
_atom_site_type_symbol
_atom_site_label
_atom_site_fract_x
_atom_site_fract_y
_atom_site_fract_z
Si Si1 0.889602 0.769730 0.323422
Si Si2 0.883061 0.036656 0.708068
Si Si3 0.389589 0.232234 0.501827
Si Si4 0.718638 0.590354 0.465004
Si Si5 0.555822 0.823686 0.191038
Si Si6 0.696347 0.639087 0.220865
Si Si7 0.317200 0.999927 0.668758
Si Si8 0.500000 0.147061 0.250000
O O1 0.846344 0.870540 0.251823
O O2 0.923320 0.789604 0.432865
O O3 0.805763 0.681249 0.292894
O O4 0.983781 0.721970 0.320371
O O5 0.000000 0.051321 0.750000
O O6 0.822722 0.021722 0.593030
O O7 0.856363 0.923763 0.732023
O O8 0.372336 0.330845 0.555401
O O9 0.291439 0.158808 0.440386
O O10 0.472151 0.154353 0.581959
O O11 0.782059 0.569208 0.576528
O O12 0.500000 0.793963 0.250000
O O13 0.619289 0.734251 0.173561
O O14 0.630422 0.923172 0.239173
O O15 0.717577 0.560136 0.154520
O O16 0.402683 0.919621 0.679816
#
# Coordination Sequence:
#
# PCOD8147996 Si02
#       8
#     8   8   8   8   8   8   8   4
#     4  11  24  45  66  95 141 186 229 284 350 415
#     4  12  24  42  68  98 140 182 225 285 353 406
#     4  11  22  40  71 102 141 174 241 288 345 416
#     4  11  22  41  67 107 132 180 233 293 348 416
#     4  12  22  41  71 105 136 182 229 292 351 411
#     4  11  23  40  65  98 131 180 226 279 345 408
#     4  11  23  44  70  95 142 179 233 291 352 420
#     4  10  22  48  66  94 138 192 228 290 360 408
#
# _framework density 21.752725999999999
#
# number of rings (size 3 to 8) (size 9 to 14) (size 15 to 20)
#    0.000    0.800    4.000    4.400    0.000    1.067 
#    4.800    6.000    0.000    0.000    0.000    0.000 
#    0.000    0.000    0.000    0.000    0.000    0.000 
#
# Total GULP energy -371659.601652 kJ/mol
# GULP energy per Si atom -12388.653388 kJ/mol
# Density = 2.170322 g / cm^3
# Si number density = 21.752726 Si / 1000 Ang^3
#
#
#
# Elastic Constant Matrix: (Units=GPa)
#
#
# Indices 1 2 3 4 5 6 
#
# 1 110.4685 35.6476 26.5832 0.0000 -14.2447 0.0000
# 2 35.6476 106.5320 42.0132 0.0000 -7.2880 0.0000
# 3 26.5832 42.0132 111.0227 0.0000 -9.8653 0.0000
# 4 0.0000 0.0000 0.0000 32.1128 0.0000 -0.2897
# 5 -14.2447 -7.2880 -9.8653 0.0000 23.4941 0.0000
# 6 0.0000 0.0000 0.0000 -0.2897 0.0000 36.1642
#
#
#
# Elastic Compliance Matrix: (Units=1/GPa)
#
#
# Indices 1 2 3 4 5 6 
#
# 1 0.010915 -0.002874 -0.001056 0.000000 0.005283 0.000000
# 2 -0.002874 0.011859 -0.003768 0.000000 0.000354 0.000000
# 3 -0.001056 -0.003768 0.010933 0.000000 0.002782 0.000000
# 4 0.000000 0.000000 0.000000 0.031142 0.000000 0.000250
# 5 0.005283 0.000354 0.002782 0.000000 0.047045 0.000000
# 6 0.000000 0.000000 0.000000 0.000250 0.000000 0.027654
#
#
# Mechanical properties :
#
#
# Convention : Reuss Voigt Hill
#
# Bulk Modulus (GPa) = 54.61567 59.61236 57.11402
# Shear Modulus (GPa) = 31.04648 33.27284 32.15966
#
# Velocity S-wave (km/s) = 3.78199 3.91525 3.84919
# Velocity P-wave (km/s) = 6.65081 6.92119 6.78735
#
# Compressibility (1/GPa) = 0.01830976
#
# Stress axis : x y z
#
# Youngs Moduli (GPa) = 91.61411 84.32504 91.46508
#
# Poissons Ratio (x) = 0.24239 0.09662
# Poissons Ratio (y) = 0.26334 0.34464
# Poissons Ratio (z) = 0.09678 0.31773
#
# Static dielectric constant tensor:
#      x y z
#    x 4.338990 0.000000 -0.209060 
#    y 0.000000 4.002940 0.000000 
#    z -0.209060 0.000000 3.767590 
# 
# 
# High freq. dielectric constant tensor:
#      x y z
#    x 1.868420 0.000000 -0.006730 
#    y 0.000000 1.851270 0.000000 
#    z -0.006730 0.000000 1.834570 
# 
# From -- ./inp_files/210652.got.cif
#   From: 2010.06.25/outbox.cif.g09.slc.cpg/sg15_106_cif.got.tgz:210652.got - 2010.06.28 07:06:18.
