data_PCOD8147791
_publ_section_title
;
Structure prediction by ZEFSAII (Michael W. Deem and Ramdas Pophale) SiO2 
 PCOD8147791
Probable space group: C 2/C
;
_chemical_formula_sum "Si O2"
_cell_formula_units_Z 56
_cell_length_a 6.676195
_cell_length_b 23.467597
_cell_length_c 18.410408
_cell_angle_alpha 90.000000
_cell_angle_beta 103.218962
_cell_angle_gamma 90.000000
_cell_volume 2808.008808
_symmetry_space_group_name_H-M "C 2/C"
_symmetry_group_IT_number 15
_symmetry_cell_setting 'monoclinic'
loop_
_space_group_symop_operation_xyz
x,y,z
-x,y,1/2-z
-x,-y,-z
x,-y,1/2+z
1/2+x,1/2+y,z
1/2-x,1/2+y,1/2-z
1/2-x,1/2-y,-z
1/2+x,1/2-y,1/2+z
loop_
_atom_site_type_symbol
_atom_site_label
_atom_site_fract_x
_atom_site_fract_y
_atom_site_fract_z
Si Si1 0.500000 0.111020 0.750000
Si Si2 0.906267 0.769719 0.073628
Si Si3 0.412632 0.946744 0.088423
Si Si4 0.366372 0.073130 0.039903
Si Si5 0.268077 0.292091 0.210031
Si Si6 0.686774 0.161823 0.113800
Si Si7 0.066761 0.131704 0.502708
Si Si8 0.500000 0.303605 0.750000
O O1 0.533975 0.072080 0.824513
O O2 0.306847 0.152052 0.752254
O O3 0.765352 0.799572 0.123221
O O4 0.050259 0.718409 0.112192
O O5 0.057924 0.819018 0.061138
O O6 0.750000 0.750000 0.000000
O O7 0.202333 0.918167 0.046617
O O8 0.364731 0.013454 0.081579
O O9 0.590423 0.931944 0.043649
O O10 0.543063 0.107096 0.096721
O O11 0.154090 0.105729 0.035614
O O12 0.500000 0.277549 0.250000
O O13 0.124843 0.237385 0.207080
O O14 0.839165 0.155991 0.194865
O O15 0.833008 0.163881 0.056505
#
# Coordination Sequence:
#
# PCOD8147791 Si02
#       8
#     4   8   8   8   8   8   8   4
#     4  11  24  40  62  98 122 166 216 269 332 378
#     4  12  22  38  64  96 128 167 209 258 321 394
#     4  10  23  42  67  91 128 165 220 279 321 382
#     4  10  22  45  66  91 125 171 220 269 326 379
#     4  11  23  40  59  88 131 167 201 255 328 383
#     4  11  24  40  61  96 126 170 211 257 318 393
#     4  11  22  39  67  94 123 167 216 266 316 382
#     4  11  24  40  58  88 134 168 202 251 320 390
#
# _framework density 19.942958000000001
#
# number of rings (size 3 to 8) (size 9 to 14) (size 15 to 20)
#    0.000    1.143    2.857    3.429    4.000    0.000 
#    2.571    0.000    0.000    0.000    0.000    0.000 
#    0.000    0.000    0.000    0.000    0.000    0.000 
#
# Total GULP energy -347108.536186 kJ/mol
# GULP energy per Si atom -12396.733435 kJ/mol
# Density = 1.989757 g / cm^3
# Si number density = 19.942958 Si / 1000 Ang^3
#
#
#
# Elastic Constant Matrix: (Units=GPa)
#
#
# Indices 1 2 3 4 5 6 
#
# 1 85.5722 21.0914 42.5484 0.0000 -4.6538 0.0000
# 2 21.0914 105.6157 46.6274 0.0000 -8.1027 0.0000
# 3 42.5484 46.6274 130.1784 0.0000 -0.3209 0.0000
# 4 0.0000 0.0000 0.0000 29.7797 0.0000 -5.6526
# 5 -4.6538 -8.1027 -0.3209 0.0000 37.3189 0.0000
# 6 0.0000 0.0000 0.0000 -5.6526 0.0000 25.0033
#
#
#
# Elastic Compliance Matrix: (Units=1/GPa)
#
#
# Indices 1 2 3 4 5 6 
#
# 1 0.014117 -0.000790 -0.004327 0.000000 0.001552 0.000000
# 2 -0.000790 0.011511 -0.003859 0.000000 0.002368 0.000000
# 3 -0.004327 -0.003859 0.010475 0.000000 -0.001287 0.000000
# 4 0.000000 0.000000 0.000000 0.035086 0.000000 0.007932
# 5 0.001552 0.002368 -0.001287 0.000000 0.027493 0.000000
# 6 0.000000 0.000000 0.000000 0.007932 0.000000 0.041788
#
#
# Mechanical properties :
#
#
# Convention : Reuss Voigt Hill
#
# Bulk Modulus (GPa) = 55.09342 60.21118 57.65230
# Shear Modulus (GPa) = 30.40027 32.49366 31.44696
#
# Velocity S-wave (km/s) = 3.90854 4.04087 3.97526
# Velocity P-wave (km/s) = 6.93213 7.21310 7.07401
#
# Compressibility (1/GPa) = 0.01815099
#
# Stress axis : x y z
#
# Youngs Moduli (GPa) = 70.83800 86.87036 95.46278
#
# Poissons Ratio (x) = 0.06859 0.41310
# Poissons Ratio (y) = 0.05593 0.36841
# Poissons Ratio (z) = 0.30654 0.33525
#
# Static dielectric constant tensor:
#      x y z
#    x 3.814780 0.000000 -0.057490 
#    y 0.000000 3.740040 0.000000 
#    z -0.057490 0.000000 3.725820 
# 
# 
# High freq. dielectric constant tensor:
#      x y z
#    x 1.794680 0.000000 -0.005380 
#    y 0.000000 1.775840 0.000000 
#    z -0.005380 0.000000 1.777790 
# 
# From -- ./inp_files/227945.got.cif
#   From: 2010.06.25/outbox.cif.g09.slc.cpg/sg15_114_cif.got.tgz:227945.got - 2010.06.28 07:06:18.
