data_PCOD8147726
_publ_section_title
;
Structure prediction by ZEFSAII (Michael W. Deem and Ramdas Pophale) SiO2 
 PCOD8147726
Probable space group: C 2/C
;
_chemical_formula_sum "Si O2"
_cell_formula_units_Z 40
_cell_length_a 9.172164
_cell_length_b 24.704013
_cell_length_c 7.729881
_cell_angle_alpha 90.000000
_cell_angle_beta 72.595433
_cell_angle_gamma 90.000000
_cell_volume 1671.317820
_symmetry_space_group_name_H-M "C 2/C"
_symmetry_group_IT_number 15
_symmetry_cell_setting 'monoclinic'
loop_
_space_group_symop_operation_xyz
x,y,z
-x,y,1/2-z
-x,-y,-z
x,-y,1/2+z
1/2+x,1/2+y,z
1/2-x,1/2+y,1/2-z
1/2-x,1/2-y,-z
1/2+x,1/2-y,1/2+z
loop_
_atom_site_type_symbol
_atom_site_label
_atom_site_fract_x
_atom_site_fract_y
_atom_site_fract_z
Si Si1 0.587850 0.805301 0.958885
Si Si2 0.130239 0.572579 0.421687
Si Si3 0.946755 0.941420 0.959990
Si Si4 0.500000 0.636085 0.750000
Si Si5 0.768548 0.713573 0.727694
Si Si6 0.500000 0.007568 0.750000
O O1 0.679629 0.807476 0.104532
O O2 0.416952 0.780674 0.049853
O O3 0.587816 0.866190 0.886452
O O4 0.679113 0.770404 0.783714
O O5 0.265848 0.564196 0.511048
O O6 0.140829 0.535638 0.242357
O O7 0.995931 0.546224 0.584061
O O8 0.000000 0.925041 0.750000
O O9 0.011966 0.899068 0.073101
O O10 0.000000 0.000000 0.000000
O O11 0.652893 0.671206 0.686708
#
# Coordination Sequence:
#
# PCOD8147726 Si02
#       6
#     8   8   8   4   8   4
#     4  10  22  44  72 101 148 192 251 317 381 452
#     4  11  23  44  68 105 141 196 240 311 374 451
#     4  12  26  44  71 106 154 201 256 306 377 459
#     4  12  26  45  74 112 151 206 252 316 386 456
#     4  10  23  43  72 106 142 197 254 313 385 458
#     4  10  24  39  72 102 139 182 250 298 372 458
#
# _framework density 23.933209999999999
#
# number of rings (size 3 to 8) (size 9 to 14) (size 15 to 20)
#    0.000    1.200    3.000    2.400    0.000    6.400 
#    0.000    0.000    0.000    0.000    0.000    0.000 
#    0.000    0.000    0.000    0.000    0.000    0.000 
#
# Total GULP energy -247830.934840 kJ/mol
# GULP energy per Si atom -12391.546742 kJ/mol
# Density = 2.387874 g / cm^3
# Si number density = 23.933210 Si / 1000 Ang^3
#
#
#
# Elastic Constant Matrix: (Units=GPa)
#
#
# Indices 1 2 3 4 5 6 
#
# 1 134.2487 75.4371 40.6575 0.0000 -3.2466 0.0000
# 2 75.4371 200.3790 57.5384 0.0000 -0.6003 0.0000
# 3 40.6575 57.5384 93.0914 0.0000 21.6790 0.0000
# 4 0.0000 0.0000 0.0000 33.8525 0.0000 9.3166
# 5 -3.2466 -0.6003 21.6790 0.0000 35.2467 0.0000
# 6 0.0000 0.0000 0.0000 9.3166 0.0000 35.5576
#
#
#
# Elastic Compliance Matrix: (Units=1/GPa)
#
#
# Indices 1 2 3 4 5 6 
#
# 1 0.010134 -0.002843 -0.003356 0.000000 0.002949 0.000000
# 2 -0.002843 0.007114 -0.003644 0.000000 0.002101 0.000000
# 3 -0.003356 -0.003644 0.016979 0.000000 -0.010814 0.000000
# 4 0.000000 0.000000 0.000000 0.031836 0.000000 -0.008341
# 5 0.002949 0.002101 -0.010814 0.000000 0.035330 0.000000
# 6 0.000000 0.000000 0.000000 -0.008341 0.000000 0.030309
#
#
# Mechanical properties :
#
#
# Convention : Reuss Voigt Hill
#
# Bulk Modulus (GPa) = 68.77397 86.10946 77.44171
# Shear Modulus (GPa) = 32.00343 37.87044 34.93693
#
# Velocity S-wave (km/s) = 3.66074 3.98218 3.82484
# Velocity P-wave (km/s) = 6.83126 7.56312 7.20649
#
# Compressibility (1/GPa) = 0.01454039
#
# Stress axis : x y z
#
# Youngs Moduli (GPa) = 98.67963 140.57700 58.89736
#
# Poissons Ratio (x) = 0.39962 0.19764
# Poissons Ratio (y) = 0.28052 0.21465
# Poissons Ratio (z) = 0.33113 0.51233
#
# Static dielectric constant tensor:
#      x y z
#    x 4.695090 0.000000 0.408800 
#    y 0.000000 4.325850 0.000000 
#    z 0.408800 0.000000 4.214760 
# 
# 
# High freq. dielectric constant tensor:
#      x y z
#    x 1.958030 0.000000 0.023760 
#    y 0.000000 1.960200 0.000000 
#    z 0.023760 0.000000 1.943720 
# 
# From -- ./inp_files/23516.got.cif
#   From: 2010.06.25/outbox.cif.g09.slc.cpg/sg15_12_cif.got.tgz:23516.got - 2010.06.28 07:06:18.
