data_PCOD8147953
_publ_section_title
;
Structure prediction by ZEFSAII (Michael W. Deem and Ramdas Pophale) SiO2 
 PCOD8147953
Probable space group: C 2/C
;
_chemical_formula_sum "Si O2"
_cell_formula_units_Z 52
_cell_length_a 17.854508
_cell_length_b 25.412418
_cell_length_c 11.682183
_cell_angle_alpha 90.000000
_cell_angle_beta 152.899357
_cell_angle_gamma 90.000000
_cell_volume 2414.674538
_symmetry_space_group_name_H-M "C 2/C"
_symmetry_group_IT_number 15
_symmetry_cell_setting 'monoclinic'
loop_
_space_group_symop_operation_xyz
x,y,z
-x,y,1/2-z
-x,-y,-z
x,-y,1/2+z
1/2+x,1/2+y,z
1/2-x,1/2+y,1/2-z
1/2-x,1/2-y,-z
1/2+x,1/2-y,1/2+z
loop_
_atom_site_type_symbol
_atom_site_label
_atom_site_fract_x
_atom_site_fract_y
_atom_site_fract_z
Si Si1 0.389619 0.849997 0.862834
Si Si2 0.806555 0.299570 0.154834
Si Si3 0.754023 0.385523 0.913608
Si Si4 0.350435 0.302383 0.128550
Si Si5 0.000000 0.476460 0.250000
Si Si6 0.422558 0.922869 0.529761
Si Si7 0.611893 0.356898 0.083257
O O1 0.280076 0.863368 0.822740
O O2 0.265569 0.844896 0.589159
O O3 0.510052 0.797436 0.037584
O O4 0.498131 0.900970 0.978676
O O5 0.669233 0.315522 0.062153
O O6 0.750000 0.250000 0.000000
O O7 0.847739 0.347121 0.126201
O O8 0.561666 0.383721 0.684730
O O9 0.835926 0.442236 0.048142
O O10 0.500000 0.289451 0.250000
O O11 0.409971 0.322982 0.332058
O O12 0.250000 0.250000 0.000000
O O13 0.046691 0.514086 0.421772
O O14 0.231691 0.906367 0.264368
O O15 0.500000 0.896162 0.750000
#
# Coordination Sequence:
#
# PCOD8147953 Si02
#       7
#     8   8   8   8   4   8   8
#     4  11  23  44  71  96 140 180 231 291 343 423
#     4  11  27  45  70  97 141 191 231 278 349 419
#     4  12  24  43  66 106 139 179 230 287 344 421
#     4  12  27  41  65 102 134 180 235 279 345 406
#     4  10  22  46  72  98 144 184 240 278 358 424
#     4   9  21  44  70  95 131 178 232 281 352 404
#     4  11  25  45  71 100 142 178 232 297 337 422
#
# _framework density 21.534993
#
# number of rings (size 3 to 8) (size 9 to 14) (size 15 to 20)
#    0.462    0.615    4.615    0.462    8.615    2.462 
#    0.000    0.000    3.385    0.000    0.000    0.000 
#    0.000    0.000    0.000    0.000    0.000    0.000 
#
# Total GULP energy -322160.482493 kJ/mol
# GULP energy per Si atom -12390.787788 kJ/mol
# Density = 2.148598 g / cm^3
# Si number density = 21.534993 Si / 1000 Ang^3
#
#
#
# Elastic Constant Matrix: (Units=GPa)
#
#
# Indices 1 2 3 4 5 6 
#
# 1 128.6803 46.7605 26.3977 0.0000 6.7780 0.0000
# 2 46.7605 119.7325 42.2053 0.0000 5.0215 0.0000
# 3 26.3977 42.2053 104.6600 0.0000 19.5113 0.0000
# 4 0.0000 0.0000 0.0000 26.0929 0.0000 0.7446
# 5 6.7780 5.0215 19.5113 0.0000 41.1601 0.0000
# 6 0.0000 0.0000 0.0000 0.7446 0.0000 28.8515
#
#
#
# Elastic Compliance Matrix: (Units=1/GPa)
#
#
# Indices 1 2 3 4 5 6 
#
# 1 0.009165 -0.003242 -0.000874 0.000000 -0.000700 0.000000
# 2 -0.003242 0.010903 -0.003763 0.000000 0.000988 0.000000
# 3 -0.000874 -0.003763 0.012264 0.000000 -0.005211 0.000000
# 4 0.000000 0.000000 0.000000 0.038353 0.000000 -0.000990
# 5 -0.000700 0.000988 -0.005211 0.000000 0.026760 0.000000
# 6 0.000000 0.000000 0.000000 -0.000990 0.000000 0.034686
#
#
# Mechanical properties :
#
#
# Convention : Reuss Voigt Hill
#
# Bulk Modulus (GPa) = 60.33435 64.86666 62.60051
# Shear Modulus (GPa) = 32.59139 35.06819 33.82979
#
# Velocity S-wave (km/s) = 3.89448 4.03976 3.96779
# Velocity P-wave (km/s) = 6.94985 7.20739 7.07979
#
# Compressibility (1/GPa) = 0.01657431
#
# Stress axis : x y z
#
# Youngs Moduli (GPa) = 109.10542 91.71595 81.53862
#
# Poissons Ratio (x) = 0.29735 0.07126
# Poissons Ratio (y) = 0.35373 0.30685
# Poissons Ratio (z) = 0.09535 0.34515
#
# Static dielectric constant tensor:
#      x y z
#    x 3.016130 0.000000 1.390060 
#    y 0.000000 3.572280 0.000000 
#    z 1.390060 0.000000 2.038740 
# 
# 
# High freq. dielectric constant tensor:
#      x y z
#    x 1.858610 0.000000 -0.005160 
#    y 0.000000 1.819750 0.000000 
#    z -0.005160 0.000000 1.864150 
# 
# From -- ./inp_files/108352.got.cif
#   From: 2010.06.25/outbox.cif.g09.slc.cpg/sg15_55_cif.got.tgz:108352.got - 2010.06.28 07:06:18.
