data_PCOD8147789
_publ_section_title
;
Structure prediction by ZEFSAII (Michael W. Deem and Ramdas Pophale) SiO2 
 PCOD8147789
Probable space group: C 2/C
;
_chemical_formula_sum "Si O2"
_cell_formula_units_Z 56
_cell_length_a 9.428572
_cell_length_b 23.782657
_cell_length_c 17.168261
_cell_angle_alpha 90.000000
_cell_angle_beta 135.411517
_cell_angle_gamma 90.000000
_cell_volume 2702.563127
_symmetry_space_group_name_H-M "C 2/C"
_symmetry_group_IT_number 15
_symmetry_cell_setting 'monoclinic'
loop_
_space_group_symop_operation_xyz
x,y,z
-x,y,1/2-z
-x,-y,-z
x,-y,1/2+z
1/2+x,1/2+y,z
1/2-x,1/2+y,1/2-z
1/2-x,1/2-y,-z
1/2+x,1/2-y,1/2+z
loop_
_atom_site_type_symbol
_atom_site_label
_atom_site_fract_x
_atom_site_fract_y
_atom_site_fract_z
Si Si1 0.000000 0.657414 0.250000
Si Si2 0.032287 0.596365 0.535386
Si Si3 0.803229 0.420314 0.793545
Si Si4 0.640866 0.955689 0.230265
Si Si5 0.655864 0.785437 0.531968
Si Si6 0.347839 0.706507 0.482485
Si Si7 0.500000 0.648586 0.250000
Si Si8 0.040581 0.114812 0.851414
O O1 0.043713 0.620183 0.191480
O O2 0.196560 0.693348 0.351259
O O3 0.003478 0.560069 0.602312
O O4 0.250859 0.581653 0.583233
O O5 0.869157 0.574595 0.409590
O O6 0.998973 0.662599 0.546337
O O7 0.795816 0.479126 0.746088
O O8 0.582011 0.391083 0.711296
O O9 0.500000 0.942235 0.250000
O O10 0.852727 0.922446 0.307815
O O11 0.750000 0.750000 0.500000
O O12 0.549529 0.734780 0.533196
O O13 0.826885 0.810548 0.653245
O O14 0.250000 0.750000 0.500000
O O15 0.416443 0.653904 0.559291
O O16 0.000000 0.143738 0.750000
#
# Coordination Sequence:
#
# PCOD8147789 Si02
#       8
#     4   8   8   8   8   8   4   8
#     4  12  24  42  72  98 134 168 240 288 322 412
#     4  10  22  45  65  97 135 177 228 276 337 418
#     4  11  22  46  66  95 135 176 229 281 341 397
#     4  11  25  42  69 100 132 177 223 287 344 400
#     4  11  24  42  65  98 133 173 221 273 343 388
#     4  12  24  43  70  99 131 181 226 281 339 402
#     4  10  24  42  64  94 130 176 218 272 336 412
#     4  10  23  43  67  99 137 175 226 274 344 420
#
# _framework density 20.721070000000001
#
# number of rings (size 3 to 8) (size 9 to 14) (size 15 to 20)
#    0.000    1.143    3.571    2.143    6.000    2.286 
#    0.000    1.429    0.000    0.000    0.000    0.000 
#    0.000    0.000    0.000    0.000    0.000    0.000 
#
# Total GULP energy -346910.197227 kJ/mol
# GULP energy per Si atom -12389.649901 kJ/mol
# Density = 2.067391 g / cm^3
# Si number density = 20.721070 Si / 1000 Ang^3
#
#
#
# Elastic Constant Matrix: (Units=GPa)
#
#
# Indices 1 2 3 4 5 6 
#
# 1 167.4404 54.1025 42.8804 0.0000 2.8438 0.0000
# 2 54.1025 88.0173 46.5389 -0.0001 -0.1772 0.0000
# 3 42.8804 46.5389 111.3991 -0.0003 4.1515 -0.0001
# 4 0.0000 -0.0001 -0.0003 24.6776 -0.0001 2.6090
# 5 2.8438 -0.1772 4.1515 -0.0001 31.3537 0.0000
# 6 0.0000 0.0000 -0.0001 2.6090 0.0000 45.1630
#
#
#
# Elastic Compliance Matrix: (Units=1/GPa)
#
#
# Indices 1 2 3 4 5 6 
#
# 1 0.007595 -0.004023 -0.001222 0.000000 -0.000550 0.000000
# 2 -0.004023 0.016739 -0.005489 0.000000 0.001186 0.000000
# 3 -0.001222 -0.005489 0.011795 0.000000 -0.001482 0.000000
# 4 0.000000 0.000000 0.000000 0.040772 0.000000 -0.002355
# 5 -0.000550 0.001186 -0.001482 0.000000 0.032147 0.000000
# 6 0.000000 0.000000 0.000000 -0.002355 0.000000 0.022278
#
#
# Mechanical properties :
#
#
# Convention : Reuss Voigt Hill
#
# Bulk Modulus (GPa) = 68.20771 72.65559 70.43165
# Shear Modulus (GPa) = 31.70985 35.12787 33.41886
#
# Velocity S-wave (km/s) = 3.91617 4.12184 4.02032
# Velocity P-wave (km/s) = 7.31007 7.60214 7.45753
#
# Compressibility (1/GPa) = 0.01466110
#
# Stress axis : x y z
#
# Youngs Moduli (GPa) = 131.67396 59.74154 84.77949
#
# Poissons Ratio (x) = 0.24035 0.10361
# Poissons Ratio (y) = 0.52974 0.46531
# Poissons Ratio (z) = 0.16092 0.32789
#
# Static dielectric constant tensor:
#      x y z
#    x 4.159610 0.000000 0.079310 
#    y 0.000000 3.893390 0.000000 
#    z 0.079310 0.000000 3.762600 
# 
# 
# High freq. dielectric constant tensor:
#      x y z
#    x 1.830920 0.000000 0.005600 
#    y 0.000000 1.807380 0.000000 
#    z 0.005600 0.000000 1.807810 
# 
# From -- ./inp_files/193351.got.cif
#   From: 2010.06.25/outbox.cif.g09.slc.cpg/sg15_97_cif.got.tgz:193351.got - 2010.06.28 07:06:18.
