data_PCOD8147828
_publ_section_title
;
Structure prediction by ZEFSAII (Michael W. Deem and Ramdas Pophale) SiO2 
 PCOD8147828
Probable space group: C 2/C
;
_chemical_formula_sum "Si O2"
_cell_formula_units_Z 48
_cell_length_a 19.526317
_cell_length_b 15.067701
_cell_length_c 10.564625
_cell_angle_alpha 90.000000
_cell_angle_beta 136.601818
_cell_angle_gamma 90.000000
_cell_volume 2135.595008
_symmetry_space_group_name_H-M "C 2/C"
_symmetry_group_IT_number 15
_symmetry_cell_setting 'monoclinic'
loop_
_space_group_symop_operation_xyz
x,y,z
-x,y,1/2-z
-x,-y,-z
x,-y,1/2+z
1/2+x,1/2+y,z
1/2-x,1/2+y,1/2-z
1/2-x,1/2-y,-z
1/2+x,1/2-y,1/2+z
loop_
_atom_site_type_symbol
_atom_site_label
_atom_site_fract_x
_atom_site_fract_y
_atom_site_fract_z
Si Si1 0.772669 0.545354 0.780660
Si Si2 0.440809 0.518262 0.549171
Si Si3 0.201970 0.782684 0.307165
Si Si4 0.080311 0.645261 0.682148
Si Si5 0.981813 0.213650 0.589434
Si Si6 0.359445 0.863910 0.961557
O O1 0.663401 0.531655 0.577347
O O2 0.767810 0.631713 0.862497
O O3 0.853195 0.563266 0.778203
O O4 0.803890 0.458107 0.900431
O O5 0.500000 0.481988 0.750000
O O6 0.500000 0.500000 0.500000
O O7 0.421395 0.623478 0.534642
O O8 0.250000 0.750000 0.500000
O O9 0.206879 0.705720 0.206990
O O10 0.086853 0.810303 0.165876
O O11 0.087276 0.726893 0.593371
O O12 0.965220 0.616128 0.536347
O O13 0.123073 0.676244 0.875219
O O14 0.000000 0.261836 0.750000
#
# Coordination Sequence:
#
# PCOD8147828 Si02
#       6
#     8   8   8   8   8   8
#     4  12  26  43  74 101 139 185 229 286 358 415
#     4  11  26  44  68 104 142 182 232 293 352 422
#     4  11  25  44  68 104 137 185 236 282 345 422
#     4  10  24  48  68 101 136 182 230 289 349 415
#     4  10  22  45  69  96 140 181 229 291 347 413
#     4  10  26  45  71 101 141 174 237 290 347 420
#
# _framework density 22.476171999999998
#
# number of rings (size 3 to 8) (size 9 to 14) (size 15 to 20)
#    0.000    1.333    1.667    1.500   11.667    2.000 
#    6.000    0.000    0.000    0.000    0.000    0.000 
#    0.000    0.000    0.000    0.000    0.000    0.000 
#
# Total GULP energy -297634.080122 kJ/mol
# GULP energy per Si atom -12401.420005 kJ/mol
# Density = 2.242502 g / cm^3
# Si number density = 22.476172 Si / 1000 Ang^3
#
#
#
# Elastic Constant Matrix: (Units=GPa)
#
#
# Indices 1 2 3 4 5 6 
#
# 1 88.8356 40.1297 46.4677 0.0000 -14.6375 0.0000
# 2 40.1297 131.7884 68.8148 0.0000 -15.8494 0.0000
# 3 46.4677 68.8148 145.7427 0.0000 -30.1077 0.0000
# 4 0.0000 0.0000 0.0000 38.1880 0.0000 5.7599
# 5 -14.6375 -15.8494 -30.1077 0.0000 47.1454 0.0000
# 6 0.0000 0.0000 0.0000 5.7599 0.0000 37.0443
#
#
#
# Elastic Compliance Matrix: (Units=1/GPa)
#
#
# Indices 1 2 3 4 5 6 
#
# 1 0.014257 -0.002585 -0.002984 0.000000 0.001652 0.000000
# 2 -0.002585 0.010546 -0.004134 0.000000 0.000103 0.000000
# 3 -0.002984 -0.004134 0.010698 0.000000 0.004515 0.000000
# 4 0.000000 0.000000 0.000000 0.026815 0.000000 -0.004169
# 5 0.001652 0.000103 0.004515 0.000000 0.024642 0.000000
# 6 0.000000 0.000000 0.000000 -0.004169 0.000000 0.027643
#
#
# Mechanical properties :
#
#
# Convention : Reuss Voigt Hill
#
# Bulk Modulus (GPa) = 62.12982 75.24344 68.68663
# Shear Modulus (GPa) = 35.87522 38.53916 37.20719
#
# Velocity S-wave (km/s) = 3.99951 4.14535 4.07308
# Velocity P-wave (km/s) = 7.00219 7.51409 7.26265
#
# Compressibility (1/GPa) = 0.01609533
#
# Stress axis : x y z
#
# Youngs Moduli (GPa) = 70.13914 94.82282 93.47834
#
# Poissons Ratio (x) = 0.24507 0.27895
# Poissons Ratio (y) = 0.18127 0.38646
# Poissons Ratio (z) = 0.20931 0.39202
#
# Static dielectric constant tensor:
#      x y z
#    x 4.257100 0.000000 0.064420 
#    y 0.000000 3.976730 0.000000 
#    z 0.064420 0.000000 4.075540 
# 
# 
# High freq. dielectric constant tensor:
#      x y z
#    x 1.896260 0.000000 0.006140 
#    y 0.000000 1.876930 0.000000 
#    z 0.006140 0.000000 1.892030 
# 
# From -- ./inp_files/112986.got.cif
#   From: 2010.06.25/outbox.cif.g09.slc.cpg/sg15_57_cif.got.tgz:112986.got - 2010.06.28 07:06:18.
