data_PCOD8147100
_publ_section_title
;
Structure prediction by ZEFSAII (Michael W. Deem and Ramdas Pophale) SiO2 
 PCOD8147100
Probable space group: C 2/C
;
_chemical_formula_sum "Si O2"
_cell_formula_units_Z 48
_cell_length_a 10.684686
_cell_length_b 18.447828
_cell_length_c 11.312675
_cell_angle_alpha 90.000000
_cell_angle_beta 85.346324
_cell_angle_gamma 90.000000
_cell_volume 2222.481810
_symmetry_space_group_name_H-M "C 2/C"
_symmetry_group_IT_number 15
_symmetry_cell_setting 'monoclinic'
loop_
_space_group_symop_operation_xyz
x,y,z
-x,y,1/2-z
-x,-y,-z
x,-y,1/2+z
1/2+x,1/2+y,z
1/2-x,1/2+y,1/2-z
1/2-x,1/2-y,-z
1/2+x,1/2-y,1/2+z
loop_
_atom_site_type_symbol
_atom_site_label
_atom_site_fract_x
_atom_site_fract_y
_atom_site_fract_z
Si Si1 0.000000 0.258975 0.250000
Si Si2 0.681442 0.589940 0.849377
Si Si3 0.733960 0.854211 0.583999
Si Si4 0.577779 0.997441 0.621123
Si Si5 0.261239 0.799065 0.169605
Si Si6 0.477273 0.634281 0.426681
Si Si7 0.500000 0.520284 0.250000
O O1 0.882113 0.310249 0.242619
O O2 0.971760 0.212542 0.368814
O O3 0.816752 0.561117 0.884786
O O4 0.669516 0.642919 0.736194
O O5 0.599294 0.521676 0.820258
O O6 0.611208 0.636348 0.953914
O O7 0.642698 0.918900 0.627513
O O8 0.693452 0.822376 0.462071
O O9 0.718516 0.785883 0.676315
O O10 0.876311 0.883134 0.559129
O O11 0.500000 0.006904 0.750000
O O12 0.500000 0.000000 0.500000
O O13 0.421661 0.572404 0.344350
#
# Coordination Sequence:
#
# PCOD8147100 Si02
#       7
#     4   8   8   8   8   8   4
#     4   9  22  42  64  90 135 172 218 276 351 402
#     4  12  25  39  72 103 130 172 238 286 343 406
#     4  10  22  48  66  93 139 179 226 278 349 400
#     4  12  29  46  70 103 146 191 226 278 354 433
#     4  10  23  41  66  96 134 178 221 285 339 416
#     4  10  22  42  70  97 121 169 228 298 335 390
#     4  11  22  40  68  98 133 160 226 300 345 388
#
# _framework density 21.597477000000001
#
# number of rings (size 3 to 8) (size 9 to 14) (size 15 to 20)
#    0.000    1.333    1.667    2.500    8.167    0.667 
#   10.500    0.000    0.000    0.000    0.000    0.000 
#    0.000    0.000    0.000    0.000    0.000    0.000 
#
# Total GULP energy -297347.711457 kJ/mol
# GULP energy per Si atom -12389.487977 kJ/mol
# Density = 2.154832 g / cm^3
# Si number density = 21.597477 Si / 1000 Ang^3
#
#
#
# Elastic Constant Matrix: (Units=GPa)
#
#
# Indices 1 2 3 4 5 6 
#
# 1 68.9764 7.8953 27.2424 0.0000 2.8894 0.0000
# 2 7.8953 79.5599 16.0854 0.0000 -12.4716 0.0000
# 3 27.2424 16.0854 92.9512 0.0000 -1.5751 0.0000
# 4 0.0000 0.0000 0.0000 17.2263 0.0000 9.3846
# 5 2.8894 -12.4716 -1.5751 0.0000 36.1566 0.0000
# 6 0.0000 0.0000 0.0000 9.3846 0.0000 3.8694
#
#
#
# Elastic Compliance Matrix: (Units=1/GPa)
#
#
# Indices 1 2 3 4 5 6 
#
# 1 0.016549 -0.000982 -0.004712 0.000000 -0.001867 0.000000
# 2 -0.000982 0.013822 -0.002023 0.000000 0.004758 0.000000
# 3 -0.004712 -0.002023 0.012493 0.000000 0.000223 0.000000
# 4 0.000000 0.000000 0.000000 -0.180682 0.000000 0.438214
# 5 -0.001867 0.004758 0.000223 0.000000 0.029458 0.000000
# 6 0.000000 0.000000 0.000000 0.438214 0.000000 -0.804377
#
#
# Mechanical properties :
#
#
# Convention : Reuss Voigt Hill
#
# Bulk Modulus (GPa) = 36.45776 38.21484 37.33630
# Shear Modulus (GPa) = -5.62962 24.13476 9.25257
#
# Velocity S-wave (km/s) = -1.61625 3.34650 2.07205
# Velocity P-wave (km/s) = 3.66527 5.71530 4.80098
#
# Compressibility (1/GPa) = 0.02742900
#
# Stress axis : x y z
#
# Youngs Moduli (GPa) = 60.42536 72.35089 80.04323
#
# Poissons Ratio (x) = 0.07107 0.37716
# Poissons Ratio (y) = 0.05935 0.16195
# Poissons Ratio (z) = 0.28472 0.14639
#
# Static dielectric constant tensor:
#      x y z
#    x 3.936480 0.000000 0.254330 
#    y 0.000000 3.982870 0.000000 
#    z 0.254330 0.000000 4.118470 
# 
# 
# High freq. dielectric constant tensor:
#      x y z
#    x 1.837000 0.000000 0.018340 
#    y 0.000000 1.862590 0.000000 
#    z 0.018340 0.000000 1.853060 
# 
# From -- ./inp_files/87406.got.cif
#   From: 2010.06.25/outbox.cif.g09.slc.cpg/sg15_44_cif.got.tgz:87406.got - 2010.06.28 07:06:18.
