data_PCOD8147330
_publ_section_title
;
Structure prediction by ZEFSAII (Michael W. Deem and Ramdas Pophale) SiO2 
 PCOD8147330
Probable space group: C 2/C
;
_chemical_formula_sum "Si O2"
_cell_formula_units_Z 48
_cell_length_a 9.534850
_cell_length_b 14.835711
_cell_length_c 27.032440
_cell_angle_alpha 90.000000
_cell_angle_beta 145.830192
_cell_angle_gamma 90.000000
_cell_volume 2147.688464
_symmetry_space_group_name_H-M "C 2/C"
_symmetry_group_IT_number 15
_symmetry_cell_setting 'monoclinic'
loop_
_space_group_symop_operation_xyz
x,y,z
-x,y,1/2-z
-x,-y,-z
x,-y,1/2+z
1/2+x,1/2+y,z
1/2-x,1/2+y,1/2-z
1/2-x,1/2-y,-z
1/2+x,1/2-y,1/2+z
loop_
_atom_site_type_symbol
_atom_site_label
_atom_site_fract_x
_atom_site_fract_y
_atom_site_fract_z
Si Si1 0.438654 0.990013 0.559375
Si Si2 0.434946 0.298039 0.286107
Si Si3 0.916424 0.017230 0.638754
Si Si4 0.260593 0.311555 0.955009
Si Si5 0.667394 0.339558 0.003986
Si Si6 0.777618 0.867316 0.810424
O O1 0.258875 0.976443 0.460148
O O2 0.387353 0.905333 0.580387
O O3 0.730670 0.996296 0.630233
O O4 0.385189 0.085521 0.571137
O O5 0.500000 0.326733 0.250000
O O6 0.416242 0.391489 0.309905
O O7 0.647568 0.238536 0.374436
O O8 0.194970 0.230747 0.209845
O O9 0.130560 0.941586 0.701762
O O10 0.553309 0.324493 0.025728
O O11 0.250000 0.250000 0.000000
O O12 0.450364 0.382339 0.907837
O O13 0.750000 0.250000 0.000000
O O14 0.500000 0.881328 0.750000
#
# Coordination Sequence:
#
# PCOD8147330 Si02
#       6
#     8   8   8   8   8   8
#     4  10  23  40  70 103 137 174 239 291 339 399
#     4  11  22  43  66  94 136 186 218 276 350 416
#     4  10  22  43  68 102 134 183 231 285 344 417
#     4  12  23  41  70 105 137 174 238 290 331 406
#     4  11  23  43  73 100 135 189 231 276 349 418
#     4  10  22  43  68  93 142 179 226 276 348 419
#
# _framework density 22.349610999999999
#
# number of rings (size 3 to 8) (size 9 to 14) (size 15 to 20)
#    0.000    1.333    5.000    1.500    4.667    1.333 
#    0.000    1.667    0.000    0.000    0.000    0.000 
#    0.000    0.000    0.000    0.000    0.000    0.000 
#
# Total GULP energy -297321.080164 kJ/mol
# GULP energy per Si atom -12388.378340 kJ/mol
# Density = 2.229874 g / cm^3
# Si number density = 22.349611 Si / 1000 Ang^3
#
#
#
# Elastic Constant Matrix: (Units=GPa)
#
#
# Indices 1 2 3 4 5 6 
#
# 1 143.3424 72.1760 16.2972 -0.0001 20.4396 -0.0001
# 2 72.1760 187.0654 9.0999 -0.0002 18.3489 0.0000
# 3 16.2972 9.0999 33.5205 -0.0002 5.7095 -0.0005
# 4 -0.0001 -0.0002 -0.0002 29.7843 -0.0002 5.4847
# 5 20.4396 18.3489 5.7095 -0.0002 30.6427 -0.0002
# 6 -0.0001 0.0000 -0.0005 5.4847 -0.0002 40.5021
#
#
#
# Elastic Compliance Matrix: (Units=1/GPa)
#
#
# Indices 1 2 3 4 5 6 
#
# 1 0.009447 -0.003116 -0.003090 0.000000 -0.003860 0.000000
# 2 -0.003116 0.006739 0.000019 0.000000 -0.001961 0.000000
# 3 -0.003090 0.000019 0.031996 0.000000 -0.003912 0.000000
# 4 0.000000 0.000000 0.000000 0.034433 0.000000 -0.004663
# 5 -0.003860 -0.001961 -0.003912 0.000000 0.037112 0.000000
# 6 0.000000 0.000000 0.000000 -0.004663 0.000000 0.025321
#
#
# Mechanical properties :
#
#
# Convention : Reuss Voigt Hill
#
# Bulk Modulus (GPa) = 27.92550 62.11937 45.02244
# Shear Modulus (GPa) = 29.52327 37.94283 33.73305
#
# Velocity S-wave (km/s) = 3.63846 4.12478 3.88923
# Velocity P-wave (km/s) = 5.49301 7.10914 6.35268
#
# Compressibility (1/GPa) = 0.03580957
#
# Stress axis : x y z
#
# Youngs Moduli (GPa) = 105.85427 148.38180 31.25411
#
# Poissons Ratio (x) = 0.46236 0.09656
# Poissons Ratio (y) = 0.32985 -0.00061
# Poissons Ratio (z) = 0.32705 -0.00287
#
# Static dielectric constant tensor:
#      x y z
#    x 4.128830 0.000000 0.027760 
#    y 0.000000 4.397120 0.000000 
#    z 0.027760 0.000000 4.313280 
# 
# 
# High freq. dielectric constant tensor:
#      x y z
#    x 1.866630 0.000000 -0.004680 
#    y 0.000000 1.898680 0.000000 
#    z -0.004680 0.000000 1.866630 
# 
# From -- ./inp_files/289105.got.cif
#   From: 2010.06.25/outbox.cif.g09.slc.cpg/sg15_145_cif.got.tgz:289105.got - 2010.06.28 07:06:18.
