data_PCOD8147875
_publ_section_title
;
Structure prediction by ZEFSAII (Michael W. Deem and Ramdas Pophale) SiO2 
 PCOD8147875
Probable space group: C 2/C
;
_chemical_formula_sum "Si O2"
_cell_formula_units_Z 56
_cell_length_a 19.229456
_cell_length_b 14.002051
_cell_length_c 11.179368
_cell_angle_alpha 90.000000
_cell_angle_beta 126.336015
_cell_angle_gamma 90.000000
_cell_volume 2424.776085
_symmetry_space_group_name_H-M "C 2/C"
_symmetry_group_IT_number 15
_symmetry_cell_setting 'monoclinic'
loop_
_space_group_symop_operation_xyz
x,y,z
-x,y,1/2-z
-x,-y,-z
x,-y,1/2+z
1/2+x,1/2+y,z
1/2-x,1/2+y,1/2-z
1/2-x,1/2-y,-z
1/2+x,1/2-y,1/2+z
loop_
_atom_site_type_symbol
_atom_site_label
_atom_site_fract_x
_atom_site_fract_y
_atom_site_fract_z
Si Si1 0.915309 0.036609 0.977526
Si Si2 0.000000 0.416350 0.750000
Si Si3 0.954650 0.711940 0.910288
Si Si4 0.796816 0.159947 0.686231
Si Si5 0.588186 0.653308 0.913324
Si Si6 0.500000 0.668719 0.250000
Si Si7 0.867856 0.455894 0.425184
Si Si8 0.625258 0.845593 0.678324
O O1 0.935030 0.106766 0.106110
O O2 0.872238 0.942240 0.987038
O O3 0.857244 0.089507 0.822409
O O4 0.000000 0.000000 0.000000
O O5 0.944246 0.478853 0.598866
O O6 0.930710 0.352662 0.754338
O O7 0.936152 0.769853 0.770490
O O8 0.905096 0.610848 0.856857
O O9 0.926169 0.766186 0.001965
O O10 0.057525 0.695454 0.013370
O O11 0.834026 0.182308 0.593599
O O12 0.706385 0.105369 0.585333
O O13 0.796071 0.268371 0.739375
O O14 0.500000 0.633158 0.750000
O O15 0.836804 0.553214 0.329803
#
# Coordination Sequence:
#
# PCOD8147875 Si02
#       8
#     8   4   8   8   8   4   8   8
#     4  12  21  40  67 102 140 185 236 278 353 424
#     4  10  22  45  79  98 132 190 242 297 345 412
#     4  11  23  40  70 104 130 186 245 287 353 419
#     4  12  25  45  68 106 147 183 236 300 358 422
#     4  12  21  40  72 102 137 183 239 290 345 420
#     4  12  20  39  67 100 136 188 230 287 345 418
#     4  11  28  44  69 108 140 188 236 296 362 419
#     4  11  22  46  70 101 139 181 243 290 355 424
#
# _framework density 23.094916000000001
#
# number of rings (size 3 to 8) (size 9 to 14) (size 15 to 20)
#    0.000    0.571    6.429    3.429    1.000    6.857 
#    0.000    0.714    0.000    0.000    0.000    0.000 
#    0.000    0.000    0.000    0.000    0.000    0.000 
#
# Total GULP energy -347013.063446 kJ/mol
# GULP energy per Si atom -12393.323694 kJ/mol
# Density = 2.304235 g / cm^3
# Si number density = 23.094916 Si / 1000 Ang^3
#
#
#
# Elastic Constant Matrix: (Units=GPa)
#
#
# Indices 1 2 3 4 5 6 
#
# 1 96.9864 45.2129 29.4696 0.0000 -5.1845 0.0000
# 2 45.2129 168.1346 38.5609 0.0000 -3.8882 0.0000
# 3 29.4696 38.5609 74.7338 0.0000 -8.5159 0.0000
# 4 0.0000 0.0000 0.0000 25.3081 0.0000 -0.4231
# 5 -5.1845 -3.8882 -8.5159 0.0000 27.9887 0.0000
# 6 0.0000 0.0000 0.0000 -0.4231 0.0000 33.9272
#
#
#
# Elastic Compliance Matrix: (Units=1/GPa)
#
#
# Indices 1 2 3 4 5 6 
#
# 1 0.012634 -0.002560 -0.003558 0.000000 0.000902 0.000000
# 2 -0.002560 0.007265 -0.002774 0.000000 -0.000309 0.000000
# 3 -0.003558 -0.002774 0.016674 0.000000 0.004029 0.000000
# 4 0.000000 0.000000 0.000000 0.039521 0.000000 0.000493
# 5 0.000902 -0.000309 0.004029 0.000000 0.037079 0.000000
# 6 0.000000 0.000000 0.000000 0.000493 0.000000 0.029481
#
#
# Mechanical properties :
#
#
# Convention : Reuss Voigt Hill
#
# Bulk Modulus (GPa) = 53.22535 62.92686 58.07611
# Shear Modulus (GPa) = 29.99362 32.55222 31.27292
#
# Velocity S-wave (km/s) = 3.60767 3.75840 3.68381
# Velocity P-wave (km/s) = 6.36004 6.79267 6.57991
#
# Compressibility (1/GPa) = 0.01878804
#
# Stress axis : x y z
#
# Youngs Moduli (GPa) = 79.15380 137.64125 59.97237
#
# Poissons Ratio (x) = 0.35242 0.21337
# Poissons Ratio (y) = 0.20267 0.16638
# Poissons Ratio (z) = 0.28162 0.38185
#
# Static dielectric constant tensor:
#      x y z
#    x 4.078830 0.000000 -0.151130 
#    y 0.000000 4.223540 0.000000 
#    z -0.151130 0.000000 4.087650 
# 
# 
# High freq. dielectric constant tensor:
#      x y z
#    x 1.892090 0.000000 -0.013840 
#    y 0.000000 1.933780 0.000000 
#    z -0.013840 0.000000 1.902820 
# 
# From -- ./inp_files/105820.got.cif
#   From: 2010.06.25/outbox.cif.g09.slc.cpg/sg15_53_cif.got.tgz:105820.got - 2010.06.28 07:06:18.
