data_PCOD8147294
_publ_section_title
;
Structure prediction by ZEFSAII (Michael W. Deem and Ramdas Pophale) SiO2 
 PCOD8147294
Probable space group: C 2/C
;
_chemical_formula_sum "Si O2"
_cell_formula_units_Z 44
_cell_length_a 24.069049
_cell_length_b 14.747267
_cell_length_c 17.705569
_cell_angle_alpha 90.000000
_cell_angle_beta 160.683442
_cell_angle_gamma 90.000000
_cell_volume 2078.877820
_symmetry_space_group_name_H-M "C 2/C"
_symmetry_group_IT_number 15
_symmetry_cell_setting 'monoclinic'
loop_
_space_group_symop_operation_xyz
x,y,z
-x,y,1/2-z
-x,-y,-z
x,-y,1/2+z
1/2+x,1/2+y,z
1/2-x,1/2+y,1/2-z
1/2-x,1/2-y,-z
1/2+x,1/2-y,1/2+z
loop_
_atom_site_type_symbol
_atom_site_label
_atom_site_fract_x
_atom_site_fract_y
_atom_site_fract_z
Si Si1 0.808608 0.220286 0.996383
Si Si2 0.634142 0.038474 0.777197
Si Si3 0.717181 0.044723 0.235463
Si Si4 0.000000 0.554793 0.250000
Si Si5 0.090317 0.794626 0.583988
Si Si6 0.271987 0.141460 0.836555
O O1 0.000000 0.243756 0.250000
O O2 0.750000 0.250000 0.000000
O O3 0.776434 0.113415 0.948522
O O4 0.720810 0.280247 0.819418
O O5 0.456986 0.080637 0.523118
O O6 0.692162 0.958534 0.794315
O O7 0.610268 0.004423 0.832423
O O8 0.863998 0.114328 0.403244
O O9 0.763420 0.946324 0.260406
O O10 0.137345 0.615286 0.469225
O O11 0.099629 0.707807 0.541687
O O12 0.901181 0.805162 0.371557
#
# Coordination Sequence:
#
# PCOD8147294 Si02
#       6
#     8   8   8   4   8   8
#     4  12  26  40  66 104 139 173 227 284 345 409
#     4  10  22  43  66  97 137 174 223 287 340 399
#     4  10  22  43  71  95 133 183 228 273 347 409
#     4  10  26  44  68 100 138 178 232 284 338 392
#     4  12  25  45  71  97 139 184 225 282 344 406
#     4  11  25  45  70  99 136 180 232 277 338 411
#
# _framework density 21.165265000000002
#
# number of rings (size 3 to 8) (size 9 to 14) (size 15 to 20)
#    0.000    1.091    1.818    3.818   11.455    2.182 
#    0.000    0.000    0.000    0.000    0.000    0.000 
#    0.000    0.000    0.000    0.000    0.000    0.000 
#
# Total GULP energy -272762.709674 kJ/mol
# GULP energy per Si atom -12398.304985 kJ/mol
# Density = 2.111709 g / cm^3
# Si number density = 21.165265 Si / 1000 Ang^3
#
#
#
# Elastic Constant Matrix: (Units=GPa)
#
#
# Indices 1 2 3 4 5 6 
#
# 1 139.2398 31.2595 28.6932 -0.0013 -11.1178 -0.0011
# 2 31.2595 88.8910 10.2164 -0.0010 -1.5838 -0.0020
# 3 28.6932 10.2164 92.4791 -0.0010 5.4031 -0.0020
# 4 -0.0013 -0.0010 -0.0010 35.5181 -0.0024 11.5314
# 5 -11.1178 -1.5838 5.4031 -0.0024 38.0669 -0.0030
# 6 -0.0011 -0.0020 -0.0020 11.5314 -0.0030 36.4448
#
#
#
# Elastic Compliance Matrix: (Units=1/GPa)
#
#
# Indices 1 2 3 4 5 6 
#
# 1 0.008513 -0.002657 -0.002507 0.000000 0.002732 0.000000
# 2 -0.002657 0.012240 -0.000517 0.000000 -0.000193 0.000001
# 3 -0.002507 -0.000517 0.011790 0.000000 -0.002427 0.000000
# 4 0.000000 0.000000 0.000000 0.031378 0.000001 -0.009928
# 5 0.002732 -0.000193 -0.002427 0.000001 0.027404 0.000002
# 6 0.000000 0.000001 0.000000 -0.009928 0.000002 0.030580
#
#
# Mechanical properties :
#
#
# Convention : Reuss Voigt Hill
#
# Bulk Modulus (GPa) = 47.21098 51.21646 49.21372
# Shear Modulus (GPa) = 35.63098 38.70204 37.16651
#
# Velocity S-wave (km/s) = 4.10746 4.28081 4.19503
# Velocity P-wave (km/s) = 6.69696 6.97744 6.83864
#
# Compressibility (1/GPa) = 0.02118151
#
# Stress axis : x y z
#
# Youngs Moduli (GPa) = 117.46530 81.69949 84.81687
#
# Poissons Ratio (x) = 0.21707 0.21267
# Poissons Ratio (y) = 0.31209 0.04381
# Poissons Ratio (z) = 0.29454 0.04220
#
# Static dielectric constant tensor:
#      x y z
#    x 4.102090 -0.000020 -0.028870 
#    y -0.000020 1.791610 -0.000020 
#    z -0.028870 -0.000020 3.621130 
# 
# 
# High freq. dielectric constant tensor:
#      x y z
#    x 1.854440 0.000000 0.007270 
#    y 0.000000 1.830240 0.000000 
#    z 0.007270 0.000000 1.816210 
# 
# From -- ./inp_files/46976.got.cif
#   From: 2010.06.25/outbox.cif.g09.slc.cpg/sg15_24_cif.got.tgz:46976.got - 2010.06.28 07:06:18.
