data_PCOD8147470
_publ_section_title
;
Structure prediction by ZEFSAII (Michael W. Deem and Ramdas Pophale) SiO2 
 PCOD8147470
Probable space group: C 2/C
;
_chemical_formula_sum "Si O2"
_cell_formula_units_Z 48
_cell_length_a 16.992082
_cell_length_b 15.990446
_cell_length_c 22.913678
_cell_angle_alpha 90.000000
_cell_angle_beta 157.514468
_cell_angle_gamma 90.000000
_cell_volume 2381.095356
_symmetry_space_group_name_H-M "C 2/C"
_symmetry_group_IT_number 15
_symmetry_cell_setting 'monoclinic'
loop_
_space_group_symop_operation_xyz
x,y,z
-x,y,1/2-z
-x,-y,-z
x,-y,1/2+z
1/2+x,1/2+y,z
1/2-x,1/2+y,1/2-z
1/2-x,1/2-y,-z
1/2+x,1/2-y,1/2+z
loop_
_atom_site_type_symbol
_atom_site_label
_atom_site_fract_x
_atom_site_fract_y
_atom_site_fract_z
Si Si1 0.409965 0.313344 0.132089
Si Si2 0.432603 0.041468 0.893758
Si Si3 0.759376 0.792873 0.233192
Si Si4 0.315400 0.496192 0.083073
Si Si5 0.474132 0.645748 0.485657
Si Si6 0.460749 0.495995 0.553506
O O1 0.500000 0.266497 0.250000
O O2 0.578425 0.335569 0.199501
O O3 0.301688 0.396824 0.080499
O O4 0.250000 0.250000 0.000000
O O5 0.429734 0.142452 0.897273
O O6 0.208666 0.005761 0.724043
O O7 0.500000 0.000000 0.000000
O O8 0.594092 0.027299 0.952442
O O9 0.692291 0.701481 0.164146
O O10 0.867816 0.791744 0.371749
O O11 0.500000 0.532396 0.250000
O O12 0.357733 0.520749 0.045253
O O13 0.368531 0.580526 0.459645
O O14 0.594260 0.586948 0.521630
#
# Coordination Sequence:
#
# PCOD8147470 Si02
#       6
#     8   8   8   8   8   8
#     4  11  22  36  55  91 132 161 210 269 325 393
#     4  11  21  38  67  93 127 175 214 261 331 390
#     4  11  23  42  61  98 127 171 225 267 333 387
#     4  11  21  39  63  95 132 170 218 269 319 406
#     4  10  23  41  67  89 136 174 217 278 323 391
#     4  10  22  44  60  96 134 175 222 267 326 399
#
# _framework density 20.15879
#
# number of rings (size 3 to 8) (size 9 to 14) (size 15 to 20)
#    0.000    1.333    5.000    2.000    4.667    0.000 
#    0.000    8.333    0.000    0.000    0.000    0.000 
#    0.000    0.000    0.000    0.000    0.000    0.000 
#
# Total GULP energy -297441.346515 kJ/mol
# GULP energy per Si atom -12393.389438 kJ/mol
# Density = 2.011291 g / cm^3
# Si number density = 20.158790 Si / 1000 Ang^3
#
#
#
# Elastic Constant Matrix: (Units=GPa)
#
#
# Indices 1 2 3 4 5 6 
#
# 1 168.0376 46.2105 56.8820 -0.0067 -1.2506 -0.0051
# 2 46.2105 96.2744 46.1968 -0.0265 -4.2830 -0.0120
# 3 56.8820 46.1968 89.0553 -0.0343 -5.5152 -0.0003
# 4 -0.0067 -0.0265 -0.0343 32.4350 -0.0148 -14.7560
# 5 -1.2506 -4.2830 -5.5152 -0.0148 46.7341 0.0035
# 6 -0.0051 -0.0120 -0.0003 -14.7560 0.0035 25.0744
#
#
#
# Elastic Compliance Matrix: (Units=1/GPa)
#
#
# Indices 1 2 3 4 5 6 
#
# 1 0.007831 -0.001818 -0.004086 -0.000006 -0.000439 -0.000003
# 2 -0.001818 0.014260 -0.006204 0.000011 0.000526 0.000013
# 3 -0.004086 -0.006204 0.017140 0.000015 0.001345 0.000005
# 4 -0.000006 0.000011 0.000015 0.042103 0.000014 0.024777
# 5 -0.000439 0.000526 0.001345 0.000014 0.021593 0.000006
# 6 -0.000003 0.000013 0.000005 0.024777 0.000006 0.054462
#
#
# Mechanical properties :
#
#
# Convention : Reuss Voigt Hill
#
# Bulk Modulus (GPa) = 66.59483 72.43845 69.51664
# Shear Modulus (GPa) = 26.79405 34.45391 30.62398
#
# Velocity S-wave (km/s) = 3.64971 4.13864 3.90184
# Velocity P-wave (km/s) = 7.13213 7.67136 7.40666
#
# Compressibility (1/GPa) = 0.01501618
#
# Stress axis : x y z
#
# Youngs Moduli (GPa) = 127.70131 70.12863 58.34233
#
# Poissons Ratio (x) = 0.12746 0.23839
# Poissons Ratio (y) = 0.23210 0.36193
# Poissons Ratio (z) = 0.52180 0.43505
#
# Static dielectric constant tensor:
#      x y z
#    x 3.679070 -0.000070 -0.329090 
#    y -0.000070 3.663560 -0.000070 
#    z -0.329090 -0.000070 3.697540 
# 
# 
# High freq. dielectric constant tensor:
#      x y z
#    x 1.792060 0.000000 -0.027390 
#    y 0.000000 1.777550 -0.000010 
#    z -0.027390 -0.000010 1.778460 
# 
# From -- ./inp_files/277892.got.cif
#   From: 2010.06.25/outbox.cif.g09.slc.cpg/sg15_139_cif.got.tgz:277892.got - 2010.06.28 07:06:18.
