data_PCOD8147526
_publ_section_title
;
Structure prediction by ZEFSAII (Michael W. Deem and Ramdas Pophale) SiO2 
 PCOD8147526
Probable space group: C 2/C
;
_chemical_formula_sum "Si O2"
_cell_formula_units_Z 52
_cell_length_a 26.179745
_cell_length_b 8.129946
_cell_length_c 12.408386
_cell_angle_alpha 90.000000
_cell_angle_beta 62.785380
_cell_angle_gamma 90.000000
_cell_volume 2348.640350
_symmetry_space_group_name_H-M "C 2/C"
_symmetry_group_IT_number 15
_symmetry_cell_setting 'monoclinic'
loop_
_space_group_symop_operation_xyz
x,y,z
-x,y,1/2-z
-x,-y,-z
x,-y,1/2+z
1/2+x,1/2+y,z
1/2-x,1/2+y,1/2-z
1/2-x,1/2-y,-z
1/2+x,1/2-y,1/2+z
loop_
_atom_site_type_symbol
_atom_site_label
_atom_site_fract_x
_atom_site_fract_y
_atom_site_fract_z
Si Si1 0.000000 0.631928 0.250000
Si Si2 0.833820 0.276925 0.636707
Si Si3 0.610659 0.929135 0.111743
Si Si4 0.379132 0.695249 0.199911
Si Si5 0.726191 0.554091 0.293696
Si Si6 0.350688 0.254312 0.495542
Si Si7 0.914422 0.861261 0.236176
O O1 0.048480 0.512900 0.152855
O O2 0.026954 0.754787 0.314019
O O3 0.875226 0.295948 0.493678
O O4 0.793552 0.436767 0.698315
O O5 0.873316 0.244323 0.699738
O O6 0.787692 0.132601 0.661020
O O7 0.614741 0.846938 0.224653
O O8 0.657145 0.076499 0.053716
O O9 0.315292 0.611542 0.265645
O O10 0.389581 0.760486 0.068060
O O11 0.424413 0.547973 0.184654
O O12 0.711241 0.668342 0.413104
O O13 0.385316 0.374652 0.382242
#
# Coordination Sequence:
#
# PCOD8147526 Si02
#       7
#     4   8   8   8   8   8   8
#     4  10  26  44  64  98 120 178 228 268 340 380
#     4  11  22  38  70  96 134 176 210 275 325 395
#     4  11  23  41  67  94 134 169 222 277 323 381
#     4   9  22  42  66  96 134 169 219 268 324 400
#     4   9  21  40  63 106 129 172 220 248 344 399
#     4   9  21  40  63  98 131 167 221 259 322 402
#     4  10  22  44  65  91 133 173 223 275 321 383
#
# _framework density 22.140470000000001
#
# number of rings (size 3 to 8) (size 9 to 14) (size 15 to 20)
#    0.923    1.231    0.000    1.846    4.308    2.462 
#    2.769    4.615    0.000    0.000    0.000    0.000 
#    0.000    0.000    0.000    0.000    0.000    0.000 
#
# Total GULP energy -322144.425106 kJ/mol
# GULP energy per Si atom -12390.170196 kJ/mol
# Density = 2.209008 g / cm^3
# Si number density = 22.140470 Si / 1000 Ang^3
#
#
#
# Elastic Constant Matrix: (Units=GPa)
#
#
# Indices 1 2 3 4 5 6 
#
# 1 46.5903 16.5774 -6.6828 0.0000 3.1124 0.0000
# 2 16.5774 100.7916 10.8402 0.0000 12.7543 0.0000
# 3 -6.6828 10.8402 69.6928 0.0000 17.0682 0.0000
# 4 0.0000 0.0000 0.0000 28.2205 0.0000 -4.1206
# 5 3.1124 12.7543 17.0682 0.0000 29.7828 0.0000
# 6 0.0000 0.0000 0.0000 -4.1206 0.0000 43.3923
#
#
#
# Elastic Compliance Matrix: (Units=1/GPa)
#
#
# Indices 1 2 3 4 5 6 
#
# 1 0.023550 -0.003898 0.003558 0.000000 -0.002831 0.000000
# 2 -0.003898 0.011158 -0.001208 0.000000 -0.003678 0.000000
# 3 0.003558 -0.001208 0.017265 0.000000 -0.009749 0.000000
# 4 0.000000 0.000000 0.000000 0.035933 0.000000 0.003412
# 5 -0.002831 -0.003678 -0.009749 0.000000 0.041035 0.000000
# 6 0.000000 0.000000 0.000000 0.003412 0.000000 0.023370
#
#
# Mechanical properties :
#
#
# Convention : Reuss Voigt Hill
#
# Bulk Modulus (GPa) = 20.45976 28.72714 24.59345
# Shear Modulus (GPa) = 29.12058 33.36845 31.24451
#
# Velocity S-wave (km/s) = 3.63059 3.88638 3.76066
# Velocity P-wave (km/s) = 5.18034 5.75689 5.47620
#
# Compressibility (1/GPa) = 0.04887643
#
# Stress axis : x y z
#
# Youngs Moduli (GPa) = 42.46295 89.62201 57.91948
#
# Poissons Ratio (x) = 0.34932 -0.20606
# Poissons Ratio (y) = 0.16551 0.06999
# Poissons Ratio (z) = -0.15107 0.10830
#
# Static dielectric constant tensor:
#      x y z
#    x 3.656780 0.000000 0.032640 
#    y 0.000000 4.067910 0.000000 
#    z 0.032640 0.000000 3.876110 
# 
# 
# High freq. dielectric constant tensor:
#      x y z
#    x 1.839780 0.000000 0.005900 
#    y 0.000000 1.884470 0.000000 
#    z 0.005900 0.000000 1.860530 
# 
# From -- ./inp_files/121413.got.cif
#   From: 2010.06.25/outbox.cif.g09.slc.cpg/sg15_61_cif.got.tgz:121413.got - 2010.06.28 07:06:18.
