data_PCOD8147347
_publ_section_title
;
Structure prediction by ZEFSAII (Michael W. Deem and Ramdas Pophale) SiO2 
 PCOD8147347
Probable space group: C 2/C
;
_chemical_formula_sum "Si O2"
_cell_formula_units_Z 32
_cell_length_a 8.463799
_cell_length_b 18.776812
_cell_length_c 14.033531
_cell_angle_alpha 90.000000
_cell_angle_beta 143.186099
_cell_angle_gamma 90.000000
_cell_volume 1336.407492
_symmetry_space_group_name_H-M "C 2/C"
_symmetry_group_IT_number 15
_symmetry_cell_setting 'monoclinic'
loop_
_space_group_symop_operation_xyz
x,y,z
-x,y,1/2-z
-x,-y,-z
x,-y,1/2+z
1/2+x,1/2+y,z
1/2-x,1/2+y,1/2-z
1/2-x,1/2-y,-z
1/2+x,1/2-y,1/2+z
loop_
_atom_site_type_symbol
_atom_site_label
_atom_site_fract_x
_atom_site_fract_y
_atom_site_fract_z
Si Si1 0.772033 0.095786 0.063333
Si Si2 0.773551 0.684298 0.837049
Si Si3 0.485576 0.670934 0.978447
Si Si4 0.245146 0.967583 0.564550
O O1 0.000000 0.105398 0.250000
O O2 0.850293 0.138509 0.006211
O O3 0.501880 0.128088 0.974198
O O4 0.724753 0.011692 0.019410
O O5 0.500000 0.657505 0.750000
O O6 0.742768 0.690025 0.707604
O O7 0.845180 0.760551 0.914158
O O8 0.690569 0.616348 0.025649
O O9 0.500000 0.981591 0.750000
O O10 0.000000 0.000000 0.500000
#
# Coordination Sequence:
#
# PCOD8147347 Si02
#       4
#     8   8   8   8
#     4  11  24  45  72 105 141 188 239 291 353 425
#     4  12  25  43  70 106 143 185 234 294 358 422
#     4  11  24  45  70 103 144 188 235 294 353 422
#     4  10  22  43  68  96 136 183 229 285 347 411
#
# _framework density 23.944790999999999
#
# number of rings (size 3 to 8) (size 9 to 14) (size 15 to 20)
#    0.000    1.000    0.000    7.500    0.000    5.000 
#    0.000    7.500    0.000    0.000    0.000    0.000 
#    0.000    0.000    0.000    0.000    0.000    0.000 
#
# Total GULP energy -198421.847820 kJ/mol
# GULP energy per Si atom -12401.365489 kJ/mol
# Density = 2.389029 g / cm^3
# Si number density = 23.944791 Si / 1000 Ang^3
#
#
#
# Elastic Constant Matrix: (Units=GPa)
#
#
# Indices 1 2 3 4 5 6 
#
# 1 76.6580 56.2134 47.7326 -0.0125 11.5238 -0.0001
# 2 56.2134 179.7186 76.0986 -0.0008 10.5545 0.0006
# 3 47.7326 76.0986 213.9792 0.0070 -1.3266 0.0108
# 4 -0.0125 -0.0008 0.0070 26.6902 0.0055 -9.9018
# 5 11.5238 10.5545 -1.3266 0.0055 51.6452 0.0018
# 6 -0.0001 0.0006 0.0108 -9.9018 0.0018 30.7161
#
#
#
# Elastic Compliance Matrix: (Units=1/GPa)
#
#
# Indices 1 2 3 4 5 6 
#
# 1 0.018404 -0.004496 -0.002527 0.000012 -0.003253 0.000005
# 2 -0.004496 0.007751 -0.001758 -0.000001 -0.000626 0.000000
# 3 -0.002527 -0.001758 0.005869 -0.000004 0.001074 -0.000003
# 4 0.000012 -0.000001 -0.000004 0.042556 -0.000007 0.013719
# 5 -0.003253 -0.000626 0.001074 -0.000007 0.020244 -0.000004
# 6 0.000005 0.000000 -0.000003 0.013719 -0.000004 0.036979
#
#
# Mechanical properties :
#
#
# Convention : Reuss Voigt Hill
#
# Bulk Modulus (GPa) = 69.13723 92.27167 80.70445
# Shear Modulus (GPa) = 32.42865 41.16439 36.79652
#
# Velocity S-wave (km/s) = 3.68409 4.15075 3.92436
# Velocity P-wave (km/s) = 6.85806 7.84796 7.36965
#
# Compressibility (1/GPa) = 0.01446399
#
# Stress axis : x y z
#
# Youngs Moduli (GPa) = 54.33648 129.00809 170.39329
#
# Poissons Ratio (x) = 0.57996 0.43054
# Poissons Ratio (y) = 0.24427 0.29951
# Poissons Ratio (z) = 0.13730 0.22676
#
# Static dielectric constant tensor:
#      x y z
#    x 4.330730 -0.000010 -0.010850 
#    y -0.000010 5.270270 -0.000040 
#    z -0.010850 -0.000040 4.440260 
# 
# 
# High freq. dielectric constant tensor:
#      x y z
#    x 1.943740 0.000000 0.000620 
#    y 0.000000 1.960280 0.000000 
#    z 0.000620 0.000000 1.968040 
# 
# From -- ./inp_files/23236.got.cif
#   From: 2010.06.25/outbox.cif.g09.slc.cpg/sg15_12_cif.got.tgz:23236.got - 2010.06.28 07:06:18.
