data_PCOD8147943
_publ_section_title
;
Structure prediction by ZEFSAII (Michael W. Deem and Ramdas Pophale) SiO2 
 PCOD8147943
Probable space group: C 2/C
;
_chemical_formula_sum "Si O2"
_cell_formula_units_Z 28
_cell_length_a 5.057932
_cell_length_b 26.346503
_cell_length_c 9.903198
_cell_angle_alpha 90.000000
_cell_angle_beta 108.431854
_cell_angle_gamma 90.000000
_cell_volume 1251.988965
_symmetry_space_group_name_H-M "C 2/C"
_symmetry_group_IT_number 15
_symmetry_cell_setting 'monoclinic'
loop_
_space_group_symop_operation_xyz
x,y,z
-x,y,1/2-z
-x,-y,-z
x,-y,1/2+z
1/2+x,1/2+y,z
1/2-x,1/2+y,1/2-z
1/2-x,1/2-y,-z
1/2+x,1/2-y,1/2+z
loop_
_atom_site_type_symbol
_atom_site_label
_atom_site_fract_x
_atom_site_fract_y
_atom_site_fract_z
Si Si1 0.013050 0.548613 0.095221
Si Si2 0.313117 0.356261 0.985330
Si Si3 0.361465 0.200036 0.587747
Si Si4 0.000000 0.885221 0.750000
O O1 0.299001 0.580249 0.123649
O O2 0.000000 0.532174 0.250000
O O3 0.000000 0.500000 0.000000
O O4 0.755262 0.584005 0.004635
O O5 0.617463 0.339885 0.087850
O O6 0.076406 0.322789 0.015198
O O7 0.320170 0.349458 0.821937
O O8 0.500000 0.215392 0.750000
O O9 0.250000 0.250000 0.500000
#
# Coordination Sequence:
#
# PCOD8147943 Si02
#       4
#     8   8   8   4
#     4  10  23  43  70 105 143 194 241 297 361 431
#     4  11  24  47  73 102 147 187 241 292 363 430
#     4  12  28  48  75 108 144 188 243 300 370 433
#     4  10  22  46  72 102 144 196 240 292 374 410
#
# _framework density 22.364414
#
# number of rings (size 3 to 8) (size 9 to 14) (size 15 to 20)
#    0.000    1.143    2.857    1.714    2.000    5.714 
#   10.286    0.000    0.000    0.000    0.000    0.000 
#    0.000    0.000    0.000    0.000    0.000    0.000 
#
# Total GULP energy -173484.133174 kJ/mol
# GULP energy per Si atom -12391.723798 kJ/mol
# Density = 2.231351 g / cm^3
# Si number density = 22.364414 Si / 1000 Ang^3
#
#
#
# Elastic Constant Matrix: (Units=GPa)
#
#
# Indices 1 2 3 4 5 6 
#
# 1 173.6471 69.0546 71.2005 0.0000 -11.4147 0.0000
# 2 69.0546 117.7488 112.2348 0.0000 -10.0206 0.0000
# 3 71.2005 112.2348 152.4740 0.0000 -1.6347 0.0000
# 4 0.0000 0.0000 0.0000 49.1329 0.0000 -1.6274
# 5 -11.4147 -10.0206 -1.6347 0.0000 47.7305 0.0000
# 6 0.0000 0.0000 0.0000 -1.6274 0.0000 28.2331
#
#
#
# Elastic Compliance Matrix: (Units=1/GPa)
#
#
# Indices 1 2 3 4 5 6 
#
# 1 0.007599 -0.003329 -0.001087 0.000000 0.001081 0.000000
# 2 -0.003329 0.031305 -0.021435 0.000000 0.005042 0.000000
# 3 -0.001087 -0.021435 0.022801 0.000000 -0.003979 0.000000
# 4 0.000000 0.000000 0.000000 0.020392 0.000000 0.001175
# 5 0.001081 0.005042 -0.003979 0.000000 0.022132 0.000000
# 6 0.000000 0.000000 0.000000 0.001175 0.000000 0.035487
#
#
# Mechanical properties :
#
#
# Convention : Reuss Voigt Hill
#
# Bulk Modulus (GPa) = 99.95153 105.42776 102.68965
# Shear Modulus (GPa) = 25.67361 37.77796 31.72579
#
# Velocity S-wave (km/s) = 3.39184 4.11445 3.77049
# Velocity P-wave (km/s) = 7.75427 8.35552 8.06050
#
# Compressibility (1/GPa) = 0.01000485
#
# Stress axis : x y z
#
# Youngs Moduli (GPa) = 131.59225 31.94364 43.85696
#
# Poissons Ratio (x) = 0.10633 0.04766
# Poissons Ratio (y) = 0.43804 0.94007
# Poissons Ratio (z) = 0.14301 0.68471
#
# Static dielectric constant tensor:
#      x y z
#    x 4.671090 0.000000 -0.123950 
#    y 0.000000 3.888650 0.000000 
#    z -0.123950 0.000000 4.157130 
# 
# 
# High freq. dielectric constant tensor:
#      x y z
#    x 1.909980 0.000000 -0.010790 
#    y 0.000000 1.867830 0.000000 
#    z -0.010790 0.000000 1.873090 
# 
# From -- ./inp_files/20023.got.cif
#   From: 2010.06.25/outbox.cif.g09.slc.cpg/sg15_11_cif.got.tgz:20023.got - 2010.06.28 07:06:18.
