data_PCOD8147854
_publ_section_title
;
Structure prediction by ZEFSAII (Michael W. Deem and Ramdas Pophale) SiO2 
 PCOD8147854
Probable space group: C 2/C
;
_chemical_formula_sum "Si O2"
_cell_formula_units_Z 40
_cell_length_a 14.894729
_cell_length_b 15.478636
_cell_length_c 17.470866
_cell_angle_alpha 90.000000
_cell_angle_beta 24.339836
_cell_angle_gamma 90.000000
_cell_volume 1660.094646
_symmetry_space_group_name_H-M "C 2/C"
_symmetry_group_IT_number 15
_symmetry_cell_setting 'monoclinic'
loop_
_space_group_symop_operation_xyz
x,y,z
-x,y,1/2-z
-x,-y,-z
x,-y,1/2+z
1/2+x,1/2+y,z
1/2-x,1/2+y,1/2-z
1/2-x,1/2-y,-z
1/2+x,1/2-y,1/2+z
loop_
_atom_site_type_symbol
_atom_site_label
_atom_site_fract_x
_atom_site_fract_y
_atom_site_fract_z
Si Si1 0.415890 0.681509 0.732421
Si Si2 0.191486 0.816493 0.434983
Si Si3 0.429732 0.965021 0.974154
Si Si4 0.166650 0.639633 0.515514
Si Si5 0.304239 0.646046 0.125340
O O1 0.500000 0.710498 0.750000
O O2 0.604153 0.641317 0.532582
O O3 0.327239 0.765641 0.757585
O O4 0.224390 0.615326 0.894130
O O5 0.202859 0.711235 0.420225
O O6 0.166091 0.840349 0.544925
O O7 0.413557 0.856712 0.233350
O O8 0.997589 0.858392 0.537114
O O9 0.643235 0.935293 0.760698
O O10 0.292070 0.041168 0.040965
O O11 0.500000 0.000000 0.000000
#
# Coordination Sequence:
#
# PCOD8147854 Si02
#       5
#     8   8   8   8   8
#     4  12  28  49  76 107 147 203 249 307 382 447
#     4  10  22  45  71  99 142 195 232 292 392 426
#     4  12  28  46  73 116 146 188 262 306 362 451
#     4  10  24  43  69 104 144 185 240 307 353 455
#     4  12  25  47  78 103 149 197 245 310 377 439
#
# _framework density 24.095013000000002
#
# number of rings (size 3 to 8) (size 9 to 14) (size 15 to 20)
#    0.000    0.800    2.000    4.200    2.800    8.000 
#    3.600    0.000    0.000    0.000    0.000    0.000 
#    0.000    0.000    0.000    0.000    0.000    0.000 
#
# Total GULP energy -248081.367084 kJ/mol
# GULP energy per Si atom -12404.068354 kJ/mol
# Density = 2.404017 g / cm^3
# Si number density = 24.095013 Si / 1000 Ang^3
#
#
#
# Elastic Constant Matrix: (Units=GPa)
#
#
# Indices 1 2 3 4 5 6 
#
# 1 98.3802 42.7295 27.2560 0.0966 -2.4077 -0.0365
# 2 42.7295 112.5459 22.1564 -0.1820 -13.1388 0.0555
# 3 27.2560 22.1564 88.4677 -0.2898 6.8462 0.0453
# 4 0.0966 -0.1820 -0.2898 35.6631 -0.0434 4.6628
# 5 -2.4077 -13.1388 6.8462 -0.0434 37.4028 0.0333
# 6 -0.0365 0.0555 0.0453 4.6628 0.0333 31.1452
#
#
#
# Elastic Compliance Matrix: (Units=1/GPa)
#
#
# Indices 1 2 3 4 5 6 
#
# 1 0.012832 -0.004330 -0.002856 -0.000086 -0.000172 0.000040
# 2 -0.004330 0.011361 -0.001824 0.000065 0.004046 -0.000037
# 3 -0.002856 -0.001824 0.012887 0.000103 -0.003183 -0.000031
# 4 -0.000086 0.000065 0.000103 0.028602 0.000035 -0.004282
# 5 -0.000172 0.004046 -0.003183 0.000035 0.028729 -0.000039
# 6 0.000040 -0.000037 -0.000031 -0.004282 -0.000039 0.032749
#
#
# Mechanical properties :
#
#
# Convention : Reuss Voigt Hill
#
# Bulk Modulus (GPa) = 52.46630 53.74196 53.10413
# Shear Modulus (GPa) = 32.99603 34.65901 33.82752
#
# Velocity S-wave (km/s) = 3.70457 3.79678 3.75096
# Velocity P-wave (km/s) = 6.33408 6.44774 6.39116
#
# Compressibility (1/GPa) = 0.01905985
#
# Stress axis : x y z
#
# Youngs Moduli (GPa) = 77.92741 88.02208 77.59744
#
# Poissons Ratio (x) = 0.38114 0.22162
# Poissons Ratio (y) = 0.33743 0.14155
# Poissons Ratio (z) = 0.22257 0.16056
#
# Static dielectric constant tensor:
#      x y z
#    x 4.372770 -0.000230 0.067030 
#    y -0.000230 4.293880 0.000470 
#    z 0.067030 0.000470 4.364560 
# 
# 
# High freq. dielectric constant tensor:
#      x y z
#    x 1.958200 -0.000010 -0.002620 
#    y -0.000010 1.955500 0.000030 
#    z -0.002620 0.000030 1.965990 
# 
# From -- ./inp_files/249188.got.cif
#   From: 2010.06.25/outbox.cif.g09.slc.cpg/sg15_125_cif.got.tgz:249188.got - 2010.06.28 07:06:18.
