data_PCOD8147051
_publ_section_title
;
Structure prediction by ZEFSAII (Michael W. Deem and Ramdas Pophale) SiO2 
 PCOD8147051
Probable space group: C 2/C
;
_chemical_formula_sum "Si O2"
_cell_formula_units_Z 64
_cell_length_a 9.172698
_cell_length_b 10.344563
_cell_length_c 30.458527
_cell_angle_alpha 90.000000
_cell_angle_beta 87.249997
_cell_angle_gamma 90.000000
_cell_volume 2886.806749
_symmetry_space_group_name_H-M "C 2/C"
_symmetry_group_IT_number 15
_symmetry_cell_setting 'monoclinic'
loop_
_space_group_symop_operation_xyz
x,y,z
-x,y,1/2-z
-x,-y,-z
x,-y,1/2+z
1/2+x,1/2+y,z
1/2-x,1/2+y,1/2-z
1/2-x,1/2-y,-z
1/2+x,1/2-y,1/2+z
loop_
_atom_site_type_symbol
_atom_site_label
_atom_site_fract_x
_atom_site_fract_y
_atom_site_fract_z
Si Si1 0.646392 0.168132 0.721969
Si Si2 0.111372 0.397825 0.516604
Si Si3 0.815559 0.327022 0.859441
Si Si4 0.170335 0.380786 0.738670
Si Si5 0.445093 0.728002 0.589323
Si Si6 0.424722 0.469875 0.546192
Si Si7 0.597489 0.795831 0.425199
Si Si8 0.160548 0.383848 0.121898
O O1 0.500000 0.199424 0.750000
O O2 0.718932 0.032515 0.738030
O O3 0.751226 0.292161 0.726336
O O4 0.608387 0.157699 0.671072
O O5 0.246797 0.457996 0.541788
O O6 0.172851 0.329610 0.471029
O O7 0.000000 0.500000 0.500000
O O8 0.006910 0.305677 0.546840
O O9 0.790681 0.314635 0.808243
O O10 0.721383 0.221223 0.886840
O O11 0.773131 0.471412 0.876326
O O12 0.982185 0.286126 0.867760
O O13 0.000000 0.377734 0.750000
O O14 0.474530 0.577232 0.580130
O O15 0.270224 0.725442 0.600778
O O16 0.500000 0.500000 0.500000
O O17 0.487281 0.338747 0.565842
O O18 0.479275 0.896828 0.408471
#
# Coordination Sequence:
#
# PCOD8147051 Si02
#       8
#     8   8   8   8   8   8   8   8
#     4  10  22  44  67  97 133 168 213 268 326 398
#     4  12  26  42  64  92 127 173 219 265 320 382
#     4  11  23  44  65  93 130 168 212 268 320 386
#     4  10  22  42  69  97 133 170 213 268 332 396
#     4  12  22  42  62  88 133 163 213 267 316 373
#     4  12  24  41  61  89 124 170 217 265 316 374
#     4  12  23  43  63  90 128 167 217 263 321 376
#     4  11  25  42  65  96 127 165 215 265 319 383
#
# _framework density 22.169826
#
# number of rings (size 3 to 8) (size 9 to 14) (size 15 to 20)
#    0.000    0.750    3.750    4.125    1.750    1.500 
#    4.500    0.000    0.000    0.000    0.000    0.000 
#    0.000    0.000    0.000    0.000    0.000    0.000 
#
# Total GULP energy -396560.909328 kJ/mol
# GULP energy per Si atom -12392.528417 kJ/mol
# Density = 2.211937 g / cm^3
# Si number density = 22.169826 Si / 1000 Ang^3
#
#
#
# Elastic Constant Matrix: (Units=GPa)
#
#
# Indices 1 2 3 4 5 6 
#
# 1 81.1393 14.7010 16.1016 0.0000 -7.2685 0.0000
# 2 14.7010 78.0831 2.7134 0.0000 5.9366 0.0000
# 3 16.1016 2.7134 86.2898 0.0000 -5.6435 0.0000
# 4 0.0000 0.0000 0.0000 30.3072 0.0000 5.1183
# 5 -7.2685 5.9366 -5.6435 0.0000 41.7676 0.0000
# 6 0.0000 0.0000 0.0000 5.1183 0.0000 35.6489
#
#
#
# Elastic Compliance Matrix: (Units=1/GPa)
#
#
# Indices 1 2 3 4 5 6 
#
# 1 0.013470 -0.002640 -0.002273 0.000000 0.002412 0.000000
# 2 -0.002640 0.013489 -0.000088 0.000000 -0.002389 0.000000
# 3 -0.002273 -0.000088 0.012098 0.000000 0.001252 0.000000
# 4 0.000000 0.000000 0.000000 0.033815 0.000000 -0.004855
# 5 0.002412 -0.002389 0.001252 0.000000 0.024870 0.000000
# 6 0.000000 0.000000 0.000000 -0.004855 0.000000 0.028748
#
#
# Mechanical properties :
#
#
# Convention : Reuss Voigt Hill
#
# Bulk Modulus (GPa) = 34.41804 34.72714 34.57259
# Shear Modulus (GPa) = 34.20515 35.67783 34.94149
#
# Velocity S-wave (km/s) = 3.93220 4.01596 3.97430
# Velocity P-wave (km/s) = 6.01454 6.09935 6.05709
#
# Compressibility (1/GPa) = 0.02905453
#
# Stress axis : x y z
#
# Youngs Moduli (GPa) = 74.23913 74.13648 82.66137
#
# Poissons Ratio (x) = 0.19576 0.18786
# Poissons Ratio (y) = 0.19603 0.00725
# Poissons Ratio (z) = 0.16872 0.00650
#
# Static dielectric constant tensor:
#      x y z
#    x 3.085760 0.000000 -0.111880 
#    y 0.000000 4.162800 0.000000 
#    z -0.111880 0.000000 4.467220 
# 
# 
# High freq. dielectric constant tensor:
#      x y z
#    x 1.857400 0.000000 -0.018000 
#    y 0.000000 1.875490 0.000000 
#    z -0.018000 0.000000 1.889310 
# 
# From -- ./inp_files/307476.got.cif
#   From: 2010.06.25/outbox.cif.g09.slc.cpg/sg15_154_cif.got.tgz:307476.got - 2010.06.28 07:06:18.
