data_PCOD8147623
_publ_section_title
;
Structure prediction by ZEFSAII (Michael W. Deem and Ramdas Pophale) SiO2 
 PCOD8147623
Probable space group: C 2/C
;
_chemical_formula_sum "Si O2"
_cell_formula_units_Z 56
_cell_length_a 15.615750
_cell_length_b 8.139895
_cell_length_c 30.196380
_cell_angle_alpha 90.000000
_cell_angle_beta 44.287084
_cell_angle_gamma 90.000000
_cell_volume 2680.093355
_symmetry_space_group_name_H-M "C 2/C"
_symmetry_group_IT_number 15
_symmetry_cell_setting 'monoclinic'
loop_
_space_group_symop_operation_xyz
x,y,z
-x,y,1/2-z
-x,-y,-z
x,-y,1/2+z
1/2+x,1/2+y,z
1/2-x,1/2+y,1/2-z
1/2-x,1/2-y,-z
1/2+x,1/2-y,1/2+z
loop_
_atom_site_type_symbol
_atom_site_label
_atom_site_fract_x
_atom_site_fract_y
_atom_site_fract_z
Si Si1 0.033032 0.532681 0.340004
Si Si2 0.926380 0.116837 0.995685
Si Si3 0.368866 0.917083 0.283786
Si Si4 0.637175 0.805841 0.882600
Si Si5 0.687918 0.064525 0.935051
Si Si6 0.405844 0.249735 0.319323
Si Si7 0.790223 0.433258 0.475249
O O1 0.975408 0.692378 0.337918
O O2 0.919675 0.426126 0.401425
O O3 0.119821 0.435067 0.273507
O O4 0.128112 0.579531 0.343232
O O5 0.021169 0.182652 0.923523
O O6 0.885381 0.266062 0.042348
O O7 0.810301 0.027533 0.016884
O O8 0.000000 0.000000 0.000000
O O9 0.500000 0.844508 0.250000
O O10 0.263652 0.791983 0.336190
O O11 0.343684 0.090176 0.318434
O O12 0.625629 0.915594 0.931454
O O13 0.818455 0.100548 0.864378
O O14 0.695353 0.028310 0.984237
O O15 0.500000 0.330513 0.250000
O O16 0.750000 0.250000 0.500000
#
# Coordination Sequence:
#
# PCOD8147623 Si02
#       7
#     8   8   8   8   8   8   8
#     4  10  22  44  68  89 138 171 223 271 329 387
#     4  12  25  42  69  99 138 171 220 278 339 395
#     4   9  23  45  69  88 132 182 224 275 332 398
#     4  12  25  41  66 105 132 171 228 276 334 397
#     4  12  24  41  67  99 141 171 219 275 334 398
#     4   9  20  42  68  90 127 182 220 271 337 391
#     4  12  26  44  69  99 133 181 219 272 340 403
#
# _framework density 20.894794000000001
#
# number of rings (size 3 to 8) (size 9 to 14) (size 15 to 20)
#    0.000    1.429    2.857    3.429    8.000    2.857 
#    2.571    0.000    0.000    0.000    0.000    0.000 
#    0.000    0.000    0.000    0.000    0.000    0.000 
#
# Total GULP energy -347149.716674 kJ/mol
# GULP energy per Si atom -12398.204167 kJ/mol
# Density = 2.084724 g / cm^3
# Si number density = 20.894794 Si / 1000 Ang^3
#
#
#
# Elastic Constant Matrix: (Units=GPa)
#
#
# Indices 1 2 3 4 5 6 
#
# 1 88.6745 23.6093 13.9982 0.0012 16.9826 0.0017
# 2 23.6093 78.9849 26.5898 0.0039 -1.5339 0.0075
# 3 13.9982 26.5898 82.5637 0.0019 12.3563 0.0028
# 4 0.0012 0.0039 0.0019 43.4123 0.0004 -6.7491
# 5 16.9826 -1.5339 12.3563 0.0004 35.0007 0.0010
# 6 0.0017 0.0075 0.0028 -6.7491 0.0010 23.2909
#
#
#
# Elastic Compliance Matrix: (Units=1/GPa)
#
#
# Indices 1 2 3 4 5 6 
#
# 1 0.013714 -0.004257 0.000074 0.000000 -0.006867 0.000001
# 2 -0.004257 0.015709 -0.005014 -0.000002 0.004524 -0.000005
# 3 0.000074 -0.005014 0.014520 0.000000 -0.005381 0.000000
# 4 0.000000 -0.000002 0.000000 0.024122 -0.000001 0.006990
# 5 -0.006867 0.004524 -0.005381 -0.000001 0.034001 -0.000002
# 6 0.000001 -0.000005 0.000000 0.006990 -0.000002 0.044961
#
#
# Mechanical properties :
#
#
# Convention : Reuss Voigt Hill
#
# Bulk Modulus (GPa) = 39.14433 42.06863 40.60648
# Shear Modulus (GPa) = 28.74584 32.74250 30.74417
#
# Velocity S-wave (km/s) = 3.71312 3.96285 3.84002
# Velocity P-wave (km/s) = 6.09571 6.41219 6.25595
#
# Compressibility (1/GPa) = 0.02554649
#
# Stress axis : x y z
#
# Youngs Moduli (GPa) = 72.91701 63.65699 68.87215
#
# Poissons Ratio (x) = 0.27102 -0.00507
# Poissons Ratio (y) = 0.31044 0.34536
# Poissons Ratio (z) = -0.00537 0.31921
#
# Static dielectric constant tensor:
#      x y z
#    x 3.746310 -0.000150 0.039910 
#    y -0.000150 4.059370 0.000350 
#    z 0.039910 0.000350 4.021940 
# 
# 
# High freq. dielectric constant tensor:
#      x y z
#    x 1.817240 0.000000 0.002880 
#    y 0.000000 1.804380 0.000000 
#    z 0.002880 0.000000 1.839420 
# 
# From -- ./inp_files/312868.got.cif
#   From: 2010.06.25/outbox.cif.g09.slc.cpg/sg15_157_cif.got.tgz:312868.got - 2010.06.28 07:06:18.
