data_PCOD8147533
_publ_section_title
;
Structure prediction by ZEFSAII (Michael W. Deem and Ramdas Pophale) SiO2 
 PCOD8147533
Probable space group: C 2/C
;
_chemical_formula_sum "Si O2"
_cell_formula_units_Z 52
_cell_length_a 8.285207
_cell_length_b 12.359849
_cell_length_c 24.852699
_cell_angle_alpha 90.000000
_cell_angle_beta 102.238967
_cell_angle_gamma 90.000000
_cell_volume 2487.170284
_symmetry_space_group_name_H-M "C 2/C"
_symmetry_group_IT_number 15
_symmetry_cell_setting 'monoclinic'
loop_
_space_group_symop_operation_xyz
x,y,z
-x,y,1/2-z
-x,-y,-z
x,-y,1/2+z
1/2+x,1/2+y,z
1/2-x,1/2+y,1/2-z
1/2-x,1/2-y,-z
1/2+x,1/2-y,1/2+z
loop_
_atom_site_type_symbol
_atom_site_label
_atom_site_fract_x
_atom_site_fract_y
_atom_site_fract_z
Si Si1 0.133435 0.255509 0.440596
Si Si2 0.500000 0.323467 0.250000
Si Si3 0.046053 0.002853 0.664490
Si Si4 0.056934 0.499451 0.443282
Si Si5 0.596898 0.558475 0.053984
Si Si6 0.316922 0.308502 0.756142
Si Si7 0.778738 0.383618 0.862665
O O1 0.250000 0.250000 0.500000
O O2 0.072825 0.376093 0.424987
O O3 0.237695 0.220182 0.396191
O O4 0.978180 0.175386 0.437358
O O5 0.447093 0.390504 0.299050
O O6 0.323886 0.263835 0.223862
O O7 0.116056 0.017048 0.608999
O O8 0.142068 0.907101 0.701794
O O9 0.856708 0.975720 0.640977
O O10 0.220918 0.571346 0.455747
O O11 0.000000 0.500000 0.500000
O O12 0.945514 0.561408 0.393030
O O13 0.500000 0.500000 0.000000
O O14 0.500000 0.258581 0.750000
O O15 0.209703 0.347639 0.697935
#
# Coordination Sequence:
#
# PCOD8147533 Si02
#       7
#     8   4   8   8   8   8   8
#     4  11  22  43  65  94 136 177 219 277 341 395
#     4  12  24  44  78  98 134 196 226 272 358 404
#     4  10  23  49  65  99 145 170 229 294 325 411
#     4  12  24  42  66  99 133 181 227 274 346 408
#     4  11  24  43  70  99 137 178 221 283 342 402
#     4  10  24  47  67 102 139 175 234 287 336 409
#     4  10  22  44  65  94 140 169 224 291 325 406
#
# _framework density 20.907295000000001
#
# number of rings (size 3 to 8) (size 9 to 14) (size 15 to 20)
#    0.000    1.231    5.385    0.923    4.308    4.308 
#    1.385    0.000    0.000    0.000    0.000    0.000 
#    0.000    0.000    0.000    0.000    0.000    0.000 
#
# Total GULP energy -322154.335375 kJ/mol
# GULP energy per Si atom -12390.551361 kJ/mol
# Density = 2.085971 g / cm^3
# Si number density = 20.907295 Si / 1000 Ang^3
#
#
#
# Elastic Constant Matrix: (Units=GPa)
#
#
# Indices 1 2 3 4 5 6 
#
# 1 136.5564 58.2814 49.8589 0.0000 17.3503 0.0000
# 2 58.2814 105.3342 32.0412 0.0000 9.6915 0.0000
# 3 49.8589 32.0412 152.0203 0.0000 4.4061 0.0000
# 4 0.0000 0.0000 0.0000 22.8447 0.0000 9.7978
# 5 17.3503 9.6915 4.4061 0.0000 38.5660 0.0000
# 6 0.0000 0.0000 0.0000 9.7978 0.0000 26.6603
#
#
#
# Elastic Compliance Matrix: (Units=1/GPa)
#
#
# Indices 1 2 3 4 5 6 
#
# 1 0.010702 -0.004892 -0.002383 0.000000 -0.003313 0.000000
# 2 -0.004892 0.012590 -0.001025 0.000000 -0.000846 0.000000
# 3 -0.002383 -0.001025 0.007562 0.000000 0.000466 0.000000
# 4 0.000000 0.000000 0.000000 0.051964 0.000000 -0.019097
# 5 -0.003313 -0.000846 0.000466 0.000000 0.027579 0.000000
# 6 0.000000 0.000000 0.000000 -0.019097 0.000000 0.044527
#
#
# Mechanical properties :
#
#
# Convention : Reuss Voigt Hill
#
# Bulk Modulus (GPa) = 70.15014 74.91932 72.53473
# Shear Modulus (GPa) = 28.36490 34.52949 31.44720
#
# Velocity S-wave (km/s) = 3.68734 4.06834 3.88251
# Velocity P-wave (km/s) = 7.19405 7.61448 7.40725
#
# Compressibility (1/GPa) = 0.01425514
#
# Stress axis : x y z
#
# Youngs Moduli (GPa) = 93.44371 79.43057 132.23907
#
# Poissons Ratio (x) = 0.38854 0.31511
# Poissons Ratio (y) = 0.45708 0.13550
# Poissons Ratio (z) = 0.22266 0.08139
#
# Static dielectric constant tensor:
#      x y z
#    x 3.826670 0.000000 -0.486460 
#    y 0.000000 4.141610 0.000000 
#    z -0.486460 0.000000 3.712550 
# 
# 
# High freq. dielectric constant tensor:
#      x y z
#    x 1.824450 0.000000 0.001590 
#    y 0.000000 1.803400 0.000000 
#    z 0.001590 0.000000 1.839710 
# 
# From -- ./inp_files/287751.got.cif
#   From: 2010.06.25/outbox.cif.g09.slc.cpg/sg15_144_cif.got.tgz:287751.got - 2010.06.28 07:06:18.
