data_PCOD8147873
_publ_section_title
;
Structure prediction by ZEFSAII (Michael W. Deem and Ramdas Pophale) SiO2 
 PCOD8147873
Probable space group: C 2/C
;
_chemical_formula_sum "Si O2"
_cell_formula_units_Z 28
_cell_length_a 16.983940
_cell_length_b 12.925561
_cell_length_c 8.607131
_cell_angle_alpha 90.000000
_cell_angle_beta 39.900623
_cell_angle_gamma 90.000000
_cell_volume 1212.033069
_symmetry_space_group_name_H-M "C 2/C"
_symmetry_group_IT_number 15
_symmetry_cell_setting 'monoclinic'
loop_
_space_group_symop_operation_xyz
x,y,z
-x,y,1/2-z
-x,-y,-z
x,-y,1/2+z
1/2+x,1/2+y,z
1/2-x,1/2+y,1/2-z
1/2-x,1/2-y,-z
1/2+x,1/2-y,1/2+z
loop_
_atom_site_type_symbol
_atom_site_label
_atom_site_fract_x
_atom_site_fract_y
_atom_site_fract_z
Si Si1 0.000000 0.144022 0.250000
Si Si2 0.949190 0.660252 0.666091
Si Si3 0.186950 0.639301 0.121087
Si Si4 0.745135 0.544475 0.798992
O O1 0.066361 0.216690 0.278916
O O2 0.897584 0.074215 0.485472
O O3 0.821321 0.608919 0.812311
O O4 0.000000 0.607912 0.750000
O O5 0.043996 0.648797 0.379675
O O6 0.249681 0.577888 0.170072
O O7 0.250000 0.750000 0.000000
O O8 0.199147 0.567638 0.952649
#
# Coordination Sequence:
#
# PCOD8147873 Si02
#       4
#     4   8   8   8
#     4  10  24  44  72 106 142 184 240 292 358 404
#     4  10  22  45  74 105 139 188 238 289 349 427
#     4  12  25  47  70 108 140 187 238 290 354 423
#     4  12  25  45  72 102 147 187 238 293 351 422
#
# _framework density 23.101680000000002
#
# number of rings (size 3 to 8) (size 9 to 14) (size 15 to 20)
#    0.857    0.000    2.857    4.286    0.000    3.429 
#    5.143    0.000    0.000    0.000    0.000    0.000 
#    0.000    0.000    0.000    0.000    0.000    0.000 
#
# Total GULP energy -173527.054940 kJ/mol
# GULP energy per Si atom -12394.789639 kJ/mol
# Density = 2.304910 g / cm^3
# Si number density = 23.101680 Si / 1000 Ang^3
#
#
#
# Elastic Constant Matrix: (Units=GPa)
#
#
# Indices 1 2 3 4 5 6 
#
# 1 60.6115 16.7625 22.4005 0.0000 11.6665 0.0000
# 2 16.7625 133.6749 27.8536 0.0000 6.4941 0.0000
# 3 22.4005 27.8536 132.8967 0.0000 9.3573 0.0000
# 4 0.0000 0.0000 0.0000 25.0556 0.0000 6.9940
# 5 11.6665 6.4941 9.3573 0.0000 44.1653 0.0000
# 6 0.0000 0.0000 0.0000 6.9940 0.0000 26.8653
#
#
#
# Elastic Compliance Matrix: (Units=1/GPa)
#
#
# Indices 1 2 3 4 5 6 
#
# 1 0.018677 -0.001615 -0.002516 0.000000 -0.004163 0.000000
# 2 -0.001615 0.007991 -0.001370 0.000000 -0.000458 0.000000
# 3 -0.002516 -0.001370 0.008299 0.000000 -0.000892 0.000000
# 4 0.000000 0.000000 0.000000 0.043039 0.000000 -0.011205
# 5 -0.004163 -0.000458 -0.000892 0.000000 0.023998 0.000000
# 6 0.000000 0.000000 0.000000 -0.011205 0.000000 0.040140
#
#
# Mechanical properties :
#
#
# Convention : Reuss Voigt Hill
#
# Bulk Modulus (GPa) = 41.73220 51.24625 46.48922
# Shear Modulus (GPa) = 31.02994 36.56170 33.79582
#
# Velocity S-wave (km/s) = 3.66893 3.98256 3.82896
# Velocity P-wave (km/s) = 6.00432 6.58626 6.30201
#
# Compressibility (1/GPa) = 0.02396231
#
# Stress axis : x y z
#
# Youngs Moduli (GPa) = 53.54316 125.13783 120.49937
#
# Poissons Ratio (x) = 0.20215 0.30322
# Poissons Ratio (y) = 0.08649 0.16512
# Poissons Ratio (z) = 0.13473 0.17148
#
# Static dielectric constant tensor:
#      x y z
#    x 3.905010 0.000000 0.190410 
#    y 0.000000 4.163430 0.000000 
#    z 0.190410 0.000000 4.143940 
# 
# 
# High freq. dielectric constant tensor:
#      x y z
#    x 1.887150 0.000000 0.008370 
#    y 0.000000 1.911990 0.000000 
#    z 0.008370 0.000000 1.932620 
# 
# From -- ./inp_files/37766.got.cif
#   From: 2010.06.25/outbox.cif.g09.slc.cpg/sg15_19_cif.got.tgz:37766.got - 2010.06.28 07:06:18.
