data_PCOD8147704
_publ_section_title
;
Structure prediction by ZEFSAII (Michael W. Deem and Ramdas Pophale) SiO2 
 PCOD8147704
Probable space group: C 2/C
;
_chemical_formula_sum "Si O2"
_cell_formula_units_Z 48
_cell_length_a 27.186413
_cell_length_b 8.937686
_cell_length_c 13.376692
_cell_angle_alpha 90.000000
_cell_angle_beta 42.887744
_cell_angle_gamma 90.000000
_cell_volume 2212.049306
_symmetry_space_group_name_H-M "C 2/C"
_symmetry_group_IT_number 15
_symmetry_cell_setting 'monoclinic'
loop_
_space_group_symop_operation_xyz
x,y,z
-x,y,1/2-z
-x,-y,-z
x,-y,1/2+z
1/2+x,1/2+y,z
1/2-x,1/2+y,1/2-z
1/2-x,1/2-y,-z
1/2+x,1/2-y,1/2+z
loop_
_atom_site_type_symbol
_atom_site_label
_atom_site_fract_x
_atom_site_fract_y
_atom_site_fract_z
Si Si1 0.934799 0.425238 0.656862
Si Si2 0.680658 0.940407 0.824455
Si Si3 0.825652 0.924488 0.855034
Si Si4 0.833996 0.387735 0.433863
Si Si5 0.072035 0.842285 0.187920
Si Si6 0.826657 0.782887 0.645057
O O1 0.874146 0.363903 0.671534
O O2 0.900328 0.559654 0.769777
O O3 0.956956 0.291381 0.697743
O O4 0.000000 0.500000 0.500000
O O5 0.756361 0.856742 0.700631
O O6 0.690784 0.117241 0.787918
O O7 0.644140 0.916358 0.985388
O O8 0.825055 0.788397 0.933305
O O9 0.852074 0.878545 0.703984
O O10 0.879052 0.048842 0.818678
O O11 0.741538 0.977676 0.975436
O O12 0.000000 0.922028 0.250000
O O13 0.114778 0.776332 0.029643
#
# Coordination Sequence:
#
# PCOD8147704 Si02
#       6
#     8   8   8   8   8   8
#     4  12  26  44  69  97 140 187 232 283 347 421
#     4  11  24  42  71 104 136 180 233 292 350 418
#     4  10  24  45  71 100 138 177 233 298 348 412
#     4  10  22  44  71 100 133 177 228 290 355 409
#     4  12  28  46  68 100 143 189 235 285 348 423
#     4  11  24  44  71 102 140 176 237 294 354 418
#
# _framework density 21.699334
#
# number of rings (size 3 to 8) (size 9 to 14) (size 15 to 20)
#    0.000    1.000    3.333    2.000    9.333    2.000 
#    3.000    0.000    0.000    0.000    0.000    0.000 
#    0.000    0.000    0.000    0.000    0.000    0.000 
#
# Total GULP energy -297577.927422 kJ/mol
# GULP energy per Si atom -12399.080309 kJ/mol
# Density = 2.164995 g / cm^3
# Si number density = 21.699334 Si / 1000 Ang^3
#
#
#
# Elastic Constant Matrix: (Units=GPa)
#
#
# Indices 1 2 3 4 5 6 
#
# 1 95.3742 31.6732 36.3463 0.0000 -1.5106 0.0000
# 2 31.6732 73.4590 35.6649 -0.0004 -1.1317 0.0000
# 3 36.3463 35.6649 137.2142 0.0000 8.1396 0.0000
# 4 0.0000 -0.0004 0.0000 35.0661 0.0000 5.7869
# 5 -1.5106 -1.1317 8.1396 0.0000 24.0536 0.0000
# 6 0.0000 0.0000 0.0000 5.7869 0.0000 32.9499
#
#
#
# Elastic Compliance Matrix: (Units=1/GPa)
#
#
# Indices 1 2 3 4 5 6 
#
# 1 0.012858 -0.004381 -0.002350 0.000000 0.001397 0.000000
# 2 -0.004381 0.017181 -0.003405 0.000000 0.001686 0.000000
# 3 -0.002350 -0.003405 0.008994 0.000000 -0.003351 0.000000
# 4 0.000000 0.000000 0.000000 0.029369 0.000000 -0.005158
# 5 0.001397 0.001686 -0.003351 0.000000 0.042875 0.000000
# 6 0.000000 0.000000 0.000000 -0.005158 0.000000 0.031255
#
#
# Mechanical properties :
#
#
# Convention : Reuss Voigt Hill
#
# Bulk Modulus (GPa) = 53.30406 57.04624 55.17515
# Shear Modulus (GPa) = 29.57559 31.90480 30.74019
#
# Velocity S-wave (km/s) = 3.69585 3.83863 3.76791
# Velocity P-wave (km/s) = 6.54451 6.78183 6.66422
#
# Compressibility (1/GPa) = 0.01876030
#
# Stress axis : x y z
#
# Youngs Moduli (GPa) = 77.77442 58.20247 111.18256
#
# Poissons Ratio (x) = 0.25501 0.26126
# Poissons Ratio (y) = 0.34076 0.37860
# Poissons Ratio (z) = 0.18276 0.19819
#
# Static dielectric constant tensor:
#      x y z
#    x 4.185060 0.000000 0.192240 
#    y 0.000000 3.704230 0.000000 
#    z 0.192240 0.000000 4.012480 
# 
# 
# High freq. dielectric constant tensor:
#      x y z
#    x 1.868340 0.000000 0.015850 
#    y 0.000000 1.835470 0.000000 
#    z 0.015850 0.000000 1.860790 
# 
# From -- ./inp_files/176900.got.cif
#   From: 2010.06.25/outbox.cif.g09.slc.cpg/sg15_89_cif.got.tgz:176900.got - 2010.06.28 07:06:18.
