data_PCOD8147092
_publ_section_title
;
Structure prediction by ZEFSAII (Michael W. Deem and Ramdas Pophale) SiO2 
 PCOD8147092
Probable space group: C 2/C
;
_chemical_formula_sum "Si O2"
_cell_formula_units_Z 52
_cell_length_a 17.715618
_cell_length_b 13.962028
_cell_length_c 14.331607
_cell_angle_alpha 90.000000
_cell_angle_beta 135.682176
_cell_angle_gamma 90.000000
_cell_volume 2476.577030
_symmetry_space_group_name_H-M "C 2/C"
_symmetry_group_IT_number 15
_symmetry_cell_setting 'monoclinic'
loop_
_space_group_symop_operation_xyz
x,y,z
-x,y,1/2-z
-x,-y,-z
x,-y,1/2+z
1/2+x,1/2+y,z
1/2-x,1/2+y,1/2-z
1/2-x,1/2-y,-z
1/2+x,1/2-y,1/2+z
loop_
_atom_site_type_symbol
_atom_site_label
_atom_site_fract_x
_atom_site_fract_y
_atom_site_fract_z
Si Si1 0.327520 0.052811 0.511270
Si Si2 0.157084 0.167860 0.062640
Si Si3 0.520070 0.683114 0.442553
Si Si4 0.437574 0.145041 0.103342
Si Si5 0.371953 0.150751 0.361485
Si Si6 0.500000 0.189841 0.750000
Si Si7 0.606356 0.483219 0.904464
O O1 0.340895 0.075108 0.413800
O O2 0.395831 0.124813 0.636697
O O3 0.201954 0.061747 0.426561
O O4 0.365387 0.945615 0.565623
O O5 0.279741 0.160995 0.203476
O O6 0.079737 0.152277 0.082295
O O7 0.139933 0.270418 0.999787
O O8 0.137769 0.086521 0.969735
O O9 0.607049 0.745202 0.576047
O O10 0.472138 0.742612 0.312842
O O11 0.584249 0.588617 0.469868
O O12 0.500000 0.181702 0.250000
O O13 0.520521 0.114149 0.095237
O O14 0.500000 0.494476 0.750000
#
# Coordination Sequence:
#
# PCOD8147092 Si02
#       7
#     8   8   8   8   8   4   8
#     4  11  24  41  71  97 131 168 223 279 319 383
#     4  11  25  41  64  96 137 177 214 263 328 393
#     4  10  23  42  66  94 133 170 220 274 318 394
#     4  11  23  44  66  94 130 173 221 270 320 388
#     4  10  24  41  65  99 128 171 220 275 328 376
#     4  10  22  42  70  96 126 166 228 272 336 366
#     4  12  25  42  66  98 134 179 215 262 328 396
#
# _framework density 20.996721999999998
#
# number of rings (size 3 to 8) (size 9 to 14) (size 15 to 20)
#    0.000    1.231    1.538    3.231    2.154    7.385 
#    0.000    0.000    0.000    0.000    0.000    0.000 
#    0.000    0.000    0.000    0.000    0.000    0.000 
#
# Total GULP energy -322588.488829 kJ/mol
# GULP energy per Si atom -12407.249570 kJ/mol
# Density = 2.094893 g / cm^3
# Si number density = 20.996722 Si / 1000 Ang^3
#
#
#
# Elastic Constant Matrix: (Units=GPa)
#
#
# Indices 1 2 3 4 5 6 
#
# 1 64.8852 15.0110 15.1998 0.0000 -0.1687 0.0000
# 2 15.0110 78.6729 18.0556 0.0000 6.7543 0.0000
# 3 15.1998 18.0556 116.0767 0.0000 12.9505 0.0000
# 4 0.0000 0.0000 0.0000 32.2252 0.0000 -11.7974
# 5 -0.1687 6.7543 12.9505 0.0000 28.8611 0.0000
# 6 0.0000 0.0000 0.0000 -11.7974 0.0000 33.4749
#
#
#
# Elastic Compliance Matrix: (Units=1/GPa)
#
#
# Indices 1 2 3 4 5 6 
#
# 1 0.016522 -0.002855 -0.001900 0.000000 0.001617 0.000000
# 2 -0.002855 0.013819 -0.001487 0.000000 -0.002583 0.000000
# 3 -0.001900 -0.001487 0.009535 0.000000 -0.003941 0.000000
# 4 0.000000 0.000000 0.000000 0.035628 0.000000 0.012556
# 5 0.001617 -0.002583 -0.003941 0.000000 0.037031 0.000000
# 6 0.000000 0.000000 0.000000 0.012556 0.000000 0.034298
#
#
# Mechanical properties :
#
#
# Convention : Reuss Voigt Hill
#
# Bulk Modulus (GPa) = 36.50899 39.57417 38.04158
# Shear Modulus (GPa) = 29.68271 33.00347 31.34309
#
# Velocity S-wave (km/s) = 3.76398 3.96894 3.86782
# Velocity P-wave (km/s) = 6.02625 6.31602 6.17283
#
# Compressibility (1/GPa) = 0.02739051
#
# Stress axis : x y z
#
# Youngs Moduli (GPa) = 60.52679 72.36527 104.87824
#
# Poissons Ratio (x) = 0.20662 0.19924
# Poissons Ratio (y) = 0.17282 0.15600
# Poissons Ratio (z) = 0.11499 0.10764
#
# Static dielectric constant tensor:
#      x y z
#    x 3.935690 0.000000 -0.075710 
#    y 0.000000 3.837100 0.000000 
#    z -0.075710 0.000000 3.877930 
# 
# 
# High freq. dielectric constant tensor:
#      x y z
#    x 1.834320 0.000000 -0.003870 
#    y 0.000000 1.828040 0.000000 
#    z -0.003870 0.000000 1.828570 
# 
# From -- ./inp_files/162620.got.cif
#   From: 2010.06.25/outbox.cif.g09.slc.cpg/sg15_82_cif.got.tgz:162620.got - 2010.06.28 07:06:18.
