data_PCOD8147772
_publ_section_title
;
Structure prediction by ZEFSAII (Michael W. Deem and Ramdas Pophale) SiO2 
 PCOD8147772
Probable space group: C 2/C
;
_chemical_formula_sum "Si O2"
_cell_formula_units_Z 44
_cell_length_a 17.705625
_cell_length_b 5.088886
_cell_length_c 22.367083
_cell_angle_alpha 90.000000
_cell_angle_beta 110.842428
_cell_angle_gamma 90.000000
_cell_volume 1883.439461
_symmetry_space_group_name_H-M "C 2/C"
_symmetry_group_IT_number 15
_symmetry_cell_setting 'monoclinic'
loop_
_space_group_symop_operation_xyz
x,y,z
-x,y,1/2-z
-x,-y,-z
x,-y,1/2+z
1/2+x,1/2+y,z
1/2-x,1/2+y,1/2-z
1/2-x,1/2-y,-z
1/2+x,1/2-y,1/2+z
loop_
_atom_site_type_symbol
_atom_site_label
_atom_site_fract_x
_atom_site_fract_y
_atom_site_fract_z
Si Si1 0.153692 0.213712 0.464169
Si Si2 0.000000 0.846465 0.250000
Si Si3 0.349578 0.588286 0.259933
Si Si4 0.061112 0.313423 0.549664
Si Si5 0.568445 0.238406 0.393197
Si Si6 0.820923 0.584120 0.324582
O O1 0.250000 0.250000 0.500000
O O2 0.108475 0.134695 0.514312
O O3 0.114528 0.479272 0.427750
O O4 0.133615 0.976172 0.412952
O O5 0.031903 0.681093 0.316438
O O6 0.069742 0.046527 0.252851
O O7 0.274686 0.546302 0.193242
O O8 0.339727 0.384509 0.311720
O O9 0.352808 0.887525 0.282822
O O10 0.132574 0.481223 0.601230
O O11 0.000000 0.500000 0.500000
O O12 0.007646 0.170850 0.586034
#
# Coordination Sequence:
#
# PCOD8147772 Si02
#       6
#     8   4   8   8   8   8
#     4  11  26  48  71 102 138 180 234 289 340 408
#     4  12  26  44  72 102 146 172 230 294 340 410
#     4  10  24  41  68  92 138 173 224 277 338 398
#     4  10  23  44  72  95 138 178 227 274 339 412
#     4  11  26  45  69 103 137 186 227 278 356 405
#     4  10  22  45  62  99 127 181 225 270 338 409
#
# _framework density 23.361518
#
# number of rings (size 3 to 8) (size 9 to 14) (size 15 to 20)
#    0.000    1.455    1.818    1.091    7.636    5.818 
#    6.545    0.000    0.000    0.000    0.000    0.000 
#    0.000    0.000    0.000    0.000    0.000    0.000 
#
# Total GULP energy -272603.132433 kJ/mol
# GULP energy per Si atom -12391.051474 kJ/mol
# Density = 2.330835 g / cm^3
# Si number density = 23.361518 Si / 1000 Ang^3
#
#
#
# Elastic Constant Matrix: (Units=GPa)
#
#
# Indices 1 2 3 4 5 6 
#
# 1 118.8798 19.8922 63.4166 -0.0001 18.0829 0.0001
# 2 19.8922 97.8477 38.4926 -0.0007 13.3907 0.0000
# 3 63.4166 38.4926 184.6389 0.0000 32.6071 0.0000
# 4 -0.0001 -0.0007 0.0000 25.5847 0.0000 9.9391
# 5 18.0829 13.3907 32.6071 0.0000 44.1227 -0.0001
# 6 0.0001 0.0000 0.0000 9.9391 -0.0001 21.5146
#
#
#
# Elastic Compliance Matrix: (Units=1/GPa)
#
#
# Indices 1 2 3 4 5 6 
#
# 1 0.010469 -0.000648 -0.003148 0.000000 -0.001767 0.000000
# 2 -0.000648 0.011315 -0.001814 0.000000 -0.001828 0.000000
# 3 -0.003148 -0.001814 0.007534 0.000000 -0.003727 0.000000
# 4 0.000000 0.000000 0.000000 0.047635 0.000000 -0.022006
# 5 -0.001767 -0.001828 -0.003727 0.000000 0.026697 0.000000
# 6 0.000000 0.000000 0.000000 -0.022006 0.000000 0.056646
#
#
# Mechanical properties :
#
#
# Convention : Reuss Voigt Hill
#
# Bulk Modulus (GPa) = 55.25559 71.66326 63.45942
# Shear Modulus (GPa) = 28.16145 36.88206 32.52176
#
# Velocity S-wave (km/s) = 3.47575 3.97766 3.73514
# Velocity P-wave (km/s) = 6.30963 7.19987 6.76940
#
# Compressibility (1/GPa) = 0.01809772
#
# Stress axis : x y z
#
# Youngs Moduli (GPa) = 95.52380 88.37573 132.73934
#
# Poissons Ratio (x) = 0.05725 0.41793
# Poissons Ratio (y) = 0.06188 0.24073
# Poissons Ratio (z) = 0.30075 0.16028
#
# Static dielectric constant tensor:
#      x y z
#    x 4.698960 0.000000 0.110960 
#    y 0.000000 3.845290 0.000000 
#    z 0.110960 0.000000 4.676860 
# 
# 
# High freq. dielectric constant tensor:
#      x y z
#    x 1.933350 0.000000 0.025000 
#    y 0.000000 1.900340 0.000000 
#    z 0.025000 0.000000 1.939930 
# 
# From -- ./inp_files/275920.got.cif
#   From: 2010.06.25/outbox.cif.g09.slc.cpg/sg15_138_cif.got.tgz:275920.got - 2010.06.28 07:06:18.
