data_PCOD8147137
_publ_section_title
;
Structure prediction by ZEFSAII (Michael W. Deem and Ramdas Pophale) SiO2 
 PCOD8147137
Probable space group: C 2/C
;
_chemical_formula_sum "Si O2"
_cell_formula_units_Z 28
_cell_length_a 4.980333
_cell_length_b 16.931407
_cell_length_c 15.185110
_cell_angle_alpha 90.000000
_cell_angle_beta 103.920477
_cell_angle_gamma 90.000000
_cell_volume 1242.863221
_symmetry_space_group_name_H-M "C 2/C"
_symmetry_group_IT_number 15
_symmetry_cell_setting 'monoclinic'
loop_
_space_group_symop_operation_xyz
x,y,z
-x,y,1/2-z
-x,-y,-z
x,-y,1/2+z
1/2+x,1/2+y,z
1/2-x,1/2+y,1/2-z
1/2-x,1/2-y,-z
1/2+x,1/2-y,1/2+z
loop_
_atom_site_type_symbol
_atom_site_label
_atom_site_fract_x
_atom_site_fract_y
_atom_site_fract_z
Si Si1 0.041962 0.945987 0.652455
Si Si2 0.500000 0.947720 0.250000
Si Si3 0.270895 0.904444 0.400631
Si Si4 0.157964 0.160960 0.506434
O O1 0.000000 0.919013 0.750000
O O2 0.037361 0.868978 0.589671
O O3 0.325993 0.995665 0.670499
O O4 0.807093 0.003617 0.594266
O O5 0.307377 0.892316 0.296927
O O6 0.560872 0.888752 0.470585
O O7 0.024828 0.848495 0.418869
O O8 0.250000 0.250000 0.500000
#
# Coordination Sequence:
#
# PCOD8147137 Si02
#       4
#     8   4   8   8
#     4  10  23  42  70  99 133 174 234 285 331 394
#     4  10  22  42  72 106 124 180 242 288 330 382
#     4  11  23  44  70  94 133 175 235 275 330 402
#     4  12  26  43  67 102 139 181 218 276 347 409
#
# _framework density 22.528625999999999
#
# number of rings (size 3 to 8) (size 9 to 14) (size 15 to 20)
#    0.000    1.143    2.857    2.571    8.000    0.000 
#    2.571    0.000    0.000    0.000    0.000    0.000 
#    0.000    0.000    0.000    0.000    0.000    0.000 
#
# Total GULP energy -173452.913828 kJ/mol
# GULP energy per Si atom -12389.493845 kJ/mol
# Density = 2.247735 g / cm^3
# Si number density = 22.528626 Si / 1000 Ang^3
#
#
#
# Elastic Constant Matrix: (Units=GPa)
#
#
# Indices 1 2 3 4 5 6 
#
# 1 154.3478 55.4758 63.7803 0.0000 -13.6947 0.0000
# 2 55.4758 112.2048 96.5790 0.0000 -16.4182 0.0000
# 3 63.7803 96.5790 112.6085 0.0000 -5.6574 0.0000
# 4 0.0000 0.0000 0.0000 21.0437 0.0000 -0.4696
# 5 -13.6947 -16.4182 -5.6574 0.0000 51.6194 0.0000
# 6 0.0000 0.0000 0.0000 -0.4696 0.0000 23.7346
#
#
#
# Elastic Compliance Matrix: (Units=1/GPa)
#
#
# Indices 1 2 3 4 5 6 
#
# 1 0.008622 0.000512 -0.005228 0.000000 0.001877 0.000000
# 2 0.000512 0.037389 -0.031928 0.000000 0.008529 0.000000
# 3 -0.005228 -0.031928 0.038859 0.000000 -0.007283 0.000000
# 4 0.000000 0.000000 0.000000 0.047541 0.000000 0.000941
# 5 0.001877 0.008529 -0.007283 0.000000 0.021785 0.000000
# 6 0.000000 0.000000 0.000000 0.000941 0.000000 0.042151
#
#
# Mechanical properties :
#
#
# Convention : Reuss Voigt Hill
#
# Bulk Modulus (GPa) = 86.34895 90.09238 88.22067
# Shear Modulus (GPa) = 18.28181 30.16794 24.22487
#
# Velocity S-wave (km/s) = 2.85176 3.66333 3.28272
# Velocity P-wave (km/s) = 7.01820 7.61383 7.32207
#
# Compressibility (1/GPa) = 0.01158092
#
# Stress axis : x y z
#
# Youngs Moduli (GPa) = 115.98524 26.74583 25.73419
#
# Poissons Ratio (x) = -0.01369 0.13454
# Poissons Ratio (y) = -0.05937 0.82165
# Poissons Ratio (z) = 0.60637 0.85395
#
# Static dielectric constant tensor:
#      x y z
#    x 4.478110 0.000000 -0.167360 
#    y 0.000000 3.586090 0.000000 
#    z -0.167360 0.000000 4.129800 
# 
# 
# High freq. dielectric constant tensor:
#      x y z
#    x 1.913340 0.000000 -0.003960 
#    y 0.000000 1.835250 0.000000 
#    z -0.003960 0.000000 1.892160 
# 
# From -- ./inp_files/127957.got.cif
#   From: 2010.06.25/outbox.cif.g09.slc.cpg/sg15_64_cif.got.tgz:127957.got - 2010.06.28 07:06:18.
