data_PCOD8147333
_publ_section_title
;
Structure prediction by ZEFSAII (Michael W. Deem and Ramdas Pophale) SiO2 
 PCOD8147333
Probable space group: C 2/C
;
_chemical_formula_sum "Si O2"
_cell_formula_units_Z 60
_cell_length_a 10.915492
_cell_length_b 22.568565
_cell_length_c 16.301746
_cell_angle_alpha 90.000000
_cell_angle_beta 39.371871
_cell_angle_gamma 90.000000
_cell_volume 2547.481618
_symmetry_space_group_name_H-M "C 2/C"
_symmetry_group_IT_number 15
_symmetry_cell_setting 'monoclinic'
loop_
_space_group_symop_operation_xyz
x,y,z
-x,y,1/2-z
-x,-y,-z
x,-y,1/2+z
1/2+x,1/2+y,z
1/2-x,1/2+y,1/2-z
1/2-x,1/2-y,-z
1/2+x,1/2-y,1/2+z
loop_
_atom_site_type_symbol
_atom_site_label
_atom_site_fract_x
_atom_site_fract_y
_atom_site_fract_z
Si Si1 0.375693 0.872480 0.018312
Si Si2 0.500000 0.690096 0.750000
Si Si3 0.339885 0.424095 0.515029
Si Si4 0.099667 0.263483 0.843193
Si Si5 0.551592 0.684877 0.437250
Si Si6 0.557493 0.044611 0.540445
Si Si7 0.538100 0.411088 0.640261
Si Si8 0.790120 0.993890 0.185960
O O1 0.189691 0.848609 0.161946
O O2 0.513170 0.892735 0.020728
O O3 0.299772 0.922618 0.992673
O O4 0.501379 0.826542 0.902682
O O5 0.465960 0.728232 0.848936
O O6 0.328063 0.359768 0.565707
O O7 0.563815 0.438343 0.378593
O O8 0.273735 0.480059 0.603181
O O9 0.309286 0.273744 0.691706
O O10 0.091449 0.226965 0.934264
O O11 0.427420 0.643373 0.440031
O O12 0.777780 0.045068 0.457064
O O13 0.420305 0.031437 0.687859
O O14 0.500000 0.000000 0.500000
O O15 0.500000 0.384394 0.750000
O O16 0.353871 0.451539 0.712036
#
# Coordination Sequence:
#
# PCOD8147333 Si02
#       8
#     8   4   8   8   8   8   8   8
#     4  12  24  40  70 103 139 185 236 298 367 427
#     4  12  22  42  72 104 144 178 244 314 358 426
#     4  10  22  43  68 102 144 185 231 306 361 421
#     4  12  24  45  70 109 140 188 240 303 371 424
#     4  11  25  46  73 101 146 185 243 305 361 432
#     4  12  25  43  72 105 142 190 237 284 359 443
#     4  11  23  47  72 103 148 192 238 296 357 434
#     4  10  23  44  69 101 146 187 234 292 361 437
#
# _framework density 23.552672999999999
#
# number of rings (size 3 to 8) (size 9 to 14) (size 15 to 20)
#    0.000    0.800    4.000    3.600    1.867    0.000 
#    2.400    9.333    0.000    0.000    0.000    0.000 
#    0.000    0.000    0.000    0.000    0.000    0.000 
#
# Total GULP energy -371897.090055 kJ/mol
# GULP energy per Si atom -12396.569669 kJ/mol
# Density = 2.349907 g / cm^3
# Si number density = 23.552673 Si / 1000 Ang^3
#
#
#
# Elastic Constant Matrix: (Units=GPa)
#
#
# Indices 1 2 3 4 5 6 
#
# 1 241.2702 -44.7018 98.5279 -0.0153 64.2174 0.0043
# 2 -44.7018 102.0027 -4.3445 0.0088 -13.1687 -0.0004
# 3 98.5279 -4.3445 156.1837 -0.0082 36.3925 -0.0008
# 4 -0.0153 0.0088 -0.0082 42.8774 -0.0085 4.7404
# 5 64.2174 -13.1687 36.3925 -0.0085 49.9750 0.0016
# 6 0.0043 -0.0004 -0.0008 4.7404 0.0016 34.2243
#
#
#
# Elastic Compliance Matrix: (Units=1/GPa)
#
#
# Indices 1 2 3 4 5 6 
#
# 1 0.007751 0.002355 -0.003189 0.000000 -0.007017 -0.000001
# 2 0.002355 0.010886 -0.001380 -0.000001 0.000848 0.000000
# 3 -0.003189 -0.001380 0.009040 0.000000 -0.002849 0.000001
# 4 0.000000 -0.000001 0.000000 0.023685 0.000003 -0.003281
# 5 -0.007017 0.000848 -0.002849 0.000003 0.031325 -0.000001
# 6 -0.000001 0.000000 0.000001 -0.003281 -0.000001 0.029673
#
#
# Mechanical properties :
#
#
# Convention : Reuss Voigt Hill
#
# Bulk Modulus (GPa) = 43.01328 66.49111 54.75219
# Shear Modulus (GPa) = 40.14798 55.41368 47.78083
#
# Velocity S-wave (km/s) = 4.13316 4.85578 4.50897
# Velocity P-wave (km/s) = 6.40934 7.72854 7.09964
#
# Compressibility (1/GPa) = 0.02324863
#
# Stress axis : x y z
#
# Youngs Moduli (GPa) = 129.01249 91.85771 110.61949
#
# Poissons Ratio (x) = -0.21634 0.35279
# Poissons Ratio (y) = -0.30384 0.15270
# Poissons Ratio (z) = 0.41145 0.12680
#
# Static dielectric constant tensor:
#      x y z
#    x 5.813840 -0.000020 0.603450 
#    y -0.000020 4.519440 -0.000010 
#    z 0.603450 -0.000010 4.844910 
# 
# 
# High freq. dielectric constant tensor:
#      x y z
#    x 1.919550 0.000000 0.017720 
#    y 0.000000 1.935970 0.000000 
#    z 0.017720 0.000000 1.938870 
# 
# From -- ./inp_files/200516.got.cif
#   From: 2010.06.25/outbox.cif.g09.slc.cpg/sg15_101_cif.got.tgz:200516.got - 2010.06.28 07:06:18.
