data_PCOD8147734
_publ_section_title
;
Structure prediction by ZEFSAII (Michael W. Deem and Ramdas Pophale) SiO2 
 PCOD8147734
Probable space group: C 2/C
;
_chemical_formula_sum "Si O2"
_cell_formula_units_Z 44
_cell_length_a 7.914645
_cell_length_b 25.039915
_cell_length_c 12.123798
_cell_angle_alpha 90.000000
_cell_angle_beta 118.889412
_cell_angle_gamma 90.000000
_cell_volume 2103.709797
_symmetry_space_group_name_H-M "C 2/C"
_symmetry_group_IT_number 15
_symmetry_cell_setting 'monoclinic'
loop_
_space_group_symop_operation_xyz
x,y,z
-x,y,1/2-z
-x,-y,-z
x,-y,1/2+z
1/2+x,1/2+y,z
1/2-x,1/2+y,1/2-z
1/2-x,1/2-y,-z
1/2+x,1/2-y,1/2+z
loop_
_atom_site_type_symbol
_atom_site_label
_atom_site_fract_x
_atom_site_fract_y
_atom_site_fract_z
Si Si1 0.529943 0.092808 0.936620
Si Si2 0.291923 0.311502 0.497358
Si Si3 0.140901 0.866521 0.204629
Si Si4 0.834235 0.030348 0.883872
Si Si5 0.359753 0.936241 0.801825
Si Si6 0.500000 0.363141 0.750000
O O1 0.616766 0.151893 0.983179
O O2 0.334094 0.106530 0.813153
O O3 0.669546 0.055074 0.909740
O O4 0.505520 0.062176 0.046042
O O5 0.250000 0.250000 0.500000
O O6 0.329278 0.321925 0.379280
O O7 0.470550 0.326460 0.632709
O O8 0.041863 0.920114 0.125842
O O9 0.000000 0.839840 0.250000
O O10 0.726432 0.994076 0.758317
O O11 0.000000 0.000000 0.000000
O O12 0.500000 0.914032 0.750000
O O13 0.181158 0.898775 0.773876
#
# Coordination Sequence:
#
# PCOD8147734 Si02
#       6
#     8   8   8   8   8   4
#     4  10  24  43  60  96 133 171 229 272 333 410
#     4  10  22  44  72  90 123 175 216 280 346 398
#     4  11  25  41  64  98 134 171 222 284 330 406
#     4  11  23  38  63  93 134 182 223 262 333 395
#     4  11  23  39  65  92 135 180 221 274 329 395
#     4  10  24  42  64 102 130 166 234 266 332 408
#
# _framework density 20.915431000000002
#
# number of rings (size 3 to 8) (size 9 to 14) (size 15 to 20)
#    0.000    1.455    0.000    6.545   11.455    1.455 
#    0.000    4.545    0.000    0.000    0.000    0.000 
#    0.000    0.000    0.000    0.000    0.000    0.000 
#
# Total GULP energy -272574.355396 kJ/mol
# GULP energy per Si atom -12389.743427 kJ/mol
# Density = 2.086783 g / cm^3
# Si number density = 20.915431 Si / 1000 Ang^3
#
#
#
# Elastic Constant Matrix: (Units=GPa)
#
#
# Indices 1 2 3 4 5 6 
#
# 1 114.6085 40.7341 46.0630 0.0000 -20.0071 0.0000
# 2 40.7341 146.1535 60.5849 0.0000 -11.9869 0.0000
# 3 46.0630 60.5849 139.1159 0.0000 -20.4970 0.0000
# 4 0.0000 0.0000 0.0000 22.8222 0.0000 -7.4577
# 5 -20.0071 -11.9869 -20.4970 0.0000 38.7740 0.0000
# 6 0.0000 0.0000 0.0000 -7.4577 0.0000 13.8204
#
#
#
# Elastic Compliance Matrix: (Units=1/GPa)
#
#
# Indices 1 2 3 4 5 6 
#
# 1 0.010956 -0.001792 -0.002273 0.000000 0.003898 0.000000
# 2 -0.001792 0.008661 -0.003167 0.000000 0.000079 0.000000
# 3 -0.002273 -0.003167 0.009763 0.000000 0.003009 0.000000
# 4 0.000000 0.000000 0.000000 0.053198 0.000000 0.028707
# 5 0.003898 0.000079 0.003009 0.000000 0.029417 0.000000
# 6 0.000000 0.000000 0.000000 0.028707 0.000000 0.087848
#
#
# Mechanical properties :
#
#
# Convention : Reuss Voigt Hill
#
# Bulk Modulus (GPa) = 67.03757 77.18242 72.11000
# Shear Modulus (GPa) = 22.80210 31.91638 27.35924
#
# Velocity S-wave (km/s) = 3.30541 3.91061 3.62067
# Velocity P-wave (km/s) = 6.83293 7.57448 7.21324
#
# Compressibility (1/GPa) = 0.01491701
#
# Stress axis : x y z
#
# Youngs Moduli (GPa) = 91.27258 115.46434 102.42245
#
# Poissons Ratio (x) = 0.20686 0.23283
# Poissons Ratio (y) = 0.16352 0.32436
# Poissons Ratio (z) = 0.20748 0.36566
#
# Static dielectric constant tensor:
#      x y z
#    x 3.817060 0.000000 -0.237090 
#    y 0.000000 3.815400 0.000000 
#    z -0.237090 0.000000 4.697880 
# 
# 
# High freq. dielectric constant tensor:
#      x y z
#    x 1.807780 0.000000 -0.001000 
#    y 0.000000 1.806020 0.000000 
#    z -0.001000 0.000000 1.848750 
# 
# From -- ./inp_files/79988.got.cif
#   From: 2010.06.25/outbox.cif.g09.slc.cpg/sg15_40_cif.got.tgz:79988.got - 2010.06.28 07:06:18.
