data_PCOD8147612
_publ_section_title
;
Structure prediction by ZEFSAII (Michael W. Deem and Ramdas Pophale) SiO2 
 PCOD8147612
Probable space group: C 2/C
;
_chemical_formula_sum "Si O2"
_cell_formula_units_Z 44
_cell_length_a 14.584334
_cell_length_b 8.231154
_cell_length_c 18.194862
_cell_angle_alpha 90.000000
_cell_angle_beta 63.143507
_cell_angle_gamma 90.000000
_cell_volume 1948.630554
_symmetry_space_group_name_H-M "C 2/C"
_symmetry_group_IT_number 15
_symmetry_cell_setting 'monoclinic'
loop_
_space_group_symop_operation_xyz
x,y,z
-x,y,1/2-z
-x,-y,-z
x,-y,1/2+z
1/2+x,1/2+y,z
1/2-x,1/2+y,1/2-z
1/2-x,1/2-y,-z
1/2+x,1/2-y,1/2+z
loop_
_atom_site_type_symbol
_atom_site_label
_atom_site_fract_x
_atom_site_fract_y
_atom_site_fract_z
Si Si1 0.596785 0.626101 0.100226
Si Si2 0.735808 0.154801 0.347803
Si Si3 0.475573 0.813420 0.504025
Si Si4 0.500000 0.396797 0.250000
Si Si5 0.677662 0.354972 0.975268
Si Si6 0.721327 0.716781 0.694665
O O1 0.672520 0.710598 0.131380
O O2 0.532202 0.760989 0.079073
O O3 0.518604 0.507719 0.171419
O O4 0.667599 0.532169 0.014605
O O5 0.629784 0.224485 0.416252
O O6 0.758103 0.236261 0.261933
O O7 0.732924 0.958628 0.343888
O O8 0.562531 0.713778 0.514341
O O9 0.500000 0.000000 0.500000
O O10 0.402126 0.282735 0.269260
O O11 0.729593 0.354621 0.875986
O O12 0.750000 0.250000 0.000000
#
# Coordination Sequence:
#
# PCOD8147612 Si02
#       6
#     8   8   8   4   8   8
#     4  11  25  44  73  98 136 188 226 286 346 426
#     4  11  25  45  68 100 140 172 234 285 351 406
#     4  12  25  44  69 102 136 178 231 286 346 409
#     4  10  22  44  68 100 136 180 238 268 356 404
#     4  12  23  46  70  97 133 185 231 279 344 421
#     4  11  25  43  69  99 136 181 225 291 339 418
#
# _framework density 22.579958999999999
#
# number of rings (size 3 to 8) (size 9 to 14) (size 15 to 20)
#    0.000    0.727    5.455    2.182    7.636    0.000 
#    0.000    0.000    0.000    0.000    0.000    0.000 
#    0.000    0.000    0.000    0.000    0.000    0.000 
#
# Total GULP energy -272875.929573 kJ/mol
# GULP energy per Si atom -12403.451344 kJ/mol
# Density = 2.252857 g / cm^3
# Si number density = 22.579959 Si / 1000 Ang^3
#
#
#
# Elastic Constant Matrix: (Units=GPa)
#
#
# Indices 1 2 3 4 5 6 
#
# 1 157.7890 33.8453 54.9050 0.0000 15.3388 0.0000
# 2 33.8453 55.7023 30.8959 0.0000 18.5258 0.0001
# 3 54.9050 30.8959 137.1467 0.0000 11.3866 0.0000
# 4 0.0000 0.0000 0.0000 38.7668 0.0000 18.7840
# 5 15.3388 18.5258 11.3866 0.0000 51.8349 0.0000
# 6 0.0000 0.0001 0.0000 18.7840 0.0000 30.1435
#
#
#
# Elastic Compliance Matrix: (Units=1/GPa)
#
#
# Indices 1 2 3 4 5 6 
#
# 1 0.007934 -0.003283 -0.002383 0.000000 -0.000651 0.000000
# 2 -0.003283 0.024222 -0.003570 0.000000 -0.006902 0.000000
# 3 -0.002383 -0.003570 0.009050 0.000000 -0.000007 0.000000
# 4 0.000000 0.000000 0.000000 0.036953 0.000000 -0.023027
# 5 -0.000651 -0.006902 -0.000007 0.000000 0.021953 0.000000
# 6 0.000000 0.000000 0.000000 -0.023027 0.000000 0.047524
#
#
# Mechanical properties :
#
#
# Convention : Reuss Voigt Hill
#
# Bulk Modulus (GPa) = 43.98178 65.54783 54.76480
# Shear Modulus (GPa) = 28.78767 39.54850 34.16808
#
# Velocity S-wave (km/s) = 3.57448 4.18962 3.89421
# Velocity P-wave (km/s) = 6.04619 7.24542 6.67280
#
# Compressibility (1/GPa) = 0.02273669
#
# Stress axis : x y z
#
# Youngs Moduli (GPa) = 126.03802 41.28407 110.49588
#
# Poissons Ratio (x) = 0.13552 0.26329
# Poissons Ratio (y) = 0.41374 0.39442
# Poissons Ratio (z) = 0.30032 0.14737
#
# Static dielectric constant tensor:
#      x y z
#    x 4.290250 0.000000 -0.031860 
#    y 0.000000 4.025460 0.000000 
#    z -0.031860 0.000000 4.456100 
# 
# 
# High freq. dielectric constant tensor:
#      x y z
#    x 1.908090 0.000000 0.004410 
#    y 0.000000 1.866880 0.000000 
#    z 0.004410 0.000000 1.905030 
# 
# From -- ./inp_files/202772.got.cif
#   From: 2010.06.25/outbox.cif.g09.slc.cpg/sg15_102_cif.got.tgz:202772.got - 2010.06.28 07:06:18.
