data_PCOD8147999
_publ_section_title
;
Structure prediction by ZEFSAII (Michael W. Deem and Ramdas Pophale) SiO2 
 PCOD8147999
Probable space group: C 2/C
;
_chemical_formula_sum "Si O2"
_cell_formula_units_Z 44
_cell_length_a 10.555016
_cell_length_b 25.231807
_cell_length_c 7.981472
_cell_angle_alpha 90.000000
_cell_angle_beta 116.221350
_cell_angle_gamma 90.000000
_cell_volume 1906.900773
_symmetry_space_group_name_H-M "C 2/C"
_symmetry_group_IT_number 15
_symmetry_cell_setting 'monoclinic'
loop_
_space_group_symop_operation_xyz
x,y,z
-x,y,1/2-z
-x,-y,-z
x,-y,1/2+z
1/2+x,1/2+y,z
1/2-x,1/2+y,1/2-z
1/2-x,1/2-y,-z
1/2+x,1/2-y,1/2+z
loop_
_atom_site_type_symbol
_atom_site_label
_atom_site_fract_x
_atom_site_fract_y
_atom_site_fract_z
Si Si1 0.646977 0.455495 0.748469
Si Si2 0.500000 0.107079 0.250000
Si Si3 0.193759 0.350071 0.597849
Si Si4 0.278125 0.438575 0.067159
Si Si5 0.500000 0.354998 0.250000
Si Si6 0.500000 0.201194 0.750000
Si Si7 0.860022 0.225203 0.428149
O O1 0.500000 0.463647 0.750000
O O2 0.724778 0.405320 0.875614
O O3 0.622477 0.448362 0.536825
O O4 0.736496 0.509380 0.827481
O O5 0.438318 0.144393 0.355708
O O6 0.621428 0.072559 0.408748
O O7 0.135275 0.334306 0.380756
O O8 0.286827 0.303455 0.729211
O O9 0.359393 0.390345 0.209128
O O10 0.535359 0.317387 0.427227
O O11 0.541361 0.231897 0.604177
O O12 0.750000 0.250000 0.500000
#
# Coordination Sequence:
#
# PCOD8147999 Si02
#       7
#     8   4   8   8   4   4   8
#     4  11  24  43  68 105 144 182 240 293 360 442
#     4  10  22  48  68 104 146 186 242 284 374 436
#     4  11  25  46  70 102 143 188 231 315 360 434
#     4  11  25  42  73 104 144 188 238 292 365 440
#     4  12  24  47  75 104 137 206 233 300 374 422
#     4  12  28  45  71 108 141 188 259 300 372 430
#     4  12  26  48  73 102 144 190 249 309 363 429
#
# _framework density 23.074090000000002
#
# number of rings (size 3 to 8) (size 9 to 14) (size 15 to 20)
#    0.000    0.727    4.545    3.273    1.273    6.545 
#    0.000    0.000    0.000    0.000    0.000    0.000 
#    0.000    0.000    0.000    0.000    0.000    0.000 
#
# Total GULP energy -272778.364368 kJ/mol
# GULP energy per Si atom -12399.016562 kJ/mol
# Density = 2.302157 g / cm^3
# Si number density = 23.074090 Si / 1000 Ang^3
#
#
#
# Elastic Constant Matrix: (Units=GPa)
#
#
# Indices 1 2 3 4 5 6 
#
# 1 65.2515 8.2159 6.3115 0.0000 11.6159 0.0000
# 2 8.2159 134.3817 58.0302 0.0000 15.3745 0.0000
# 3 6.3115 58.0302 131.9102 0.0000 32.2405 0.0000
# 4 0.0000 0.0000 0.0000 58.1485 0.0000 3.6185
# 5 11.6159 15.3745 32.2405 0.0000 32.9003 0.0000
# 6 0.0000 0.0000 0.0000 3.6185 0.0000 23.5545
#
#
#
# Elastic Compliance Matrix: (Units=1/GPa)
#
#
# Indices 1 2 3 4 5 6 
#
# 1 0.016483 -0.000751 0.001155 0.000000 -0.006600 0.000000
# 2 -0.000751 0.009226 -0.003989 0.000000 -0.000137 0.000000
# 3 0.001155 -0.003989 0.011735 0.000000 -0.010044 0.000000
# 4 0.000000 0.000000 0.000000 0.017363 0.000000 -0.002667
# 5 -0.006600 -0.000137 -0.010044 0.000000 0.042631 0.000000
# 6 0.000000 0.000000 0.000000 -0.002667 0.000000 0.042865
#
#
# Mechanical properties :
#
#
# Convention : Reuss Voigt Hill
#
# Bulk Modulus (GPa) = 33.03250 52.96208 42.99729
# Shear Modulus (GPa) = 31.73280 40.18639 35.95960
#
# Velocity S-wave (km/s) = 3.71247 4.17780 3.95199
# Velocity P-wave (km/s) = 5.72044 6.80257 6.28484
#
# Compressibility (1/GPa) = 0.03027322
#
# Stress axis : x y z
#
# Youngs Moduli (GPa) = 60.66788 108.39228 85.21234
#
# Poissons Ratio (x) = 0.08145 -0.09843
# Poissons Ratio (y) = 0.04559 0.33993
# Poissons Ratio (z) = -0.07008 0.43240
#
# Static dielectric constant tensor:
#      x y z
#    x 4.158460 0.000000 0.110780 
#    y 0.000000 4.388800 0.000000 
#    z 0.110780 0.000000 4.298730 
# 
# 
# High freq. dielectric constant tensor:
#      x y z
#    x 1.898330 0.000000 0.012750 
#    y 0.000000 1.926850 0.000000 
#    z 0.012750 0.000000 1.925860 
# 
# From -- ./inp_files/32773.got.cif
#   From: 2010.06.25/outbox.cif.g09.slc.cpg/sg15_17_cif.got.tgz:32773.got - 2010.06.28 07:06:18.
