data_PCOD8147793
_publ_section_title
;
Structure prediction by ZEFSAII (Michael W. Deem and Ramdas Pophale) SiO2 
 PCOD8147793
Probable space group: C 2/C
;
_chemical_formula_sum "Si O2"
_cell_formula_units_Z 32
_cell_length_a 10.669731
_cell_length_b 21.923210
_cell_length_c 7.630850
_cell_angle_alpha 90.000000
_cell_angle_beta 57.761711
_cell_angle_gamma 90.000000
_cell_volume 1509.792085
_symmetry_space_group_name_H-M "C 2/C"
_symmetry_group_IT_number 15
_symmetry_cell_setting 'monoclinic'
loop_
_space_group_symop_operation_xyz
x,y,z
-x,y,1/2-z
-x,-y,-z
x,-y,1/2+z
1/2+x,1/2+y,z
1/2-x,1/2+y,1/2-z
1/2-x,1/2-y,-z
1/2+x,1/2-y,1/2+z
loop_
_atom_site_type_symbol
_atom_site_label
_atom_site_fract_x
_atom_site_fract_y
_atom_site_fract_z
Si Si1 0.182287 0.426404 0.903512
Si Si2 0.312879 0.791450 0.607149
Si Si3 0.500000 0.023990 0.250000
Si Si4 0.025476 0.190679 0.534334
Si Si5 0.000000 0.897588 0.750000
O O1 0.143052 0.358174 0.000727
O O2 0.359774 0.438017 0.792247
O O3 0.120684 0.432111 0.751989
O O4 0.098406 0.480087 0.060313
O O5 0.250000 0.750000 0.500000
O O6 0.455158 0.758021 0.579400
O O7 0.197149 0.802758 0.852339
O O8 0.000000 0.164602 0.750000
O O9 0.948149 0.145077 0.451894
#
# Coordination Sequence:
#
# PCOD8147793 Si02
#       5
#     8   8   4   8   4
#     4  10  23  43  66  94 130 172 225 270 328 391
#     4  11  21  40  66  95 136 172 210 278 338 390
#     4  10  24  45  64  94 127 178 228 268 316 390
#     4  11  22  38  60 102 133 169 214 260 346 399
#     4  10  22  45  66  94 135 166 214 282 330 396
#
# _framework density 21.194972
#
# number of rings (size 3 to 8) (size 9 to 14) (size 15 to 20)
#    0.000    1.500    5.000    0.750    5.250    1.000 
#   18.000    0.000    0.000    0.000    0.000    0.000 
#    0.000    0.000    0.000    0.000    0.000    0.000 
#
# Total GULP energy -198243.259816 kJ/mol
# GULP energy per Si atom -12390.203738 kJ/mol
# Density = 2.114673 g / cm^3
# Si number density = 21.194972 Si / 1000 Ang^3
#
#
#
# Elastic Constant Matrix: (Units=GPa)
#
#
# Indices 1 2 3 4 5 6 
#
# 1 157.2204 56.4258 35.2057 0.0000 -5.1715 0.0000
# 2 56.4258 103.2003 19.7271 0.0000 0.4037 0.0000
# 3 35.2057 19.7271 89.0147 0.0000 11.1900 0.0000
# 4 0.0000 0.0000 0.0000 3.1505 0.0000 -24.5270
# 5 -5.1715 0.4037 11.1900 0.0000 44.6791 0.0000
# 6 0.0000 0.0000 0.0000 -24.5270 0.0000 36.3189
#
#
#
# Elastic Compliance Matrix: (Units=1/GPa)
#
#
# Indices 1 2 3 4 5 6 
#
# 1 0.008498 -0.004146 -0.002654 0.000000 0.001686 0.000000
# 2 -0.004146 0.012151 -0.001011 0.000000 -0.000336 0.000000
# 3 -0.002654 -0.001011 0.012953 0.000000 -0.003542 0.000000
# 4 0.000000 0.000000 0.000000 -0.074554 0.000000 -0.050348
# 5 0.001686 -0.000336 -0.003542 0.000000 0.023467 0.000000
# 6 0.000000 0.000000 0.000000 -0.050348 0.000000 -0.006467
#
#
# Mechanical properties :
#
#
# Convention : Reuss Voigt Hill
#
# Bulk Modulus (GPa) = 55.61503 63.57251 59.59377
# Shear Modulus (GPa) = -2140.63892 32.70148 -1053.96872
#
# Velocity S-wave (km/s) = -31.81458 3.93222 -22.32381
# Velocity P-wave (km/s) = 36.37664 7.11869 25.22483
#
# Compressibility (1/GPa) = 0.01798075
#
# Stress axis : x y z
#
# Youngs Moduli (GPa) = 117.67231 82.29670 77.20093
#
# Poissons Ratio (x) = 0.34118 0.20491
# Poissons Ratio (y) = 0.48783 0.07805
# Poissons Ratio (z) = 0.31233 0.08320
#
# Static dielectric constant tensor:
#      x y z
#    x 4.333510 0.000000 -0.000050 
#    y 0.000000 3.857240 0.000000 
#    z -0.000050 0.000000 4.014710 
# 
# 
# High freq. dielectric constant tensor:
#      x y z
#    x 1.845480 0.000000 0.000050 
#    y 0.000000 1.822390 0.000000 
#    z 0.000050 0.000000 1.814010 
# 
# From -- ./inp_files/28659.got.cif
#   From: 2010.06.25/outbox.cif.g09.slc.cpg/sg15_15_cif.got.tgz:28659.got - 2010.06.28 07:06:18.
