data_PCOD8147187
_publ_section_title
;
Structure prediction by ZEFSAII (Michael W. Deem and Ramdas Pophale) SiO2 
 PCOD8147187
Probable space group: C 2/C
;
_chemical_formula_sum "Si O2"
_cell_formula_units_Z 36
_cell_length_a 6.426763
_cell_length_b 13.585254
_cell_length_c 21.205310
_cell_angle_alpha 90.000000
_cell_angle_beta 76.258480
_cell_angle_gamma 90.000000
_cell_volume 1798.426095
_symmetry_space_group_name_H-M "C 2/C"
_symmetry_group_IT_number 15
_symmetry_cell_setting 'monoclinic'
loop_
_space_group_symop_operation_xyz
x,y,z
-x,y,1/2-z
-x,-y,-z
x,-y,1/2+z
1/2+x,1/2+y,z
1/2-x,1/2+y,1/2-z
1/2-x,1/2-y,-z
1/2+x,1/2-y,1/2+z
loop_
_atom_site_type_symbol
_atom_site_label
_atom_site_fract_x
_atom_site_fract_y
_atom_site_fract_z
Si Si1 0.779506 0.550544 0.534227
Si Si2 0.169890 0.451131 0.187527
Si Si3 0.404559 0.407576 0.583608
Si Si4 0.123467 0.303456 0.360862
Si Si5 0.000000 0.144916 0.750000
O O1 0.625971 0.466068 0.572141
O O2 0.670586 0.605021 0.482874
O O3 0.807254 0.632724 0.584685
O O4 0.000000 0.500000 0.500000
O O5 0.214870 0.535876 0.133721
O O6 0.390468 0.424573 0.205978
O O7 0.000000 0.493363 0.250000
O O8 0.075494 0.354500 0.160005
O O9 0.452373 0.302670 0.611001
O O10 0.321308 0.289419 0.297987
#
# Coordination Sequence:
#
# PCOD8147187 Si02
#       5
#     8   8   8   8   4
#     4  11  23  43  64  95 131 166 210 262 310 373
#     4  10  22  43  62  92 129 160 212 266 306 377
#     4  11  24  41  67  94 125 169 209 257 319 372
#     4  11  23  42  65  95 124 167 212 259 314 381
#     4  10  22  44  64  88 134 160 208 270 312 370
#
# _framework density 20.017500999999999
#
# number of rings (size 3 to 8) (size 9 to 14) (size 15 to 20)
#    0.000    1.333    4.444    0.667    1.556    2.667 
#    6.000    0.000    0.000    0.000    0.000    0.000 
#    0.000    0.000    0.000    0.000    0.000    0.000 
#
# Total GULP energy -223276.619251 kJ/mol
# GULP energy per Si atom -12404.256625 kJ/mol
# Density = 1.997194 g / cm^3
# Si number density = 20.017501 Si / 1000 Ang^3
#
#
#
# Elastic Constant Matrix: (Units=GPa)
#
#
# Indices 1 2 3 4 5 6 
#
# 1 101.6906 50.1791 42.9995 0.0000 1.5467 0.0000
# 2 50.1791 124.1553 67.9413 0.0000 -4.2912 0.0000
# 3 42.9995 67.9413 122.3397 0.0000 -2.5024 0.0000
# 4 0.0000 0.0000 0.0000 25.4656 0.0000 1.4141
# 5 1.5467 -4.2912 -2.5024 0.0000 37.5475 0.0000
# 6 0.0000 0.0000 0.0000 1.4141 0.0000 22.2772
#
#
#
# Elastic Compliance Matrix: (Units=1/GPa)
#
#
# Indices 1 2 3 4 5 6 
#
# 1 0.012774 -0.003925 -0.002333 0.000000 -0.001130 0.000000
# 2 -0.003925 0.012807 -0.005707 0.000000 0.001245 0.000000
# 3 -0.002333 -0.005707 0.012169 0.000000 0.000255 0.000000
# 4 0.000000 0.000000 0.000000 0.039407 0.000000 -0.002501
# 5 -0.001130 0.001245 0.000255 0.000000 0.026839 0.000000
# 6 0.000000 0.000000 0.000000 -0.002501 0.000000 0.045048
#
#
# Mechanical properties :
#
#
# Convention : Reuss Voigt Hill
#
# Bulk Modulus (GPa) = 72.36484 74.49172 73.42828
# Shear Modulus (GPa) = 28.15602 29.52914 28.84258
#
# Velocity S-wave (km/s) = 3.75450 3.84496 3.79999
# Velocity P-wave (km/s) = 7.41783 7.55021 7.48431
#
# Compressibility (1/GPa) = 0.01381887
#
# Stress axis : x y z
#
# Youngs Moduli (GPa) = 78.28149 78.08159 82.17759
#
# Poissons Ratio (x) = 0.30649 0.19173
# Poissons Ratio (y) = 0.30728 0.46901
# Poissons Ratio (z) = 0.18264 0.44564
#
# Static dielectric constant tensor:
#      x y z
#    x 3.693790 0.000000 -0.015540 
#    y 0.000000 3.333320 0.000000 
#    z -0.015540 0.000000 4.030900 
# 
# 
# High freq. dielectric constant tensor:
#      x y z
#    x 1.790560 0.000000 -0.000070 
#    y 0.000000 1.758000 0.000000 
#    z -0.000070 0.000000 1.808170 
# 
# From -- ./inp_files/226444.got.cif
#   From: 2010.06.25/outbox.cif.g09.slc.cpg/sg15_114_cif.got.tgz:226444.got - 2010.06.28 07:06:18.
