data_PCOD8147527
_publ_section_title
;
Structure prediction by ZEFSAII (Michael W. Deem and Ramdas Pophale) SiO2 
 PCOD8147527
Probable space group: C 2/C
;
_chemical_formula_sum "Si O2"
_cell_formula_units_Z 56
_cell_length_a 9.306719
_cell_length_b 26.600082
_cell_length_c 14.638363
_cell_angle_alpha 90.000000
_cell_angle_beta 47.248951
_cell_angle_gamma 90.000000
_cell_volume 2661.041086
_symmetry_space_group_name_H-M "C 2/C"
_symmetry_group_IT_number 15
_symmetry_cell_setting 'monoclinic'
loop_
_space_group_symop_operation_xyz
x,y,z
-x,y,1/2-z
-x,-y,-z
x,-y,1/2+z
1/2+x,1/2+y,z
1/2-x,1/2+y,1/2-z
1/2-x,1/2-y,-z
1/2+x,1/2-y,1/2+z
loop_
_atom_site_type_symbol
_atom_site_label
_atom_site_fract_x
_atom_site_fract_y
_atom_site_fract_z
Si Si1 0.081918 0.619949 0.942967
Si Si2 0.784897 0.460892 0.819456
Si Si3 0.036503 0.701233 0.628176
Si Si4 0.145707 0.048931 0.762567
Si Si5 0.625893 0.618848 0.524624
Si Si6 0.309032 0.386183 0.790801
Si Si7 0.512438 0.689690 0.073393
O O1 0.151179 0.565067 0.875713
O O2 0.200201 0.635917 0.983051
O O3 0.112002 0.659776 0.847831
O O4 0.850685 0.623339 0.062668
O O5 0.669435 0.510015 0.835239
O O6 0.804191 0.421218 0.730312
O O7 0.000000 0.480014 0.750000
O O8 0.682091 0.432669 0.947335
O O9 0.256343 0.680510 0.519499
O O10 0.000000 0.711834 0.750000
O O11 0.984282 0.750595 0.591243
O O12 0.000000 0.025117 0.750000
O O13 0.060481 0.101918 0.835872
O O14 0.573620 0.665978 0.482983
O O15 0.500000 0.414342 0.750000
O O16 0.393985 0.335358 0.708350
#
# Coordination Sequence:
#
# PCOD8147527 Si02
#       7
#     8   8   8   8   8   8   8
#     4  11  23  41  68  92 130 165 217 264 318 386
#     4  11  22  39  64  94 129 166 218 265 314 387
#     4  11  23  40  64  97 125 169 213 265 314 385
#     4  10  23  42  61  92 130 171 212 267 321 380
#     4  10  22  44  65  92 131 172 207 270 323 379
#     4  11  21  41  63  93 126 173 209 263 323 378
#     4  10  23  38  66  92 130 164 212 261 319 386
#
# _framework density 21.044395000000002
#
# number of rings (size 3 to 8) (size 9 to 14) (size 15 to 20)
#    0.000    1.429    2.857    2.143    2.000    2.857 
#    2.571    0.000    6.286    0.000    0.000    0.000 
#    0.000    0.000    0.000    0.000    0.000    0.000 
#
# Total GULP energy -347037.685844 kJ/mol
# GULP energy per Si atom -12394.203066 kJ/mol
# Density = 2.099650 g / cm^3
# Si number density = 21.044395 Si / 1000 Ang^3
#
#
#
# Elastic Constant Matrix: (Units=GPa)
#
#
# Indices 1 2 3 4 5 6 
#
# 1 137.3477 63.2165 34.9053 0.0000 0.2285 0.0000
# 2 63.2165 88.1439 27.7127 0.0000 -7.2658 0.0000
# 3 34.9053 27.7127 91.2265 0.0000 -12.4529 0.0000
# 4 0.0000 0.0000 0.0000 -124.2748 0.0000 -21.5635
# 5 0.2285 -7.2658 -12.4529 0.0000 31.4822 0.0000
# 6 0.0000 0.0000 0.0000 -21.5635 0.0000 31.6610
#
#
#
# Elastic Compliance Matrix: (Units=1/GPa)
#
#
# Indices 1 2 3 4 5 6 
#
# 1 0.011432 -0.007667 -0.002429 0.000000 -0.002813 0.000000
# 2 -0.007667 0.017750 -0.002000 0.000000 0.003361 0.000000
# 3 -0.002429 -0.002000 0.013148 0.000000 0.004757 0.000000
# 4 0.000000 0.000000 0.000000 -0.007196 0.000000 -0.004901
# 5 -0.002813 0.003361 0.004757 0.000000 0.034442 0.000000
# 6 0.000000 0.000000 0.000000 -0.004901 0.000000 0.028247
#
#
# Mechanical properties :
#
#
# Convention : Reuss Voigt Hill
#
# Bulk Modulus (GPa) = 55.13267 63.15411 59.14339
# Shear Modulus (GPa) = 39.04485 0.49925 19.77205
#
# Velocity S-wave (km/s) = 4.31206 0.48760 3.06852
# Velocity P-wave (km/s) = 7.14471 5.51290 6.38118
#
# Compressibility (1/GPa) = 0.01813807
#
# Stress axis : x y z
#
# Youngs Moduli (GPa) = 87.47690 56.33956 76.05797
#
# Poissons Ratio (x) = 0.43195 0.18474
# Poissons Ratio (y) = 0.67068 0.15208
# Poissons Ratio (z) = 0.21248 0.11266
#
# Static dielectric constant tensor:
#      x y z
#    x 3.931410 0.000000 0.110790 
#    y 0.000000 3.493770 0.000000 
#    z 0.110790 0.000000 3.829780 
# 
# 
# High freq. dielectric constant tensor:
#      x y z
#    x 1.835260 0.000000 0.006230 
#    y 0.000000 1.807320 0.000000 
#    z 0.006230 0.000000 1.831140 
# 
# From -- ./inp_files/193834.got.cif
#   From: 2010.06.25/outbox.cif.g09.slc.cpg/sg15_97_cif.got.tgz:193834.got - 2010.06.28 07:06:18.
