data_PCOD8147188
_publ_section_title
;
Structure prediction by ZEFSAII (Michael W. Deem and Ramdas Pophale) SiO2 
 PCOD8147188
Probable space group: C 2/C
;
_chemical_formula_sum "Si O2"
_cell_formula_units_Z 60
_cell_length_a 15.151123
_cell_length_b 9.552606
_cell_length_c 20.381906
_cell_angle_alpha 90.000000
_cell_angle_beta 97.643176
_cell_angle_gamma 90.000000
_cell_volume 2923.720101
_symmetry_space_group_name_H-M "C 2/C"
_symmetry_group_IT_number 15
_symmetry_cell_setting 'monoclinic'
loop_
_space_group_symop_operation_xyz
x,y,z
-x,y,1/2-z
-x,-y,-z
x,-y,1/2+z
1/2+x,1/2+y,z
1/2-x,1/2+y,1/2-z
1/2-x,1/2-y,-z
1/2+x,1/2-y,1/2+z
loop_
_atom_site_type_symbol
_atom_site_label
_atom_site_fract_x
_atom_site_fract_y
_atom_site_fract_z
Si Si1 0.644520 0.635295 0.732256
Si Si2 0.152774 0.750405 0.460796
Si Si3 0.272800 0.544397 0.626703
Si Si4 0.204821 0.261122 0.333771
Si Si5 0.000000 0.361111 0.750000
Si Si6 0.076195 0.511730 0.880541
Si Si7 0.081592 0.670316 0.582574
Si Si8 0.081537 0.837689 0.713867
O O1 0.710620 0.596865 0.798019
O O2 0.700691 0.666868 0.671985
O O3 0.586462 0.769972 0.743457
O O4 0.580510 0.505718 0.709029
O O5 0.250000 0.750000 0.500000
O O6 0.151183 0.884638 0.412279
O O7 0.134810 0.611250 0.417015
O O8 0.082149 0.756846 0.513835
O O9 0.284466 0.377798 0.621210
O O10 0.172461 0.581538 0.596145
O O11 0.143089 0.365599 0.367610
O O12 0.169259 0.219709 0.257991
O O13 0.020059 0.461006 0.812742
O O14 0.003866 0.568349 0.925654
O O15 0.072885 0.780110 0.640255
O O16 0.000000 0.785462 0.750000
#
# Coordination Sequence:
#
# PCOD8147188 Si02
#       8
#     8   8   8   8   4   8   8   8
#     4  11  23  37  63  95 135 165 204 270 337 383
#     4  10  24  43  68  89 131 184 220 261 317 398
#     4  10  22  43  62  94 131 169 218 260 325 388
#     4  11  24  37  66  96 128 162 209 278 324 382
#     4  12  24  38  66  98 132 164 214 274 330 388
#     4  12  24  41  67 100 127 168 224 269 329 384
#     4  11  22  42  67  92 129 176 218 265 322 391
#     4  11  21  39  62  97 129 161 211 270 327 375
#
# _framework density 20.521799999999999
#
# number of rings (size 3 to 8) (size 9 to 14) (size 15 to 20)
#    0.000    1.067    4.667    2.000    7.467    0.000 
#    0.000    3.333    2.933    0.000    0.000    0.000 
#    0.000    0.000    0.000    0.000    0.000    0.000 
#
# Total GULP energy -372021.422996 kJ/mol
# GULP energy per Si atom -12400.714100 kJ/mol
# Density = 2.047509 g / cm^3
# Si number density = 20.521800 Si / 1000 Ang^3
#
#
#
# Elastic Constant Matrix: (Units=GPa)
#
#
# Indices 1 2 3 4 5 6 
#
# 1 90.2546 29.3647 25.3593 0.0000 -20.3042 0.0000
# 2 29.3647 92.7670 50.2436 0.0000 -15.2610 0.0000
# 3 25.3593 50.2436 98.2793 0.0000 -21.6162 0.0000
# 4 0.0000 0.0000 0.0000 18.8360 0.0000 -4.1136
# 5 -20.3042 -15.2610 -21.6162 0.0000 32.8350 0.0000
# 6 0.0000 0.0000 0.0000 -4.1136 0.0000 33.7198
#
#
#
# Elastic Compliance Matrix: (Units=1/GPa)
#
#
# Indices 1 2 3 4 5 6 
#
# 1 0.013707 -0.002927 -0.000556 0.000000 0.006749 0.000000
# 2 -0.002927 0.015674 -0.007079 0.000000 0.000815 0.000000
# 3 -0.000556 -0.007079 0.015363 0.000000 0.006480 0.000000
# 4 0.000000 0.000000 0.000000 0.054543 0.000000 0.006654
# 5 0.006749 0.000815 0.006480 0.000000 0.039274 0.000000
# 6 0.000000 0.000000 0.000000 0.006654 0.000000 0.030468
#
#
# Mechanical properties :
#
#
# Convention : Reuss Voigt Hill
#
# Bulk Modulus (GPa) = 42.33695 54.58176 48.45936
# Shear Modulus (GPa) = 25.24937 28.83372 27.04154
#
# Velocity S-wave (km/s) = 3.51147 3.75244 3.63395
# Velocity P-wave (km/s) = 6.09225 6.74011 6.42435
#
# Compressibility (1/GPa) = 0.02362003
#
# Stress axis : x y z
#
# Youngs Moduli (GPa) = 72.95682 63.79892 65.09346
#
# Poissons Ratio (x) = 0.18677 0.03617
# Poissons Ratio (y) = 0.21358 0.46077
# Poissons Ratio (z) = 0.04054 0.45161
#
# Static dielectric constant tensor:
#      x y z
#    x 3.792490 0.000000 -0.168720 
#    y 0.000000 3.853500 0.000000 
#    z -0.168720 0.000000 3.888550 
# 
# 
# High freq. dielectric constant tensor:
#      x y z
#    x 1.804260 0.000000 -0.011530 
#    y 0.000000 1.808970 0.000000 
#    z -0.011530 0.000000 1.793010 
# 
# From -- ./inp_files/272762.got.cif
#   From: 2010.06.25/outbox.cif.g09.slc.cpg/sg15_137_cif.got.tgz:272762.got - 2010.06.28 07:06:18.
