data_PCOD8147407
_publ_section_title
;
Structure prediction by ZEFSAII (Michael W. Deem and Ramdas Pophale) SiO2 
 PCOD8147407
Probable space group: C 2/C
;
_chemical_formula_sum "Si O2"
_cell_formula_units_Z 28
_cell_length_a 15.060164
_cell_length_b 17.716008
_cell_length_c 8.043225
_cell_angle_alpha 90.000000
_cell_angle_beta 143.968239
_cell_angle_gamma 90.000000
_cell_volume 1262.337939
_symmetry_space_group_name_H-M "C 2/C"
_symmetry_group_IT_number 15
_symmetry_cell_setting 'monoclinic'
loop_
_space_group_symop_operation_xyz
x,y,z
-x,y,1/2-z
-x,-y,-z
x,-y,1/2+z
1/2+x,1/2+y,z
1/2-x,1/2+y,1/2-z
1/2-x,1/2-y,-z
1/2+x,1/2-y,1/2+z
loop_
_atom_site_type_symbol
_atom_site_label
_atom_site_fract_x
_atom_site_fract_y
_atom_site_fract_z
Si Si1 0.662988 0.929624 0.024232
Si Si2 0.597575 0.706985 0.230297
Si Si3 0.652591 0.454746 0.889340
Si Si4 0.000000 0.714156 0.250000
O O1 0.500000 0.970695 0.750000
O O2 0.646273 0.841328 0.945140
O O3 0.707073 0.931541 0.282952
O O4 0.798816 0.971230 0.136941
O O5 0.500000 0.714752 0.250000
O O6 0.750000 0.750000 0.500000
O O7 0.625063 0.618454 0.232122
O O8 0.514481 0.737647 0.939864
O O9 0.500000 0.478708 0.750000
#
# Coordination Sequence:
#
# PCOD8147407 Si02
#       4
#     8   8   8   4
#     4  10  22  43  71 100 131 184 236 277 343 422
#     4  11  24  46  70 101 144 182 232 290 348 414
#     4  11  23  43  66 105 142 171 229 297 350 403
#     4  10  24  46  76 100 136 188 244 274 346 422
#
# _framework density 22.181063999999999
#
# number of rings (size 3 to 8) (size 9 to 14) (size 15 to 20)
#    0.857    0.571    2.857    1.714    0.000    4.571 
#   12.857    0.000    0.000    0.000    0.000    0.000 
#    0.000    0.000    0.000    0.000    0.000    0.000 
#
# Total GULP energy -173473.494643 kJ/mol
# GULP energy per Si atom -12390.963903 kJ/mol
# Density = 2.213058 g / cm^3
# Si number density = 22.181064 Si / 1000 Ang^3
#
#
#
# Elastic Constant Matrix: (Units=GPa)
#
#
# Indices 1 2 3 4 5 6 
#
# 1 96.5056 73.9792 45.7131 0.0000 -7.3408 0.0000
# 2 73.9792 143.7061 54.5704 0.0000 -13.5070 0.0000
# 3 45.7131 54.5704 112.2229 0.0000 -28.1783 0.0000
# 4 0.0000 0.0000 0.0000 40.8976 0.0000 9.6349
# 5 -7.3408 -13.5070 -28.1783 0.0000 47.0801 0.0000
# 6 0.0000 0.0000 0.0000 9.6349 0.0000 77.9904
#
#
#
# Elastic Compliance Matrix: (Units=1/GPa)
#
#
# Indices 1 2 3 4 5 6 
#
# 1 0.018309 -0.008083 -0.003993 0.000000 -0.001854 0.000000
# 2 -0.008083 0.012103 -0.002398 0.000000 0.000777 0.000000
# 3 -0.003993 -0.002398 0.013386 0.000000 0.006701 0.000000
# 4 0.000000 0.000000 0.000000 0.025184 0.000000 -0.003111
# 5 -0.001854 0.000777 0.006701 0.000000 0.025185 0.000000
# 6 0.000000 0.000000 0.000000 -0.003111 0.000000 0.013206
#
#
# Mechanical properties :
#
#
# Convention : Reuss Voigt Hill
#
# Bulk Modulus (GPa) = 67.33870 77.88444 72.61157
# Shear Modulus (GPa) = 35.39266 45.07175 40.23221
#
# Velocity S-wave (km/s) = 3.99886 4.51265 4.26350
# Velocity P-wave (km/s) = 7.19345 7.89565 7.55272
#
# Compressibility (1/GPa) = 0.01485030
#
# Stress axis : x y z
#
# Youngs Moduli (GPa) = 54.61804 82.62086 74.70557
#
# Poissons Ratio (x) = 0.66786 0.29829
# Poissons Ratio (y) = 0.44150 0.17913
# Poissons Ratio (z) = 0.21808 0.19810
#
# Static dielectric constant tensor:
#      x y z
#    x 3.780740 0.000000 0.329020 
#    y 0.000000 4.082750 0.000000 
#    z 0.329020 0.000000 9.289240 
# 
# 
# High freq. dielectric constant tensor:
#      x y z
#    x 1.845810 0.000000 0.000560 
#    y 0.000000 1.875850 0.000000 
#    z 0.000560 0.000000 1.903260 
# 
# From -- ./inp_files/41140.got.cif
#   From: 2010.06.25/outbox.cif.g09.slc.cpg/sg15_21_cif.got.tgz:41140.got - 2010.06.28 07:06:18.
