data_PCOD8147120
_publ_section_title
;
Structure prediction by ZEFSAII (Michael W. Deem and Ramdas Pophale) SiO2 
 PCOD8147120
Probable space group: C 2/C
;
_chemical_formula_sum "Si O2"
_cell_formula_units_Z 64
_cell_length_a 8.769599
_cell_length_b 25.906452
_cell_length_c 14.056498
_cell_angle_alpha 90.000000
_cell_angle_beta 113.303511
_cell_angle_gamma 90.000000
_cell_volume 2932.966847
_symmetry_space_group_name_H-M "C 2/C"
_symmetry_group_IT_number 15
_symmetry_cell_setting 'monoclinic'
loop_
_space_group_symop_operation_xyz
x,y,z
-x,y,1/2-z
-x,-y,-z
x,-y,1/2+z
1/2+x,1/2+y,z
1/2-x,1/2+y,1/2-z
1/2-x,1/2-y,-z
1/2+x,1/2-y,1/2+z
loop_
_atom_site_type_symbol
_atom_site_label
_atom_site_fract_x
_atom_site_fract_y
_atom_site_fract_z
Si Si1 0.423094 0.530372 0.569697
Si Si2 0.329049 0.625120 0.261495
Si Si3 0.232476 0.095829 0.698659
Si Si4 0.526608 0.308020 0.144786
Si Si5 0.453877 0.806489 0.847453
Si Si6 0.493742 0.062557 0.607898
Si Si7 0.667431 0.038240 0.116685
Si Si8 0.769137 0.131196 0.463665
O O1 0.500000 0.500000 0.500000
O O2 0.568636 0.559941 0.664024
O O3 0.329868 0.489722 0.613339
O O4 0.284830 0.572082 0.502092
O O5 0.500000 0.620511 0.250000
O O6 0.231783 0.672217 0.188245
O O7 0.224622 0.572773 0.219260
O O8 0.349795 0.634119 0.378480
O O9 0.184892 0.154998 0.663561
O O10 0.348821 0.074779 0.645047
O O11 0.335772 0.093590 0.824083
O O12 0.500000 0.307062 0.250000
O O13 0.549576 0.250576 0.106880
O O14 0.366285 0.330267 0.055067
O O15 0.500000 0.799896 0.750000
O O16 0.581133 0.848059 0.923515
O O17 0.423906 0.074131 0.485337
O O18 0.534023 0.001728 0.625398
#
# Coordination Sequence:
#
# PCOD8147120 Si02
#       8
#     8   8   8   8   8   8   8   8
#     4  11  22  38  60  93 128 169 214 263 321 380
#     4  11  25  42  64  95 134 174 217 268 328 395
#     4  10  23  40  61  88 127 159 214 271 326 380
#     4  10  22  42  71  97 124 167 222 285 338 392
#     4   9  21  44  68  94 126 168 227 275 332 394
#     4  10  24  41  57  92 129 168 214 257 317 395
#     4  11  25  39  62  90 131 175 219 254 321 397
#     4  10  23  41  68  97 128 169 222 275 325 396
#
# _framework density 21.820909
#
# number of rings (size 3 to 8) (size 9 to 14) (size 15 to 20)
#    0.000    1.750    1.250    1.125   12.250    0.000 
#    4.500    0.625    0.000    0.000    0.000    0.000 
#    0.000    0.000    0.000    0.000    0.000    0.000 
#
# Total GULP energy -396712.703164 kJ/mol
# GULP energy per Si atom -12397.271974 kJ/mol
# Density = 2.177124 g / cm^3
# Si number density = 21.820909 Si / 1000 Ang^3
#
#
#
# Elastic Constant Matrix: (Units=GPa)
#
#
# Indices 1 2 3 4 5 6 
#
# 1 67.8605 27.8024 25.2872 0.0000 10.8527 0.0000
# 2 27.8024 115.3576 28.1460 0.0000 5.1083 0.0000
# 3 25.2872 28.1460 88.6161 0.0000 19.3380 0.0000
# 4 0.0000 0.0000 0.0000 23.7327 0.0000 2.9638
# 5 10.8527 5.1083 19.3380 0.0000 32.3162 0.0000
# 6 0.0000 0.0000 0.0000 2.9638 0.0000 24.8431
#
#
#
# Elastic Compliance Matrix: (Units=1/GPa)
#
#
# Indices 1 2 3 4 5 6 
#
# 1 0.017894 -0.003359 -0.003271 0.000000 -0.003521 0.000000
# 2 -0.003359 0.010031 -0.002447 0.000000 0.001007 0.000000
# 3 -0.003271 -0.002447 0.014574 0.000000 -0.007236 0.000000
# 4 0.000000 0.000000 0.000000 0.042773 0.000000 -0.005103
# 5 -0.003521 0.001007 -0.007236 0.000000 0.036298 0.000000
# 6 0.000000 0.000000 0.000000 -0.005103 0.000000 0.040861
#
#
# Mechanical properties :
#
#
# Convention : Reuss Voigt Hill
#
# Bulk Modulus (GPa) = 41.07557 48.25614 44.66585
# Shear Modulus (GPa) = 26.49702 28.88497 27.69100
#
# Velocity S-wave (km/s) = 3.48845 3.64226 3.56618
# Velocity P-wave (km/s) = 5.92373 6.31274 6.12133
#
# Compressibility (1/GPa) = 0.02434537
#
# Stress axis : x y z
#
# Youngs Moduli (GPa) = 55.88410 99.69419 68.61359
#
# Poissons Ratio (x) = 0.33484 0.22444
# Poissons Ratio (y) = 0.18770 0.16791
# Poissons Ratio (z) = 0.18280 0.24397
#
# Static dielectric constant tensor:
#      x y z
#    x 3.873230 0.000000 0.357900 
#    y 0.000000 4.221070 0.000000 
#    z 0.357900 0.000000 4.268050 
# 
# 
# High freq. dielectric constant tensor:
#      x y z
#    x 1.853670 0.000000 0.017770 
#    y 0.000000 1.853240 0.000000 
#    z 0.017770 0.000000 1.865810 
# 
# From -- ./inp_files/138677.got.cif
#   From: 2010.06.25/outbox.cif.g09.slc.cpg/sg15_70_cif.got.tgz:138677.got - 2010.06.28 07:06:18.
