data_PCOD8147979
_publ_section_title
;
Structure prediction by ZEFSAII (Michael W. Deem and Ramdas Pophale) SiO2 
 PCOD8147979
Probable space group: C 2/C
;
_chemical_formula_sum "Si O2"
_cell_formula_units_Z 40
_cell_length_a 28.303136
_cell_length_b 5.605774
_cell_length_c 10.074363
_cell_angle_alpha 90.000000
_cell_angle_beta 78.331860
_cell_angle_gamma 90.000000
_cell_volume 1565.377911
_symmetry_space_group_name_H-M "C 2/C"
_symmetry_group_IT_number 15
_symmetry_cell_setting 'monoclinic'
loop_
_space_group_symop_operation_xyz
x,y,z
-x,y,1/2-z
-x,-y,-z
x,-y,1/2+z
1/2+x,1/2+y,z
1/2-x,1/2+y,1/2-z
1/2-x,1/2-y,-z
1/2+x,1/2-y,1/2+z
loop_
_atom_site_type_symbol
_atom_site_label
_atom_site_fract_x
_atom_site_fract_y
_atom_site_fract_z
Si Si1 0.556040 0.762396 0.424045
Si Si2 0.966160 0.238809 0.644814
Si Si3 0.718365 0.092797 0.420201
Si Si4 0.814297 0.043234 0.748589
Si Si5 0.351915 0.276217 0.484603
O O1 0.499803 0.752589 0.494851
O O2 0.567066 0.503758 0.345484
O O3 0.591237 0.781720 0.533328
O O4 0.563770 0.008129 0.333107
O O5 0.000000 0.211114 0.750000
O O6 0.750000 0.250000 0.500000
O O7 0.679619 0.225913 0.348354
O O8 0.756912 0.952827 0.308552
O O9 0.684159 0.936695 0.536124
O O10 0.833326 0.831048 0.644832
O O11 0.845131 0.036247 0.868308
#
# Coordination Sequence:
#
# PCOD8147979 Si02
#       5
#     8   8   8   8   8
#     4  10  25  43  69 106 138 181 239 291 359 440
#     4  10  22  47  71 100 142 184 225 296 373 429
#     4  12  24  45  68  98 143 188 241 293 366 423
#     4  12  25  45  66 100 141 184 236 299 359 423
#     4  12  28  42  71 106 135 192 241 299 358 432
#
# _framework density 25.552932999999999
#
# number of rings (size 3 to 8) (size 9 to 14) (size 15 to 20)
#    0.000    0.800    4.000    2.400    5.600    0.000 
#    0.000    0.000    0.000    0.000    0.000    0.000 
#    0.000    0.000    0.000    0.000    0.000    0.000 
#
# Total GULP energy -247764.699286 kJ/mol
# GULP energy per Si atom -12388.234964 kJ/mol
# Density = 2.549477 g / cm^3
# Si number density = 25.552933 Si / 1000 Ang^3
#
#
#
# Elastic Constant Matrix: (Units=GPa)
#
#
# Indices 1 2 3 4 5 6 
#
# 1 89.8524 27.7339 14.9468 0.0000 23.9997 0.0000
# 2 27.7339 175.0808 33.2265 0.0000 23.9322 0.0000
# 3 14.9468 33.2265 104.2300 0.0000 31.3963 0.0000
# 4 0.0000 0.0000 0.0000 34.4871 0.0000 16.5846
# 5 23.9997 23.9322 31.3963 0.0000 46.9005 0.0000
# 6 0.0000 0.0000 0.0000 16.5846 0.0000 30.9678
#
#
#
# Elastic Compliance Matrix: (Units=1/GPa)
#
#
# Indices 1 2 3 4 5 6 
#
# 1 0.013157 -0.001298 0.000445 0.000000 -0.006368 0.000000
# 2 -0.001298 0.006405 -0.001342 0.000000 -0.001706 0.000000
# 3 0.000445 -0.001342 0.012301 0.000000 -0.007778 0.000000
# 4 0.000000 0.000000 0.000000 0.039054 0.000000 -0.020915
# 5 -0.006368 -0.001706 -0.007778 0.000000 0.030657 0.000000
# 6 0.000000 0.000000 0.000000 -0.020915 0.000000 0.043493
#
#
# Mechanical properties :
#
#
# Convention : Reuss Voigt Hill
#
# Bulk Modulus (GPa) = 36.39852 57.88639 47.14245
# Shear Modulus (GPa) = 31.52297 42.02149 36.77223
#
# Velocity S-wave (km/s) = 3.51612 4.05963 3.79761
# Velocity P-wave (km/s) = 5.54612 6.68407 6.14151
#
# Compressibility (1/GPa) = 0.02747365
#
# Stress axis : x y z
#
# Youngs Moduli (GPa) = 76.00547 156.12535 81.29522
#
# Poissons Ratio (x) = 0.20268 -0.03621
# Poissons Ratio (y) = 0.09867 0.10908
# Poissons Ratio (z) = -0.03385 0.20949
#
# Static dielectric constant tensor:
#      x y z
#    x 4.662260 0.000000 -0.240250 
#    y 0.000000 4.927120 0.000000 
#    z -0.240250 0.000000 4.557870 
# 
# 
# High freq. dielectric constant tensor:
#      x y z
#    x 2.011480 0.000000 0.010640 
#    y 0.000000 2.023530 0.000000 
#    z 0.010640 0.000000 2.012390 
# 
# From -- ./inp_files/120888.got.cif
#   From: 2010.06.25/outbox.cif.g09.slc.cpg/sg15_61_cif.got.tgz:120888.got - 2010.06.28 07:06:18.
