data_PCOD8147983
_publ_section_title
;
Structure prediction by ZEFSAII (Michael W. Deem and Ramdas Pophale) SiO2 
 PCOD8147983
Probable space group: C 2/C
;
_chemical_formula_sum "Si O2"
_cell_formula_units_Z 64
_cell_length_a 24.763266
_cell_length_b 8.706561
_cell_length_c 13.768723
_cell_angle_alpha 90.000000
_cell_angle_beta 85.964420
_cell_angle_gamma 90.000000
_cell_volume 2961.215949
_symmetry_space_group_name_H-M "C 2/C"
_symmetry_group_IT_number 15
_symmetry_cell_setting 'monoclinic'
loop_
_space_group_symop_operation_xyz
x,y,z
-x,y,1/2-z
-x,-y,-z
x,-y,1/2+z
1/2+x,1/2+y,z
1/2-x,1/2+y,1/2-z
1/2-x,1/2-y,-z
1/2+x,1/2-y,1/2+z
loop_
_atom_site_type_symbol
_atom_site_label
_atom_site_fract_x
_atom_site_fract_y
_atom_site_fract_z
Si Si1 0.388140 0.281710 0.129383
Si Si2 0.720915 0.899102 0.051270
Si Si3 0.493755 0.463451 0.137963
Si Si4 0.368266 0.044302 0.577338
Si Si5 0.431742 0.318980 0.517481
Si Si6 0.205212 0.286178 0.265999
Si Si7 0.686624 0.551464 0.712500
Si Si8 0.667776 0.491702 0.496104
O O1 0.449053 0.338748 0.116599
O O2 0.359639 0.355260 0.226389
O O3 0.354298 0.324094 0.035627
O O4 0.391699 0.098961 0.134216
O O5 0.697844 0.854584 0.158720
O O6 0.771332 0.019290 0.051718
O O7 0.750000 0.750000 0.000000
O O8 0.674799 0.985535 0.996314
O O9 0.500000 0.495479 0.250000
O O10 0.476600 0.626323 0.091010
O O11 0.548914 0.388425 0.088664
O O12 0.419433 0.135672 0.521472
O O13 0.342684 0.152423 0.661797
O O14 0.372223 0.386790 0.549259
O O15 0.262153 0.337341 0.304447
O O16 0.203647 0.102113 0.266773
O O17 0.663758 0.503154 0.611737
#
# Coordination Sequence:
#
# PCOD8147983 Si02
#       8
#     8   8   8   8   8   8   8   8
#     4  11  23  42  67  92 129 169 218 274 335 393
#     4  12  21  41  60  91 139 185 215 265 326 391
#     4  10  22  47  73  95 127 170 226 287 346 399
#     4  12  25  42  61 100 139 172 219 273 327 406
#     4  10  25  43  68 101 128 169 228 284 336 398
#     4  12  23  35  59  89 132 178 224 260 320 392
#     4  12  22  37  60  91 128 176 220 268 320 386
#     4  11  21  41  62  89 127 177 220 260 319 392
#
# _framework density 21.612742999999998
#
# number of rings (size 3 to 8) (size 9 to 14) (size 15 to 20)
#    0.000    0.750    5.000    3.000    0.000    4.000 
#    0.000    0.625    0.000    0.000    0.000    0.000 
#    0.000    0.000    0.000    0.000    0.000    0.000 
#
# Total GULP energy -396677.831378 kJ/mol
# GULP energy per Si atom -12396.182231 kJ/mol
# Density = 2.156355 g / cm^3
# Si number density = 21.612743 Si / 1000 Ang^3
#
#
#
# Elastic Constant Matrix: (Units=GPa)
#
#
# Indices 1 2 3 4 5 6 
#
# 1 82.0901 39.3678 21.9046 0.0000 0.1094 0.0000
# 2 39.3678 115.2988 28.5628 0.0000 -8.0949 0.0000
# 3 21.9046 28.5628 126.3859 0.0000 -0.0765 0.0000
# 4 0.0000 0.0000 0.0000 21.7052 0.0000 -10.8052
# 5 0.1094 -8.0949 -0.0765 0.0000 25.2696 0.0000
# 6 0.0000 0.0000 0.0000 -10.8052 0.0000 34.5095
#
#
#
# Elastic Compliance Matrix: (Units=1/GPa)
#
#
# Indices 1 2 3 4 5 6 
#
# 1 0.014899 -0.004831 -0.001491 0.000000 -0.001617 0.000000
# 2 -0.004831 0.010977 -0.001641 0.000000 0.003532 0.000000
# 3 -0.001491 -0.001641 0.008541 0.000000 -0.000493 0.000000
# 4 0.000000 0.000000 0.000000 0.054579 0.000000 0.017089
# 5 -0.001617 0.003532 -0.000493 0.000000 0.040710 0.000000
# 6 0.000000 0.000000 0.000000 0.017089 0.000000 0.034328
#
#
# Mechanical properties :
#
#
# Convention : Reuss Voigt Hill
#
# Bulk Modulus (GPa) = 54.08410 55.93836 55.01123
# Shear Modulus (GPa) = 26.86350 31.89283 29.37816
#
# Velocity S-wave (km/s) = 3.52937 3.84559 3.69087
# Velocity P-wave (km/s) = 6.45656 6.75695 6.60846
#
# Compressibility (1/GPa) = 0.01848972
#
# Stress axis : x y z
#
# Youngs Moduli (GPa) = 67.12008 91.09726 117.07687
#
# Poissons Ratio (x) = 0.44010 0.17460
# Poissons Ratio (y) = 0.32426 0.19217
# Poissons Ratio (z) = 0.10010 0.14953
#
# Static dielectric constant tensor:
#      x y z
#    x 4.018230 0.000000 -0.040660 
#    y 0.000000 4.037500 0.000000 
#    z -0.040660 0.000000 3.925760 
# 
# 
# High freq. dielectric constant tensor:
#      x y z
#    x 1.843860 0.000000 -0.002890 
#    y 0.000000 1.845850 0.000000 
#    z -0.002890 0.000000 1.854780 
# 
# From -- ./inp_files/172391.got.cif
#   From: 2010.06.25/outbox.cif.g09.slc.cpg/sg15_87_cif.got.tgz:172391.got - 2010.06.28 07:06:18.
