data_PCOD8147616
_publ_section_title
;
Structure prediction by ZEFSAII (Michael W. Deem and Ramdas Pophale) SiO2 
 PCOD8147616
Probable space group: C 2/C
;
_chemical_formula_sum "Si O2"
_cell_formula_units_Z 28
_cell_length_a 23.460977
_cell_length_b 6.886982
_cell_length_c 15.814361
_cell_angle_alpha 90.000000
_cell_angle_beta 28.743310
_cell_angle_gamma 90.000000
_cell_volume 1228.765989
_symmetry_space_group_name_H-M "C 2/C"
_symmetry_group_IT_number 15
_symmetry_cell_setting 'monoclinic'
loop_
_space_group_symop_operation_xyz
x,y,z
-x,y,1/2-z
-x,-y,-z
x,-y,1/2+z
1/2+x,1/2+y,z
1/2-x,1/2+y,1/2-z
1/2-x,1/2-y,-z
1/2+x,1/2-y,1/2+z
loop_
_atom_site_type_symbol
_atom_site_label
_atom_site_fract_x
_atom_site_fract_y
_atom_site_fract_z
Si Si1 0.888069 0.547176 0.444311
Si Si2 0.050361 0.298762 0.465230
Si Si3 0.867083 0.997694 0.771825
Si Si4 0.000000 0.822651 0.750000
O O1 0.868059 0.657162 0.558969
O O2 0.769242 0.566097 0.543050
O O3 0.919821 0.316920 0.414890
O O4 0.000000 0.646775 0.250000
O O5 0.129669 0.196564 0.290411
O O6 0.000000 0.500000 0.500000
O O7 0.939672 0.165620 0.632513
O O8 0.915988 0.956034 0.801775
#
# Coordination Sequence:
#
# PCOD8147616 Si02
#       4
#     8   8   8   4
#     4  10  24  44  69 103 138 179 228 289 338 414
#     4  11  24  45  65 104 135 184 236 278 345 406
#     4  11  25  44  72  97 143 185 224 290 346 406
#     4  10  22  44  68 104 136 180 234 274 344 412
#
# _framework density 22.787088000000001
#
# number of rings (size 3 to 8) (size 9 to 14) (size 15 to 20)
#    0.857    0.571    2.857    0.857    6.000    1.143 
#    0.000    0.000    0.000    0.000    0.000    0.000 
#    0.000    0.000    0.000    0.000    0.000    0.000 
#
# Total GULP energy -173568.761537 kJ/mol
# GULP energy per Si atom -12397.768681 kJ/mol
# Density = 2.273522 g / cm^3
# Si number density = 22.787088 Si / 1000 Ang^3
#
#
#
# Elastic Constant Matrix: (Units=GPa)
#
#
# Indices 1 2 3 4 5 6 
#
# 1 189.7268 40.0845 58.1414 0.0020 -14.4829 0.0000
# 2 40.0845 94.5065 18.5017 0.0234 1.9190 -0.0021
# 3 58.1414 18.5017 94.6668 0.0224 -21.2119 0.0035
# 4 0.0020 0.0234 0.0224 13.2316 -0.0045 6.3186
# 5 -14.4829 1.9190 -21.2119 -0.0045 43.2489 -0.0017
# 6 0.0000 -0.0021 0.0035 6.3186 -0.0017 42.6306
#
#
#
# Elastic Compliance Matrix: (Units=1/GPa)
#
#
# Indices 1 2 3 4 5 6 
#
# 1 0.006914 -0.002226 -0.003674 0.000010 0.000612 -0.000001
# 2 -0.002226 0.011836 -0.001383 -0.000021 -0.001949 0.000004
# 3 -0.003674 -0.001383 0.014412 -0.000020 0.005900 0.000002
# 4 0.000010 -0.000021 -0.000020 0.081333 0.000002 -0.012055
# 5 0.000612 -0.001949 0.005900 0.000002 0.026307 0.000000
# 6 -0.000001 0.000004 0.000002 -0.012055 0.000000 0.025244
#
#
# Mechanical properties :
#
#
# Convention : Reuss Voigt Hill
#
# Bulk Modulus (GPa) = 53.77447 68.03948 60.90697
# Shear Modulus (GPa) = 26.76528 37.30040 32.03284
#
# Velocity S-wave (km/s) = 3.43093 4.05026 3.75339
# Velocity P-wave (km/s) = 6.27256 7.19697 6.75061
#
# Compressibility (1/GPa) = 0.01859619
#
# Stress axis : x y z
#
# Youngs Moduli (GPa) = 144.64380 84.49135 69.38644
#
# Poissons Ratio (x) = 0.18804 0.25493
# Poissons Ratio (y) = 0.32190 0.09596
# Poissons Ratio (z) = 0.53142 0.11685
#
# Static dielectric constant tensor:
#      x y z
#    x 4.316710 -0.000140 0.082920 
#    y -0.000140 4.162270 -0.000060 
#    z 0.082920 -0.000060 3.860210 
# 
# 
# High freq. dielectric constant tensor:
#      x y z
#    x 1.905110 0.000000 -0.002640 
#    y 0.000000 1.905190 0.000000 
#    z -0.002640 0.000000 1.874700 
# 
# From -- ./inp_files/115850.got.cif
#   From: 2010.06.25/outbox.cif.g09.slc.cpg/sg15_58_cif.got.tgz:115850.got - 2010.06.28 07:06:18.
