data_PCOD8147760
_publ_section_title
;
Structure prediction by ZEFSAII (Michael W. Deem and Ramdas Pophale) SiO2 
 PCOD8147760
Probable space group: C 2/C
;
_chemical_formula_sum "Si O2"
_cell_formula_units_Z 60
_cell_length_a 11.391483
_cell_length_b 18.725132
_cell_length_c 13.841246
_cell_angle_alpha 90.000000
_cell_angle_beta 109.861412
_cell_angle_gamma 90.000000
_cell_volume 2776.815745
_symmetry_space_group_name_H-M "C 2/C"
_symmetry_group_IT_number 15
_symmetry_cell_setting 'monoclinic'
loop_
_space_group_symop_operation_xyz
x,y,z
-x,y,1/2-z
-x,-y,-z
x,-y,1/2+z
1/2+x,1/2+y,z
1/2-x,1/2+y,1/2-z
1/2-x,1/2-y,-z
1/2+x,1/2-y,1/2+z
loop_
_atom_site_type_symbol
_atom_site_label
_atom_site_fract_x
_atom_site_fract_y
_atom_site_fract_z
Si Si1 0.472397 0.109539 0.452104
Si Si2 0.628964 0.486962 0.590497
Si Si3 0.798156 0.488256 0.459948
Si Si4 0.938481 0.841146 0.834398
Si Si5 0.288279 0.737521 0.743296
Si Si6 0.640572 0.587645 0.768724
Si Si7 0.379988 0.256626 0.482753
Si Si8 0.000000 0.333960 0.750000
O O1 0.593730 0.069794 0.525250
O O2 0.459813 0.183639 0.506119
O O3 0.480581 0.117273 0.338680
O O4 0.347571 0.065521 0.442210
O O5 0.500000 0.500000 0.500000
O O6 0.748833 0.488583 0.554921
O O7 0.630524 0.411190 0.645674
O O8 0.653743 0.552418 0.668313
O O9 0.681668 0.469587 0.359764
O O10 0.844177 0.776250 0.786866
O O11 0.000000 0.861769 0.750000
O O12 0.039632 0.817847 0.942687
O O13 0.272853 0.658105 0.696243
O O14 0.354125 0.724667 0.864762
O O15 0.378203 0.784566 0.700157
O O16 0.500000 0.611286 0.750000
O O17 0.250000 0.250000 0.500000
#
# Coordination Sequence:
#
# PCOD8147760 Si02
#       8
#     8   8   8   8   8   8   8   4
#     4  10  25  45  68 100 134 183 225 291 341 420
#     4  12  27  43  71 102 141 182 230 290 351 415
#     4  11  26  45  67  98 138 177 235 276 354 416
#     4  12  26  43  70 104 138 186 235 286 349 419
#     4  11  24  44  69 100 136 179 230 286 351 411
#     4  12  25  44  67 100 139 181 226 289 350 415
#     4  11  24  42  69  98 136 175 231 287 342 408
#     4  10  22  44  74  94 132 178 230 282 344 408
#
# _framework density 21.607483999999999
#
# number of rings (size 3 to 8) (size 9 to 14) (size 15 to 20)
#    0.000    0.800    3.333    2.800    9.333    0.000 
#    0.000    3.333    0.000    0.000    0.000    0.000 
#    0.000    0.000    0.000    0.000    0.000    0.000 
#
# Total GULP energy -372150.268874 kJ/mol
# GULP energy per Si atom -12405.008962 kJ/mol
# Density = 2.155830 g / cm^3
# Si number density = 21.607484 Si / 1000 Ang^3
#
#
#
# Elastic Constant Matrix: (Units=GPa)
#
#
# Indices 1 2 3 4 5 6 
#
# 1 108.8062 34.2361 30.7202 0.0000 -25.9097 0.0000
# 2 34.2361 98.4211 30.7051 0.0000 -15.8493 0.0000
# 3 30.7202 30.7051 88.9246 0.0000 -15.0083 0.0000
# 4 0.0000 0.0000 0.0000 27.4701 0.0000 -0.3039
# 5 -25.9097 -15.8493 -15.0083 0.0000 40.8842 0.0000
# 6 0.0000 0.0000 0.0000 -0.3039 0.0000 42.6878
#
#
#
# Elastic Compliance Matrix: (Units=1/GPa)
#
#
# Indices 1 2 3 4 5 6 
#
# 1 0.012014 -0.002529 -0.002300 0.000000 0.005789 0.000000
# 2 -0.002529 0.012318 -0.003032 0.000000 0.002059 0.000000
# 3 -0.002300 -0.003032 0.013478 0.000000 0.002315 0.000000
# 4 0.000000 0.000000 0.000000 0.036406 0.000000 0.000259
# 5 0.005789 0.002059 0.002315 0.000000 0.029776 0.000000
# 6 0.000000 0.000000 0.000000 0.000259 0.000000 0.023428
#
#
# Mechanical properties :
#
#
# Convention : Reuss Voigt Hill
#
# Bulk Modulus (GPa) = 45.27552 54.16385 49.71968
# Shear Modulus (GPa) = 33.22152 35.57446 34.39799
#
# Velocity S-wave (km/s) = 3.92535 4.06198 3.99425
# Velocity P-wave (km/s) = 6.44543 6.86449 6.65826
#
# Compressibility (1/GPa) = 0.02208699
#
# Stress axis : x y z
#
# Youngs Moduli (GPa) = 83.23284 81.18352 74.19718
#
# Poissons Ratio (x) = 0.20535 0.17066
# Poissons Ratio (y) = 0.21053 0.22496
# Poissons Ratio (z) = 0.19145 0.24614
#
# Static dielectric constant tensor:
#      x y z
#    x 3.953570 0.000000 -0.102910 
#    y 0.000000 3.984590 0.000000 
#    z -0.102910 0.000000 3.858340 
# 
# 
# High freq. dielectric constant tensor:
#      x y z
#    x 1.858850 0.000000 -0.006590 
#    y 0.000000 1.860680 0.000000 
#    z -0.006590 0.000000 1.845760 
# 
# From -- ./inp_files/146125.got.cif
#   From: 2010.06.25/outbox.cif.g09.slc.cpg/sg15_74_cif.got.tgz:146125.got - 2010.06.28 07:06:18.
