data_PCOD8147582
_publ_section_title
;
Structure prediction by ZEFSAII (Michael W. Deem and Ramdas Pophale) SiO2 
 PCOD8147582
Probable space group: C 2/C
;
_chemical_formula_sum "Si O2"
_cell_formula_units_Z 48
_cell_length_a 26.376402
_cell_length_b 10.934547
_cell_length_c 14.878767
_cell_angle_alpha 90.000000
_cell_angle_beta 29.758447
_cell_angle_gamma 90.000000
_cell_volume 2129.935741
_symmetry_space_group_name_H-M "C 2/C"
_symmetry_group_IT_number 15
_symmetry_cell_setting 'monoclinic'
loop_
_space_group_symop_operation_xyz
x,y,z
-x,y,1/2-z
-x,-y,-z
x,-y,1/2+z
1/2+x,1/2+y,z
1/2-x,1/2+y,1/2-z
1/2-x,1/2-y,-z
1/2+x,1/2-y,1/2+z
loop_
_atom_site_type_symbol
_atom_site_label
_atom_site_fract_x
_atom_site_fract_y
_atom_site_fract_z
Si Si1 0.593882 0.947297 0.799384
Si Si2 0.435781 0.770741 0.022507
Si Si3 0.387386 0.324159 0.777310
Si Si4 0.712372 0.982966 0.281500
Si Si5 0.318205 0.893084 0.484177
Si Si6 0.943223 0.006592 0.928798
O O1 0.554091 0.812796 0.829681
O O2 0.688071 0.947658 0.724381
O O3 0.610338 0.013393 0.679167
O O4 0.500000 0.000000 0.000000
O O5 0.425929 0.631677 0.008219
O O6 0.405009 0.779471 0.174783
O O7 0.354309 0.860192 0.098727
O O8 0.362716 0.246306 0.906091
O O9 0.486716 0.409102 0.627927
O O10 0.291395 0.406106 0.895761
O O11 0.688965 0.074817 0.399915
O O12 0.831516 0.946781 0.089738
O O13 0.000000 0.039909 0.750000
#
# Coordination Sequence:
#
# PCOD8147582 Si02
#       6
#     8   8   8   8   8   8
#     4  10  22  44  67 101 139 177 232 292 348 409
#     4  11  25  48  68 102 150 177 236 297 354 420
#     4  11  24  48  70 101 145 182 231 298 348 424
#     4  11  25  46  71 107 137 189 245 288 347 434
#     4  11  23  44  77 101 136 188 238 287 352 423
#     4  12  28  45  69 107 141 188 234 293 362 419
#
# _framework density 22.535892
#
# number of rings (size 3 to 8) (size 9 to 14) (size 15 to 20)
#    0.000    1.000    5.000    1.500    4.667    4.667 
#    0.000    1.667    0.000    0.000    0.000    0.000 
#    0.000    0.000    0.000    0.000    0.000    0.000 
#
# Total GULP energy -297471.126874 kJ/mol
# GULP energy per Si atom -12394.630286 kJ/mol
# Density = 2.248460 g / cm^3
# Si number density = 22.535892 Si / 1000 Ang^3
#
#
#
# Elastic Constant Matrix: (Units=GPa)
#
#
# Indices 1 2 3 4 5 6 
#
# 1 88.2558 52.1272 37.3667 0.0000 -14.0853 0.0000
# 2 52.1272 104.9784 44.0281 0.0000 -18.9321 0.0000
# 3 37.3667 44.0281 106.0846 0.0000 -17.4952 0.0000
# 4 0.0000 0.0000 0.0000 38.4432 0.0000 -2.9824
# 5 -14.0853 -18.9321 -17.4952 0.0000 45.2477 0.0000
# 6 0.0000 0.0000 0.0000 -2.9824 0.0000 37.5008
#
#
#
# Elastic Compliance Matrix: (Units=1/GPa)
#
#
# Indices 1 2 3 4 5 6 
#
# 1 0.016833 -0.006943 -0.002844 0.000000 0.001235 0.000000
# 2 -0.006943 0.014841 -0.003254 0.000000 0.002790 0.000000
# 3 -0.002844 -0.003254 0.012185 0.000000 0.002465 0.000000
# 4 0.000000 0.000000 0.000000 0.026174 0.000000 0.002082
# 5 0.001235 0.002790 0.002465 0.000000 0.024606 0.000000
# 6 0.000000 0.000000 0.000000 0.002082 0.000000 0.026832
#
#
# Mechanical properties :
#
#
# Convention : Reuss Voigt Hill
#
# Bulk Modulus (GPa) = 56.24971 62.92920 59.58945
# Shear Modulus (GPa) = 32.57826 35.29147 33.93486
#
# Velocity S-wave (km/s) = 3.80625 3.96158 3.88469
# Velocity P-wave (km/s) = 6.65815 6.99357 6.82792
#
# Compressibility (1/GPa) = 0.01777787
#
# Stress axis : x y z
#
# Youngs Moduli (GPa) = 59.40866 67.38063 82.06786
#
# Poissons Ratio (x) = 0.46781 0.23339
# Poissons Ratio (y) = 0.41246 0.26703
# Poissons Ratio (z) = 0.16895 0.21924
#
# Static dielectric constant tensor:
#      x y z
#    x 4.365320 0.000000 -0.229720 
#    y 0.000000 4.065920 0.000000 
#    z -0.229720 0.000000 4.339030 
# 
# 
# High freq. dielectric constant tensor:
#      x y z
#    x 1.884840 0.000000 -0.000830 
#    y 0.000000 1.881210 0.000000 
#    z -0.000830 0.000000 1.901960 
# 
# From -- ./inp_files/152754.got.cif
#   From: 2010.06.25/outbox.cif.g09.slc.cpg/sg15_77_cif.got.tgz:152754.got - 2010.06.28 07:06:18.
