data_PCOD8147422
_publ_section_title
;
Structure prediction by ZEFSAII (Michael W. Deem and Ramdas Pophale) SiO2 
 PCOD8147422
Probable space group: C 2/C
;
_chemical_formula_sum "Si O2"
_cell_formula_units_Z 48
_cell_length_a 13.296200
_cell_length_b 8.771155
_cell_length_c 19.430519
_cell_angle_alpha 90.000000
_cell_angle_beta 92.134571
_cell_angle_gamma 90.000000
_cell_volume 2264.473617
_symmetry_space_group_name_H-M "C 2/C"
_symmetry_group_IT_number 15
_symmetry_cell_setting 'monoclinic'
loop_
_space_group_symop_operation_xyz
x,y,z
-x,y,1/2-z
-x,-y,-z
x,-y,1/2+z
1/2+x,1/2+y,z
1/2-x,1/2+y,1/2-z
1/2-x,1/2-y,-z
1/2+x,1/2-y,1/2+z
loop_
_atom_site_type_symbol
_atom_site_label
_atom_site_fract_x
_atom_site_fract_y
_atom_site_fract_z
Si Si1 0.995432 0.136970 0.445702
Si Si2 0.669997 0.863033 0.028290
Si Si3 0.290013 0.284371 0.312014
Si Si4 0.315948 0.163049 0.555758
Si Si5 0.492937 0.440175 0.325461
Si Si6 0.723002 0.442319 0.330285
O O1 0.934379 0.275663 0.475081
O O2 0.099830 0.211695 0.426049
O O3 0.946799 0.066423 0.375371
O O4 0.000000 0.000000 0.500000
O O5 0.701374 0.902948 0.106527
O O6 0.750000 0.750000 0.000000
O O7 0.649595 0.006510 0.978514
O O8 0.242237 0.377005 0.375082
O O9 0.413298 0.297880 0.321246
O O10 0.252064 0.351198 0.238627
O O11 0.246568 0.116057 0.313364
O O12 0.250000 0.250000 0.500000
O O13 0.500000 0.513699 0.250000
O O14 0.607919 0.402050 0.351724
#
# Coordination Sequence:
#
# PCOD8147422 Si02
#       6
#     8   8   8   8   8   8
#     4  12  25  43  69  99 138 183 233 288 347 416
#     4  12  26  42  68 101 138 182 236 285 352 417
#     4  11  24  44  73  99 141 181 232 286 347 423
#     4  12  23  45  68 100 138 180 228 291 349 413
#     4  10  22  43  71  94 133 182 226 277 348 408
#     4  11  25  46  71 102 136 184 231 283 352 413
#
# _framework density 21.196978999999999
#
# number of rings (size 3 to 8) (size 9 to 14) (size 15 to 20)
#    0.000    0.667    3.333    4.500    7.000    0.000 
#    3.000    1.667    0.000    0.000    0.000    0.000 
#    0.000    0.000    0.000    0.000    0.000    0.000 
#
# Total GULP energy -297428.446868 kJ/mol
# GULP energy per Si atom -12392.851953 kJ/mol
# Density = 2.114873 g / cm^3
# Si number density = 21.196979 Si / 1000 Ang^3
#
#
#
# Elastic Constant Matrix: (Units=GPa)
#
#
# Indices 1 2 3 4 5 6 
#
# 1 96.4995 40.2420 27.9385 0.0000 -8.7248 0.0000
# 2 40.2420 113.0786 51.4374 0.0000 -6.5037 0.0000
# 3 27.9385 51.4374 149.6191 0.0000 -15.1541 0.0000
# 4 0.0000 0.0000 0.0000 44.4374 0.0000 -1.5502
# 5 -8.7248 -6.5037 -15.1541 0.0000 31.7295 0.0000
# 6 0.0000 0.0000 0.0000 -1.5502 0.0000 40.4069
#
#
#
# Elastic Compliance Matrix: (Units=1/GPa)
#
#
# Indices 1 2 3 4 5 6 
#
# 1 0.012430 -0.003962 -0.000731 0.000000 0.002257 0.000000
# 2 -0.003962 0.011751 -0.003328 0.000000 -0.000270 0.000000
# 3 -0.000731 -0.003328 0.008275 0.000000 0.003069 0.000000
# 4 0.000000 0.000000 0.000000 0.022534 0.000000 0.000865
# 5 0.002257 -0.000270 0.003069 0.000000 0.033548 0.000000
# 6 0.000000 0.000000 0.000000 0.000865 0.000000 0.024781
#
#
# Mechanical properties :
#
#
# Convention : Reuss Voigt Hill
#
# Bulk Modulus (GPa) = 60.91162 66.49254 63.70208
# Shear Modulus (GPa) = 37.08341 39.28670 38.18505
#
# Velocity S-wave (km/s) = 4.18720 4.30980 4.24894
# Velocity P-wave (km/s) = 7.22324 7.49685 7.36132
#
# Compressibility (1/GPa) = 0.01641723
#
# Stress axis : x y z
#
# Youngs Moduli (GPa) = 80.44810 85.09651 120.84729
#
# Poissons Ratio (x) = 0.33711 0.08829
# Poissons Ratio (y) = 0.31870 0.40213
# Poissons Ratio (z) = 0.05877 0.28317
#
# Static dielectric constant tensor:
#      x y z
#    x 5.200750 0.000000 2.008280 
#    y 0.000000 10.202330 0.000000 
#    z 2.008280 0.000000 7.642700 
# 
# 
# High freq. dielectric constant tensor:
#      x y z
#    x 1.833440 0.000000 -0.007930 
#    y 0.000000 1.824560 0.000000 
#    z -0.007930 0.000000 1.856590 
# 
# From -- ./inp_files/202986.got.cif
#   From: 2010.06.25/outbox.cif.g09.slc.cpg/sg15_102_cif.got.tgz:202986.got - 2010.06.28 07:06:18.
