data_PCOD8147940
_publ_section_title
;
Structure prediction by ZEFSAII (Michael W. Deem and Ramdas Pophale) SiO2 
 PCOD8147940
Probable space group: C 2/C
;
_chemical_formula_sum "Si O2"
_cell_formula_units_Z 56
_cell_length_a 15.300122
_cell_length_b 12.035541
_cell_length_c 13.984912
_cell_angle_alpha 90.000000
_cell_angle_beta 83.952681
_cell_angle_gamma 90.000000
_cell_volume 2560.924351
_symmetry_space_group_name_H-M "C 2/C"
_symmetry_group_IT_number 15
_symmetry_cell_setting 'monoclinic'
loop_
_space_group_symop_operation_xyz
x,y,z
-x,y,1/2-z
-x,-y,-z
x,-y,1/2+z
1/2+x,1/2+y,z
1/2-x,1/2+y,1/2-z
1/2-x,1/2-y,-z
1/2+x,1/2-y,1/2+z
loop_
_atom_site_type_symbol
_atom_site_label
_atom_site_fract_x
_atom_site_fract_y
_atom_site_fract_z
Si Si1 0.664225 0.744346 0.445517
Si Si2 0.469445 0.801606 0.886028
Si Si3 0.416453 0.505357 0.080691
Si Si4 0.000000 0.488660 0.750000
Si Si5 0.168105 0.644213 0.415870
Si Si6 0.248642 0.130053 0.902225
Si Si7 0.000000 0.105016 0.750000
Si Si8 0.671133 0.070786 0.799850
O O1 0.750000 0.750000 0.500000
O O2 0.585631 0.804550 0.511041
O O3 0.631303 0.624044 0.416315
O O4 0.690578 0.814070 0.349657
O O5 0.442783 0.908421 0.826235
O O6 0.572031 0.812109 0.899452
O O7 0.447671 0.688233 0.828689
O O8 0.345080 0.417326 0.050260
O O9 0.441162 0.474072 0.188302
O O10 0.500000 0.500000 0.000000
O O11 0.066241 0.567927 0.797793
O O12 0.238229 0.739369 0.382211
O O13 0.175176 0.614459 0.527472
O O14 0.200364 0.536258 0.355824
O O15 0.276448 0.065117 0.804667
#
# Coordination Sequence:
#
# PCOD8147940 Si02
#       8
#     8   8   8   4   8   8   4   8
#     4  12  28  44  69 105 145 184 244 303 354 432
#     4  10  22  46  71  97 140 189 238 287 367 427
#     4  12  26  48  73 106 143 193 238 300 369 437
#     4   9  24  41  70  98 134 189 227 286 360 432
#     4  10  23  48  71  97 139 191 231 296 356 440
#     4  11  25  44  72 102 142 184 241 294 364 431
#     4  11  22  45  74  98 140 191 237 286 360 448
#     4  11  27  42  69 106 138 181 240 294 359 417
#
# _framework density 21.867104999999999
#
# number of rings (size 3 to 8) (size 9 to 14) (size 15 to 20)
#    0.000    1.143    2.857    0.857   10.000    2.857 
#    2.571    0.000    0.000    0.000    0.000    0.000 
#    0.000    0.000    0.000    0.000    0.000    0.000 
#
# Total GULP energy -347154.696646 kJ/mol
# GULP energy per Si atom -12398.382023 kJ/mol
# Density = 2.181733 g / cm^3
# Si number density = 21.867105 Si / 1000 Ang^3
#
#
#
# Elastic Constant Matrix: (Units=GPa)
#
#
# Indices 1 2 3 4 5 6 
#
# 1 74.2361 49.5331 49.1662 0.0000 16.4870 0.0000
# 2 49.5331 129.8407 57.8294 0.0000 12.2346 0.0000
# 3 49.1662 57.8294 129.7414 0.0000 11.2534 0.0000
# 4 0.0000 0.0000 0.0000 31.8030 0.0000 11.5260
# 5 16.4870 12.2346 11.2534 0.0000 42.5621 0.0000
# 6 0.0000 0.0000 0.0000 11.5260 0.0000 24.0805
#
#
#
# Elastic Compliance Matrix: (Units=1/GPa)
#
#
# Indices 1 2 3 4 5 6 
#
# 1 0.021887 -0.005428 -0.005399 0.000000 -0.005491 0.000000
# 2 -0.005428 0.011073 -0.002850 0.000000 -0.000327 0.000000
# 3 -0.005399 -0.002850 0.011024 0.000000 -0.000004 0.000000
# 4 0.000000 0.000000 0.000000 0.038043 0.000000 -0.018209
# 5 -0.005491 -0.000327 -0.000004 0.000000 0.025717 0.000000
# 6 0.000000 0.000000 0.000000 -0.018209 0.000000 0.050243
#
#
# Mechanical properties :
#
#
# Convention : Reuss Voigt Hill
#
# Bulk Modulus (GPa) = 60.12977 71.87508 66.00243
# Shear Modulus (GPa) = 26.19397 31.50843 28.85120
#
# Velocity S-wave (km/s) = 3.46478 3.80004 3.63628
# Velocity P-wave (km/s) = 6.60029 7.22455 6.91946
#
# Compressibility (1/GPa) = 0.01663070
#
# Stress axis : x y z
#
# Youngs Moduli (GPa) = 45.68893 90.31281 90.70923
#
# Poissons Ratio (x) = 0.49021 0.48971
# Poissons Ratio (y) = 0.24799 0.25853
# Poissons Ratio (z) = 0.24666 0.25740
#
# Static dielectric constant tensor:
#      x y z
#    x 3.810000 0.000000 0.189590 
#    y 0.000000 4.065840 0.000000 
#    z 0.189590 0.000000 4.125730 
# 
# 
# High freq. dielectric constant tensor:
#      x y z
#    x 1.851460 0.000000 0.016450 
#    y 0.000000 1.870080 0.000000 
#    z 0.016450 0.000000 1.865590 
# 
# From -- ./inp_files/152654.got.cif
#   From: 2010.06.25/outbox.cif.g09.slc.cpg/sg15_77_cif.got.tgz:152654.got - 2010.06.28 07:06:18.
