data_PCOD8147884
_publ_section_title
;
Structure prediction by ZEFSAII (Michael W. Deem and Ramdas Pophale) SiO2 
 PCOD8147884
Probable space group: C 2/C
;
_chemical_formula_sum "Si O2"
_cell_formula_units_Z 56
_cell_length_a 11.655888
_cell_length_b 8.764200
_cell_length_c 24.695431
_cell_angle_alpha 90.000000
_cell_angle_beta 105.381822
_cell_angle_gamma 90.000000
_cell_volume 2432.384333
_symmetry_space_group_name_H-M "C 2/C"
_symmetry_group_IT_number 15
_symmetry_cell_setting 'monoclinic'
loop_
_space_group_symop_operation_xyz
x,y,z
-x,y,1/2-z
-x,-y,-z
x,-y,1/2+z
1/2+x,1/2+y,z
1/2-x,1/2+y,1/2-z
1/2-x,1/2-y,-z
1/2+x,1/2-y,1/2+z
loop_
_atom_site_type_symbol
_atom_site_label
_atom_site_fract_x
_atom_site_fract_y
_atom_site_fract_z
Si Si1 0.582404 0.153518 0.192722
Si Si2 0.953902 0.234458 0.918422
Si Si3 0.582005 0.382165 0.603470
Si Si4 0.621671 0.821069 0.475425
Si Si5 0.837004 0.148733 0.263509
Si Si6 0.500000 0.405600 0.250000
Si Si7 0.500000 0.098885 0.750000
Si Si8 0.800575 0.346014 0.555211
O O1 0.627078 0.175119 0.136368
O O2 0.695103 0.146338 0.247609
O O3 0.504279 0.302102 0.197005
O O4 0.500997 0.005514 0.195507
O O5 0.084916 0.255452 0.909903
O O6 0.932679 0.054788 0.919877
O O7 0.940025 0.323186 0.973266
O O8 0.466636 0.279103 0.573790
O O9 0.602387 0.366574 0.669993
O O10 0.702748 0.332777 0.589507
O O11 0.750000 0.750000 0.500000
O O12 0.649907 0.986110 0.454329
O O13 0.880682 0.300548 0.237798
O O14 0.881317 0.008269 0.232267
O O15 0.750000 0.250000 0.500000
#
# Coordination Sequence:
#
# PCOD8147884 Si02
#       8
#     8   8   8   8   8   4   4   8
#     4  11  25  44  70 100 142 183 240 292 350 421
#     4  12  26  48  73 106 145 194 243 298 361 428
#     4  12  27  47  72 108 146 191 243 299 362 431
#     4  12  26  48  76 108 148 187 239 303 362 426
#     4  11  25  44  71 100 143 187 234 291 357 422
#     4  10  22  46  62  98 134 186 232 288 348 418
#     4  10  26  42  68 102 140 182 244 286 352 424
#     4  12  27  48  74 104 149 188 240 294 358 435
#
# _framework density 23.022677999999999
#
# number of rings (size 3 to 8) (size 9 to 14) (size 15 to 20)
#    0.000    0.571    4.286    2.571    6.000    2.286 
#    2.571    0.000    0.000    0.000    0.000    0.000 
#    0.000    0.000    0.000    0.000    0.000    0.000 
#
# Total GULP energy -346950.197021 kJ/mol
# GULP energy per Si atom -12391.078465 kJ/mol
# Density = 2.297028 g / cm^3
# Si number density = 23.022678 Si / 1000 Ang^3
#
#
#
# Elastic Constant Matrix: (Units=GPa)
#
#
# Indices 1 2 3 4 5 6 
#
# 1 130.8922 30.7046 32.5635 0.0000 3.6357 0.0000
# 2 30.7046 100.2958 21.8845 0.0000 -4.3013 0.0000
# 3 32.5635 21.8845 107.9556 0.0000 7.2641 0.0000
# 4 0.0000 0.0000 0.0000 26.3664 0.0000 -0.6460
# 5 3.6357 -4.3013 7.2641 0.0000 29.8397 0.0000
# 6 0.0000 0.0000 0.0000 -0.6460 0.0000 27.0151
#
#
#
# Elastic Compliance Matrix: (Units=1/GPa)
#
#
# Indices 1 2 3 4 5 6 
#
# 1 0.008717 -0.002244 -0.002116 0.000000 -0.000871 0.000000
# 2 -0.002244 0.011135 -0.001735 0.000000 0.002301 0.000000
# 3 -0.002116 -0.001735 0.010423 0.000000 -0.002530 0.000000
# 4 0.000000 0.000000 0.000000 0.037949 0.000000 0.000908
# 5 -0.000871 0.002301 -0.002530 0.000000 0.034566 0.000000
# 6 0.000000 0.000000 0.000000 0.000908 0.000000 0.037038
#
#
# Mechanical properties :
#
#
# Convention : Reuss Voigt Hill
#
# Bulk Modulus (GPa) = 55.29561 56.60543 55.95052
# Shear Modulus (GPa) = 31.63621 33.57698 32.60659
#
# Velocity S-wave (km/s) = 3.71095 3.82308 3.76743
# Velocity P-wave (km/s) = 6.51395 6.64290 6.57874
#
# Compressibility (1/GPa) = 0.01808462
#
# Stress axis : x y z
#
# Youngs Moduli (GPa) = 114.71989 89.80819 95.93958
#
# Poissons Ratio (x) = 0.20155 0.20299
# Poissons Ratio (y) = 0.25746 0.16646
# Poissons Ratio (z) = 0.24273 0.15583
#
# Static dielectric constant tensor:
#      x y z
#    x 4.507550 0.000000 -0.376650 
#    y 0.000000 4.533290 0.000000 
#    z -0.376650 0.000000 4.255390 
# 
# 
# High freq. dielectric constant tensor:
#      x y z
#    x 1.923750 0.000000 -0.009810 
#    y 0.000000 1.926240 0.000000 
#    z -0.009810 0.000000 1.901870 
# 
# From -- ./inp_files/291546.got.cif
#   From: 2010.06.25/outbox.cif.g09.slc.cpg/sg15_146_cif.got.tgz:291546.got - 2010.06.28 07:06:18.
