data_PCOD8147140
_publ_section_title
;
Structure prediction by ZEFSAII (Michael W. Deem and Ramdas Pophale) SiO2 
 PCOD8147140
Probable space group: C 2/C
;
_chemical_formula_sum "Si O2"
_cell_formula_units_Z 48
_cell_length_a 7.714900
_cell_length_b 21.983094
_cell_length_c 11.276914
_cell_angle_alpha 90.000000
_cell_angle_beta 89.275842
_cell_angle_gamma 90.000000
_cell_volume 1912.382223
_symmetry_space_group_name_H-M "C 2/C"
_symmetry_group_IT_number 15
_symmetry_cell_setting 'monoclinic'
loop_
_space_group_symop_operation_xyz
x,y,z
-x,y,1/2-z
-x,-y,-z
x,-y,1/2+z
1/2+x,1/2+y,z
1/2-x,1/2+y,1/2-z
1/2-x,1/2-y,-z
1/2+x,1/2-y,1/2+z
loop_
_atom_site_type_symbol
_atom_site_label
_atom_site_fract_x
_atom_site_fract_y
_atom_site_fract_z
Si Si1 0.937072 0.819568 0.120866
Si Si2 0.603849 0.427523 0.009128
Si Si3 0.615359 0.794680 0.558409
Si Si4 0.265083 0.039138 0.052348
Si Si5 0.692836 0.620665 0.274337
Si Si6 0.935947 0.619577 0.884179
O O1 0.740617 0.841389 0.105481
O O2 0.000000 0.834993 0.250000
O O3 0.948262 0.747415 0.091991
O O4 0.080826 0.856323 0.041301
O O5 0.411475 0.454446 0.022457
O O6 0.674312 0.431147 0.874060
O O7 0.745437 0.466796 0.087697
O O8 0.750000 0.750000 0.500000
O O9 0.684409 0.824876 0.680714
O O10 0.578004 0.845157 0.459703
O O11 0.279135 0.086954 0.160429
O O12 0.413001 0.054882 0.953957
O O13 0.500000 0.647282 0.250000
O O14 0.000000 0.609379 0.750000
#
# Coordination Sequence:
#
# PCOD8147140 Si02
#       6
#     8   8   8   8   8   8
#     4  11  24  42  73 107 143 195 246 303 373 449
#     4   9  19  42  69 108 136 181 239 294 371 436
#     4  12  25  44  71 105 151 191 244 310 376 444
#     4   9  21  41  74 103 139 184 240 301 357 443
#     4  10  22  42  72 110 143 187 242 304 373 443
#     4  11  26  47  67 107 149 196 248 304 369 434
#
# _framework density 25.099587
#
# number of rings (size 3 to 8) (size 9 to 14) (size 15 to 20)
#    0.000    1.667    1.667    1.500    2.333    6.667 
#    0.000    0.833    0.000    0.000    0.000    0.000 
#    0.000    0.000    0.000    0.000    0.000    0.000 
#
# Total GULP energy -297338.453917 kJ/mol
# GULP energy per Si atom -12389.102247 kJ/mol
# Density = 2.504246 g / cm^3
# Si number density = 25.099587 Si / 1000 Ang^3
#
#
#
# Elastic Constant Matrix: (Units=GPa)
#
#
# Indices 1 2 3 4 5 6 
#
# 1 70.0756 20.9141 35.0301 0.0000 -9.8888 0.0000
# 2 20.9141 131.6203 48.7778 0.0000 -10.4204 0.0000
# 3 35.0301 48.7778 149.9225 0.0000 -13.4823 0.0000
# 4 0.0000 0.0000 0.0000 40.7597 0.0000 10.9610
# 5 -9.8888 -10.4204 -13.4823 0.0000 42.3562 0.0000
# 6 0.0000 0.0000 0.0000 10.9610 0.0000 22.1684
#
#
#
# Elastic Compliance Matrix: (Units=1/GPa)
#
#
# Indices 1 2 3 4 5 6 
#
# 1 0.016624 -0.001234 -0.003254 0.000000 0.002542 0.000000
# 2 -0.001234 0.008797 -0.002476 0.000000 0.001088 0.000000
# 3 -0.003254 -0.002476 0.008352 0.000000 0.001290 0.000000
# 4 0.000000 0.000000 0.000000 0.028296 0.000000 -0.013991
# 5 0.002542 0.001088 0.001290 0.000000 0.024881 0.000000
# 6 0.000000 0.000000 0.000000 -0.013991 0.000000 0.052027
#
#
# Mechanical properties :
#
#
# Convention : Reuss Voigt Hill
#
# Bulk Modulus (GPa) = 50.39159 62.34028 56.36593
# Shear Modulus (GPa) = 31.34367 37.51662 34.43014
#
# Velocity S-wave (km/s) = 3.53763 3.87034 3.70772
# Velocity P-wave (km/s) = 6.06685 6.69805 6.39025
#
# Compressibility (1/GPa) = 0.01984458
#
# Stress axis : x y z
#
# Youngs Moduli (GPa) = 60.15375 113.66876 119.73161
#
# Poissons Ratio (x) = 0.14030 0.38962
# Poissons Ratio (y) = 0.07425 0.29646
# Poissons Ratio (z) = 0.19575 0.28145
#
# Static dielectric constant tensor:
#      x y z
#    x 4.630130 0.000000 -0.020810 
#    y 0.000000 5.297160 0.000000 
#    z -0.020810 0.000000 4.324090 
# 
# 
# High freq. dielectric constant tensor:
#      x y z
#    x 2.010670 0.000000 -0.007220 
#    y 0.000000 2.009430 0.000000 
#    z -0.007220 0.000000 1.989950 
# 
# From -- ./inp_files/79235.got.cif
#   From: 2010.06.25/outbox.cif.g09.slc.cpg/sg15_40_cif.got.tgz:79235.got - 2010.06.28 07:06:18.
