data_PCOD8147567
_publ_section_title
;
Structure prediction by ZEFSAII (Michael W. Deem and Ramdas Pophale) SiO2 
 PCOD8147567
Probable space group: C 2/C
;
_chemical_formula_sum "Si O2"
_cell_formula_units_Z 44
_cell_length_a 25.818994
_cell_length_b 9.037002
_cell_length_c 24.963888
_cell_angle_alpha 90.000000
_cell_angle_beta 20.328818
_cell_angle_gamma 90.000000
_cell_volume 2023.554503
_symmetry_space_group_name_H-M "C 2/C"
_symmetry_group_IT_number 15
_symmetry_cell_setting 'monoclinic'
loop_
_space_group_symop_operation_xyz
x,y,z
-x,y,1/2-z
-x,-y,-z
x,-y,1/2+z
1/2+x,1/2+y,z
1/2-x,1/2+y,1/2-z
1/2-x,1/2-y,-z
1/2+x,1/2-y,1/2+z
loop_
_atom_site_type_symbol
_atom_site_label
_atom_site_fract_x
_atom_site_fract_y
_atom_site_fract_z
Si Si1 0.170461 0.845882 0.422889
Si Si2 0.251714 0.654195 0.445130
Si Si3 0.309321 0.378569 0.526277
Si Si4 0.533127 0.079559 0.122995
Si Si5 0.500000 0.511533 0.750000
Si Si6 0.535904 0.097404 0.913639
O O1 0.245064 0.751017 0.398212
O O2 0.288164 0.876422 0.261463
O O3 0.039729 0.760256 0.518231
O O4 0.126068 0.001835 0.493696
O O5 0.250000 0.750000 0.500000
O O6 0.120162 0.532776 0.577944
O O7 0.416288 0.581925 0.284939
O O8 0.365535 0.219534 0.490070
O O9 0.374110 0.396644 0.403363
O O10 0.129387 0.379917 0.695968
O O11 0.522176 0.999724 0.077879
O O12 0.500000 0.000000 0.000000
#
# Coordination Sequence:
#
# PCOD8147567 Si02
#       6
#     8   8   8   8   4   8
#     4  10  22  44  66  96 133 166 220 273 325 400
#     4  11  23  40  65  94 130 176 219 265 328 404
#     4  11  23  42  61  92 134 172 215 274 324 388
#     4  10  25  43  62  94 135 167 221 279 329 391
#     4  12  24  36  64  92 124 178 222 246 334 382
#     4  10  23  44  69  97 127 170 221 275 334 392
#
# _framework density 21.743915999999999
#
# number of rings (size 3 to 8) (size 9 to 14) (size 15 to 20)
#    0.000    1.455    1.818    2.182    5.091    8.000 
#    0.000    1.818    0.000    0.000    0.000    0.000 
#    0.000    0.000    0.000    0.000    0.000    0.000 
#
# Total GULP energy -272690.652452 kJ/mol
# GULP energy per Si atom -12395.029657 kJ/mol
# Density = 2.169443 g / cm^3
# Si number density = 21.743916 Si / 1000 Ang^3
#
#
#
# Elastic Constant Matrix: (Units=GPa)
#
#
# Indices 1 2 3 4 5 6 
#
# 1 54.6807 26.6970 41.3471 0.0024 3.3005 -0.0014
# 2 26.6970 137.1487 63.4154 0.0124 -4.1794 -0.0088
# 3 41.3471 63.4154 139.0623 0.0066 12.0471 -0.0053
# 4 0.0024 0.0124 0.0066 36.8586 -0.0020 -4.9804
# 5 3.3005 -4.1794 12.0471 -0.0020 32.7508 0.0015
# 6 -0.0014 -0.0088 -0.0053 -4.9804 0.0015 35.7270
#
#
#
# Elastic Compliance Matrix: (Units=1/GPa)
#
#
# Indices 1 2 3 4 5 6 
#
# 1 0.023916 -0.001762 -0.006279 0.000000 -0.000325 0.000000
# 2 -0.001762 0.009628 -0.004120 -0.000002 0.002922 0.000001
# 3 -0.006279 -0.004120 0.011287 0.000000 -0.004045 0.000001
# 4 0.000000 -0.000002 0.000000 0.027652 0.000001 0.003855
# 5 -0.000325 0.002922 -0.004045 0.000001 0.032427 -0.000001
# 6 0.000000 0.000001 0.000001 0.003855 -0.000001 0.028527
#
#
# Mechanical properties :
#
#
# Convention : Reuss Voigt Hill
#
# Bulk Modulus (GPa) = 48.75847 65.97897 57.36872
# Shear Modulus (GPa) = 30.37737 34.36277 32.37007
#
# Velocity S-wave (km/s) = 3.74177 3.97966 3.86255
# Velocity P-wave (km/s) = 6.41408 7.17819 6.80687
#
# Compressibility (1/GPa) = 0.02050926
#
# Stress axis : x y z
#
# Youngs Moduli (GPa) = 41.81321 103.85963 88.59565
#
# Poissons Ratio (x) = 0.18299 0.55631
# Poissons Ratio (y) = 0.07367 0.36501
# Poissons Ratio (z) = 0.26255 0.42790
#
# Static dielectric constant tensor:
#      x y z
#    x 3.411200 -0.000080 0.466790 
#    y -0.000080 4.597830 0.000110 
#    z 0.466790 0.000110 2.946290 
# 
# 
# High freq. dielectric constant tensor:
#      x y z
#    x 1.829540 0.000000 -0.001580 
#    y 0.000000 1.869080 0.000000 
#    z -0.001580 0.000000 1.866050 
# 
# From -- ./inp_files/303151.got.cif
#   From: 2010.06.25/outbox.cif.g09.slc.cpg/sg15_152_cif.got.tgz:303151.got - 2010.06.28 07:06:18.
