data_PCOD8147302
_publ_section_title
;
Structure prediction by ZEFSAII (Michael W. Deem and Ramdas Pophale) SiO2 
 PCOD8147302
Probable space group: C 2/C
;
_chemical_formula_sum "Si O2"
_cell_formula_units_Z 52
_cell_length_a 29.128754
_cell_length_b 12.742332
_cell_length_c 8.735658
_cell_angle_alpha 90.000000
_cell_angle_beta 43.894153
_cell_angle_gamma 90.000000
_cell_volume 2248.046914
_symmetry_space_group_name_H-M "C 2/C"
_symmetry_group_IT_number 15
_symmetry_cell_setting 'monoclinic'
loop_
_space_group_symop_operation_xyz
x,y,z
-x,y,1/2-z
-x,-y,-z
x,-y,1/2+z
1/2+x,1/2+y,z
1/2-x,1/2+y,1/2-z
1/2-x,1/2-y,-z
1/2+x,1/2-y,1/2+z
loop_
_atom_site_type_symbol
_atom_site_label
_atom_site_fract_x
_atom_site_fract_y
_atom_site_fract_z
Si Si1 0.435185 0.861887 0.471981
Si Si2 0.109460 0.538269 0.132702
Si Si3 0.176570 0.149882 0.069179
Si Si4 0.818353 0.793927 0.276323
Si Si5 0.907188 0.052335 0.722198
Si Si6 0.821141 0.375343 0.317207
Si Si7 0.000000 0.998318 0.250000
O O1 0.500000 0.800145 0.250000
O O2 0.434897 0.965120 0.366693
O O3 0.367952 0.798322 0.609270
O O4 0.439277 0.891932 0.642624
O O5 0.157234 0.472605 0.130157
O O6 0.152818 0.613872 0.919548
O O7 0.151955 0.265769 0.177682
O O8 0.118570 0.066423 0.238166
O O9 0.194365 0.140520 0.846610
O O10 0.241478 0.121364 0.010925
O O11 0.750000 0.750000 0.500000
O O12 0.848249 0.864678 0.341766
O O13 0.944188 0.070800 0.795382
O O14 0.962293 0.073679 0.459695
#
# Coordination Sequence:
#
# PCOD8147302 Si02
#       7
#     8   8   8   8   8   8   4
#     4  11  24  43  74  99 142 185 238 292 362 438
#     4  10  22  43  67 103 135 187 231 297 355 427
#     4  11  24  43  67 104 141 188 237 296 366 433
#     4  12  27  46  72 111 142 189 246 298 375 436
#     4  11  25  45  76 101 149 188 244 306 358 441
#     4  10  23  41  69 101 147 182 239 295 365 439
#     4  10  24  46  70 106 138 198 248 288 370 424
#
# _framework density 23.131188999999999
#
# number of rings (size 3 to 8) (size 9 to 14) (size 15 to 20)
#    0.000    1.231    3.077    1.385    7.538    3.692 
#    0.000    0.000    3.385    0.000    0.000    0.000 
#    0.000    0.000    0.000    0.000    0.000    0.000 
#
# Total GULP energy -322384.112971 kJ/mol
# GULP energy per Si atom -12399.388960 kJ/mol
# Density = 2.307854 g / cm^3
# Si number density = 23.131189 Si / 1000 Ang^3
#
#
#
# Elastic Constant Matrix: (Units=GPa)
#
#
# Indices 1 2 3 4 5 6 
#
# 1 131.7451 42.9726 48.5491 0.0000 4.7767 0.0000
# 2 42.9726 84.4916 42.6164 0.0000 -5.7505 0.0000
# 3 48.5491 42.6164 145.6243 0.0000 -2.4447 0.0000
# 4 0.0000 0.0000 0.0000 31.5079 0.0000 2.7980
# 5 4.7767 -5.7505 -2.4447 0.0000 43.5811 0.0000
# 6 0.0000 0.0000 0.0000 2.7980 0.0000 34.7813
#
#
#
# Elastic Compliance Matrix: (Units=1/GPa)
#
#
# Indices 1 2 3 4 5 6 
#
# 1 0.009734 -0.004008 -0.002101 0.000000 -0.001714 0.000000
# 2 -0.004008 0.015648 -0.003204 0.000000 0.002324 0.000000
# 3 -0.002101 -0.003204 0.008510 0.000000 0.000285 0.000000
# 4 0.000000 0.000000 0.000000 0.031966 0.000000 -0.002572
# 5 -0.001714 0.002324 0.000285 0.000000 0.023456 0.000000
# 6 0.000000 0.000000 0.000000 -0.002572 0.000000 0.028958
#
#
# Mechanical properties :
#
#
# Convention : Reuss Voigt Hill
#
# Bulk Modulus (GPa) = 65.50449 70.01526 67.75987
# Shear Modulus (GPa) = 35.21438 37.15560 36.18499
#
# Velocity S-wave (km/s) = 3.90600 4.01221 3.95946
# Velocity P-wave (km/s) = 6.98016 7.19710 7.08946
#
# Compressibility (1/GPa) = 0.01526613
#
# Stress axis : x y z
#
# Youngs Moduli (GPa) = 102.73239 63.90537 117.50909
#
# Poissons Ratio (x) = 0.25611 0.24690
# Poissons Ratio (y) = 0.41171 0.37653
# Poissons Ratio (z) = 0.21586 0.20477
#
# Static dielectric constant tensor:
#      x y z
#    x 4.328380 0.000000 0.201840 
#    y 0.000000 3.985410 0.000000 
#    z 0.201840 0.000000 4.274290 
# 
# 
# High freq. dielectric constant tensor:
#      x y z
#    x 1.926250 0.000000 0.007010 
#    y 0.000000 1.892980 0.000000 
#    z 0.007010 0.000000 1.921610 
# 
# From -- ./inp_files/70096.got.cif
#   From: 2010.06.25/outbox.cif.g09.slc.cpg/sg15_36_cif.got.tgz:70096.got - 2010.06.28 07:06:18.
