data_PCOD8147915
_publ_section_title
;
Structure prediction by ZEFSAII (Michael W. Deem and Ramdas Pophale) SiO2 
 PCOD8147915
Probable space group: C 2/C
;
_chemical_formula_sum "Si O2"
_cell_formula_units_Z 60
_cell_length_a 21.970841
_cell_length_b 8.868039
_cell_length_c 14.484221
_cell_angle_alpha 90.000000
_cell_angle_beta 108.026604
_cell_angle_gamma 90.000000
_cell_volume 2683.552959
_symmetry_space_group_name_H-M "C 2/C"
_symmetry_group_IT_number 15
_symmetry_cell_setting 'monoclinic'
loop_
_space_group_symop_operation_xyz
x,y,z
-x,y,1/2-z
-x,-y,-z
x,-y,1/2+z
1/2+x,1/2+y,z
1/2-x,1/2+y,1/2-z
1/2-x,1/2-y,-z
1/2+x,1/2-y,1/2+z
loop_
_atom_site_type_symbol
_atom_site_label
_atom_site_fract_x
_atom_site_fract_y
_atom_site_fract_z
Si Si1 0.402149 0.133087 0.611856
Si Si2 0.960789 0.928261 0.398943
Si Si3 0.714092 0.068886 0.810786
Si Si4 0.963653 0.329488 0.640995
Si Si5 0.000000 0.136255 0.250000
Si Si6 0.266466 0.243411 0.860107
Si Si7 0.341879 0.641189 0.564930
Si Si8 0.656189 0.355861 0.043511
O O1 0.351570 0.075140 0.663737
O O2 0.447753 0.259004 0.676925
O O3 0.365993 0.194348 0.504389
O O4 0.440673 0.989391 0.589844
O O5 0.885981 0.913379 0.389483
O O6 0.987941 0.758345 0.403071
O O7 0.966243 0.027708 0.309127
O O8 0.000000 0.000000 0.500000
O O9 0.702242 0.147749 0.707148
O O10 0.770154 0.155890 0.892007
O O11 0.734801 0.896125 0.806471
O O12 0.904937 0.217338 0.635411
O O13 0.000000 0.372759 0.750000
O O14 0.212508 0.143675 0.883520
O O15 0.321792 0.276501 0.960245
O O16 0.354726 0.467273 0.548491
#
# Coordination Sequence:
#
# PCOD8147915 Si02
#       8
#     8   8   8   8   4   8   8   8
#     4  12  26  46  68 106 149 183 233 298 362 418
#     4  12  25  47  73 105 131 187 250 284 356 431
#     4  11  26  43  71 106 139 180 243 286 357 420
#     4  12  25  44  72 102 141 185 227 298 354 420
#     4  12  26  46  76  98 146 190 238 300 346 442
#     4  10  24  43  70 101 138 187 229 293 346 423
#     4  10  22  46  68  96 140 184 232 277 357 415
#     4  11  26  45  72 105 137 189 238 291 356 426
#
# _framework density 22.358418
#
# number of rings (size 3 to 8) (size 9 to 14) (size 15 to 20)
#    0.000    0.800    5.333    0.400    7.467    1.600 
#    0.000    0.000    0.000    0.000    0.000    0.000 
#    0.000    0.000    0.000    0.000    0.000    0.000 
#
# Total GULP energy -372109.067424 kJ/mol
# GULP energy per Si atom -12403.635581 kJ/mol
# Density = 2.230753 g / cm^3
# Si number density = 22.358418 Si / 1000 Ang^3
#
#
#
# Elastic Constant Matrix: (Units=GPa)
#
#
# Indices 1 2 3 4 5 6 
#
# 1 71.5472 19.0827 0.2432 0.0000 0.9438 0.0000
# 2 19.0827 96.0467 22.5048 0.0000 -2.4854 0.0000
# 3 0.2432 22.5048 56.1059 0.0000 -5.3327 0.0000
# 4 0.0000 0.0000 0.0000 36.0169 0.0000 4.9909
# 5 0.9438 -2.4854 -5.3327 0.0000 33.9370 0.0000
# 6 0.0000 0.0000 0.0000 4.9909 0.0000 31.0004
#
#
#
# Elastic Compliance Matrix: (Units=1/GPa)
#
#
# Indices 1 2 3 4 5 6 
#
# 1 0.014843 -0.003240 0.001191 0.000000 -0.000463 0.000000
# 2 -0.003240 0.012199 -0.004858 0.000000 0.000220 0.000000
# 3 0.001191 -0.004858 0.020029 0.000000 0.002758 0.000000
# 4 0.000000 0.000000 0.000000 0.028398 0.000000 -0.004572
# 5 -0.000463 0.000220 0.002758 0.000000 0.029929 0.000000
# 6 0.000000 0.000000 0.000000 -0.004572 0.000000 0.032994
#
#
# Mechanical properties :
#
#
# Convention : Reuss Voigt Hill
#
# Bulk Modulus (GPa) = 30.06860 34.15124 32.10992
# Shear Modulus (GPa) = 30.61986 32.31547 31.46766
#
# Velocity S-wave (km/s) = 3.70469 3.80588 3.75563
# Velocity P-wave (km/s) = 5.63713 5.88393 5.76185
#
# Compressibility (1/GPa) = 0.03325728
#
# Stress axis : x y z
#
# Youngs Moduli (GPa) = 67.37167 81.97099 49.92702
#
# Poissons Ratio (x) = 0.26560 -0.05948
# Poissons Ratio (y) = 0.21830 0.24257
# Poissons Ratio (z) = -0.08026 0.39825
#
# Static dielectric constant tensor:
#      x y z
#    x 4.121540 0.000000 0.048000 
#    y 0.000000 4.223420 0.000000 
#    z 0.048000 0.000000 3.918690 
# 
# 
# High freq. dielectric constant tensor:
#      x y z
#    x 1.886120 0.000000 0.008510 
#    y 0.000000 1.889730 0.000000 
#    z 0.008510 0.000000 1.876770 
# 
# From -- ./inp_files/172427.got.cif
#   From: 2010.06.25/outbox.cif.g09.slc.cpg/sg15_87_cif.got.tgz:172427.got - 2010.06.28 07:06:18.
