data_PCOD8147602
_publ_section_title
;
Structure prediction by ZEFSAII (Michael W. Deem and Ramdas Pophale) SiO2 
 PCOD8147602
Probable space group: C 2/C
;
_chemical_formula_sum "Si O2"
_cell_formula_units_Z 40
_cell_length_a 14.372664
_cell_length_b 8.986941
_cell_length_c 27.869704
_cell_angle_alpha 90.000000
_cell_angle_beta 32.221296
_cell_angle_gamma 90.000000
_cell_volume 1919.393995
_symmetry_space_group_name_H-M "C 2/C"
_symmetry_group_IT_number 15
_symmetry_cell_setting 'monoclinic'
loop_
_space_group_symop_operation_xyz
x,y,z
-x,y,1/2-z
-x,-y,-z
x,-y,1/2+z
1/2+x,1/2+y,z
1/2-x,1/2+y,1/2-z
1/2-x,1/2-y,-z
1/2+x,1/2-y,1/2+z
loop_
_atom_site_type_symbol
_atom_site_label
_atom_site_fract_x
_atom_site_fract_y
_atom_site_fract_z
Si Si1 0.080327 0.110966 0.504420
Si Si2 0.042666 0.392808 0.887460
Si Si3 0.218625 0.915867 0.529160
Si Si4 0.062463 0.019768 0.272362
Si Si5 0.947869 0.313091 0.822678
O O1 0.238778 0.203484 0.412143
O O2 0.957904 0.233756 0.584098
O O3 0.157025 0.006897 0.510999
O O4 0.000000 0.000000 0.500000
O O5 0.233703 0.456580 0.809578
O O6 0.010307 0.390056 0.844328
O O7 0.893856 0.504366 0.974089
O O8 0.250000 0.750000 0.500000
O O9 0.058503 0.905124 0.635398
O O10 0.000000 0.092619 0.250000
O O11 0.038943 0.844712 0.282375
O O12 0.000000 0.398634 0.750000
#
# Coordination Sequence:
#
# PCOD8147602 Si02
#       5
#     8   8   8   8   8
#     4  11  24  45  70  97 136 181 229 283 337 410
#     4  11  24  46  69  96 141 178 228 285 334 417
#     4  11  25  44  67  99 136 179 225 279 348 406
#     4  11  25  42  67  98 136 175 225 279 340 404
#     4  10  22  44  67  97 132 178 225 280 339 402
#
# _framework density 20.839911000000001
#
# number of rings (size 3 to 8) (size 9 to 14) (size 15 to 20)
#    0.000    1.200    4.000    1.200    8.400    2.400 
#    3.600    0.000    0.000    0.000    0.000    0.000 
#    0.000    0.000    0.000    0.000    0.000    0.000 
#
# Total GULP energy -247807.081156 kJ/mol
# GULP energy per Si atom -12390.354058 kJ/mol
# Density = 2.079248 g / cm^3
# Si number density = 20.839911 Si / 1000 Ang^3
#
#
#
# Elastic Constant Matrix: (Units=GPa)
#
#
# Indices 1 2 3 4 5 6 
#
# 1 113.0841 36.5871 75.2053 0.0004 -15.4500 0.0008
# 2 36.5871 118.3956 52.7702 0.0005 -18.3281 0.0011
# 3 75.2053 52.7702 151.9429 -0.0013 -24.7496 -0.0003
# 4 0.0004 0.0005 -0.0013 -7.2605 -0.0001 -18.1248
# 5 -15.4500 -18.3281 -24.7496 -0.0001 41.1709 0.0001
# 6 0.0008 0.0011 -0.0003 -18.1248 0.0001 19.6229
#
#
#
# Elastic Compliance Matrix: (Units=1/GPa)
#
#
# Indices 1 2 3 4 5 6 
#
# 1 0.013399 -0.001323 -0.006041 0.000001 0.000808 0.000000
# 2 -0.001323 0.010385 -0.002527 0.000001 0.002607 0.000000
# 3 -0.006041 -0.002527 0.010971 -0.000001 0.003203 -0.000001
# 4 0.000001 0.000001 -0.000001 -0.041664 0.000000 -0.038483
# 5 0.000808 0.002607 0.003203 0.000000 0.027678 0.000000
# 6 0.000000 0.000000 -0.000001 -0.038483 0.000000 0.015416
#
#
# Mechanical properties :
#
#
# Convention : Reuss Voigt Hill
#
# Bulk Modulus (GPa) = 66.78844 79.17199 72.98021
# Shear Modulus (GPa) = 82.02413 25.29733 53.66073
#
# Velocity S-wave (km/s) = 6.28049 3.48787 5.07985
# Velocity P-wave (km/s) = 9.20384 7.36840 8.33679
#
# Compressibility (1/GPa) = 0.01497265
#
# Stress axis : x y z
#
# Youngs Moduli (GPa) = 74.63402 96.29114 91.15124
#
# Poissons Ratio (x) = 0.12740 0.55062
# Poissons Ratio (y) = 0.09875 0.23036
# Poissons Ratio (z) = 0.45084 0.24335
#
# Static dielectric constant tensor:
#      x y z
#    x 4.311720 0.000000 0.432620 
#    y 0.000000 4.097200 0.000000 
#    z 0.432620 0.000000 4.767940 
# 
# 
# High freq. dielectric constant tensor:
#      x y z
#    x 1.821800 0.000000 0.007890 
#    y 0.000000 1.806470 0.000000 
#    z 0.007890 0.000000 1.836660 
# 
# From -- ./inp_files/150603.got.cif
#   From: 2010.06.25/outbox.cif.g09.slc.cpg/sg15_76_cif.got.tgz:150603.got - 2010.06.28 07:06:18.
