data_PCOD8147406
_publ_section_title
;
Structure prediction by ZEFSAII (Michael W. Deem and Ramdas Pophale) SiO2 
 PCOD8147406
Probable space group: C 2/C
;
_chemical_formula_sum "Si O2"
_cell_formula_units_Z 60
_cell_length_a 17.197924
_cell_length_b 11.467547
_cell_length_c 21.821494
_cell_angle_alpha 90.000000
_cell_angle_beta 39.684703
_cell_angle_gamma 90.000000
_cell_volume 2748.111586
_symmetry_space_group_name_H-M "C 2/C"
_symmetry_group_IT_number 15
_symmetry_cell_setting 'monoclinic'
loop_
_space_group_symop_operation_xyz
x,y,z
-x,y,1/2-z
-x,-y,-z
x,-y,1/2+z
1/2+x,1/2+y,z
1/2-x,1/2+y,1/2-z
1/2-x,1/2-y,-z
1/2+x,1/2-y,1/2+z
loop_
_atom_site_type_symbol
_atom_site_label
_atom_site_fract_x
_atom_site_fract_y
_atom_site_fract_z
Si Si1 0.500000 0.820515 0.250000
Si Si2 0.723325 0.103207 0.299383
Si Si3 0.004231 0.177140 0.367271
Si Si4 0.444522 0.576030 0.870655
Si Si5 0.708867 0.020737 0.680947
Si Si6 0.080001 0.203339 0.953005
Si Si7 0.170641 0.181973 0.452480
Si Si8 0.188967 0.092405 0.668450
O O1 0.459140 0.737899 0.331484
O O2 0.396317 0.901623 0.284715
O O3 0.847902 0.178808 0.215215
O O4 0.617315 0.187839 0.387926
O O5 0.678374 0.036344 0.265597
O O6 0.736985 0.009001 0.344331
O O7 0.935633 0.240043 0.465764
O O8 0.962807 0.043006 0.396752
O O9 0.576642 0.636297 0.779084
O O10 0.373468 0.538276 0.853251
O O11 0.363659 0.671775 0.955142
O O12 0.827414 0.099201 0.614962
O O13 0.727736 0.914231 0.623127
O O14 0.949842 0.153415 0.012596
O O15 0.218496 0.307373 0.405141
#
# Coordination Sequence:
#
# PCOD8147406 Si02
#       8
#     4   8   8   8   8   8   8   8
#     4  12  28  46  76 110 150 180 238 314 368 404
#     4  11  25  46  74 101 143 186 247 298 353 429
#     4  11  22  47  76 105 139 189 246 297 357 429
#     4  10  22  43  70  99 139 187 238 290 365 428
#     4  12  27  47  71 106 143 189 232 305 361 428
#     4  12  25  45  75 103 137 196 248 290 357 433
#     4  12  25  43  68 103 143 190 235 289 355 444
#     4  10  24  43  68 101 136 188 237 295 359 428
#
# _framework density 21.833175000000001
#
# number of rings (size 3 to 8) (size 9 to 14) (size 15 to 20)
#    0.000    0.800    4.000    4.000    5.600    3.200 
#    2.400    0.000    0.000    0.000    0.000    0.000 
#    0.000    0.000    0.000    0.000    0.000    0.000 
#
# Total GULP energy -371940.469287 kJ/mol
# GULP energy per Si atom -12398.015643 kJ/mol
# Density = 2.178348 g / cm^3
# Si number density = 21.833175 Si / 1000 Ang^3
#
#
#
# Elastic Constant Matrix: (Units=GPa)
#
#
# Indices 1 2 3 4 5 6 
#
# 1 81.5680 24.8705 33.4548 0.0000 6.9342 0.0000
# 2 24.8705 76.4445 56.9009 0.0000 0.9681 0.0000
# 3 33.4548 56.9009 128.8185 0.0000 23.7867 0.0000
# 4 0.0000 0.0000 0.0000 46.6584 0.0000 2.0900
# 5 6.9342 0.9681 23.7867 0.0000 37.4512 0.0000
# 6 0.0000 0.0000 0.0000 2.0900 0.0000 40.1061
#
#
#
# Elastic Compliance Matrix: (Units=1/GPa)
#
#
# Indices 1 2 3 4 5 6 
#
# 1 0.014150 -0.003005 -0.002128 0.000000 -0.001191 0.000000
# 2 -0.003005 0.021232 -0.009742 0.000000 0.006195 0.000000
# 3 -0.002128 -0.009742 0.014160 0.000000 -0.008348 0.000000
# 4 0.000000 0.000000 0.000000 0.021483 0.000000 -0.001119
# 5 -0.001191 0.006195 -0.008348 0.000000 0.032064 0.000000
# 6 0.000000 0.000000 0.000000 -0.001119 0.000000 0.024992
#
#
# Mechanical properties :
#
#
# Convention : Reuss Voigt Hill
#
# Bulk Modulus (GPa) = 50.52303 57.47594 53.99948
# Shear Modulus (GPa) = 30.40872 36.28346 33.34609
#
# Velocity S-wave (km/s) = 3.73604 4.08100 3.91232
# Velocity P-wave (km/s) = 6.46540 6.97053 6.72271
#
# Compressibility (1/GPa) = 0.01979295
#
# Stress axis : x y z
#
# Youngs Moduli (GPa) = 70.67265 47.09898 70.62117
#
# Poissons Ratio (x) = 0.14152 0.15026
# Poissons Ratio (y) = 0.21235 0.68799
# Poissons Ratio (z) = 0.15037 0.45884
#
# Static dielectric constant tensor:
#      x y z
#    x 4.021500 0.000000 0.102790 
#    y 0.000000 3.924740 0.000000 
#    z 0.102790 0.000000 4.251760 
# 
# 
# High freq. dielectric constant tensor:
#      x y z
#    x 1.859330 0.000000 0.014340 
#    y 0.000000 1.853780 0.000000 
#    z 0.014340 0.000000 1.866930 
# 
# From -- ./inp_files/248767.got.cif
#   From: 2010.06.25/outbox.cif.g09.slc.cpg/sg15_125_cif.got.tgz:248767.got - 2010.06.28 07:06:18.
