data_PCOD8147694
_publ_section_title
;
Structure prediction by ZEFSAII (Michael W. Deem and Ramdas Pophale) SiO2 
 PCOD8147694
Probable space group: C 2/C
;
_chemical_formula_sum "Si O2"
_cell_formula_units_Z 56
_cell_length_a 12.138704
_cell_length_b 32.755854
_cell_length_c 8.424575
_cell_angle_alpha 90.000000
_cell_angle_beta 127.237403
_cell_angle_gamma 90.000000
_cell_volume 2666.834103
_symmetry_space_group_name_H-M "C 2/C"
_symmetry_group_IT_number 15
_symmetry_cell_setting 'monoclinic'
loop_
_space_group_symop_operation_xyz
x,y,z
-x,y,1/2-z
-x,-y,-z
x,-y,1/2+z
1/2+x,1/2+y,z
1/2-x,1/2+y,1/2-z
1/2-x,1/2-y,-z
1/2+x,1/2-y,1/2+z
loop_
_atom_site_type_symbol
_atom_site_label
_atom_site_fract_x
_atom_site_fract_y
_atom_site_fract_z
Si Si1 0.717722 0.910462 0.162414
Si Si2 0.691203 0.825383 0.759822
Si Si3 0.965276 0.044654 0.035644
Si Si4 0.377779 0.177878 0.938552
Si Si5 0.277281 0.584694 0.350833
Si Si6 0.535676 0.956190 0.465752
Si Si7 0.858901 0.758538 0.723595
O O1 0.810930 0.937833 0.364160
O O2 0.715055 0.861575 0.196973
O O3 0.558153 0.922329 0.034495
O O4 0.752051 0.923003 0.013540
O O5 0.541025 0.827816 0.547562
O O6 0.755706 0.869054 0.787268
O O7 0.806576 0.795820 0.785783
O O8 0.664440 0.813358 0.917810
O O9 0.000000 0.044648 0.250000
O O10 0.061633 0.076738 0.031377
O O11 0.000000 0.000000 0.000000
O O12 0.346720 0.218248 0.816848
O O13 0.191469 0.555014 0.156483
O O14 0.500000 0.955057 0.250000
O O15 0.500000 0.000000 0.500000
O O16 0.750000 0.750000 0.500000
O O17 0.000000 0.767674 0.750000
#
# Coordination Sequence:
#
# PCOD8147694 Si02
#       7
#     8   8   8   8   8   8   8
#     4  11  23  43  70  96 126 174 221 272 335 391
#     4  10  22  44  70  97 133 176 225 274 331 406
#     4  12  26  45  65  96 137 179 219 272 336 398
#     4  10  22  44  70  97 132 177 224 274 333 403
#     4  11  23  43  68  97 129 169 221 278 327 394
#     4  12  24  39  63  96 130 170 217 269 324 392
#     4  12  25  42  65 100 137 176 218 279 339 394
#
# _framework density 20.998681000000001
#
# number of rings (size 3 to 8) (size 9 to 14) (size 15 to 20)
#    0.000    0.857    2.857    4.714    0.000    4.571 
#    0.000    1.429    0.000    0.000    0.000    0.000 
#    0.000    0.000    0.000    0.000    0.000    0.000 
#
# Total GULP energy -346956.891730 kJ/mol
# GULP energy per Si atom -12391.317562 kJ/mol
# Density = 2.095089 g / cm^3
# Si number density = 20.998681 Si / 1000 Ang^3
#
#
#
# Elastic Constant Matrix: (Units=GPa)
#
#
# Indices 1 2 3 4 5 6 
#
# 1 103.4982 47.0919 17.0488 0.0000 3.8743 0.0000
# 2 47.0919 139.6582 51.0904 0.0000 -5.8254 0.0000
# 3 17.0488 51.0904 100.9233 0.0000 2.1776 0.0000
# 4 0.0000 0.0000 0.0000 30.9672 0.0000 6.9277
# 5 3.8743 -5.8254 2.1776 0.0000 34.1627 0.0000
# 6 0.0000 0.0000 0.0000 6.9277 0.0000 37.0714
#
#
#
# Elastic Compliance Matrix: (Units=1/GPa)
#
#
# Indices 1 2 3 4 5 6 
#
# 1 0.011547 -0.004025 0.000130 0.000000 -0.002004 0.000000
# 2 -0.004025 0.010301 -0.004589 0.000000 0.002505 0.000000
# 3 0.000130 -0.004589 0.012243 0.000000 -0.001578 0.000000
# 4 0.000000 0.000000 0.000000 0.033701 0.000000 -0.006298
# 5 -0.002004 0.002505 -0.001578 0.000000 0.030027 0.000000
# 6 0.000000 0.000000 0.000000 -0.006298 0.000000 0.028152
#
#
# Mechanical properties :
#
#
# Convention : Reuss Voigt Hill
#
# Bulk Modulus (GPa) = 58.39624 63.83799 61.11712
# Shear Modulus (GPa) = 33.63711 35.69683 34.66697
#
# Velocity S-wave (km/s) = 4.00668 4.12753 4.06755
# Velocity P-wave (km/s) = 7.01958 7.29262 7.15740
#
# Compressibility (1/GPa) = 0.01712439
#
# Stress axis : x y z
#
# Youngs Moduli (GPa) = 86.60371 97.08184 81.67604
#
# Poissons Ratio (x) = 0.39073 -0.01062
# Poissons Ratio (y) = 0.34855 0.37478
# Poissons Ratio (z) = -0.01127 0.44547
#
# Static dielectric constant tensor:
#      x y z
#    x 4.028380 0.000000 0.022490 
#    y 0.000000 3.891020 0.000000 
#    z 0.022490 0.000000 3.834920 
# 
# 
# High freq. dielectric constant tensor:
#      x y z
#    x 1.835610 0.000000 -0.002510 
#    y 0.000000 1.835220 0.000000 
#    z -0.002510 0.000000 1.828680 
# 
# From -- ./inp_files/35744.got.cif
#   From: 2010.06.25/outbox.cif.g09.slc.cpg/sg15_18_cif.got.tgz:35744.got - 2010.06.28 07:06:18.
