data_PCOD8147465
_publ_section_title
;
Structure prediction by ZEFSAII (Michael W. Deem and Ramdas Pophale) SiO2 
 PCOD8147465
Probable space group: C 2/C
;
_chemical_formula_sum "Si O2"
_cell_formula_units_Z 64
_cell_length_a 15.660315
_cell_length_b 24.923847
_cell_length_c 12.426140
_cell_angle_alpha 90.000000
_cell_angle_beta 38.351427
_cell_angle_gamma 90.000000
_cell_volume 3009.413199
_symmetry_space_group_name_H-M "C 2/C"
_symmetry_group_IT_number 15
_symmetry_cell_setting 'monoclinic'
loop_
_space_group_symop_operation_xyz
x,y,z
-x,y,1/2-z
-x,-y,-z
x,-y,1/2+z
1/2+x,1/2+y,z
1/2-x,1/2+y,1/2-z
1/2-x,1/2-y,-z
1/2+x,1/2-y,1/2+z
loop_
_atom_site_type_symbol
_atom_site_label
_atom_site_fract_x
_atom_site_fract_y
_atom_site_fract_z
Si Si1 0.742616 0.625653 0.123967
Si Si2 0.760080 0.920542 0.094320
Si Si3 0.716104 0.210411 0.245584
Si Si4 0.021150 0.439820 0.017344
Si Si5 0.497284 0.397863 0.011334
Si Si6 0.631507 0.463345 0.047015
Si Si7 0.382600 0.886350 0.783862
Si Si8 0.500962 0.289950 0.121368
O O1 0.801702 0.681100 0.119180
O O2 0.588872 0.620396 0.320424
O O3 0.730698 0.626192 0.005883
O O4 0.836660 0.573482 0.060419
O O5 0.601721 0.924045 0.282597
O O6 0.844531 0.907434 0.118692
O O7 0.821588 0.975562 0.986122
O O8 0.697214 0.166990 0.169514
O O9 0.617664 0.260497 0.328266
O O10 0.866466 0.233437 0.071324
O O11 0.024832 0.406022 0.905957
O O12 0.000000 0.500000 0.000000
O O13 0.575740 0.449970 0.982272
O O14 0.487740 0.353579 0.114829
O O15 0.500000 0.450684 0.250000
O O16 0.767530 0.428173 0.940354
O O17 0.500000 0.870951 0.750000
O O18 0.500000 0.277729 0.250000
#
# Coordination Sequence:
#
# PCOD8147465 Si02
#       8
#     8   8   8   8   8   8   8   8
#     4  10  22  44  60  89 135 169 222 276 319 387
#     4  12  25  38  68  93 126 188 225 266 326 390
#     4  10  23  43  65  93 133 164 214 279 333 405
#     4  11  22  39  59  89 128 167 217 270 322 385
#     4  11  23  43  61  94 133 168 222 281 326 397
#     4  12  24  41  62  94 136 174 219 274 326 402
#     4  11  24  41  63  93 130 170 210 270 331 394
#     4  11  22  40  69  96 130 167 216 276 352 396
#
# _framework density 21.266604999999998
#
# number of rings (size 3 to 8) (size 9 to 14) (size 15 to 20)
#    0.000    1.000    5.000    3.000    3.500    2.000 
#    0.000    0.625    0.000    4.500    0.000    0.000 
#    0.000    0.000    0.000    0.000    0.000    0.000 
#
# Total GULP energy -396600.872741 kJ/mol
# GULP energy per Si atom -12393.777273 kJ/mol
# Density = 2.121820 g / cm^3
# Si number density = 21.266605 Si / 1000 Ang^3
#
#
#
# Elastic Constant Matrix: (Units=GPa)
#
#
# Indices 1 2 3 4 5 6 
#
# 1 79.9310 15.1243 21.5154 -0.0002 -9.8345 0.0001
# 2 15.1243 48.5509 29.8596 0.0000 -5.4069 0.0000
# 3 21.5154 29.8596 117.8155 -0.0003 -0.2854 0.0002
# 4 -0.0002 0.0000 -0.0003 23.3234 0.0003 -5.6777
# 5 -9.8345 -5.4069 -0.2854 0.0003 30.5939 -0.0002
# 6 0.0001 0.0000 0.0002 -5.6777 -0.0002 24.3258
#
#
#
# Elastic Compliance Matrix: (Units=1/GPa)
#
#
# Indices 1 2 3 4 5 6 
#
# 1 0.014027 -0.002790 -0.001845 0.000000 0.003999 0.000000
# 2 -0.002790 0.025522 -0.005950 0.000000 0.003558 0.000000
# 3 -0.001845 -0.005950 0.010329 0.000000 -0.001548 0.000000
# 4 0.000000 0.000000 0.000000 0.045458 0.000000 0.010610
# 5 0.003999 0.003558 -0.001548 0.000000 0.034586 0.000000
# 6 0.000000 0.000000 0.000000 0.010610 0.000000 0.043585
#
#
# Mechanical properties :
#
#
# Convention : Reuss Voigt Hill
#
# Bulk Modulus (GPa) = 34.83312 42.14399 38.48856
# Shear Modulus (GPa) = 24.48018 27.63514 26.05766
#
# Velocity S-wave (km/s) = 3.39648 3.60872 3.50421
# Velocity P-wave (km/s) = 5.63882 6.10113 5.87452
#
# Compressibility (1/GPa) = 0.02870831
#
# Stress axis : x y z
#
# Youngs Moduli (GPa) = 71.28972 39.18227 96.81404
#
# Poissons Ratio (x) = 0.10931 0.17862
# Poissons Ratio (y) = 0.19888 0.57607
# Poissons Ratio (z) = 0.13152 0.23314
#
# Static dielectric constant tensor:
#      x y z
#    x 3.981370 0.000000 -0.078650 
#    y 0.000000 3.572330 0.000000 
#    z -0.078650 0.000000 3.934900 
# 
# 
# High freq. dielectric constant tensor:
#      x y z
#    x 1.836880 0.000000 -0.013410 
#    y 0.000000 1.813680 0.000000 
#    z -0.013410 0.000000 1.843150 
# 
# From -- ./inp_files/101330.got.cif
#   From: 2010.06.25/outbox.cif.g09.slc.cpg/sg15_51_cif.got.tgz:101330.got - 2010.06.28 07:06:18.
