data_PCOD8147045
_publ_section_title
;
Structure prediction by ZEFSAII (Michael W. Deem and Ramdas Pophale) SiO2 
 PCOD8147045
Probable space group: C 2/C
;
_chemical_formula_sum "Si O2"
_cell_formula_units_Z 48
_cell_length_a 24.560069
_cell_length_b 9.044742
_cell_length_c 18.563299
_cell_angle_alpha 90.000000
_cell_angle_beta 148.781325
_cell_angle_gamma 90.000000
_cell_volume 2137.307340
_symmetry_space_group_name_H-M "C 2/C"
_symmetry_group_IT_number 15
_symmetry_cell_setting 'monoclinic'
loop_
_space_group_symop_operation_xyz
x,y,z
-x,y,1/2-z
-x,-y,-z
x,-y,1/2+z
1/2+x,1/2+y,z
1/2-x,1/2+y,1/2-z
1/2-x,1/2-y,-z
1/2+x,1/2-y,1/2+z
loop_
_atom_site_type_symbol
_atom_site_label
_atom_site_fract_x
_atom_site_fract_y
_atom_site_fract_z
Si Si1 0.450373 0.732196 0.970580
Si Si2 0.430473 0.892119 0.803997
Si Si3 0.908301 0.908981 0.203471
Si Si4 0.630791 0.542232 0.191374
Si Si5 0.793816 0.415878 0.058951
Si Si6 0.626709 0.938208 0.501744
O O1 0.409857 0.845862 0.863337
O O2 0.390775 0.576863 0.895103
O O3 0.423393 0.793555 0.018643
O O4 0.576193 0.698127 0.107697
O O5 0.399748 0.765066 0.712147
O O6 0.362837 0.041160 0.708050
O O7 0.555537 0.921419 0.942011
O O8 0.000000 0.941517 0.250000
O O9 0.926852 0.994661 0.299373
O O10 0.799608 0.965233 0.046750
O O11 0.754439 0.551654 0.337509
O O12 0.750000 0.250000 0.000000
O O13 0.876190 0.431069 0.087345
#
# Coordination Sequence:
#
# PCOD8147045 Si02
#       6
#     8   8   8   8   8   8
#     4  10  23  43  67  95 136 176 227 278 339 402
#     4  11  24  44  67 100 131 180 232 279 336 412
#     4  10  22  42  69  94 134 179 225 275 341 404
#     4   9  23  43  62 101 131 171 231 279 331 407
#     4  11  26  42  66 102 137 174 226 282 341 406
#     4  11  24  40  70  92 138 172 226 278 339 400
#
# _framework density 22.458165000000001
#
# number of rings (size 3 to 8) (size 9 to 14) (size 15 to 20)
#    0.000    1.667    0.000    2.500    9.333    4.000 
#    3.000    0.000    0.000    0.000    0.000    0.000 
#    0.000    0.000    0.000    0.000    0.000    0.000 
#
# Total GULP energy -297431.344747 kJ/mol
# GULP energy per Si atom -12392.972698 kJ/mol
# Density = 2.240705 g / cm^3
# Si number density = 22.458165 Si / 1000 Ang^3
#
#
#
# Elastic Constant Matrix: (Units=GPa)
#
#
# Indices 1 2 3 4 5 6 
#
# 1 88.5208 36.4432 18.6908 0.0000 12.9513 0.0000
# 2 36.4432 110.3426 56.3223 0.0000 10.2341 0.0000
# 3 18.6908 56.3223 125.6889 0.0000 12.4149 0.0000
# 4 0.0000 0.0000 0.0000 48.3458 0.0000 -2.6977
# 5 12.9513 10.2341 12.4149 0.0000 28.5447 0.0000
# 6 0.0000 0.0000 0.0000 -2.6977 0.0000 23.6532
#
#
#
# Elastic Compliance Matrix: (Units=1/GPa)
#
#
# Indices 1 2 3 4 5 6 
#
# 1 0.013679 -0.004246 0.000346 0.000000 -0.004835 0.000000
# 2 -0.004246 0.013180 -0.005222 0.000000 -0.000527 0.000000
# 3 0.000346 -0.005222 0.010528 0.000000 -0.002863 0.000000
# 4 0.000000 0.000000 0.000000 0.020817 0.000000 0.002374
# 5 -0.004835 -0.000527 -0.002863 0.000000 0.038661 0.000000
# 6 0.000000 0.000000 0.000000 0.002374 0.000000 0.042548
#
#
# Mechanical properties :
#
#
# Convention : Reuss Voigt Hill
#
# Bulk Modulus (GPa) = 52.24201 60.82944 56.53572
# Shear Modulus (GPa) = 30.48074 34.31512 32.39793
#
# Velocity S-wave (km/s) = 3.68805 3.91315 3.80227
# Velocity P-wave (km/s) = 6.43801 6.89648 6.67119
#
# Compressibility (1/GPa) = 0.01914168
#
# Stress axis : x y z
#
# Youngs Moduli (GPa) = 73.10406 75.87463 94.98722
#
# Poissons Ratio (x) = 0.32217 -0.03287
# Poissons Ratio (y) = 0.31041 0.49606
# Poissons Ratio (z) = -0.02530 0.39625
#
# Static dielectric constant tensor:
#      x y z
#    x 4.068290 0.000000 -0.095400 
#    y 0.000000 4.082980 0.000000 
#    z -0.095400 0.000000 4.181140 
# 
# 
# High freq. dielectric constant tensor:
#      x y z
#    x 1.874420 0.000000 -0.004000 
#    y 0.000000 1.883790 0.000000 
#    z -0.004000 0.000000 1.898040 
# 
# From -- ./inp_files/257244.got.cif
#   From: 2010.06.25/outbox.cif.g09.slc.cpg/sg15_129_cif.got.tgz:257244.got - 2010.06.28 07:06:18.
