data_PCOD8147202
_publ_section_title
;
Structure prediction by ZEFSAII (Michael W. Deem and Ramdas Pophale) SiO2 
 PCOD8147202
Probable space group: C 2/C
;
_chemical_formula_sum "Si O2"
_cell_formula_units_Z 40
_cell_length_a 11.663515
_cell_length_b 12.826688
_cell_length_c 26.394135
_cell_angle_alpha 90.000000
_cell_angle_beta 28.841881
_cell_angle_gamma 90.000000
_cell_volume 1904.817607
_symmetry_space_group_name_H-M "C 2/C"
_symmetry_group_IT_number 15
_symmetry_cell_setting 'monoclinic'
loop_
_space_group_symop_operation_xyz
x,y,z
-x,y,1/2-z
-x,-y,-z
x,-y,1/2+z
1/2+x,1/2+y,z
1/2-x,1/2+y,1/2-z
1/2-x,1/2-y,-z
1/2+x,1/2-y,1/2+z
loop_
_atom_site_type_symbol
_atom_site_label
_atom_site_fract_x
_atom_site_fract_y
_atom_site_fract_z
Si Si1 0.127003 0.591726 0.101103
Si Si2 0.566551 0.879957 0.297373
Si Si3 0.950488 0.797614 0.211842
Si Si4 0.124798 0.187324 0.917451
Si Si5 0.604642 0.910664 0.494555
O O1 0.992533 0.502731 0.184828
O O2 0.980111 0.698452 0.163634
O O3 0.395846 0.614035 0.016073
O O4 0.127124 0.551483 0.043438
O O5 0.687015 0.845479 0.304195
O O6 0.752176 0.848861 0.182035
O O7 0.313167 0.822505 0.390230
O O8 0.000000 0.761777 0.250000
O O9 0.133045 0.888600 0.127414
O O10 0.055940 0.307804 0.943585
O O11 0.500000 0.000000 0.500000
#
# Coordination Sequence:
#
# PCOD8147202 Si02
#       5
#     8   8   8   8   8
#     4  11  22  43  66  93 134 174 215 267 335 383
#     4  11  22  40  66  96 128 173 221 267 320 385
#     4  11  23  42  63  97 132 170 223 269 325 393
#     4  10  22  43  63  95 132 169 216 272 322 386
#     4  11  22  44  67  92 132 172 213 274 330 386
#
# _framework density 20.999383999999999
#
# number of rings (size 3 to 8) (size 9 to 14) (size 15 to 20)
#    0.000    1.200    4.000    3.000    2.800    1.600 
#    3.600    5.000    0.000    0.000    0.000    0.000 
#    0.000    0.000    0.000    0.000    0.000    0.000 
#
# Total GULP energy -247973.683327 kJ/mol
# GULP energy per Si atom -12398.684166 kJ/mol
# Density = 2.095159 g / cm^3
# Si number density = 20.999384 Si / 1000 Ang^3
#
#
#
# Elastic Constant Matrix: (Units=GPa)
#
#
# Indices 1 2 3 4 5 6 
#
# 1 142.3007 49.9541 50.5828 -0.0003 -23.0118 0.0010
# 2 49.9541 112.6350 56.5866 -0.0123 -18.9649 0.0051
# 3 50.5828 56.5866 90.2699 -0.0416 -20.4913 0.0375
# 4 -0.0003 -0.0123 -0.0416 34.8164 0.0141 1.5532
# 5 -23.0118 -18.9649 -20.4913 0.0141 43.5874 -0.0039
# 6 0.0010 0.0051 0.0375 1.5532 -0.0039 32.3533
#
#
#
# Elastic Compliance Matrix: (Units=1/GPa)
#
#
# Indices 1 2 3 4 5 6 
#
# 1 0.009346 -0.002016 -0.003417 -0.000006 0.002451 0.000005
# 2 -0.002016 0.013558 -0.007021 -0.000005 0.001534 0.000006
# 3 -0.003417 -0.007021 0.018237 0.000019 0.003715 -0.000020
# 4 -0.000006 -0.000005 0.000019 0.028784 -0.000006 -0.001382
# 5 0.002451 0.001534 0.003715 -0.000006 0.026650 -0.000001
# 6 0.000005 0.000006 -0.000020 -0.001382 -0.000001 0.030975
#
#
# Mechanical properties :
#
#
# Convention : Reuss Voigt Hill
#
# Bulk Modulus (GPa) = 61.60258 73.27250 67.43754
# Shear Modulus (GPa) = 31.67184 34.69024 33.18104
#
# Velocity S-wave (km/s) = 3.88780 4.06885 3.97935
# Velocity P-wave (km/s) = 7.03935 7.55265 7.30051
#
# Compressibility (1/GPa) = 0.01623309
#
# Stress axis : x y z
#
# Youngs Moduli (GPa) = 106.99842 73.75817 54.83265
#
# Poissons Ratio (x) = 0.14866 0.18738
# Poissons Ratio (y) = 0.21566 0.38499
# Poissons Ratio (z) = 0.36564 0.51787
#
# Static dielectric constant tensor:
#      x y z
#    x 4.103030 0.000000 -0.157290 
#    y 0.000000 3.679800 -0.000020 
#    z -0.157290 -0.000020 3.885950 
# 
# 
# High freq. dielectric constant tensor:
#      x y z
#    x 1.833490 0.000000 -0.012870 
#    y 0.000000 1.820080 0.000000 
#    z -0.012870 0.000000 1.816410 
# 
# From -- ./inp_files/122763.got.cif
#   From: 2010.06.25/outbox.cif.g09.slc.cpg/sg15_62_cif.got.tgz:122763.got - 2010.06.28 07:06:18.
