data_PCOD8147653
_publ_section_title
;
Structure prediction by ZEFSAII (Michael W. Deem and Ramdas Pophale) SiO2 
 PCOD8147653
Probable space group: C 2/C
;
_chemical_formula_sum "Si O2"
_cell_formula_units_Z 36
_cell_length_a 18.930553
_cell_length_b 6.669117
_cell_length_c 15.502477
_cell_angle_alpha 90.000000
_cell_angle_beta 133.213792
_cell_angle_gamma 90.000000
_cell_volume 1426.406720
_symmetry_space_group_name_H-M "C 2/C"
_symmetry_group_IT_number 15
_symmetry_cell_setting 'monoclinic'
loop_
_space_group_symop_operation_xyz
x,y,z
-x,y,1/2-z
-x,-y,-z
x,-y,1/2+z
1/2+x,1/2+y,z
1/2-x,1/2+y,1/2-z
1/2-x,1/2-y,-z
1/2+x,1/2-y,1/2+z
loop_
_atom_site_type_symbol
_atom_site_label
_atom_site_fract_x
_atom_site_fract_y
_atom_site_fract_z
Si Si1 0.000000 0.970478 0.750000
Si Si2 0.544273 0.832328 0.899191
Si Si3 0.844573 0.639608 0.613748
Si Si4 0.167778 0.624094 0.248208
Si Si5 0.727988 0.003484 0.621039
O O1 0.971666 0.103749 0.643495
O O2 0.903805 0.839321 0.687963
O O3 0.446564 0.911471 0.862736
O O4 0.575835 0.968784 0.843565
O O5 0.631907 0.854845 0.040852
O O6 0.791840 0.551307 0.655004
O O7 0.771105 0.645878 0.464691
O O8 0.182344 0.842672 0.305336
O O9 0.225897 0.625409 0.206611
#
# Coordination Sequence:
#
# PCOD8147653 Si02
#       5
#     4   8   8   8   8
#     4  12  18  40  80 102 122 190 218 264 370 384
#     4  10  22  44  69 101 135 173 228 278 333 401
#     4  10  22  44  69 101 135 173 228 278 333 401
#     4  12  21  49  68  94 150 174 222 296 322 406
#     4  10  26  42  68 104 134 184 226 276 344 398
#
# _framework density 25.238243000000001
#
# number of rings (size 3 to 8) (size 9 to 14) (size 15 to 20)
#    1.333    0.000    4.444    1.333    0.000    3.556 
#    0.000    6.667    0.000    0.000    0.000    0.000 
#    0.000    0.000    0.000    0.000    0.000    0.000 
#
# Total GULP energy -223153.548162 kJ/mol
# GULP energy per Si atom -12397.419342 kJ/mol
# Density = 2.518080 g / cm^3
# Si number density = 25.238243 Si / 1000 Ang^3
#
#
#
# Elastic Constant Matrix: (Units=GPa)
#
#
# Indices 1 2 3 4 5 6 
#
# 1 91.0345 44.0736 36.1502 0.0000 -23.7276 0.0000
# 2 44.0736 146.5528 47.8519 -0.0001 -17.0937 0.0000
# 3 36.1502 47.8519 108.5145 0.0000 -5.8285 0.0000
# 4 0.0000 -0.0001 0.0000 47.5976 0.0000 0.8844
# 5 -23.7276 -17.0937 -5.8285 0.0000 47.5085 0.0000
# 6 0.0000 0.0000 0.0000 0.8844 0.0000 47.2823
#
#
#
# Elastic Compliance Matrix: (Units=1/GPa)
#
#
# Indices 1 2 3 4 5 6 
#
# 1 0.015352 -0.002719 -0.003579 0.000000 0.006250 0.000000
# 2 -0.002719 0.008747 -0.002874 0.000000 0.001437 0.000000
# 3 -0.003579 -0.002874 0.011600 0.000000 -0.001399 0.000000
# 4 0.000000 0.000000 0.000000 0.021017 0.000000 -0.000393
# 5 0.006250 0.001437 -0.001399 0.000000 0.024516 0.000000
# 6 0.000000 0.000000 0.000000 -0.000393 0.000000 0.021157
#
#
# Mechanical properties :
#
#
# Convention : Reuss Voigt Hill
#
# Bulk Modulus (GPa) = 57.62574 66.91702 62.27138
# Shear Modulus (GPa) = 39.51991 43.01276 41.26634
#
# Velocity S-wave (km/s) = 3.96141 4.13276 4.04799
# Velocity P-wave (km/s) = 6.61860 7.02457 6.82461
#
# Compressibility (1/GPa) = 0.01735336
#
# Stress axis : x y z
#
# Youngs Moduli (GPa) = 65.13966 114.32123 86.20543
#
# Poissons Ratio (x) = 0.31084 0.30857
# Poissons Ratio (y) = 0.17712 0.24778
# Poissons Ratio (z) = 0.23317 0.32860
#
# Static dielectric constant tensor:
#      x y z
#    x 4.237500 0.000000 0.274130 
#    y 0.000000 4.497780 0.000000 
#    z 0.274130 0.000000 4.643360 
# 
# 
# High freq. dielectric constant tensor:
#      x y z
#    x 2.007250 0.000000 0.021510 
#    y 0.000000 2.019090 0.000000 
#    z 0.021510 0.000000 2.018520 
# 
# From -- ./inp_files/256412.got.cif
#   From: 2010.06.25/outbox.cif.g09.slc.cpg/sg15_129_cif.got.tgz:256412.got - 2010.06.28 07:06:18.
