data_PCOD8147460
_publ_section_title
;
Structure prediction by ZEFSAII (Michael W. Deem and Ramdas Pophale) SiO2 
 PCOD8147460
Probable space group: C 2/C
;
_chemical_formula_sum "Si O2"
_cell_formula_units_Z 48
_cell_length_a 28.517527
_cell_length_b 7.203453
_cell_length_c 18.337812
_cell_angle_alpha 90.000000
_cell_angle_beta 143.225783
_cell_angle_gamma 90.000000
_cell_volume 2255.187598
_symmetry_space_group_name_H-M "C 2/C"
_symmetry_group_IT_number 15
_symmetry_cell_setting 'monoclinic'
loop_
_space_group_symop_operation_xyz
x,y,z
-x,y,1/2-z
-x,-y,-z
x,-y,1/2+z
1/2+x,1/2+y,z
1/2-x,1/2+y,1/2-z
1/2-x,1/2-y,-z
1/2+x,1/2-y,1/2+z
loop_
_atom_site_type_symbol
_atom_site_label
_atom_site_fract_x
_atom_site_fract_y
_atom_site_fract_z
Si Si1 0.808379 0.695920 0.942991
Si Si2 0.136353 0.300974 0.510371
Si Si3 0.191656 0.728752 0.725930
Si Si4 0.420336 0.109942 0.408689
Si Si5 0.587189 0.488440 0.346576
Si Si6 0.638830 0.436173 0.252080
O O1 0.861664 0.513048 0.013146
O O2 0.799305 0.766598 0.848715
O O3 0.724037 0.651303 0.871696
O O4 0.849224 0.849425 0.042279
O O5 0.223258 0.221183 0.631725
O O6 0.085083 0.289603 0.519896
O O7 0.093655 0.186114 0.394387
O O8 0.151961 0.531246 0.692160
O O9 0.141408 0.897698 0.696471
O O10 0.418193 0.271901 0.345936
O O11 0.500000 0.000000 0.500000
O O12 0.500000 0.408883 0.250000
O O13 0.604076 0.519613 0.282685
#
# Coordination Sequence:
#
# PCOD8147460 Si02
#       6
#     8   8   8   8   8   8
#     4  10  22  44  70  96 127 176 229 276 321 393
#     4  10  23  44  68  96 131 176 222 276 329 395
#     4  10  22  43  75  97 126 175 234 284 322 389
#     4  11  24  39  70 102 131 171 230 287 326 387
#     4  12  28  41  63  97 148 178 208 269 344 410
#     4  11  24  42  68 100 131 178 221 272 335 401
#
# _framework density 21.284261000000001
#
# number of rings (size 3 to 8) (size 9 to 14) (size 15 to 20)
#    0.000    1.333    1.667    2.500    9.333    5.333 
#    0.000    0.000    0.000    0.000    0.000    0.000 
#    0.000    0.000    0.000    0.000    0.000    0.000 
#
# Total GULP energy -297747.035464 kJ/mol
# GULP energy per Si atom -12406.126478 kJ/mol
# Density = 2.123582 g / cm^3
# Si number density = 21.284261 Si / 1000 Ang^3
#
#
#
# Elastic Constant Matrix: (Units=GPa)
#
#
# Indices 1 2 3 4 5 6 
#
# 1 134.6872 40.0792 41.0535 0.0000 -5.3333 0.0000
# 2 40.0792 96.0467 30.8167 0.0002 -16.6853 0.0001
# 3 41.0535 30.8167 53.7167 0.0000 -4.5249 0.0000
# 4 0.0000 0.0002 0.0000 21.4382 0.0000 -2.7246
# 5 -5.3333 -16.6853 -4.5249 0.0000 21.0681 0.0000
# 6 0.0000 0.0001 0.0000 -2.7246 0.0000 32.1880
#
#
#
# Elastic Compliance Matrix: (Units=1/GPa)
#
#
# Indices 1 2 3 4 5 6 
#
# 1 0.010024 -0.002223 -0.006437 0.000000 -0.000605 0.000000
# 2 -0.002223 0.015034 -0.006080 0.000000 0.010038 0.000000
# 3 -0.006437 -0.006080 0.026969 0.000000 -0.000653 0.000000
# 4 0.000000 0.000000 0.000000 0.047153 0.000000 0.003991
# 5 -0.000605 0.010038 -0.000653 0.000000 0.055121 0.000000
# 6 0.000000 0.000000 0.000000 0.003991 0.000000 0.031405
#
#
# Mechanical properties :
#
#
# Convention : Reuss Voigt Hill
#
# Bulk Modulus (GPa) = 44.35231 56.48327 50.41779
# Shear Modulus (GPa) = 22.45154 26.43894 24.44524
#
# Velocity S-wave (km/s) = 3.25136 3.52828 3.39265
# Velocity P-wave (km/s) = 5.91426 6.57218 6.25188
#
# Compressibility (1/GPa) = 0.02254674
#
# Stress axis : x y z
#
# Youngs Moduli (GPa) = 99.75991 66.51665 37.07991
#
# Poissons Ratio (x) = 0.14786 0.23867
# Poissons Ratio (y) = 0.22175 0.22546
# Poissons Ratio (z) = 0.64213 0.40444
#
# Static dielectric constant tensor:
#      x y z
#    x 3.868880 0.000000 0.004580 
#    y 0.000000 3.972290 0.000000 
#    z 0.004580 0.000000 3.728170 
# 
# 
# High freq. dielectric constant tensor:
#      x y z
#    x 1.837240 0.000000 0.003420 
#    y 0.000000 1.848230 0.000000 
#    z 0.003420 0.000000 1.823790 
# 
# From -- ./inp_files/224699.got.cif
#   From: 2010.06.25/outbox.cif.g09.slc.cpg/sg15_113_cif.got.tgz:224699.got - 2010.06.28 07:06:18.
