data_PCOD8147960
_publ_section_title
;
Structure prediction by ZEFSAII (Michael W. Deem and Ramdas Pophale) SiO2 
 PCOD8147960
Probable space group: C 2/C
;
_chemical_formula_sum "Si O2"
_cell_formula_units_Z 40
_cell_length_a 28.951276
_cell_length_b 5.525288
_cell_length_c 10.156091
_cell_angle_alpha 90.000000
_cell_angle_beta 116.985362
_cell_angle_gamma 90.000000
_cell_volume 1447.726798
_symmetry_space_group_name_H-M "C 2/C"
_symmetry_group_IT_number 15
_symmetry_cell_setting 'monoclinic'
loop_
_space_group_symop_operation_xyz
x,y,z
-x,y,1/2-z
-x,-y,-z
x,-y,1/2+z
1/2+x,1/2+y,z
1/2-x,1/2+y,1/2-z
1/2-x,1/2-y,-z
1/2+x,1/2-y,1/2+z
loop_
_atom_site_type_symbol
_atom_site_label
_atom_site_fract_x
_atom_site_fract_y
_atom_site_fract_z
Si Si1 0.331469 0.941073 0.375242
Si Si2 0.059472 0.021104 0.868763
Si Si3 0.272312 0.586017 0.143372
Si Si4 0.643014 0.252322 0.322001
Si Si5 0.536203 0.016411 0.923031
O O1 0.272994 0.044710 0.309791
O O2 0.368342 0.105685 0.327892
O O3 0.322182 0.686867 0.289253
O O4 0.356329 0.931552 0.552617
O O5 0.098264 0.046289 0.792917
O O6 0.070786 0.266940 0.971028
O O7 0.000000 0.023663 0.750000
O O8 0.069407 0.768876 0.959726
O O9 0.298245 0.352846 0.107598
O O10 0.250000 0.750000 0.000000
O O11 0.500000 0.005119 0.750000
O O12 0.500000 0.000000 0.000000
#
# Coordination Sequence:
#
# PCOD8147960 Si02
#       5
#     8   8   8   8   8
#     4  12  25  46  73 110 151 199 255 330 397 474
#     4  10  25  49  76 110 153 206 259 323 382 462
#     4  12  24  46  73 107 153 195 256 321 399 473
#     4  12  28  45  76 113 152 204 260 322 397 478
#     4  10  22  46  74 104 143 196 254 317 381 449
#
# _framework density 27.629522999999999
#
# number of rings (size 3 to 8) (size 9 to 14) (size 15 to 20)
#    0.000    0.800    4.000    2.400    2.800    3.200 
#   10.800    0.000    0.000    0.000    0.000    0.000 
#    0.000    0.000    0.000    0.000    0.000    0.000 
#
# Total GULP energy -247808.919210 kJ/mol
# GULP energy per Si atom -12390.445961 kJ/mol
# Density = 2.756664 g / cm^3
# Si number density = 27.629523 Si / 1000 Ang^3
#
#
#
# Elastic Constant Matrix: (Units=GPa)
#
#
# Indices 1 2 3 4 5 6 
#
# 1 185.1248 44.9636 42.1542 0.0000 -32.4085 0.0000
# 2 44.9636 178.8963 40.4211 0.0000 -24.6568 0.0000
# 3 42.1542 40.4211 117.5505 0.0000 -38.0820 0.0000
# 4 0.0000 0.0000 0.0000 36.3891 0.0000 -8.6101
# 5 -32.4085 -24.6568 -38.0820 0.0000 45.8480 0.0000
# 6 0.0000 0.0000 0.0000 -8.6101 0.0000 84.5226
#
#
#
# Elastic Compliance Matrix: (Units=1/GPa)
#
#
# Indices 1 2 3 4 5 6 
#
# 1 0.006413 -0.000956 -0.000915 0.000000 0.003259 0.000000
# 2 -0.000956 0.006353 -0.001305 0.000000 0.001657 0.000000
# 3 -0.000915 -0.001305 0.012104 0.000000 0.008705 0.000000
# 4 0.000000 0.000000 0.000000 0.028159 0.000000 0.002869
# 5 0.003259 0.001657 0.008705 0.000000 0.032236 0.000000
# 6 0.000000 0.000000 0.000000 0.002869 0.000000 0.012123
#
#
# Mechanical properties :
#
#
# Convention : Reuss Voigt Hill
#
# Bulk Modulus (GPa) = 54.00195 81.84993 67.92594
# Shear Modulus (GPa) = 45.48994 56.95410 51.22202
#
# Velocity S-wave (km/s) = 4.06202 4.54513 4.31035
# Velocity P-wave (km/s) = 6.44883 7.56523 7.02923
#
# Compressibility (1/GPa) = 0.01851785
#
# Stress axis : x y z
#
# Youngs Moduli (GPa) = 155.93765 157.39743 82.61705
#
# Poissons Ratio (x) = 0.15045 0.07562
# Poissons Ratio (y) = 0.14905 0.10782
# Poissons Ratio (z) = 0.14273 0.20541
#
# Static dielectric constant tensor:
#      x y z
#    x 5.572720 0.000000 -0.147910 
#    y 0.000000 7.032740 0.000000 
#    z -0.147910 0.000000 4.742330 
# 
# 
# High freq. dielectric constant tensor:
#      x y z
#    x 2.144160 0.000000 -0.002480 
#    y 0.000000 2.119160 0.000000 
#    z -0.002480 0.000000 2.105970 
# 
# From -- ./inp_files/125094.got.cif
#   From: 2010.06.25/outbox.cif.g09.slc.cpg/sg15_63_cif.got.tgz:125094.got - 2010.06.28 07:06:18.
