data_PCOD8147727
_publ_section_title
;
Structure prediction by ZEFSAII (Michael W. Deem and Ramdas Pophale) SiO2 
 PCOD8147727
Probable space group: C 2/C
;
_chemical_formula_sum "Si O2"
_cell_formula_units_Z 36
_cell_length_a 22.142373
_cell_length_b 14.861230
_cell_length_c 8.942063
_cell_angle_alpha 90.000000
_cell_angle_beta 150.544171
_cell_angle_gamma 90.000000
_cell_volume 1446.982101
_symmetry_space_group_name_H-M "C 2/C"
_symmetry_group_IT_number 15
_symmetry_cell_setting 'monoclinic'
loop_
_space_group_symop_operation_xyz
x,y,z
-x,y,1/2-z
-x,-y,-z
x,-y,1/2+z
1/2+x,1/2+y,z
1/2-x,1/2+y,1/2-z
1/2-x,1/2-y,-z
1/2+x,1/2-y,1/2+z
loop_
_atom_site_type_symbol
_atom_site_label
_atom_site_fract_x
_atom_site_fract_y
_atom_site_fract_z
Si Si1 0.119768 0.917969 0.095261
Si Si2 0.296663 0.080769 0.478808
Si Si3 0.186854 0.658742 0.693006
Si Si4 0.000000 0.504201 0.250000
Si Si5 0.606812 0.662535 0.880646
O O1 0.188075 0.852873 0.127175
O O2 0.078947 0.855092 0.146810
O O3 0.210864 0.997048 0.347997
O O4 0.000000 0.955590 0.750000
O O5 0.285795 0.167030 0.569553
O O6 0.238188 0.118117 0.199217
O O7 0.439277 0.056118 0.751478
O O8 0.112373 0.564449 0.549587
O O9 0.108207 0.732873 0.435777
O O10 0.500000 0.616466 0.750000
#
# Coordination Sequence:
#
# PCOD8147727 Si02
#       5
#     8   8   8   4   8
#     4  11  24  44  70 102 138 186 235 284 346 419
#     4  11  24  43  73 104 135 184 236 289 349 416
#     4  11  23  44  68  99 145 180 229 286 353 418
#     4  10  22  44  72 102 136 182 234 288 346 420
#     4  12  25  44  67 100 144 184 231 291 348 413
#
# _framework density 24.879367999999999
#
# number of rings (size 3 to 8) (size 9 to 14) (size 15 to 20)
#    0.000    0.889    1.111    6.667    0.000    4.444 
#    6.000    0.000    0.000    0.000    0.000    0.000 
#    0.000    0.000    0.000    0.000    0.000    0.000 
#
# Total GULP energy -223047.526910 kJ/mol
# GULP energy per Si atom -12391.529273 kJ/mol
# Density = 2.482274 g / cm^3
# Si number density = 24.879368 Si / 1000 Ang^3
#
#
#
# Elastic Constant Matrix: (Units=GPa)
#
#
# Indices 1 2 3 4 5 6 
#
# 1 187.7778 50.5385 68.0893 0.0000 7.5784 0.0000
# 2 50.5385 101.8803 27.4579 0.0000 -1.2426 0.0000
# 3 68.0893 27.4579 94.2553 0.0000 9.8400 0.0000
# 4 0.0000 0.0000 0.0000 22.2970 0.0000 2.2818
# 5 7.5784 -1.2426 9.8400 0.0000 47.4768 0.0000
# 6 0.0000 0.0000 0.0000 2.2818 0.0000 13.6092
#
#
#
# Elastic Compliance Matrix: (Units=1/GPa)
#
#
# Indices 1 2 3 4 5 6 
#
# 1 0.007783 -0.002559 -0.004845 0.000000 -0.000305 0.000000
# 2 -0.002559 0.011534 -0.001621 0.000000 0.001046 0.000000
# 3 -0.004845 -0.001621 0.014826 0.000000 -0.002342 0.000000
# 4 0.000000 0.000000 0.000000 0.045632 0.000000 -0.007651
# 5 -0.000305 0.001046 -0.002342 0.000000 0.021624 0.000000
# 6 0.000000 0.000000 0.000000 -0.007651 0.000000 0.074763
#
#
# Mechanical properties :
#
#
# Convention : Reuss Voigt Hill
#
# Bulk Modulus (GPa) = 62.13493 75.12054 68.62774
# Shear Modulus (GPa) = 25.05283 32.53177 28.79230
#
# Velocity S-wave (km/s) = 3.17673 3.61997 3.40557
# Velocity P-wave (km/s) = 6.20356 6.90881 6.56566
#
# Compressibility (1/GPa) = 0.01609401
#
# Stress axis : x y z
#
# Youngs Moduli (GPa) = 128.47826 86.69734 67.44715
#
# Poissons Ratio (x) = 0.22185 0.32681
# Poissons Ratio (y) = 0.32876 0.10932
# Poissons Ratio (z) = 0.62253 0.14052
#
# Static dielectric constant tensor:
#      x y z
#    x 4.509790 0.000000 0.113670 
#    y 0.000000 4.247940 0.000000 
#    z 0.113670 0.000000 4.370020 
# 
# 
# High freq. dielectric constant tensor:
#      x y z
#    x 1.995530 0.000000 0.004910 
#    y 0.000000 1.978430 0.000000 
#    z 0.004910 0.000000 1.996980 
# 
# From -- ./inp_files/57119.got.cif
#   From: 2010.06.25/outbox.cif.g09.slc.cpg/sg15_29_cif.got.tgz:57119.got - 2010.06.28 07:06:18.
