data_PCOD8147442
_publ_section_title
;
Structure prediction by ZEFSAII (Michael W. Deem and Ramdas Pophale) SiO2 
 PCOD8147442
Probable space group: C 2/C
;
_chemical_formula_sum "Si O2"
_cell_formula_units_Z 40
_cell_length_a 7.014585
_cell_length_b 23.092101
_cell_length_c 10.393297
_cell_angle_alpha 90.000000
_cell_angle_beta 103.134131
_cell_angle_gamma 90.000000
_cell_volume 1639.482271
_symmetry_space_group_name_H-M "C 2/C"
_symmetry_group_IT_number 15
_symmetry_cell_setting 'monoclinic'
loop_
_space_group_symop_operation_xyz
x,y,z
-x,y,1/2-z
-x,-y,-z
x,-y,1/2+z
1/2+x,1/2+y,z
1/2-x,1/2+y,1/2-z
1/2-x,1/2-y,-z
1/2+x,1/2-y,1/2+z
loop_
_atom_site_type_symbol
_atom_site_label
_atom_site_fract_x
_atom_site_fract_y
_atom_site_fract_z
Si Si1 0.000000 0.557613 0.750000
Si Si2 0.271139 0.621492 0.607708
Si Si3 0.000115 0.281394 0.104370
Si Si4 0.385515 0.662045 0.982569
Si Si5 0.791651 0.975312 0.914292
Si Si6 0.000000 0.090660 0.250000
O O1 0.818034 0.595259 0.776056
O O2 0.886154 0.520982 0.622543
O O3 0.507685 0.630942 0.624267
O O4 0.208923 0.577762 0.485201
O O5 0.194102 0.687411 0.581422
O O6 0.957223 0.228581 0.003261
O O7 0.000000 0.257400 0.250000
O O8 0.844524 0.334807 0.077072
O O9 0.423110 0.628775 0.120544
O O10 0.827799 0.951146 0.775252
O O11 0.000000 0.000000 0.000000
#
# Coordination Sequence:
#
# PCOD8147442 Si02
#       6
#     4   8   8   8   8   4
#     4  12  26  43  66 100 136 181 236 288 340 418
#     4  11  25  43  70  96 136 177 230 275 351 405
#     4  11  23  43  70 102 136 173 228 278 345 423
#     4  10  24  44  69 100 139 173 225 285 346 412
#     4  11  26  43  68  98 137 181 236 292 343 407
#     4  10  22  43  72  90 138 177 226 278 358 400
#
# _framework density 24.397946999999998
#
# number of rings (size 3 to 8) (size 9 to 14) (size 15 to 20)
#    0.000    1.200    2.000    2.400    8.400    2.400 
#    0.000    0.000    0.000    0.000    0.000    0.000 
#    0.000    0.000    0.000    0.000    0.000    0.000 
#
# Total GULP energy -247796.451654 kJ/mol
# GULP energy per Si atom -12389.822583 kJ/mol
# Density = 2.434242 g / cm^3
# Si number density = 24.397947 Si / 1000 Ang^3
#
#
#
# Elastic Constant Matrix: (Units=GPa)
#
#
# Indices 1 2 3 4 5 6 
#
# 1 109.1821 19.1321 22.1409 0.0000 -6.9859 0.0000
# 2 19.1321 76.7981 5.0625 0.0000 -17.9736 0.0000
# 3 22.1409 5.0625 55.9573 0.0000 -25.9770 0.0000
# 4 0.0000 0.0000 0.0000 32.9668 0.0000 5.4259
# 5 -6.9859 -17.9736 -25.9770 0.0000 48.3132 0.0000
# 6 0.0000 0.0000 0.0000 5.4259 0.0000 28.7030
#
#
#
# Elastic Compliance Matrix: (Units=1/GPa)
#
#
# Indices 1 2 3 4 5 6 
#
# 1 0.010506 -0.002800 -0.004907 0.000000 -0.002161 0.000000
# 2 -0.002800 0.015112 0.002882 0.000000 0.006767 0.000000
# 3 -0.004907 0.002882 0.026279 0.000000 0.014492 0.000000
# 4 0.000000 0.000000 0.000000 0.031308 0.000000 -0.005918
# 5 -0.002161 0.006767 0.014492 0.000000 0.030696 0.000000
# 6 0.000000 0.000000 0.000000 -0.005918 0.000000 0.035958
#
#
# Mechanical properties :
#
#
# Convention : Reuss Voigt Hill
#
# Bulk Modulus (GPa) = 23.66924 37.17870 30.42397
# Shear Modulus (GPa) = 28.80321 35.03675 31.91998
#
# Velocity S-wave (km/s) = 3.43965 3.79364 3.62098
# Velocity P-wave (km/s) = 5.04949 5.87030 5.47530
#
# Compressibility (1/GPa) = 0.04224894
#
# Stress axis : x y z
#
# Youngs Moduli (GPa) = 95.18016 66.17120 38.05262
#
# Poissons Ratio (x) = 0.18525 0.18672
# Poissons Ratio (y) = 0.26646 -0.10966
# Poissons Ratio (z) = 0.46704 -0.19070
#
# Static dielectric constant tensor:
#      x y z
#    x 4.666720 0.000000 -0.396210 
#    y 0.000000 4.638370 0.000000 
#    z -0.396210 0.000000 4.306420 
# 
# 
# High freq. dielectric constant tensor:
#      x y z
#    x 1.974080 0.000000 -0.013630 
#    y 0.000000 1.991220 0.000000 
#    z -0.013630 0.000000 1.959530 
# 
# From -- ./inp_files/73264.got.cif
#   From: 2010.06.25/outbox.cif.g09.slc.cpg/sg15_37_cif.got.tgz:73264.got - 2010.06.28 07:06:18.
