data_PCOD8147651
_publ_section_title
;
Structure prediction by ZEFSAII (Michael W. Deem and Ramdas Pophale) SiO2 
 PCOD8147651
Probable space group: C 2/C
;
_chemical_formula_sum "Si O2"
_cell_formula_units_Z 40
_cell_length_a 17.130076
_cell_length_b 13.363800
_cell_length_c 12.121619
_cell_angle_alpha 90.000000
_cell_angle_beta 139.898132
_cell_angle_gamma 90.000000
_cell_volume 1787.458355
_symmetry_space_group_name_H-M "C 2/C"
_symmetry_group_IT_number 15
_symmetry_cell_setting 'monoclinic'
loop_
_space_group_symop_operation_xyz
x,y,z
-x,y,1/2-z
-x,-y,-z
x,-y,1/2+z
1/2+x,1/2+y,z
1/2-x,1/2+y,1/2-z
1/2-x,1/2-y,-z
1/2+x,1/2-y,1/2+z
loop_
_atom_site_type_symbol
_atom_site_label
_atom_site_fract_x
_atom_site_fract_y
_atom_site_fract_z
Si Si1 0.879469 0.711392 0.688751
Si Si2 0.123418 0.486355 0.197088
Si Si3 0.562447 0.349433 0.556792
Si Si4 0.330304 0.447024 0.254954
Si Si5 0.725601 0.355974 0.528118
O O1 0.750000 0.750000 0.500000
O O2 0.881244 0.591048 0.705017
O O3 0.896362 0.753584 0.830153
O O4 0.000000 0.743808 0.750000
O O5 0.214111 0.440835 0.205681
O O6 0.162133 0.596504 0.282307
O O7 0.000000 0.500000 0.000000
O O8 0.417309 0.356580 0.389179
O O9 0.606486 0.446202 0.670234
O O10 0.612707 0.343404 0.487335
O O11 0.301826 0.436123 0.095721
O O12 0.750000 0.250000 0.500000
#
# Coordination Sequence:
#
# PCOD8147651 Si02
#       5
#     8   8   8   8   8
#     4  12  27  45  74 101 145 192 243 293 369 433
#     4  11  27  43  69 101 145 182 235 303 360 431
#     4  10  23  43  72 102 137 184 243 293 348 435
#     4  10  22  44  68  99 139 180 239 295 359 417
#     4  11  24  42  72 100 143 184 239 287 365 427
#
# _framework density 22.378145
#
# number of rings (size 3 to 8) (size 9 to 14) (size 15 to 20)
#    0.000    1.200    0.000    4.200   11.200    3.200 
#    3.600    0.000    0.000    0.000    0.000    0.000 
#    0.000    0.000    0.000    0.000    0.000    0.000 
#
# Total GULP energy -247993.854153 kJ/mol
# GULP energy per Si atom -12399.692708 kJ/mol
# Density = 2.232721 g / cm^3
# Si number density = 22.378145 Si / 1000 Ang^3
#
#
#
# Elastic Constant Matrix: (Units=GPa)
#
#
# Indices 1 2 3 4 5 6 
#
# 1 150.0983 47.7501 80.6525 0.0000 4.0826 0.0000
# 2 47.7501 108.6173 47.5507 0.0000 1.1525 0.0000
# 3 80.6525 47.5507 148.2574 0.0000 18.1012 0.0000
# 4 0.0000 0.0000 0.0000 44.2375 0.0000 -14.0837
# 5 4.0826 1.1525 18.1012 0.0000 48.3046 0.0000
# 6 0.0000 0.0000 0.0000 -14.0837 0.0000 34.0379
#
#
#
# Elastic Compliance Matrix: (Units=1/GPa)
#
#
# Indices 1 2 3 4 5 6 
#
# 1 0.009939 -0.002279 -0.004799 0.000000 0.001013 0.000000
# 2 -0.002279 0.011287 -0.002485 0.000000 0.000854 0.000000
# 3 -0.004799 -0.002485 0.010580 0.000000 -0.003500 0.000000
# 4 0.000000 0.000000 0.000000 0.026035 0.000000 0.010772
# 5 0.001013 0.000854 -0.003500 0.000000 0.021907 0.000000
# 6 0.000000 0.000000 0.000000 0.010772 0.000000 0.033836
#
#
# Mechanical properties :
#
#
# Convention : Reuss Voigt Hill
#
# Bulk Modulus (GPa) = 78.86487 84.31994 81.59241
# Shear Modulus (GPa) = 36.51312 40.71729 38.61521
#
# Velocity S-wave (km/s) = 4.04374 4.27020 4.15851
# Velocity P-wave (km/s) = 7.55784 7.87872 7.71994
#
# Compressibility (1/GPa) = 0.01267992
#
# Stress axis : x y z
#
# Youngs Moduli (GPa) = 100.61814 88.59617 94.51660
#
# Poissons Ratio (x) = 0.20190 0.45362
# Poissons Ratio (y) = 0.22929 0.23485
# Poissons Ratio (z) = 0.48291 0.22014
#
# Static dielectric constant tensor:
#      x y z
#    x 3.957810 0.000000 0.101540 
#    y 0.000000 4.022720 0.000000 
#    z 0.101540 0.000000 4.219950 
# 
# 
# High freq. dielectric constant tensor:
#      x y z
#    x 1.889600 0.000000 -0.001510 
#    y 0.000000 1.883450 0.000000 
#    z -0.001510 0.000000 1.892720 
# 
# From -- ./inp_files/96032.got.cif
#   From: 2010.06.25/outbox.cif.g09.slc.cpg/sg15_49_cif.got.tgz:96032.got - 2010.06.28 07:06:18.
