data_PCOD8147595
_publ_section_title
;
Structure prediction by ZEFSAII (Michael W. Deem and Ramdas Pophale) SiO2 
 PCOD8147595
Probable space group: C 2/C
;
_chemical_formula_sum "Si O2"
_cell_formula_units_Z 52
_cell_length_a 23.661410
_cell_length_b 11.304839
_cell_length_c 11.096153
_cell_angle_alpha 90.000000
_cell_angle_beta 50.643578
_cell_angle_gamma 90.000000
_cell_volume 2294.976986
_symmetry_space_group_name_H-M "C 2/C"
_symmetry_group_IT_number 15
_symmetry_cell_setting 'monoclinic'
loop_
_space_group_symop_operation_xyz
x,y,z
-x,y,1/2-z
-x,-y,-z
x,-y,1/2+z
1/2+x,1/2+y,z
1/2-x,1/2+y,1/2-z
1/2-x,1/2-y,-z
1/2+x,1/2-y,1/2+z
loop_
_atom_site_type_symbol
_atom_site_label
_atom_site_fract_x
_atom_site_fract_y
_atom_site_fract_z
Si Si1 0.227585 0.158029 0.128805
Si Si2 0.000000 0.328683 0.250000
Si Si3 0.427777 0.625727 0.198524
Si Si4 0.487320 0.622497 0.638376
Si Si5 0.845779 0.246136 0.780203
Si Si6 0.636157 0.057478 0.439250
Si Si7 0.694098 0.189544 0.900226
O O1 0.157387 0.090261 0.167433
O O2 0.299331 0.079938 0.051246
O O3 0.197443 0.211604 0.293761
O O4 0.250000 0.250000 0.000000
O O5 0.948459 0.246437 0.238426
O O6 0.944727 0.412321 0.400820
O O7 0.476937 0.517209 0.176493
O O8 0.441426 0.646559 0.037568
O O9 0.500000 0.685237 0.750000
O O10 0.419326 0.674162 0.654556
O O11 0.849435 0.371138 0.703893
O O12 0.779097 0.164405 0.822321
O O13 0.843826 0.266250 0.926105
O O14 0.647273 0.917490 0.404198
#
# Coordination Sequence:
#
# PCOD8147595 Si02
#       7
#     8   4   8   8   8   8   8
#     4  11  23  42  67  93 129 169 222 273 316 395
#     4  12  22  44  62  98 138 172 220 270 330 402
#     4  11  23  40  63  94 128 166 221 268 328 390
#     4  11  22  39  66  95 126 168 207 277 335 373
#     4  10  22  44  67  94 135 165 221 283 316 398
#     4  11  24  43  69  94 133 181 216 273 333 392
#     4  10  24  44  65  97 128 174 222 264 335 392
#
# _framework density 22.658179000000001
#
# number of rings (size 3 to 8) (size 9 to 14) (size 15 to 20)
#    0.000    1.231    3.846    1.846    2.154    0.000 
#    9.692    1.538    0.000    0.000    0.000    0.000 
#    0.000    0.000    0.000    0.000    0.000    0.000 
#
# Total GULP energy -322223.985851 kJ/mol
# GULP energy per Si atom -12393.230225 kJ/mol
# Density = 2.260661 g / cm^3
# Si number density = 22.658179 Si / 1000 Ang^3
#
#
#
# Elastic Constant Matrix: (Units=GPa)
#
#
# Indices 1 2 3 4 5 6 
#
# 1 67.0519 -4.6820 24.8864 0.0000 -10.8297 0.0000
# 2 -4.6820 49.7688 -1.8558 0.0000 -5.0970 0.0000
# 3 24.8864 -1.8558 93.9157 0.0000 -5.8058 0.0000
# 4 0.0000 0.0000 0.0000 28.4007 0.0000 -2.3975
# 5 -10.8297 -5.0970 -5.8058 0.0000 49.2496 0.0000
# 6 0.0000 0.0000 0.0000 -2.3975 0.0000 25.7583
#
#
#
# Elastic Compliance Matrix: (Units=1/GPa)
#
#
# Indices 1 2 3 4 5 6 
#
# 1 0.017198 0.001812 -0.004307 0.000000 0.003462 0.000000
# 2 0.001812 0.020526 0.000082 0.000000 0.002532 0.000000
# 3 -0.004307 0.000082 0.011819 0.000000 0.000455 0.000000
# 4 0.000000 0.000000 0.000000 0.035489 0.000000 0.003303
# 5 0.003462 0.002532 0.000455 0.000000 0.021382 0.000000
# 6 0.000000 0.000000 0.000000 0.003303 0.000000 0.039130
#
#
# Mechanical properties :
#
#
# Convention : Reuss Voigt Hill
#
# Bulk Modulus (GPa) = 22.36352 27.49259 24.92806
# Shear Modulus (GPa) = 30.25239 33.50757 31.87998
#
# Velocity S-wave (km/s) = 3.65795 3.84973 3.75506
# Velocity P-wave (km/s) = 5.26614 5.64982 5.46135
#
# Compressibility (1/GPa) = 0.04471567
#
# Stress axis : x y z
#
# Youngs Moduli (GPa) = 58.14581 48.71923 84.60956
#
# Poissons Ratio (x) = -0.08827 0.36445
# Poissons Ratio (y) = -0.10535 -0.00694
# Poissons Ratio (z) = 0.25046 -0.00400
#
# Static dielectric constant tensor:
#      x y z
#    x 4.124860 0.000000 -0.314300 
#    y 0.000000 5.136030 0.000000 
#    z -0.314300 0.000000 4.660050 
# 
# 
# High freq. dielectric constant tensor:
#      x y z
#    x 1.904870 0.000000 -0.007510 
#    y 0.000000 1.867480 0.000000 
#    z -0.007510 0.000000 1.905540 
# 
# From -- ./inp_files/117931.got.cif
#   From: 2010.06.25/outbox.cif.g09.slc.cpg/sg15_59_cif.got.tgz:117931.got - 2010.06.28 07:06:18.
