data_PCOD8147927
_publ_section_title
;
Structure prediction by ZEFSAII (Michael W. Deem and Ramdas Pophale) SiO2 
 PCOD8147927
Probable space group: C 2/C
;
_chemical_formula_sum "Si O2"
_cell_formula_units_Z 48
_cell_length_a 15.320763
_cell_length_b 8.335704
_cell_length_c 27.036155
_cell_angle_alpha 90.000000
_cell_angle_beta 145.551740
_cell_angle_gamma 90.000000
_cell_volume 1953.099874
_symmetry_space_group_name_H-M "C 2/C"
_symmetry_group_IT_number 15
_symmetry_cell_setting 'monoclinic'
loop_
_space_group_symop_operation_xyz
x,y,z
-x,y,1/2-z
-x,-y,-z
x,-y,1/2+z
1/2+x,1/2+y,z
1/2-x,1/2+y,1/2-z
1/2-x,1/2-y,-z
1/2+x,1/2-y,1/2+z
loop_
_atom_site_type_symbol
_atom_site_label
_atom_site_fract_x
_atom_site_fract_y
_atom_site_fract_z
Si Si1 0.247736 0.346640 0.049141
Si Si2 0.589051 0.908955 0.619641
Si Si3 0.951042 0.134741 0.169577
Si Si4 0.163427 0.784863 0.065443
Si Si5 0.325928 0.367976 0.892535
Si Si6 0.779198 0.275477 0.272447
O O1 0.396541 0.458634 0.126079
O O2 0.238291 0.219968 0.089218
O O3 0.250000 0.250000 0.000000
O O4 0.090284 0.452074 0.971426
O O5 0.658525 0.875183 0.597645
O O6 0.621673 0.744514 0.666549
O O7 0.684072 0.045056 0.693077
O O8 0.805647 0.256576 0.094791
O O9 0.000000 0.131584 0.250000
O O10 0.084658 0.197897 0.196725
O O11 0.193649 0.942806 0.111983
O O12 0.001362 0.811043 0.962148
O O13 0.234882 0.322811 0.800978
#
# Coordination Sequence:
#
# PCOD8147927 Si02
#       6
#     8   8   8   8   8   8
#     4  11  28  47  73 107 148 190 249 296 365 428
#     4  11  25  46  70 106 143 195 238 299 364 440
#     4  12  27  46  72 108 147 189 240 305 360 435
#     4  10  22  46  70 101 143 182 239 291 366 426
#     4  10  24  43  74 103 139 188 234 299 355 437
#     4  12  26  43  76 101 144 191 241 299 365 436
#
# _framework density 24.576315999999998
#
# number of rings (size 3 to 8) (size 9 to 14) (size 15 to 20)
#    0.000    1.000    1.667    3.000   11.667    4.000 
#    0.000    0.833    0.000    0.000    0.000    0.000 
#    0.000    0.000    0.000    0.000    0.000    0.000 
#
# Total GULP energy -297463.297833 kJ/mol
# GULP energy per Si atom -12394.304076 kJ/mol
# Density = 2.452038 g / cm^3
# Si number density = 24.576316 Si / 1000 Ang^3
#
#
#
# Elastic Constant Matrix: (Units=GPa)
#
#
# Indices 1 2 3 4 5 6 
#
# 1 112.8255 18.3755 20.3970 0.0000 -12.6674 0.0000
# 2 18.3755 70.0109 18.8309 -0.0001 2.5343 0.0001
# 3 20.3970 18.8309 54.5260 0.0000 -6.0959 0.0000
# 4 0.0000 -0.0001 0.0000 37.2202 0.0000 0.8107
# 5 -12.6674 2.5343 -6.0959 0.0000 31.7405 0.0000
# 6 0.0000 0.0001 0.0000 0.8107 0.0000 20.0772
#
#
#
# Elastic Compliance Matrix: (Units=1/GPa)
#
#
# Indices 1 2 3 4 5 6 
#
# 1 0.010093 -0.002070 -0.002649 0.000000 0.003685 0.000000
# 2 -0.002070 0.016344 -0.005221 0.000000 -0.003134 0.000000
# 3 -0.002649 -0.005221 0.021524 0.000000 0.003494 0.000000
# 4 0.000000 0.000000 0.000000 0.026891 0.000000 -0.001086
# 5 0.003685 -0.003134 0.003494 0.000000 0.033897 0.000000
# 6 0.000000 0.000000 0.000000 -0.001086 0.000000 0.049852
#
#
# Mechanical properties :
#
#
# Convention : Reuss Voigt Hill
#
# Bulk Modulus (GPa) = 35.60893 39.17436 37.39165
# Shear Modulus (GPa) = 26.61826 29.79150 28.20488
#
# Velocity S-wave (km/s) = 3.29460 3.48545 3.39137
# Velocity P-wave (km/s) = 5.38452 5.67206 5.53016
#
# Compressibility (1/GPa) = 0.02808284
#
# Stress axis : x y z
#
# Youngs Moduli (GPa) = 99.07944 61.18293 46.45918
#
# Poissons Ratio (x) = 0.12665 0.12306
# Poissons Ratio (y) = 0.20509 0.24255
# Poissons Ratio (z) = 0.26243 0.31942
#
# Static dielectric constant tensor:
#      x y z
#    x 4.427420 0.000000 0.062250 
#    y 0.000000 4.479550 0.000000 
#    z 0.062250 0.000000 4.808770 
# 
# 
# High freq. dielectric constant tensor:
#      x y z
#    x 1.977150 0.000000 -0.010030 
#    y 0.000000 1.981290 0.000000 
#    z -0.010030 0.000000 1.987630 
# 
# From -- ./inp_files/313004.got.cif
#   From: 2010.06.25/outbox.cif.g09.slc.cpg/sg15_157_cif.got.tgz:313004.got - 2010.06.28 07:06:18.
