data_PCOD8147116
_publ_section_title
;
Structure prediction by ZEFSAII (Michael W. Deem and Ramdas Pophale) SiO2 
 PCOD8147116
Probable space group: C 2/C
;
_chemical_formula_sum "Si O2"
_cell_formula_units_Z 40
_cell_length_a 27.991904
_cell_length_b 10.467260
_cell_length_c 9.659434
_cell_angle_alpha 90.000000
_cell_angle_beta 37.200127
_cell_angle_gamma 90.000000
_cell_volume 1711.141430
_symmetry_space_group_name_H-M "C 2/C"
_symmetry_group_IT_number 15
_symmetry_cell_setting 'monoclinic'
loop_
_space_group_symop_operation_xyz
x,y,z
-x,y,1/2-z
-x,-y,-z
x,-y,1/2+z
1/2+x,1/2+y,z
1/2-x,1/2+y,1/2-z
1/2-x,1/2-y,-z
1/2+x,1/2-y,1/2+z
loop_
_atom_site_type_symbol
_atom_site_label
_atom_site_fract_x
_atom_site_fract_y
_atom_site_fract_z
Si Si1 0.804300 0.991207 0.382443
Si Si2 0.113124 0.237629 0.211491
Si Si3 0.199836 0.455670 0.870476
Si Si4 0.046438 0.867313 0.397180
Si Si5 0.914001 0.676430 0.426088
O O1 0.841807 0.102970 0.390477
O O2 0.732273 0.937093 0.640391
O O3 0.773103 0.035296 0.306602
O O4 0.873974 0.885869 0.195708
O O5 0.125934 0.295563 0.334725
O O6 0.019504 0.228748 0.388441
O O7 0.151516 0.327239 0.008770
O O8 0.143070 0.578199 0.021589
O O9 0.074274 0.810110 0.184219
O O10 0.000000 0.000000 0.500000
O O11 0.000000 0.611979 0.250000
#
# Coordination Sequence:
#
# PCOD8147116 Si02
#       5
#     8   8   8   8   8
#     4  11  24  42  71  99 136 172 231 282 343 398
#     4  10  22  46  68  92 139 188 218 270 358 416
#     4  12  24  41  70 103 135 176 227 285 344 402
#     4   9  21  42  68  96 126 179 229 271 324 416
#     4  10  22  42  71  93 138 183 226 270 350 409
#
# _framework density 23.37621
#
# number of rings (size 3 to 8) (size 9 to 14) (size 15 to 20)
#    0.000    1.600    2.000    1.800    2.800    5.600 
#    0.000    3.000    0.000    0.000    0.000    0.000 
#    0.000    0.000    0.000    0.000    0.000    0.000 
#
# Total GULP energy -247915.891981 kJ/mol
# GULP energy per Si atom -12395.794599 kJ/mol
# Density = 2.332301 g / cm^3
# Si number density = 23.376210 Si / 1000 Ang^3
#
#
#
# Elastic Constant Matrix: (Units=GPa)
#
#
# Indices 1 2 3 4 5 6 
#
# 1 74.9802 32.8974 26.8596 0.0000 -30.2219 0.0000
# 2 32.8974 77.8419 15.9994 0.0000 -18.4684 0.0000
# 3 26.8596 15.9994 69.4310 0.0000 -19.1622 0.0000
# 4 0.0000 0.0000 0.0000 29.1004 0.0000 -10.5489
# 5 -30.2219 -18.4684 -19.1622 0.0000 31.9016 0.0000
# 6 0.0000 0.0000 0.0000 -10.5489 0.0000 39.1131
#
#
#
# Elastic Compliance Matrix: (Units=1/GPa)
#
#
# Indices 1 2 3 4 5 6 
#
# 1 0.023913 -0.005254 -0.003149 0.000000 0.017720 0.000000
# 2 -0.005254 0.016139 -0.000577 0.000000 0.004019 0.000000
# 3 -0.003149 -0.000577 0.017787 0.000000 0.007366 0.000000
# 4 0.000000 0.000000 0.000000 0.038087 0.000000 0.010272
# 5 0.017720 0.004019 0.007366 0.000000 0.054885 0.000000
# 6 0.000000 0.000000 0.000000 0.010272 0.000000 0.028337
#
#
# Mechanical properties :
#
#
# Convention : Reuss Voigt Hill
#
# Bulk Modulus (GPa) = 25.07701 41.52955 33.30328
# Shear Modulus (GPa) = 23.76388 29.78948 26.77668
#
# Velocity S-wave (km/s) = 3.19185 3.57368 3.38815
# Velocity P-wave (km/s) = 4.93303 5.90191 5.43908
#
# Compressibility (1/GPa) = 0.03987716
#
# Stress axis : x y z
#
# Youngs Moduli (GPa) = 41.81867 61.96054 56.22018
#
# Poissons Ratio (x) = 0.32557 0.17706
# Poissons Ratio (y) = 0.21973 0.03245
# Poissons Ratio (z) = 0.13170 0.03577
#
# Static dielectric constant tensor:
#      x y z
#    x 4.136070 0.000000 -0.481290 
#    y 0.000000 4.113520 0.000000 
#    z -0.481290 0.000000 4.334990 
# 
# 
# High freq. dielectric constant tensor:
#      x y z
#    x 1.913970 0.000000 -0.026280 
#    y 0.000000 1.909480 0.000000 
#    z -0.026280 0.000000 1.938470 
# 
# From -- ./inp_files/68945.got.cif
#   From: 2010.06.25/outbox.cif.g09.slc.cpg/sg15_35_cif.got.tgz:68945.got - 2010.06.28 07:06:18.
