data_PCOD8147047
_publ_section_title
;
Structure prediction by ZEFSAII (Michael W. Deem and Ramdas Pophale) SiO2 
 PCOD8147047
Probable space group: C 2/C
;
_chemical_formula_sum "Si O2"
_cell_formula_units_Z 64
_cell_length_a 11.920063
_cell_length_b 15.250881
_cell_length_c 30.965449
_cell_angle_alpha 90.000000
_cell_angle_beta 33.955745
_cell_angle_gamma 90.000000
_cell_volume 3144.233429
_symmetry_space_group_name_H-M "C 2/C"
_symmetry_group_IT_number 15
_symmetry_cell_setting 'monoclinic'
loop_
_space_group_symop_operation_xyz
x,y,z
-x,y,1/2-z
-x,-y,-z
x,-y,1/2+z
1/2+x,1/2+y,z
1/2-x,1/2+y,1/2-z
1/2-x,1/2-y,-z
1/2+x,1/2-y,1/2+z
loop_
_atom_site_type_symbol
_atom_site_label
_atom_site_fract_x
_atom_site_fract_y
_atom_site_fract_z
Si Si1 0.864349 0.690959 0.835544
Si Si2 0.059891 0.402021 0.476870
Si Si3 0.191356 0.200134 0.662163
Si Si4 0.259301 0.647821 0.487510
Si Si5 0.530144 0.210978 0.066121
Si Si6 0.393499 0.297448 0.669591
Si Si7 0.267090 0.471061 0.069292
Si Si8 0.018674 0.647871 0.162504
O O1 0.640994 0.727337 0.898719
O O2 0.813964 0.594520 0.868708
O O3 0.000000 0.681361 0.750000
O O4 0.990310 0.752686 0.827662
O O5 0.264775 0.379892 0.385116
O O6 0.062527 0.371415 0.525038
O O7 0.000000 0.500000 0.500000
O O8 0.900544 0.353871 0.498926
O O9 0.357083 0.219285 0.646160
O O10 0.167991 0.288304 0.640886
O O11 0.000000 0.169733 0.750000
O O12 0.250000 0.750000 0.500000
O O13 0.472766 0.628150 0.396362
O O14 0.231715 0.577957 0.534758
O O15 0.453935 0.184235 0.137083
O O16 0.750000 0.250000 0.000000
O O17 0.192465 0.351997 0.744710
O O18 0.124512 0.555069 0.120868
O O19 0.500000 0.500000 0.000000
#
# Coordination Sequence:
#
# PCOD8147047 Si02
#       8
#     8   8   8   8   8   8   8   8
#     4  12  25  44  71 100 142 188 228 290 367 422
#     4  12  24  40  65 101 131 173 230 286 339 409
#     4  10  22  42  69  95 136 184 227 275 354 425
#     4  12  22  43  72  94 134 188 231 274 351 430
#     4  12  23  42  71  97 141 184 231 282 360 435
#     4  11  22  43  72  97 132 191 231 272 350 438
#     4  12  26  43  70 112 140 177 242 309 345 414
#     4  11  24  43  69 103 141 180 231 294 352 419
#
# _framework density 20.354723
#
# number of rings (size 3 to 8) (size 9 to 14) (size 15 to 20)
#    0.000    0.500    6.250    2.250    0.000    2.500 
#    0.000    5.625    0.000    0.000    0.000    0.000 
#    0.000    0.000    0.000    0.000    0.000    0.000 
#
# Total GULP energy -396429.764793 kJ/mol
# GULP energy per Si atom -12388.430150 kJ/mol
# Density = 2.030839 g / cm^3
# Si number density = 20.354723 Si / 1000 Ang^3
#
#
#
# Elastic Constant Matrix: (Units=GPa)
#
#
# Indices 1 2 3 4 5 6 
#
# 1 115.0771 39.4038 33.9162 -0.0001 4.0307 0.0003
# 2 39.4038 128.7069 60.2345 -0.0005 -1.7127 -0.0003
# 3 33.9162 60.2345 136.7070 0.0056 10.1967 -0.0022
# 4 -0.0001 -0.0005 0.0056 34.0637 -0.0018 3.5658
# 5 4.0307 -1.7127 10.1967 -0.0018 38.9513 -0.0005
# 6 0.0003 -0.0003 -0.0022 3.5658 -0.0005 28.3471
#
#
#
# Elastic Compliance Matrix: (Units=1/GPa)
#
#
# Indices 1 2 3 4 5 6 
#
# 1 0.009943 -0.002428 -0.001338 0.000000 -0.000785 0.000000
# 2 -0.002428 0.010478 -0.004149 0.000001 0.001798 0.000000
# 3 -0.001338 -0.004149 0.009667 -0.000002 -0.002575 0.000001
# 4 0.000000 0.000001 -0.000002 0.029749 0.000002 -0.003742
# 5 -0.000785 0.001798 -0.002575 0.000002 0.026507 0.000000
# 6 0.000000 0.000000 0.000001 -0.003742 0.000000 0.035748
#
#
# Mechanical properties :
#
#
# Convention : Reuss Voigt Hill
#
# Bulk Modulus (GPa) = 70.13515 71.95556 71.04536
# Shear Modulus (GPa) = 35.04458 36.73484 35.88971
#
# Velocity S-wave (km/s) = 4.15383 4.25282 4.20362
# Velocity P-wave (km/s) = 7.58531 7.71640 7.65114
#
# Compressibility (1/GPa) = 0.01425818
#
# Stress axis : x y z
#
# Youngs Moduli (GPa) = 100.57080 95.43387 103.44578
#
# Poissons Ratio (x) = 0.23174 0.13845
# Poissons Ratio (y) = 0.24421 0.42916
# Poissons Ratio (z) = 0.13460 0.39592
#
# Static dielectric constant tensor:
#      x y z
#    x 3.990910 0.000010 -0.103060 
#    y 0.000010 3.443230 0.000010 
#    z -0.103060 0.000010 4.067350 
# 
# 
# High freq. dielectric constant tensor:
#      x y z
#    x 1.816450 0.000000 0.003770 
#    y 0.000000 1.774650 0.000000 
#    z 0.003770 0.000000 1.824140 
# 
# From -- ./inp_files/293056.got.cif
#   From: 2010.06.25/outbox.cif.g09.slc.cpg/sg15_147_cif.got.tgz:293056.got - 2010.06.28 07:06:18.
