data_PCOD8147011
_publ_section_title
;
Structure prediction by ZEFSAII (Michael W. Deem and Ramdas Pophale) SiO2 
 PCOD8147011
Probable space group: C 2/C
;
_chemical_formula_sum "Si O2"
_cell_formula_units_Z 52
_cell_length_a 11.019748
_cell_length_b 8.583155
_cell_length_c 23.877661
_cell_angle_alpha 90.000000
_cell_angle_beta 71.185943
_cell_angle_gamma 90.000000
_cell_volume 2137.781001
_symmetry_space_group_name_H-M "C 2/C"
_symmetry_group_IT_number 15
_symmetry_cell_setting 'monoclinic'
loop_
_space_group_symop_operation_xyz
x,y,z
-x,y,1/2-z
-x,-y,-z
x,-y,1/2+z
1/2+x,1/2+y,z
1/2-x,1/2+y,1/2-z
1/2-x,1/2-y,-z
1/2+x,1/2-y,1/2+z
loop_
_atom_site_type_symbol
_atom_site_label
_atom_site_fract_x
_atom_site_fract_y
_atom_site_fract_z
Si Si1 0.737939 0.075989 0.065789
Si Si2 0.500000 0.319183 0.250000
Si Si3 0.283845 0.496722 0.838006
Si Si4 0.867822 0.893312 0.433754
Si Si5 0.593022 0.403162 0.857745
Si Si6 0.666040 0.034603 0.246532
Si Si7 0.613449 0.822493 0.155502
O O1 0.630651 0.204472 0.064515
O O2 0.814784 0.153325 0.106032
O O3 0.673554 0.915011 0.094352
O O4 0.829842 0.038565 0.999882
O O5 0.573598 0.429077 0.194747
O O6 0.606933 0.206642 0.262277
O O7 0.257553 0.550311 0.905583
O O8 0.176065 0.544004 0.807561
O O9 0.290853 0.309028 0.835532
O O10 0.006237 0.958713 0.396175
O O11 0.684023 0.463727 0.794073
O O12 0.515681 0.255574 0.847112
O O13 0.584051 0.940066 0.211626
#
# Coordination Sequence:
#
# PCOD8147011 Si02
#       7
#     8   4   8   8   8   8   8
#     4  10  22  44  67  97 135 175 219 272 324 385
#     4  12  26  42  62  90 128 168 212 264 328 398
#     4  11  22  40  63  93 130 169 211 267 325 383
#     4  10  22  42  68  96 135 175 219 270 328 389
#     4  10  22  43  67  96 132 172 216 274 330 384
#     4  11  25  43  65  94 130 171 214 269 332 394
#     4  10  23  41  67  98 128 167 222 266 319 391
#
# _framework density 24.324287999999999
#
# number of rings (size 3 to 8) (size 9 to 14) (size 15 to 20)
#    0.000    1.538    0.000    5.077    0.000    9.231 
#    0.000   13.846    0.000    0.000    0.000    0.000 
#    0.000    0.000    0.000    0.000    0.000    0.000 
#
# Total GULP energy -322258.029113 kJ/mol
# GULP energy per Si atom -12394.539581 kJ/mol
# Density = 2.426893 g / cm^3
# Si number density = 24.324288 Si / 1000 Ang^3
#
#
#
# Elastic Constant Matrix: (Units=GPa)
#
#
# Indices 1 2 3 4 5 6 
#
# 1 66.3564 18.8539 20.6234 0.0000 -5.7540 0.0000
# 2 18.8539 110.2228 3.2318 0.0000 -15.7378 0.0000
# 3 20.6234 3.2318 62.6218 0.0000 12.9625 0.0000
# 4 0.0000 0.0000 0.0000 31.0633 0.0000 -1.3014
# 5 -5.7540 -15.7378 12.9625 0.0000 38.6459 0.0000
# 6 0.0000 0.0000 0.0000 -1.3014 0.0000 42.4255
#
#
#
# Elastic Compliance Matrix: (Units=1/GPa)
#
#
# Indices 1 2 3 4 5 6 
#
# 1 0.018159 -0.002340 -0.006686 0.000000 0.003994 0.000000
# 2 -0.002340 0.010051 -0.000562 0.000000 0.003933 0.000000
# 3 -0.006686 -0.000562 0.019830 0.000000 -0.007876 0.000000
# 4 0.000000 0.000000 0.000000 0.032234 0.000000 0.000989
# 5 0.003994 0.003933 -0.007876 0.000000 0.030714 0.000000
# 6 0.000000 0.000000 0.000000 0.000989 0.000000 0.023601
#
#
# Mechanical properties :
#
#
# Convention : Reuss Voigt Hill
#
# Bulk Modulus (GPa) = 34.64602 36.06878 35.35740
# Shear Modulus (GPa) = 30.60209 35.52640 33.06425
#
# Velocity S-wave (km/s) = 3.55080 3.82584 3.69088
# Velocity P-wave (km/s) = 5.57541 5.86315 5.72109
#
# Compressibility (1/GPa) = 0.02886334
#
# Stress axis : x y z
#
# Youngs Moduli (GPa) = 55.06795 99.49394 50.42809
#
# Poissons Ratio (x) = 0.23281 0.33718
# Poissons Ratio (y) = 0.12886 0.02835
# Poissons Ratio (z) = 0.36820 0.05594
#
# Static dielectric constant tensor:
#      x y z
#    x 4.253930 0.000000 0.173410 
#    y 0.000000 4.308850 0.000000 
#    z 0.173410 0.000000 4.438850 
# 
# 
# High freq. dielectric constant tensor:
#      x y z
#    x 1.962160 0.000000 0.012840 
#    y 0.000000 1.974050 0.000000 
#    z 0.012840 0.000000 1.966500 
# 
# From -- ./inp_files/291119.got.cif
#   From: 2010.06.25/outbox.cif.g09.slc.cpg/sg15_146_cif.got.tgz:291119.got - 2010.06.28 07:06:18.
