data_PCOD8147076
_publ_section_title
;
Structure prediction by ZEFSAII (Michael W. Deem and Ramdas Pophale) SiO2 
 PCOD8147076
Probable space group: C 2/C
;
_chemical_formula_sum "Si O2"
_cell_formula_units_Z 56
_cell_length_a 20.575918
_cell_length_b 11.565410
_cell_length_c 18.343164
_cell_angle_alpha 90.000000
_cell_angle_beta 35.154739
_cell_angle_gamma 90.000000
_cell_volume 2513.367986
_symmetry_space_group_name_H-M "C 2/C"
_symmetry_group_IT_number 15
_symmetry_cell_setting 'monoclinic'
loop_
_space_group_symop_operation_xyz
x,y,z
-x,y,1/2-z
-x,-y,-z
x,-y,1/2+z
1/2+x,1/2+y,z
1/2-x,1/2+y,1/2-z
1/2-x,1/2-y,-z
1/2+x,1/2-y,1/2+z
loop_
_atom_site_type_symbol
_atom_site_label
_atom_site_fract_x
_atom_site_fract_y
_atom_site_fract_z
Si Si1 0.886459 0.514353 0.473609
Si Si2 0.250299 0.926523 0.724959
Si Si3 0.500000 0.863525 0.250000
Si Si4 0.548361 0.671490 0.321415
Si Si5 0.584183 0.808230 0.825219
Si Si6 0.185434 0.834916 0.107988
Si Si7 0.500000 0.488599 0.250000
Si Si8 0.582702 0.606502 0.930712
O O1 0.855790 0.435457 0.571639
O O2 0.772803 0.587414 0.571717
O O3 0.910008 0.442309 0.376969
O O4 0.993616 0.591652 0.394911
O O5 0.155850 0.841136 0.776397
O O6 0.300082 0.862884 0.750049
O O7 0.204154 0.052757 0.795449
O O8 0.557693 0.784432 0.260509
O O9 0.550002 0.559139 0.270495
O O10 0.430646 0.662842 0.475675
O O11 0.606333 0.743057 0.730357
O O12 0.538805 0.709228 0.920109
O O13 0.105794 0.910883 0.128415
O O14 0.250000 0.750000 0.000000
O O15 0.500000 0.500000 0.000000
#
# Coordination Sequence:
#
# PCOD8147076 Si02
#       8
#     8   8   4   8   8   8   4   8
#     4  12  25  47  65 103 141 180 238 293 355 423
#     4  11  24  43  71 106 141 180 234 292 358 428
#     4  11  26  47  68 102 146 191 240 299 346 424
#     4  10  23  45  74 100 139 187 234 291 354 422
#     4  12  26  43  69 103 138 183 225 295 361 413
#     4  12  25  42  70  96 135 182 228 281 350 427
#     4  11  22  47  66 100 134 177 236 281 340 420
#     4  10  22  42  70 104 139 183 235 288 349 430
#
# _framework density 22.280861000000002
#
# number of rings (size 3 to 8) (size 9 to 14) (size 15 to 20)
#    0.000    0.857    2.857    3.857    6.000    1.714 
#    2.571    0.000    0.000    0.000    0.000    0.000 
#    0.000    0.000    0.000    0.000    0.000    0.000 
#
# Total GULP energy -346960.361816 kJ/mol
# GULP energy per Si atom -12391.441493 kJ/mol
# Density = 2.223015 g / cm^3
# Si number density = 22.280861 Si / 1000 Ang^3
#
#
#
# Elastic Constant Matrix: (Units=GPa)
#
#
# Indices 1 2 3 4 5 6 
#
# 1 80.6399 38.2640 20.3413 0.0000 -17.4624 0.0000
# 2 38.2640 111.0590 44.7538 0.0000 3.0854 0.0000
# 3 20.3413 44.7538 118.6134 0.0000 16.8208 0.0000
# 4 0.0000 0.0000 0.0000 39.1332 0.0000 4.7919
# 5 -17.4624 3.0854 16.8208 0.0000 42.8797 0.0000
# 6 0.0000 0.0000 0.0000 4.7919 0.0000 21.4929
#
#
#
# Elastic Compliance Matrix: (Units=1/GPa)
#
#
# Indices 1 2 3 4 5 6 
#
# 1 0.017240 -0.005315 -0.002119 0.000000 0.008235 0.000000
# 2 -0.005315 0.012287 -0.003486 0.000000 -0.001681 0.000000
# 3 -0.002119 -0.003486 0.010797 0.000000 -0.004848 0.000000
# 4 0.000000 0.000000 0.000000 0.026271 0.000000 -0.005857
# 5 0.008235 -0.001681 -0.004848 0.000000 0.028697 0.000000
# 6 0.000000 0.000000 0.000000 -0.005857 0.000000 0.047833
#
#
# Mechanical properties :
#
#
# Convention : Reuss Voigt Hill
#
# Bulk Modulus (GPa) = 54.10002 57.44783 55.77393
# Shear Modulus (GPa) = 29.21811 34.49804 31.85808
#
# Velocity S-wave (km/s) = 3.62519 3.93915 3.78543
# Velocity P-wave (km/s) = 6.46965 6.82119 6.64774
#
# Compressibility (1/GPa) = 0.01848428
#
# Stress axis : x y z
#
# Youngs Moduli (GPa) = 58.00306 81.38753 92.61899
#
# Poissons Ratio (x) = 0.43256 0.19627
# Poissons Ratio (y) = 0.30828 0.32288
# Poissons Ratio (z) = 0.12291 0.28373
#
# Static dielectric constant tensor:
#      x y z
#    x 3.774750 0.000000 -0.006480 
#    y 0.000000 4.229460 0.000000 
#    z -0.006480 0.000000 4.466930 
# 
# 
# High freq. dielectric constant tensor:
#      x y z
#    x 1.869400 0.000000 0.013750 
#    y 0.000000 1.892700 0.000000 
#    z 0.013750 0.000000 1.885000 
# 
# From -- ./inp_files/255447.got.cif
#   From: 2010.06.25/outbox.cif.g09.slc.cpg/sg15_128_cif.got.tgz:255447.got - 2010.06.28 07:06:18.
