data_PCOD8147639
_publ_section_title
;
Structure prediction by ZEFSAII (Michael W. Deem and Ramdas Pophale) SiO2 
 PCOD8147639
Probable space group: C 2/C
;
_chemical_formula_sum "Si O2"
_cell_formula_units_Z 32
_cell_length_a 7.998491
_cell_length_b 14.618763
_cell_length_c 24.538357
_cell_angle_alpha 90.000000
_cell_angle_beta 151.144845
_cell_angle_gamma 90.000000
_cell_volume 1384.678019
_symmetry_space_group_name_H-M "C 2/C"
_symmetry_group_IT_number 15
_symmetry_cell_setting 'monoclinic'
loop_
_space_group_symop_operation_xyz
x,y,z
-x,y,1/2-z
-x,-y,-z
x,-y,1/2+z
1/2+x,1/2+y,z
1/2-x,1/2+y,1/2-z
1/2-x,1/2-y,-z
1/2+x,1/2-y,1/2+z
loop_
_atom_site_type_symbol
_atom_site_label
_atom_site_fract_x
_atom_site_fract_y
_atom_site_fract_z
Si Si1 0.847644 0.188545 0.764511
Si Si2 0.248352 0.575092 0.544240
Si Si3 0.690805 0.029618 0.871939
Si Si4 0.656568 0.874511 0.676305
O O1 0.512864 0.121250 0.665968
O O2 0.747114 0.276629 0.771227
O O3 0.000000 0.218001 0.750000
O O4 0.187845 0.146470 0.889895
O O5 0.640080 0.539661 0.640093
O O6 0.000000 0.500000 0.500000
O O7 0.112226 0.626244 0.451122
O O8 0.441830 0.941805 0.802489
O O9 0.000000 0.000000 0.000000
O O10 0.000000 0.919183 0.750000
#
# Coordination Sequence:
#
# PCOD8147639 Si02
#       4
#     8   8   8   8
#     4  12  25  42  65  99 137 178 227 283 341 406
#     4  11  23  43  70  97 132 179 227 280 341 409
#     4  10  22  44  68  95 131 176 225 279 339 403
#     4  11  24  43  68  99 134 177 226 282 341 404
#
# _framework density 23.110064999999999
#
# number of rings (size 3 to 8) (size 9 to 14) (size 15 to 20)
#    0.000    1.000    0.000    8.250    0.000    6.000 
#    0.000    7.500    0.000    0.000    0.000    0.000 
#    0.000    0.000    0.000    0.000    0.000    0.000 
#
# Total GULP energy -198258.343128 kJ/mol
# GULP energy per Si atom -12391.146445 kJ/mol
# Density = 2.305747 g / cm^3
# Si number density = 23.110065 Si / 1000 Ang^3
#
#
#
# Elastic Constant Matrix: (Units=GPa)
#
#
# Indices 1 2 3 4 5 6 
#
# 1 152.2320 46.2910 43.5792 -0.0028 12.4991 -0.0048
# 2 46.2910 134.0412 44.2104 0.0028 9.3104 -0.0040
# 3 43.5792 44.2104 71.1144 0.0083 1.0308 -0.0062
# 4 -0.0028 0.0028 0.0083 37.4130 -0.0073 0.1480
# 5 12.4991 9.3104 1.0308 -0.0073 51.6130 -0.0053
# 6 -0.0048 -0.0040 -0.0062 0.1480 -0.0053 30.0823
#
#
#
# Elastic Compliance Matrix: (Units=1/GPa)
#
#
# Indices 1 2 3 4 5 6 
#
# 1 0.008335 -0.001364 -0.004235 0.000001 -0.001688 0.000000
# 2 -0.001364 0.009738 -0.005199 0.000000 -0.001322 0.000000
# 3 -0.004235 -0.005199 0.019866 -0.000004 0.001567 0.000003
# 4 0.000001 0.000000 -0.000004 0.026729 0.000004 -0.000131
# 5 -0.001688 -0.001322 0.001567 0.000004 0.019991 0.000003
# 6 0.000000 0.000000 0.000003 -0.000131 0.000003 0.033243
#
#
# Mechanical properties :
#
#
# Convention : Reuss Voigt Hill
#
# Bulk Modulus (GPa) = 61.18791 69.50543 65.34667
# Shear Modulus (GPa) = 34.49570 38.70879 36.60225
#
# Velocity S-wave (km/s) = 3.86770 4.09709 3.98404
# Velocity P-wave (km/s) = 6.81760 7.24725 7.03571
#
# Compressibility (1/GPa) = 0.01634310
#
# Stress axis : x y z
#
# Youngs Moduli (GPa) = 119.98049 102.68925 50.33664
#
# Poissons Ratio (x) = 0.14011 0.21317
# Poissons Ratio (y) = 0.16370 0.26169
# Poissons Ratio (z) = 0.50810 0.53385
#
# Static dielectric constant tensor:
#      x y z
#    x 4.624660 0.000000 0.138390 
#    y 0.000000 4.066320 -0.000010 
#    z 0.138390 -0.000010 4.489530 
# 
# 
# High freq. dielectric constant tensor:
#      x y z
#    x 1.934670 0.000000 0.002480 
#    y 0.000000 1.901880 0.000000 
#    z 0.002480 0.000000 1.931070 
# 
# From -- ./inp_files/264076.got.cif
#   From: 2010.06.25/outbox.cif.g09.slc.cpg/sg15_133_cif.got.tgz:264076.got - 2010.06.28 07:06:18.
