data_PCOD8147817
_publ_section_title
;
Structure prediction by ZEFSAII (Michael W. Deem and Ramdas Pophale) SiO2 
 PCOD8147817
Probable space group: C 2/C
;
_chemical_formula_sum "Si O2"
_cell_formula_units_Z 52
_cell_length_a 8.150051
_cell_length_b 31.600569
_cell_length_c 14.490735
_cell_angle_alpha 90.000000
_cell_angle_beta 40.397955
_cell_angle_gamma 90.000000
_cell_volume 2418.704353
_symmetry_space_group_name_H-M "C 2/C"
_symmetry_group_IT_number 15
_symmetry_cell_setting 'monoclinic'
loop_
_space_group_symop_operation_xyz
x,y,z
-x,y,1/2-z
-x,-y,-z
x,-y,1/2+z
1/2+x,1/2+y,z
1/2-x,1/2+y,1/2-z
1/2-x,1/2-y,-z
1/2+x,1/2-y,1/2+z
loop_
_atom_site_type_symbol
_atom_site_label
_atom_site_fract_x
_atom_site_fract_y
_atom_site_fract_z
Si Si1 0.266574 0.408587 0.282592
Si Si2 0.500000 0.530839 0.250000
Si Si3 0.899116 0.680297 0.693924
Si Si4 0.974963 0.744317 0.160014
Si Si5 0.576683 0.472435 0.054279
Si Si6 0.790700 0.669722 0.121785
Si Si7 0.025553 0.581084 0.419611
O O1 0.500000 0.398556 0.250000
O O2 0.206371 0.366926 0.250344
O O3 0.328073 0.444709 0.182031
O O4 0.039171 0.425545 0.444139
O O5 0.640020 0.502057 0.114285
O O6 0.294173 0.559329 0.285266
O O7 0.670200 0.711277 0.765599
O O8 0.000000 0.695201 0.750000
O O9 0.116418 0.679909 0.522193
O O10 0.000000 0.723775 0.250000
O O11 0.810634 0.712739 0.169641
O O12 0.250000 0.750000 0.000000
O O13 0.500000 0.500000 0.000000
O O14 0.817384 0.440336 0.940010
O O15 0.500000 0.655070 0.250000
O O16 0.954788 0.632221 0.100550
#
# Coordination Sequence:
#
# PCOD8147817 Si02
#       7
#     8   4   8   8   8   8   8
#     4   9  20  43  69  93 130 176 223 278 337 408
#     4  12  22  44  64  94 132 174 216 284 344 396
#     4  11  25  43  71 100 136 181 230 283 344 423
#     4  12  26  45  72 104 139 184 233 286 346 413
#     4  11  24  40  69  96 130 175 226 281 341 413
#     4  11  25  47  72 101 142 183 228 289 352 415
#     4  10  22  45  68  95 136 177 222 283 351 408
#
# _framework density 21.499113000000001
#
# number of rings (size 3 to 8) (size 9 to 14) (size 15 to 20)
#    0.000    1.231    4.615    1.385    6.462    4.308 
#    2.769    0.000    0.000    0.000    0.000    0.000 
#    0.000    0.000    0.000    0.000    0.000    0.000 
#
# Total GULP energy -322370.756270 kJ/mol
# GULP energy per Si atom -12398.875241 kJ/mol
# Density = 2.145018 g / cm^3
# Si number density = 21.499113 Si / 1000 Ang^3
#
#
#
# Elastic Constant Matrix: (Units=GPa)
#
#
# Indices 1 2 3 4 5 6 
#
# 1 87.5633 39.7429 38.7290 0.0000 11.4870 0.0000
# 2 39.7429 120.2199 45.3309 0.0000 1.6031 0.0000
# 3 38.7290 45.3309 114.0247 0.0000 -5.4354 0.0000
# 4 0.0000 0.0000 0.0000 36.4523 0.0000 -0.4498
# 5 11.4870 1.6031 -5.4354 0.0000 37.4751 0.0000
# 6 0.0000 0.0000 0.0000 -0.4498 0.0000 46.2168
#
#
#
# Elastic Compliance Matrix: (Units=1/GPa)
#
#
# Indices 1 2 3 4 5 6 
#
# 1 0.015519 -0.003505 -0.004126 0.000000 -0.005205 0.000000
# 2 -0.003505 0.010613 -0.003020 0.000000 0.000182 0.000000
# 3 -0.004126 -0.003020 0.011518 0.000000 0.003064 0.000000
# 4 0.000000 0.000000 0.000000 0.027436 0.000000 0.000267
# 5 -0.005205 0.000182 0.003064 0.000000 0.028717 0.000000
# 6 0.000000 0.000000 0.000000 0.000267 0.000000 0.021640
#
#
# Mechanical properties :
#
#
# Convention : Reuss Voigt Hill
#
# Bulk Modulus (GPa) = 61.16881 63.26816 62.21848
# Shear Modulus (GPa) = 35.16316 37.22917 36.19616
#
# Velocity S-wave (km/s) = 4.04860 4.16584 4.10764
# Velocity P-wave (km/s) = 7.09707 7.25473 7.17633
#
# Compressibility (1/GPa) = 0.01634820
#
# Stress axis : x y z
#
# Youngs Moduli (GPa) = 64.43753 94.22227 86.82034
#
# Poissons Ratio (x) = 0.33027 0.35819
# Poissons Ratio (y) = 0.22587 0.26220
# Poissons Ratio (z) = 0.26585 0.28455
#
# Static dielectric constant tensor:
#      x y z
#    x 0.353370 0.000000 0.823820 
#    y 0.000000 4.058530 0.000000 
#    z 0.823820 0.000000 3.770980 
# 
# 
# High freq. dielectric constant tensor:
#      x y z
#    x 1.821660 0.000000 -0.009790 
#    y 0.000000 1.860530 0.000000 
#    z -0.009790 0.000000 1.846810 
# 
# From -- ./inp_files/139727.got.cif
#   From: 2010.06.25/outbox.cif.g09.slc.cpg/sg15_70_cif.got.tgz:139727.got - 2010.06.28 07:06:18.
