data_PCOD8147621
_publ_section_title
;
Structure prediction by ZEFSAII (Michael W. Deem and Ramdas Pophale) SiO2 
 PCOD8147621
Probable space group: C 2/C
;
_chemical_formula_sum "Si O2"
_cell_formula_units_Z 64
_cell_length_a 23.507264
_cell_length_b 17.478948
_cell_length_c 14.706723
_cell_angle_alpha 90.000000
_cell_angle_beta 149.263769
_cell_angle_gamma 90.000000
_cell_volume 3088.358687
_symmetry_space_group_name_H-M "C 2/C"
_symmetry_group_IT_number 15
_symmetry_cell_setting 'monoclinic'
loop_
_space_group_symop_operation_xyz
x,y,z
-x,y,1/2-z
-x,-y,-z
x,-y,1/2+z
1/2+x,1/2+y,z
1/2-x,1/2+y,1/2-z
1/2-x,1/2-y,-z
1/2+x,1/2-y,1/2+z
loop_
_atom_site_type_symbol
_atom_site_label
_atom_site_fract_x
_atom_site_fract_y
_atom_site_fract_z
Si Si1 0.835530 0.320536 0.616008
Si Si2 0.715021 0.019096 0.189655
Si Si3 0.807155 0.351926 0.381718
Si Si4 0.503519 0.101785 0.647909
Si Si5 0.882372 0.978611 0.763364
Si Si6 0.556580 0.374911 0.067260
Si Si7 0.029436 0.285506 0.022882
Si Si8 0.206136 0.490294 0.885314
O O1 0.750000 0.250000 0.500000
O O2 0.870386 0.320449 0.558029
O O3 0.783933 0.403740 0.564910
O O4 0.933838 0.313968 0.823224
O O5 0.823809 0.040512 0.280525
O O6 0.746512 0.007532 0.337573
O O7 0.661965 0.941040 0.078850
O O8 0.620991 0.082474 0.052856
O O9 0.673643 0.340424 0.194170
O O10 0.851827 0.306744 0.356194
O O11 0.500000 0.121815 0.750000
O O12 0.528948 0.176794 0.622473
O O13 0.586732 0.031322 0.738114
O O14 0.920387 0.067995 0.816099
O O15 0.797315 0.960864 0.565780
O O16 0.990607 0.924678 0.900565
O O17 0.476016 0.305532 0.981235
#
# Coordination Sequence:
#
# PCOD8147621 Si02
#       8
#     8   8   8   8   8   8   8   8
#     4  12  22  39  67 101 136 171 209 278 339 396
#     4  11  21  39  67  98 128 176 217 270 326 398
#     4  11  22  42  64  96 135 171 219 267 337 395
#     4  12  23  39  64 100 136 174 224 273 329 393
#     4  10  22  44  68  87 133 174 221 275 319 398
#     4  10  23  45  65  93 129 177 218 269 335 391
#     4  12  24  40  67  99 135 173 217 275 340 398
#     4  12  21  39  66  98 131 171 228 266 331 396
#
# _framework density 20.722981999999998
#
# number of rings (size 3 to 8) (size 9 to 14) (size 15 to 20)
#    0.000    0.750    7.500    1.500    0.000    2.000 
#    0.000   10.000    0.000    0.000    0.000    0.000 
#    0.000    0.000    0.000    0.000    0.000    0.000 
#
# Total GULP energy -396583.744209 kJ/mol
# GULP energy per Si atom -12393.242007 kJ/mol
# Density = 2.067582 g / cm^3
# Si number density = 20.722982 Si / 1000 Ang^3
#
#
#
# Elastic Constant Matrix: (Units=GPa)
#
#
# Indices 1 2 3 4 5 6 
#
# 1 117.9855 30.8566 42.9428 0.0000 -28.0731 0.0000
# 2 30.8566 94.0562 24.8359 0.0000 4.5461 0.0000
# 3 42.9428 24.8359 111.2450 0.0000 -7.6955 0.0000
# 4 0.0000 0.0000 0.0000 26.1881 0.0000 2.3354
# 5 -28.0731 4.5461 -7.6955 0.0000 31.8672 0.0000
# 6 0.0000 0.0000 0.0000 2.3354 0.0000 18.6006
#
#
#
# Elastic Compliance Matrix: (Units=1/GPa)
#
#
# Indices 1 2 3 4 5 6 
#
# 1 0.013628 -0.004105 -0.003532 0.000000 0.011738 0.000000
# 2 -0.004105 0.012697 -0.001653 0.000000 -0.005827 0.000000
# 3 -0.003532 -0.001653 0.010701 0.000000 -0.000291 0.000000
# 4 0.000000 0.000000 0.000000 0.038618 0.000000 -0.004849
# 5 0.011738 -0.005827 -0.000291 0.000000 0.042482 0.000000
# 6 0.000000 0.000000 0.000000 -0.004849 0.000000 0.054371
#
#
# Mechanical properties :
#
#
# Convention : Reuss Voigt Hill
#
# Bulk Modulus (GPa) = 54.21457 57.83970 56.02714
# Shear Modulus (GPa) = 25.35173 30.30794 27.82984
#
# Velocity S-wave (km/s) = 3.50146 3.82845 3.66860
# Velocity P-wave (km/s) = 6.52421 6.89305 6.71117
#
# Compressibility (1/GPa) = 0.01844522
#
# Stress axis : x y z
#
# Youngs Moduli (GPa) = 73.37966 78.75928 93.44517
#
# Poissons Ratio (x) = 0.32335 0.33005
# Poissons Ratio (y) = 0.30126 0.15446
# Poissons Ratio (z) = 0.25918 0.13018
#
# Static dielectric constant tensor:
#      x y z
#    x 3.843380 0.000000 -0.047630 
#    y 0.000000 3.757790 0.000000 
#    z -0.047630 0.000000 3.867350 
# 
# 
# High freq. dielectric constant tensor:
#      x y z
#    x 1.801090 0.000000 -0.000350 
#    y 0.000000 1.803400 0.000000 
#    z -0.000350 0.000000 1.817620 
# 
# From -- ./inp_files/174253.got.cif
#   From: 2010.06.25/outbox.cif.g09.slc.cpg/sg15_88_cif.got.tgz:174253.got - 2010.06.28 07:06:18.
