data_PCOD8147998
_publ_section_title
;
Structure prediction by ZEFSAII (Michael W. Deem and Ramdas Pophale) SiO2 
 PCOD8147998
Probable space group: C 2/C
;
_chemical_formula_sum "Si O2"
_cell_formula_units_Z 48
_cell_length_a 27.827607
_cell_length_b 6.234495
_cell_length_c 19.005868
_cell_angle_alpha 90.000000
_cell_angle_beta 137.081324
_cell_angle_gamma 90.000000
_cell_volume 2245.361153
_symmetry_space_group_name_H-M "C 2/C"
_symmetry_group_IT_number 15
_symmetry_cell_setting 'monoclinic'
loop_
_space_group_symop_operation_xyz
x,y,z
-x,y,1/2-z
-x,-y,-z
x,-y,1/2+z
1/2+x,1/2+y,z
1/2-x,1/2+y,1/2-z
1/2-x,1/2-y,-z
1/2+x,1/2-y,1/2+z
loop_
_atom_site_type_symbol
_atom_site_label
_atom_site_fract_x
_atom_site_fract_y
_atom_site_fract_z
Si Si1 0.633087 0.375159 0.750032
Si Si2 0.715153 0.264879 0.083344
Si Si3 0.618523 0.514563 0.583639
Si Si4 0.994788 0.360520 0.066326
Si Si5 0.382831 0.875165 0.515698
Si Si6 0.321671 0.610949 0.566589
O O1 0.701304 0.225944 0.821941
O O2 0.630104 0.523619 0.678702
O O3 0.568652 0.206389 0.680605
O O4 0.637866 0.544652 0.819047
O O5 0.685883 0.375274 0.121495
O O6 0.695017 0.388598 0.990658
O O7 0.687040 0.021556 0.053173
O O8 0.545915 0.638503 0.491225
O O9 0.616237 0.271286 0.553209
O O10 0.953486 0.484288 0.084397
O O11 0.000000 0.500000 0.000000
O O12 0.380992 0.734752 0.584529
O O13 0.250000 0.750000 0.500000
#
# Coordination Sequence:
#
# PCOD8147998 Si02
#       6
#     8   8   8   8   8   8
#     4  12  24  40  73 102 132 182 238 277 358 438
#     4  10  24  43  68 102 135 175 235 290 354 420
#     4  10  24  43  68 102 135 175 235 290 354 420
#     4  11  24  45  70  97 142 181 232 295 354 425
#     4  10  22  48  67  94 148 180 218 311 352 408
#     4  11  24  45  70  97 142 181 232 295 354 425
#
# _framework density 21.377407999999999
#
# number of rings (size 3 to 8) (size 9 to 14) (size 15 to 20)
#    0.000    1.333    3.333    1.000    2.333    1.333 
#    0.000    9.167    0.000    0.000    0.000    0.000 
#    0.000    0.000    0.000    0.000    0.000    0.000 
#
# Total GULP energy -297509.221951 kJ/mol
# GULP energy per Si atom -12396.217581 kJ/mol
# Density = 2.132875 g / cm^3
# Si number density = 21.377408 Si / 1000 Ang^3
#
#
#
# Elastic Constant Matrix: (Units=GPa)
#
#
# Indices 1 2 3 4 5 6 
#
# 1 131.5554 60.2683 82.1673 0.0000 -10.6542 0.0000
# 2 60.2683 130.7336 69.9341 -0.0002 2.9844 -0.0013
# 3 82.1673 69.9341 147.5177 -0.0001 19.4884 -0.0001
# 4 0.0000 -0.0002 -0.0001 31.5646 -0.0001 0.8200
# 5 -10.6542 2.9844 19.4884 -0.0001 206.9641 -0.0015
# 6 0.0000 -0.0013 -0.0001 0.8200 -0.0015 50.4002
#
#
#
# Elastic Compliance Matrix: (Units=1/GPa)
#
#
# Indices 1 2 3 4 5 6 
#
# 1 0.012635 -0.002680 -0.005932 0.000000 0.001248 0.000000
# 2 -0.002680 0.010837 -0.003651 0.000000 0.000050 0.000000
# 3 -0.005932 -0.003651 0.011997 0.000000 -0.001382 0.000000
# 4 0.000000 0.000000 0.000000 0.031694 0.000000 -0.000516
# 5 0.001248 0.000050 -0.001382 0.000000 0.005025 0.000000
# 6 0.000000 0.000000 0.000000 -0.000516 0.000000 0.019850
#
#
# Mechanical properties :
#
#
# Convention : Reuss Voigt Hill
#
# Bulk Modulus (GPa) = 91.39200 92.72736 92.05968
# Shear Modulus (GPa) = 41.59322 70.94826 56.27074
#
# Velocity S-wave (km/s) = 4.41575 5.76719 5.13611
# Velocity P-wave (km/s) = 8.29717 9.37112 8.85045
#
# Compressibility (1/GPa) = 0.01094188
#
# Stress axis : x y z
#
# Youngs Moduli (GPa) = 79.14320 92.27961 83.35714
#
# Poissons Ratio (x) = 0.24731 0.49449
# Poissons Ratio (y) = 0.21211 0.30435
# Poissons Ratio (z) = 0.46949 0.33692
#
# Static dielectric constant tensor:
#      x y z
#    x 4.281020 0.000000 0.027090 
#    y 0.000000 4.133570 0.000000 
#    z 0.027090 0.000000 3.566920 
# 
# 
# High freq. dielectric constant tensor:
#      x y z
#    x 1.868450 0.000000 0.002170 
#    y 0.000000 1.851950 0.000000 
#    z 0.002170 0.000000 1.810540 
# 
# From -- ./inp_files/258560.got.cif
#   From: 2010.06.25/outbox.cif.g09.slc.cpg/sg15_130_cif.got.tgz:258560.got - 2010.06.28 07:06:18.
