data_PCOD8147886
_publ_section_title
;
Structure prediction by ZEFSAII (Michael W. Deem and Ramdas Pophale) SiO2 
 PCOD8147886
Probable space group: C 2/C
;
_chemical_formula_sum "Si O2"
_cell_formula_units_Z 36
_cell_length_a 7.902954
_cell_length_b 13.516713
_cell_length_c 15.900700
_cell_angle_alpha 90.000000
_cell_angle_beta 90.109593
_cell_angle_gamma 90.000000
_cell_volume 1698.540849
_symmetry_space_group_name_H-M "C 2/C"
_symmetry_group_IT_number 15
_symmetry_cell_setting 'monoclinic'
loop_
_space_group_symop_operation_xyz
x,y,z
-x,y,1/2-z
-x,-y,-z
x,-y,1/2+z
1/2+x,1/2+y,z
1/2-x,1/2+y,1/2-z
1/2-x,1/2-y,-z
1/2+x,1/2-y,1/2+z
loop_
_atom_site_type_symbol
_atom_site_label
_atom_site_fract_x
_atom_site_fract_y
_atom_site_fract_z
Si Si1 0.000000 0.455580 0.250000
Si Si2 0.175428 0.726668 0.589567
Si Si3 0.616269 0.998877 0.581497
Si Si4 0.188220 0.806784 0.243674
Si Si5 0.196865 0.196911 0.415322
O O1 0.985538 0.525448 0.332365
O O2 0.833009 0.389243 0.234548
O O3 0.250000 0.750000 0.500000
O O4 0.182009 0.608701 0.595075
O O5 0.283217 0.759533 0.671339
O O6 0.998412 0.781489 0.601011
O O7 0.768361 0.920234 0.572056
O O8 0.500000 0.000000 0.500000
O O9 0.193669 0.735989 0.162558
O O10 0.000000 0.854329 0.250000
O O11 0.250000 0.250000 0.500000
#
# Coordination Sequence:
#
# PCOD8147886 Si02
#       5
#     4   8   8   8   8
#     4  10  22  46  64 100 146 170 244 296 336 434
#     4  11  24  44  66 101 143 177 239 295 346 430
#     4  11  23  40  68 101 134 187 229 287 357 415
#     4  11  22  42  70  96 135 190 227 284 364 412
#     4  12  22  41  68  99 139 187 230 290 359 417
#
# _framework density 21.194662999999998
#
# number of rings (size 3 to 8) (size 9 to 14) (size 15 to 20)
#    0.000    0.889    6.667    1.333    1.556    0.889 
#    0.000   11.111    0.000    0.000    0.000    0.000 
#    0.000    0.000    0.000    0.000    0.000    0.000 
#
# Total GULP energy -223039.613415 kJ/mol
# GULP energy per Si atom -12391.089634 kJ/mol
# Density = 2.114642 g / cm^3
# Si number density = 21.194663 Si / 1000 Ang^3
#
#
#
# Elastic Constant Matrix: (Units=GPa)
#
#
# Indices 1 2 3 4 5 6 
#
# 1 155.2794 50.4969 40.2100 0.0000 5.4411 0.0000
# 2 50.4969 115.3268 34.1826 0.0000 -1.7479 0.0000
# 3 40.2100 34.1826 210.4420 0.0000 -6.7261 0.0000
# 4 0.0000 0.0000 0.0000 32.5145 0.0000 -4.5822
# 5 5.4411 -1.7479 -6.7261 0.0000 39.2548 0.0000
# 6 0.0000 0.0000 0.0000 -4.5822 0.0000 32.5822
#
#
#
# Elastic Compliance Matrix: (Units=1/GPa)
#
#
# Indices 1 2 3 4 5 6 
#
# 1 0.007768 -0.003119 -0.001022 0.000000 -0.001391 0.000000
# 2 -0.003119 0.010363 -0.001065 0.000000 0.000711 0.000000
# 3 -0.001022 -0.001065 0.005151 0.000000 0.000977 0.000000
# 4 0.000000 0.000000 0.000000 0.031377 0.000000 0.004413
# 5 -0.001391 0.000711 0.000977 0.000000 0.025866 0.000000
# 6 0.000000 0.000000 0.000000 0.004413 0.000000 0.031312
#
#
# Mechanical properties :
#
#
# Convention : Reuss Voigt Hill
#
# Bulk Modulus (GPa) = 77.69716 81.20304 79.45010
# Shear Modulus (GPa) = 39.51310 44.61420 42.06365
#
# Velocity S-wave (km/s) = 4.32243 4.59298 4.45976
# Velocity P-wave (km/s) = 7.85173 8.15619 8.00541
#
# Compressibility (1/GPa) = 0.01287048
#
# Stress axis : x y z
#
# Youngs Moduli (GPa) = 128.73651 96.49557 194.12502
#
# Poissons Ratio (x) = 0.30101 0.19839
# Poissons Ratio (y) = 0.40158 0.20666
# Poissons Ratio (z) = 0.13157 0.10272
#
# Static dielectric constant tensor:
#      x y z
#    x -1.517320 0.000000 6.595110 
#    y 0.000000 4.611090 0.000000 
#    z 6.595110 0.000000 -3.495050 
# 
# 
# High freq. dielectric constant tensor:
#      x y z
#    x 1.823930 0.000000 -0.003210 
#    y 0.000000 1.808190 0.000000 
#    z -0.003210 0.000000 1.876300 
# 
# From -- ./inp_files/132862.got.cif
#   From: 2010.06.25/outbox.cif.g09.slc.cpg/sg15_67_cif.got.tgz:132862.got - 2010.06.28 07:06:18.
