data_PCOD8147249
_publ_section_title
;
Structure prediction by ZEFSAII (Michael W. Deem and Ramdas Pophale) SiO2 
 PCOD8147249
Probable space group: C 2/C
;
_chemical_formula_sum "Si O2"
_cell_formula_units_Z 40
_cell_length_a 18.088728
_cell_length_b 24.209426
_cell_length_c 9.430606
_cell_angle_alpha 90.000000
_cell_angle_beta 153.530174
_cell_angle_gamma 90.000000
_cell_volume 1840.774228
_symmetry_space_group_name_H-M "C 2/C"
_symmetry_group_IT_number 15
_symmetry_cell_setting 'monoclinic'
loop_
_space_group_symop_operation_xyz
x,y,z
-x,y,1/2-z
-x,-y,-z
x,-y,1/2+z
1/2+x,1/2+y,z
1/2-x,1/2+y,1/2-z
1/2-x,1/2-y,-z
1/2+x,1/2-y,1/2+z
loop_
_atom_site_type_symbol
_atom_site_label
_atom_site_fract_x
_atom_site_fract_y
_atom_site_fract_z
Si Si1 0.114416 0.503249 0.831464
Si Si2 0.777346 0.104839 0.245790
Si Si3 0.376272 0.696221 0.901983
Si Si4 0.346764 0.590707 0.678659
Si Si5 0.332010 0.727017 0.277098
O O1 0.000000 0.473484 0.750000
O O2 0.000000 0.500000 0.500000
O O3 0.151608 0.566371 0.942374
O O4 0.285205 0.469391 0.121398
O O5 0.747742 0.103103 0.363562
O O6 0.747911 0.167820 0.153793
O O7 0.960146 0.085434 0.518608
O O8 0.309625 0.636444 0.736870
O O9 0.216526 0.733902 0.671782
O O10 0.500000 0.690006 0.250000
O O11 0.471435 0.721565 0.924827
O O12 0.250000 0.750000 0.000000
#
# Coordination Sequence:
#
# PCOD8147249 Si02
#       5
#     8   8   8   8   8
#     4  12  25  43  64  97 133 167 219 277 334 388
#     4  10  22  43  68  89 132 174 216 263 332 393
#     4   9  19  38  63  96 127 167 220 266 322 392
#     4  10  22  43  65  93 128 173 217 268 322 399
#     4   9  19  37  62  94 125 168 214 262 323 387
#
# _framework density 21.729987999999999
#
# number of rings (size 3 to 8) (size 9 to 14) (size 15 to 20)
#    0.000    2.000    2.000    0.600    0.000    8.000 
#    7.200    0.000    0.000    0.000    0.000    0.000 
#    0.000    0.000    0.000    0.000    0.000    0.000 
#
# Total GULP energy -247775.971172 kJ/mol
# GULP energy per Si atom -12388.798559 kJ/mol
# Density = 2.168053 g / cm^3
# Si number density = 21.729988 Si / 1000 Ang^3
#
#
#
# Elastic Constant Matrix: (Units=GPa)
#
#
# Indices 1 2 3 4 5 6 
#
# 1 118.4528 62.5878 28.5305 0.0000 -6.5730 0.0000
# 2 62.5878 131.0057 39.7320 0.0000 -10.5872 0.0000
# 3 28.5305 39.7320 79.3051 0.0000 -20.6723 0.0000
# 4 0.0000 0.0000 0.0000 29.6595 0.0000 -0.3814
# 5 -6.5730 -10.5872 -20.6723 0.0000 28.8433 0.0000
# 6 0.0000 0.0000 0.0000 -0.3814 0.0000 40.3637
#
#
#
# Elastic Compliance Matrix: (Units=1/GPa)
#
#
# Indices 1 2 3 4 5 6 
#
# 1 0.011474 -0.004988 -0.001751 0.000000 -0.000472 0.000000
# 2 -0.004988 0.011170 -0.003725 0.000000 0.000293 0.000000
# 3 -0.001751 -0.003725 0.018010 0.000000 0.011142 0.000000
# 4 0.000000 0.000000 0.000000 0.033720 0.000000 0.000319
# 5 -0.000472 0.000293 0.011142 0.000000 0.042656 0.000000
# 6 0.000000 0.000000 0.000000 0.000319 0.000000 0.024778
#
#
# Mechanical properties :
#
#
# Convention : Reuss Voigt Hill
#
# Bulk Modulus (GPa) = 50.70000 65.60712 58.15356
# Shear Modulus (GPa) = 29.53135 32.96752 31.24943
#
# Velocity S-wave (km/s) = 3.69048 3.89928 3.79631
# Velocity P-wave (km/s) = 6.44531 7.10845 6.78498
#
# Compressibility (1/GPa) = 0.01972387
#
# Stress axis : x y z
#
# Youngs Moduli (GPa) = 87.15632 89.52596 55.52437
#
# Poissons Ratio (x) = 0.44660 0.09725
# Poissons Ratio (y) = 0.43477 0.20683
# Poissons Ratio (z) = 0.15265 0.33349
#
# Static dielectric constant tensor:
#      x y z
#    x 4.864140 0.000000 0.231250 
#    y 0.000000 4.104610 0.000000 
#    z 0.231250 0.000000 3.663980 
# 
# 
# High freq. dielectric constant tensor:
#      x y z
#    x 1.871460 0.000000 -0.001840 
#    y 0.000000 1.852220 0.000000 
#    z -0.001840 0.000000 1.836590 
# 
# From -- ./inp_files/23486.got.cif
#   From: 2010.06.25/outbox.cif.g09.slc.cpg/sg15_12_cif.got.tgz:23486.got - 2010.06.28 07:06:18.
