data_PCOD8147747
_publ_section_title
;
Structure prediction by ZEFSAII (Michael W. Deem and Ramdas Pophale) SiO2 
 PCOD8147747
Probable space group: C 2/C
;
_chemical_formula_sum "Si O2"
_cell_formula_units_Z 64
_cell_length_a 8.555348
_cell_length_b 14.890851
_cell_length_c 22.368727
_cell_angle_alpha 90.000000
_cell_angle_beta 86.552183
_cell_angle_gamma 90.000000
_cell_volume 2844.537577
_symmetry_space_group_name_H-M "C 2/C"
_symmetry_group_IT_number 15
_symmetry_cell_setting 'monoclinic'
loop_
_space_group_symop_operation_xyz
x,y,z
-x,y,1/2-z
-x,-y,-z
x,-y,1/2+z
1/2+x,1/2+y,z
1/2-x,1/2+y,1/2-z
1/2-x,1/2-y,-z
1/2+x,1/2-y,1/2+z
loop_
_atom_site_type_symbol
_atom_site_label
_atom_site_fract_x
_atom_site_fract_y
_atom_site_fract_z
Si Si1 0.854865 0.885682 0.477296
Si Si2 0.341596 0.739869 0.220304
Si Si3 0.341396 0.919204 0.724197
Si Si4 0.271716 0.725699 0.087970
Si Si5 0.673094 0.370638 0.398431
Si Si6 0.589219 0.174007 0.395398
Si Si7 0.329579 0.411729 0.233959
Si Si8 0.842421 0.554742 0.999198
O O1 0.733804 0.824166 0.442296
O O2 0.867096 0.843522 0.543760
O O3 0.022243 0.887385 0.442567
O O4 0.798995 0.988090 0.481028
O O5 0.500000 0.710850 0.250000
O O6 0.203802 0.672387 0.241424
O O7 0.363540 0.734773 0.148276
O O8 0.297053 0.839943 0.241104
O O9 0.500000 0.956790 0.750000
O O10 0.366001 0.900775 0.653892
O O11 0.207026 0.993574 0.734110
O O12 0.096415 0.688955 0.101058
O O13 0.682704 0.265979 0.380062
O O14 0.672101 0.426680 0.337300
O O15 0.821623 0.404243 0.433236
O O16 0.650272 0.139384 0.457343
O O17 0.500000 0.378118 0.250000
O O18 0.000000 0.500000 0.000000
#
# Coordination Sequence:
#
# PCOD8147747 Si02
#       8
#     8   8   8   8   8   8   8   8
#     4  10  23  45  70 104 134 191 227 294 350 420
#     4  12  26  47  72 108 143 190 239 300 366 436
#     4  12  26  46  74 105 142 189 242 301 368 429
#     4  10  22  44  73 100 145 180 237 286 362 424
#     4  11  26  47  70 101 148 188 235 291 359 435
#     4  11  23  46  72 101 142 189 231 296 363 428
#     4  12  27  49  74 107 147 192 245 299 364 436
#     4  12  26  42  70 105 139 181 240 295 352 418
#
# _framework density 22.499262999999999
#
# number of rings (size 3 to 8) (size 9 to 14) (size 15 to 20)
#    0.000    0.750    3.750    3.375    7.000    2.000 
#    0.000    0.000    0.000    0.000    0.000    0.000 
#    0.000    0.000    0.000    0.000    0.000    0.000 
#
# Total GULP energy -397033.787904 kJ/mol
# GULP energy per Si atom -12407.305872 kJ/mol
# Density = 2.244805 g / cm^3
# Si number density = 22.499263 Si / 1000 Ang^3
#
#
#
# Elastic Constant Matrix: (Units=GPa)
#
#
# Indices 1 2 3 4 5 6 
#
# 1 73.2428 19.8194 44.8702 0.0000 11.6503 0.0000
# 2 19.8194 94.2685 31.2451 0.0000 -3.4634 0.0000
# 3 44.8702 31.2451 173.7731 0.0000 15.3036 0.0000
# 4 0.0000 0.0000 0.0000 34.2950 0.0000 -0.8519
# 5 11.6503 -3.4634 15.3036 0.0000 40.7672 0.0000
# 6 0.0000 0.0000 0.0000 -0.8519 0.0000 30.5803
#
#
#
# Elastic Compliance Matrix: (Units=1/GPa)
#
#
# Indices 1 2 3 4 5 6 
#
# 1 0.017172 -0.002539 -0.003647 0.000000 -0.003754 0.000000
# 2 -0.002539 0.011782 -0.001670 0.000000 0.002354 0.000000
# 3 -0.003647 -0.001670 0.007154 0.000000 -0.001785 0.000000
# 4 0.000000 0.000000 0.000000 0.029179 0.000000 0.000813
# 5 -0.003754 0.002354 -0.001785 0.000000 0.026472 0.000000
# 6 0.000000 0.000000 0.000000 0.000813 0.000000 0.032723
#
#
# Mechanical properties :
#
#
# Convention : Reuss Voigt Hill
#
# Bulk Modulus (GPa) = 49.03179 59.23931 54.13555
# Shear Modulus (GPa) = 34.01534 37.48516 35.75025
#
# Velocity S-wave (km/s) = 3.89246 4.08617 3.99049
# Velocity P-wave (km/s) = 6.48395 6.97488 6.73389
#
# Compressibility (1/GPa) = 0.02039493
#
# Stress axis : x y z
#
# Youngs Moduli (GPa) = 58.23582 84.87606 139.78723
#
# Poissons Ratio (x) = 0.21554 0.50976
# Poissons Ratio (y) = 0.14789 0.23344
# Poissons Ratio (z) = 0.21237 0.14174
#
# Static dielectric constant tensor:
#      x y z
#    x 3.782400 0.000000 -0.198650 
#    y 0.000000 4.179520 0.000000 
#    z -0.198650 0.000000 3.433280 
# 
# 
# High freq. dielectric constant tensor:
#      x y z
#    x 1.877060 0.000000 -0.000880 
#    y 0.000000 1.893430 0.000000 
#    z -0.000880 0.000000 1.899750 
# 
# From -- ./inp_files/264730.got.cif
#   From: 2010.06.25/outbox.cif.g09.slc.cpg/sg15_133_cif.got.tgz:264730.got - 2010.06.28 07:06:18.
