data_PCOD8147634
_publ_section_title
;
Structure prediction by ZEFSAII (Michael W. Deem and Ramdas Pophale) SiO2 
 PCOD8147634
Probable space group: C 2/C
;
_chemical_formula_sum "Si O2"
_cell_formula_units_Z 44
_cell_length_a 13.474564
_cell_length_b 30.976381
_cell_length_c 14.478772
_cell_angle_alpha 90.000000
_cell_angle_beta 160.362116
_cell_angle_gamma 90.000000
_cell_volume 2031.012241
_symmetry_space_group_name_H-M "C 2/C"
_symmetry_group_IT_number 15
_symmetry_cell_setting 'monoclinic'
loop_
_space_group_symop_operation_xyz
x,y,z
-x,y,1/2-z
-x,-y,-z
x,-y,1/2+z
1/2+x,1/2+y,z
1/2-x,1/2+y,1/2-z
1/2-x,1/2-y,-z
1/2+x,1/2-y,1/2+z
loop_
_atom_site_type_symbol
_atom_site_label
_atom_site_fract_x
_atom_site_fract_y
_atom_site_fract_z
Si Si1 0.286621 0.892191 0.140445
Si Si2 0.836776 0.365873 0.864311
Si Si3 0.791002 0.103689 0.445856
Si Si4 0.000000 0.525066 0.750000
Si Si5 0.077321 0.721093 0.500827
Si Si6 0.500000 0.323207 0.250000
Si Si7 0.000000 0.966819 0.250000
O O1 0.500000 0.870388 0.250000
O O2 0.391056 0.883109 0.336615
O O3 0.288579 0.944230 0.127591
O O4 0.964646 0.871656 0.842014
O O5 0.796922 0.395091 0.738068
O O6 0.900287 0.315940 0.899091
O O7 0.500000 0.097726 0.250000
O O8 0.998527 0.063052 0.655729
O O9 0.953536 0.148120 0.617113
O O10 0.793880 0.496003 0.503796
O O11 0.203267 0.704185 0.511998
O O12 0.867967 0.762602 0.308987
#
# Coordination Sequence:
#
# PCOD8147634 Si02
#       7
#     8   8   8   4   8   4   4
#     4  10  24  44  74  91 120 169 235 279 332 381
#     4  12  23  44  68  97 128 174 229 259 322 412
#     4  11  23  39  65  97 139 189 209 249 316 393
#     4  10  22  44  68  95 122 172 218 289 332 370
#     4  12  25  39  63  98 138 172 214 273 319 374
#     4  11  22  40  60  93 142 192 226 235 300 408
#     4  11  22  40  66  94 146 168 206 272 330 376
#
# _framework density 21.664073999999999
#
# number of rings (size 3 to 8) (size 9 to 14) (size 15 to 20)
#    0.545    0.364    2.727    5.455    2.545    0.000 
#    0.000    5.455    0.000   10.909    0.000    0.000 
#    0.000    0.000    0.000    0.000    0.000    0.000 
#
# Total GULP energy -272735.185218 kJ/mol
# GULP energy per Si atom -12397.053874 kJ/mol
# Density = 2.161477 g / cm^3
# Si number density = 21.664074 Si / 1000 Ang^3
#
#
#
# Elastic Constant Matrix: (Units=GPa)
#
#
# Indices 1 2 3 4 5 6 
#
# 1 60.6797 34.1725 8.0271 -0.0617 1.4828 -0.0473
# 2 34.1725 132.5904 45.6885 -0.0096 8.0624 -0.0074
# 3 8.0271 45.6885 100.5669 -0.0828 4.1497 -0.0663
# 4 -0.0617 -0.0096 -0.0828 16.3882 -0.0370 0.8185
# 5 1.4828 8.0624 4.1497 -0.0370 46.7572 -0.0299
# 6 -0.0473 -0.0074 -0.0663 0.8185 -0.0299 8.3050
#
#
#
# Elastic Compliance Matrix: (Units=1/GPa)
#
#
# Indices 1 2 3 4 5 6 
#
# 1 0.019342 -0.005292 0.000851 0.000069 0.000224 0.000106
# 2 -0.005292 0.010456 -0.004276 -0.000035 -0.001256 -0.000056
# 3 0.000851 -0.004276 0.011832 0.000055 -0.000340 0.000089
# 4 0.000069 -0.000035 0.000055 0.061322 0.000044 -0.006043
# 5 0.000224 -0.001256 -0.000340 0.000044 0.021627 0.000071
# 6 0.000106 -0.000056 0.000089 -0.006043 0.000071 0.121007
#
#
# Mechanical properties :
#
#
# Convention : Reuss Voigt Hill
#
# Bulk Modulus (GPa) = 41.32751 52.17923 46.75337
# Shear Modulus (GPa) = 18.44441 28.02002 23.23221
#
# Velocity S-wave (km/s) = 2.92101 3.60027 3.27828
# Velocity P-wave (km/s) = 5.52217 6.43587 5.99645
#
# Compressibility (1/GPa) = 0.02419696
#
# Stress axis : x y z
#
# Youngs Moduli (GPa) = 51.70008 95.64153 84.51355
#
# Poissons Ratio (x) = 0.50614 -0.07194
# Poissons Ratio (y) = 0.27360 0.36138
# Poissons Ratio (z) = -0.04401 0.40896
#
# Static dielectric constant tensor:
#      x y z
#    x 7.306040 0.000670 -3.965480 
#    y 0.000670 3.992830 -0.000740 
#    z -3.965480 -0.000740 8.643550 
# 
# 
# High freq. dielectric constant tensor:
#      x y z
#    x 1.815930 0.000000 0.009020 
#    y 0.000000 1.847760 0.000000 
#    z 0.009020 0.000000 1.875420 
# 
# From -- ./inp_files/157576.got.cif
#   From: 2010.06.25/outbox.cif.g09.slc.cpg/sg15_79_cif.got.tgz:157576.got - 2010.06.28 07:06:18.
