data_PCOD8147098
_publ_section_title
;
Structure prediction by ZEFSAII (Michael W. Deem and Ramdas Pophale) SiO2 
 PCOD8147098
Probable space group: C 2/C
;
_chemical_formula_sum "Si O2"
_cell_formula_units_Z 36
_cell_length_a 24.454504
_cell_length_b 5.148782
_cell_length_c 22.274342
_cell_angle_alpha 90.000000
_cell_angle_beta 153.878174
_cell_angle_gamma 90.000000
_cell_volume 1234.805104
_symmetry_space_group_name_H-M "C 2/C"
_symmetry_group_IT_number 15
_symmetry_cell_setting 'monoclinic'
loop_
_space_group_symop_operation_xyz
x,y,z
-x,y,1/2-z
-x,-y,-z
x,-y,1/2+z
1/2+x,1/2+y,z
1/2-x,1/2+y,1/2-z
1/2-x,1/2-y,-z
1/2+x,1/2-y,1/2+z
loop_
_atom_site_type_symbol
_atom_site_label
_atom_site_fract_x
_atom_site_fract_y
_atom_site_fract_z
Si Si1 0.255352 0.349467 0.295045
Si Si2 0.000000 0.475960 0.750000
Si Si3 0.333747 0.221819 0.991548
Si Si4 0.301059 0.769794 0.117477
Si Si5 0.988862 0.422826 0.057883
O O1 0.260505 0.641105 0.274288
O O2 0.382626 0.299252 0.457335
O O3 0.129674 0.323830 0.214740
O O4 0.891188 0.295599 0.615729
O O5 0.947584 0.657058 0.753275
O O6 0.444563 0.169926 0.053179
O O7 0.272982 0.499720 0.920179
O O8 0.225943 0.003217 0.876259
O O9 0.250000 0.750000 0.000000
O O10 0.000000 0.500000 0.000000
#
# Coordination Sequence:
#
# PCOD8147098 Si02
#       5
#     8   4   8   8   8
#     4  10  22  42  70  96 141 192 240 292 351 420
#     4  10  22  44  68  92 134 170 226 286 360 410
#     4  11  25  41  68 103 133 180 231 288 351 425
#     4  10  23  43  68  97 133 173 228 285 353 421
#     4  10  24  46  69 104 145 191 238 291 355 428
#
# _framework density 29.154395000000001
#
# number of rings (size 3 to 8) (size 9 to 14) (size 15 to 20)
#    0.000    1.778    0.000    3.333    3.111   15.111 
#    8.000    0.000    0.000    0.000    0.000    0.000 
#    0.000    0.000    0.000    0.000    0.000    0.000 
#
# Total GULP energy -223164.062756 kJ/mol
# GULP energy per Si atom -12398.003486 kJ/mol
# Density = 2.908804 g / cm^3
# Si number density = 29.154395 Si / 1000 Ang^3
#
#
#
# Elastic Constant Matrix: (Units=GPa)
#
#
# Indices 1 2 3 4 5 6 
#
# 1 148.8399 41.3186 23.2791 0.0002 47.8118 0.0001
# 2 41.3186 153.0792 53.4923 0.0031 13.8495 0.0056
# 3 23.2791 53.4923 199.5029 -0.0004 32.8399 0.0002
# 4 0.0002 0.0031 -0.0004 37.7921 0.0000 -2.8550
# 5 47.8118 13.8495 32.8399 0.0000 50.2383 0.0001
# 6 0.0001 0.0056 0.0002 -2.8550 0.0001 58.1191
#
#
#
# Elastic Compliance Matrix: (Units=1/GPa)
#
#
# Indices 1 2 3 4 5 6 
#
# 1 0.010372 -0.002262 0.001029 0.000000 -0.009921 0.000000
# 2 -0.002262 0.007731 -0.002031 -0.000001 0.001349 -0.000001
# 3 0.001029 -0.002031 0.006170 0.000000 -0.004453 0.000000
# 4 0.000000 -0.000001 0.000000 0.026559 0.000000 0.001305
# 5 -0.009921 0.001349 -0.004453 0.000000 0.031885 0.000000
# 6 0.000000 -0.000001 0.000000 0.001305 0.000000 0.017270
#
#
# Mechanical properties :
#
#
# Convention : Reuss Voigt Hill
#
# Bulk Modulus (GPa) = 56.35137 81.95576 69.15357
# Shear Modulus (GPa) = 44.47218 54.78537 49.62877
#
# Velocity S-wave (km/s) = 3.90988 4.33961 4.13034
# Velocity P-wave (km/s) = 6.30503 7.29943 6.82038
#
# Compressibility (1/GPa) = 0.01774580
#
# Stress axis : x y z
#
# Youngs Moduli (GPa) = 96.41053 129.35427 162.07781
#
# Poissons Ratio (x) = 0.29257 -0.16680
# Poissons Ratio (y) = 0.21806 0.32917
# Poissons Ratio (z) = -0.09922 0.26271
#
# Static dielectric constant tensor:
#      x y z
#    x 6.268220 0.000000 0.474870 
#    y 0.000000 5.090810 -0.000010 
#    z 0.474870 -0.000010 7.163630 
# 
# 
# High freq. dielectric constant tensor:
#      x y z
#    x 2.236030 0.000000 -0.005330 
#    y 0.000000 2.160720 0.000000 
#    z -0.005330 0.000000 2.202570 
# 
# From -- ./inp_files/302768.got.cif
#   From: 2010.06.25/outbox.cif.g09.slc.cpg/sg15_152_cif.got.tgz:302768.got - 2010.06.28 07:06:18.
