data_PCOD8147349
_publ_section_title
;
Structure prediction by ZEFSAII (Michael W. Deem and Ramdas Pophale) SiO2 
 PCOD8147349
Probable space group: C 2/C
;
_chemical_formula_sum "Si O2"
_cell_formula_units_Z 64
_cell_length_a 26.154536
_cell_length_b 16.131093
_cell_length_c 11.432032
_cell_angle_alpha 90.000000
_cell_angle_beta 141.625190
_cell_angle_gamma 90.000000
_cell_volume 2994.250788
_symmetry_space_group_name_H-M "C 2/C"
_symmetry_group_IT_number 15
_symmetry_cell_setting 'monoclinic'
loop_
_space_group_symop_operation_xyz
x,y,z
-x,y,1/2-z
-x,-y,-z
x,-y,1/2+z
1/2+x,1/2+y,z
1/2-x,1/2+y,1/2-z
1/2-x,1/2-y,-z
1/2+x,1/2-y,1/2+z
loop_
_atom_site_type_symbol
_atom_site_label
_atom_site_fract_x
_atom_site_fract_y
_atom_site_fract_z
Si Si1 0.169731 0.307602 0.468828
Si Si2 0.208161 0.054769 0.585123
Si Si3 0.586607 0.586359 0.935899
Si Si4 0.026620 0.602272 0.168656
Si Si5 0.874596 0.233902 0.655246
Si Si6 0.875043 0.457484 0.252171
Si Si7 0.795892 0.789095 0.255631
Si Si8 0.851393 0.837113 0.723671
O O1 0.144475 0.401584 0.396920
O O2 0.158953 0.281504 0.584813
O O3 0.117058 0.243455 0.292541
O O4 0.267501 0.301225 0.626485
O O5 0.300157 0.031469 0.708729
O O6 0.210578 0.124321 0.688606
O O7 0.159611 0.086209 0.384433
O O8 0.163893 0.974975 0.561056
O O9 0.500000 0.539768 0.750000
O O10 0.587080 0.656414 0.839657
O O11 0.588165 0.629857 0.066682
O O12 0.055146 0.696696 0.214239
O O13 0.102246 0.546969 0.257376
O O14 0.000000 0.574903 0.250000
O O15 0.948773 0.589542 0.947151
O O16 0.851994 0.201685 0.743074
O O17 0.796243 0.265256 0.443326
#
# Coordination Sequence:
#
# PCOD8147349 Si02
#       8
#     8   8   8   8   8   8   8   8
#     4   9  18  39  66  92 122 170 224 270 323 399
#     4  10  24  44  68  97 132 181 226 281 326 405
#     4  12  27  42  67  97 138 179 222 278 343 402
#     4  11  25  42  63 103 143 173 220 288 351 407
#     4  11  25  41  68 101 136 178 225 279 345 404
#     4  10  24  41  69  98 132 178 228 276 345 405
#     4  10  22  43  68  97 132 173 234 278 330 403
#     4   9  20  38  65  91 121 169 221 268 323 395
#
# _framework density 21.374295
#
# number of rings (size 3 to 8) (size 9 to 14) (size 15 to 20)
#    0.000    1.750    1.250    1.875    8.750    5.500 
#    0.000    0.000    0.000    0.000    0.000    0.000 
#    0.000    0.000    0.000    0.000    0.000    0.000 
#
# Total GULP energy -396732.685007 kJ/mol
# GULP energy per Si atom -12397.896406 kJ/mol
# Density = 2.132565 g / cm^3
# Si number density = 21.374295 Si / 1000 Ang^3
#
#
#
# Elastic Constant Matrix: (Units=GPa)
#
#
# Indices 1 2 3 4 5 6 
#
# 1 102.4658 45.4785 51.5448 0.0000 -12.2888 0.0000
# 2 45.4785 90.9324 30.6668 0.0000 -0.6994 0.0000
# 3 51.5448 30.6668 86.0344 0.0000 -8.9617 0.0000
# 4 0.0000 0.0000 0.0000 165.2917 0.0000 104.2363
# 5 -12.2888 -0.6994 -8.9617 0.0000 33.8856 0.0000
# 6 0.0000 0.0000 0.0000 104.2363 0.0000 105.9210
#
#
#
# Elastic Compliance Matrix: (Units=1/GPa)
#
#
# Indices 1 2 3 4 5 6 
#
# 1 0.016511 -0.005716 -0.007448 0.000000 0.003900 0.000000
# 2 -0.005716 0.014508 -0.001986 0.000000 -0.002299 0.000000
# 3 -0.007448 -0.001986 0.016976 0.000000 0.001747 0.000000
# 4 0.000000 0.000000 0.000000 0.015946 0.000000 -0.015692
# 5 0.003900 -0.002299 0.001747 0.000000 0.031340 0.000000
# 6 0.000000 0.000000 0.000000 -0.015692 0.000000 0.024883
#
#
# Mechanical properties :
#
#
# Convention : Reuss Voigt Hill
#
# Bulk Modulus (GPa) = 56.51742 59.42366 57.97054
# Shear Modulus (GPa) = 31.97698 71.13581 51.55640
#
# Velocity S-wave (km/s) = 3.87207 5.77523 4.91662
# Velocity P-wave (km/s) = 6.81834 8.50487 7.70787
#
# Compressibility (1/GPa) = 0.01769366
#
# Stress axis : x y z
#
# Youngs Moduli (GPa) = 60.56647 68.92733 58.90741
#
# Poissons Ratio (x) = 0.39397 0.43876
# Poissons Ratio (y) = 0.34618 0.11702
# Poissons Ratio (z) = 0.45112 0.13692
#
# Static dielectric constant tensor:
#      x y z
#    x 3.926790 0.000000 -0.158770 
#    y 0.000000 3.778870 0.000000 
#    z -0.158770 0.000000 3.887530 
# 
# 
# High freq. dielectric constant tensor:
#      x y z
#    x 1.833120 0.000000 -0.015590 
#    y 0.000000 1.839360 0.000000 
#    z -0.015590 0.000000 1.842960 
# 
# From -- ./inp_files/123565.got.cif
#   From: 2010.06.25/outbox.cif.g09.slc.cpg/sg15_62_cif.got.tgz:123565.got - 2010.06.28 07:06:18.
