data_PCOD8147435
_publ_section_title
;
Structure prediction by ZEFSAII (Michael W. Deem and Ramdas Pophale) SiO2 
 PCOD8147435
Probable space group: C 2/C
;
_chemical_formula_sum "Si O2"
_cell_formula_units_Z 36
_cell_length_a 22.966818
_cell_length_b 7.425081
_cell_length_c 8.947447
_cell_angle_alpha 90.000000
_cell_angle_beta 113.745057
_cell_angle_gamma 90.000000
_cell_volume 1396.646676
_symmetry_space_group_name_H-M "C 2/C"
_symmetry_group_IT_number 15
_symmetry_cell_setting 'monoclinic'
loop_
_space_group_symop_operation_xyz
x,y,z
-x,y,1/2-z
-x,-y,-z
x,-y,1/2+z
1/2+x,1/2+y,z
1/2-x,1/2+y,1/2-z
1/2-x,1/2-y,-z
1/2+x,1/2-y,1/2+z
loop_
_atom_site_type_symbol
_atom_site_label
_atom_site_fract_x
_atom_site_fract_y
_atom_site_fract_z
Si Si1 0.812827 0.626178 0.938748
Si Si2 0.500000 0.264773 0.750000
Si Si3 0.183912 0.004396 0.891111
Si Si4 0.391239 0.665102 0.942582
Si Si5 0.392608 0.968934 0.271113
O O1 0.801458 0.823600 0.989310
O O2 0.869868 0.533353 0.087331
O O3 0.751378 0.491027 0.874585
O O4 0.837291 0.652458 0.792891
O O5 0.457007 0.389990 0.595379
O O6 0.542835 0.140125 0.686023
O O7 0.126410 0.034404 0.712774
O O8 0.163333 0.843113 0.982054
O O9 0.400756 0.865416 0.893416
#
# Coordination Sequence:
#
# PCOD8147435 Si02
#       5
#     8   4   8   8   8
#     4  10  22  43  72 101 139 176 233 295 355 423
#     4  12  26  46  68 102 144 194 246 272 340 426
#     4  10  24  44  66 109 138 175 230 294 372 403
#     4  11  25  44  70  99 141 185 227 294 341 425
#     4  11  23  44  71 100 132 193 234 289 339 410
#
# _framework density 25.776025000000001
#
# number of rings (size 3 to 8) (size 9 to 14) (size 15 to 20)
#    0.000    1.333    2.222    2.000    3.111    1.778 
#    0.000    0.000    0.000    0.000    0.000    0.000 
#    0.000    0.000    0.000    0.000    0.000    0.000 
#
# Total GULP energy -223033.706256 kJ/mol
# GULP energy per Si atom -12390.761459 kJ/mol
# Density = 2.571736 g / cm^3
# Si number density = 25.776025 Si / 1000 Ang^3
#
#
#
# Elastic Constant Matrix: (Units=GPa)
#
#
# Indices 1 2 3 4 5 6 
#
# 1 138.6513 21.7908 10.0265 0.0000 -14.5443 0.0000
# 2 21.7908 33.5754 18.0916 0.0000 0.9847 0.0000
# 3 10.0265 18.0916 86.5803 0.0000 -2.4467 0.0000
# 4 0.0000 0.0000 0.0000 16.4665 0.0000 -0.2918
# 5 -14.5443 0.9847 -2.4467 0.0000 54.3658 0.0000
# 6 0.0000 0.0000 0.0000 -0.2918 0.0000 40.9042
#
#
#
# Elastic Compliance Matrix: (Units=1/GPa)
#
#
# Indices 1 2 3 4 5 6 
#
# 1 0.008321 -0.005618 0.000276 0.000000 0.002340 0.000000
# 2 -0.005618 0.037402 -0.007236 0.000000 -0.002506 0.000000
# 3 0.000276 -0.007236 0.013052 0.000000 0.000792 0.000000
# 4 0.000000 0.000000 0.000000 0.060737 0.000000 0.000433
# 5 0.002340 -0.002506 0.000792 0.000000 0.019101 0.000000
# 6 0.000000 0.000000 0.000000 0.000433 0.000000 0.024450
#
#
# Mechanical properties :
#
#
# Convention : Reuss Voigt Hill
#
# Bulk Modulus (GPa) = 29.74340 39.84722 34.79531
# Shear Modulus (GPa) = 25.07210 36.27384 30.67297
#
# Velocity S-wave (km/s) = 3.12218 3.75543 3.45335
# Velocity P-wave (km/s) = 4.95596 5.85636 5.42487
#
# Compressibility (1/GPa) = 0.03362091
#
# Stress axis : x y z
#
# Youngs Moduli (GPa) = 120.18151 26.73651 76.61486
#
# Poissons Ratio (x) = 0.15020 -0.02118
# Poissons Ratio (y) = 0.67516 0.55436
# Poissons Ratio (z) = -0.03322 0.19346
#
# Static dielectric constant tensor:
#      x y z
#    x 4.778620 0.000000 -0.183950 
#    y 0.000000 4.449450 0.000000 
#    z -0.183950 0.000000 4.957780 
# 
# 
# High freq. dielectric constant tensor:
#      x y z
#    x 2.027530 0.000000 -0.014400 
#    y 0.000000 2.011270 0.000000 
#    z -0.014400 0.000000 2.053790 
# 
# From -- ./inp_files/53611.got.cif
#   From: 2010.06.25/outbox.cif.g09.slc.cpg/sg15_27_cif.got.tgz:53611.got - 2010.06.28 07:06:18.
