data_PCOD8147468
_publ_section_title
;
Structure prediction by ZEFSAII (Michael W. Deem and Ramdas Pophale) SiO2 
 PCOD8147468
Probable space group: C 2/C
;
_chemical_formula_sum "Si O2"
_cell_formula_units_Z 36
_cell_length_a 7.527576
_cell_length_b 11.792472
_cell_length_c 22.351071
_cell_angle_alpha 90.000000
_cell_angle_beta 65.101316
_cell_angle_gamma 90.000000
_cell_volume 1799.663600
_symmetry_space_group_name_H-M "C 2/C"
_symmetry_group_IT_number 15
_symmetry_cell_setting 'monoclinic'
loop_
_space_group_symop_operation_xyz
x,y,z
-x,y,1/2-z
-x,-y,-z
x,-y,1/2+z
1/2+x,1/2+y,z
1/2-x,1/2+y,1/2-z
1/2-x,1/2-y,-z
1/2+x,1/2-y,1/2+z
loop_
_atom_site_type_symbol
_atom_site_label
_atom_site_fract_x
_atom_site_fract_y
_atom_site_fract_z
Si Si1 0.000000 0.313679 0.750000
Si Si2 0.495106 0.557265 0.588563
Si Si3 0.545204 0.971946 0.180186
Si Si4 0.057481 0.175463 0.023804
Si Si5 0.778721 0.672742 0.638410
O O1 0.964337 0.397523 0.697712
O O2 0.187794 0.236399 0.708887
O O3 0.275727 0.526484 0.637482
O O4 0.499479 0.653090 0.536832
O O5 0.601516 0.443324 0.550645
O O6 0.607837 0.603304 0.630202
O O7 0.500000 0.908583 0.250000
O O8 0.442575 0.913400 0.138750
O O9 0.875644 0.239418 0.079303
O O10 0.250000 0.250000 0.000000
#
# Coordination Sequence:
#
# PCOD8147468 Si02
#       5
#     4   8   8   8   8
#     4  10  24  42  64  92 128 164 214 266 304 376
#     4  11  24  42  65  96 129 161 219 259 307 394
#     4  10  22  44  60  93 130 160 216 265 302 382
#     4  11  23  43  66  96 131 166 207 264 318 375
#     4  12  23  43  67  92 126 175 207 258 330 363
#
# _framework density 20.003737999999998
#
# number of rings (size 3 to 8) (size 9 to 14) (size 15 to 20)
#    0.667    0.444    4.444    2.000    0.000    2.667 
#    4.000    0.000    0.000    0.000    0.000    0.000 
#    0.000    0.000    0.000    0.000    0.000    0.000 
#
# Total GULP energy -223163.321350 kJ/mol
# GULP energy per Si atom -12397.962297 kJ/mol
# Density = 1.995821 g / cm^3
# Si number density = 20.003738 Si / 1000 Ang^3
#
#
#
# Elastic Constant Matrix: (Units=GPa)
#
#
# Indices 1 2 3 4 5 6 
#
# 1 117.2359 58.3772 42.6960 0.0000 -0.3884 0.0000
# 2 58.3772 98.7291 33.9151 0.0000 0.1975 0.0000
# 3 42.6960 33.9151 102.7891 0.0000 -15.2226 0.0000
# 4 0.0000 0.0000 0.0000 41.8431 0.0000 -4.4781
# 5 -0.3884 0.1975 -15.2226 0.0000 35.0726 0.0000
# 6 0.0000 0.0000 0.0000 -4.4781 0.0000 23.8759
#
#
#
# Elastic Compliance Matrix: (Units=1/GPa)
#
#
# Indices 1 2 3 4 5 6 
#
# 1 0.013028 -0.006513 -0.003458 0.000000 -0.001320 0.000000
# 2 -0.006513 0.014789 -0.002348 0.000000 -0.001175 0.000000
# 3 -0.003458 -0.002348 0.012756 0.000000 0.005511 0.000000
# 4 0.000000 0.000000 0.000000 0.024388 0.000000 0.004574
# 5 -0.001320 -0.001175 0.005511 0.000000 0.030896 0.000000
# 6 0.000000 0.000000 0.000000 0.004574 0.000000 0.042741
#
#
# Mechanical properties :
#
#
# Convention : Reuss Voigt Hill
#
# Bulk Modulus (GPa) = 62.75660 65.41450 64.08555
# Shear Modulus (GPa) = 29.66522 32.40938 31.03730
#
# Velocity S-wave (km/s) = 3.85513 4.02950 3.94328
# Velocity P-wave (km/s) = 7.15937 7.37708 7.26904
#
# Compressibility (1/GPa) = 0.01593458
#
# Stress axis : x y z
#
# Youngs Moduli (GPa) = 76.75926 67.61988 78.39407
#
# Poissons Ratio (x) = 0.44038 0.27109
# Poissons Ratio (y) = 0.49990 0.18409
# Poissons Ratio (z) = 0.26544 0.15879
#
# Static dielectric constant tensor:
#      x y z
#    x 3.261490 0.000000 -0.105280 
#    y 0.000000 3.746510 0.000000 
#    z -0.105280 0.000000 3.854570 
# 
# 
# High freq. dielectric constant tensor:
#      x y z
#    x 1.758420 0.000000 -0.016050 
#    y 0.000000 1.786740 0.000000 
#    z -0.016050 0.000000 1.800000 
# 
# From -- ./inp_files/285140.got.cif
#   From: 2010.06.25/outbox.cif.g09.slc.cpg/sg15_143_cif.got.tgz:285140.got - 2010.06.28 07:06:18.
