data_PCOD8147685
_publ_section_title
;
Structure prediction by ZEFSAII (Michael W. Deem and Ramdas Pophale) SiO2 
 PCOD8147685
Probable space group: C 2/C
;
_chemical_formula_sum "Si O2"
_cell_formula_units_Z 60
_cell_length_a 16.153556
_cell_length_b 9.277247
_cell_length_c 16.518230
_cell_angle_alpha 90.000000
_cell_angle_beta 81.747859
_cell_angle_gamma 90.000000
_cell_volume 2449.800135
_symmetry_space_group_name_H-M "C 2/C"
_symmetry_group_IT_number 15
_symmetry_cell_setting 'monoclinic'
loop_
_space_group_symop_operation_xyz
x,y,z
-x,y,1/2-z
-x,-y,-z
x,-y,1/2+z
1/2+x,1/2+y,z
1/2-x,1/2+y,1/2-z
1/2-x,1/2-y,-z
1/2+x,1/2-y,1/2+z
loop_
_atom_site_type_symbol
_atom_site_label
_atom_site_fract_x
_atom_site_fract_y
_atom_site_fract_z
Si Si1 0.865518 0.662694 0.535315
Si Si2 0.389819 0.063055 0.699953
Si Si3 0.136058 0.882162 0.609653
Si Si4 0.222240 0.947686 0.966642
Si Si5 0.500000 0.312272 0.750000
Si Si6 0.526970 0.666757 0.983162
Si Si7 0.242550 0.836629 0.325098
Si Si8 0.429436 0.746653 0.700359
O O1 0.863673 0.554506 0.610553
O O2 0.821039 0.574847 0.468860
O O3 0.956408 0.711853 0.496388
O O4 0.812364 0.802756 0.568024
O O5 0.445372 0.207005 0.701276
O O6 0.308960 0.065614 0.768666
O O7 0.441136 0.917870 0.708925
O O8 0.172805 0.024134 0.559407
O O9 0.212184 0.803256 0.643795
O O10 0.061423 0.912201 0.686116
O O11 0.094519 0.788502 0.542503
O O12 0.205914 0.075186 0.906310
O O13 0.500000 0.500000 0.000000
O O14 0.561468 0.680800 0.889153
O O15 0.168901 0.794552 0.271083
O O16 0.500000 0.676856 0.750000
#
# Coordination Sequence:
#
# PCOD8147685 Si02
#       8
#     8   8   8   8   4   8   8   8
#     4  11  25  42  74 104 146 190 241 303 377 428
#     4  11  25  44  69 109 148 189 245 301 373 445
#     4  11  22  45  77 104 145 196 249 305 373 441
#     4  11  24  45  72 106 142 193 247 301 365 453
#     4  10  22  44  70 110 148 192 242 316 368 440
#     4  12  25  48  73 109 151 188 253 310 364 454
#     4  11  26  46  72 106 153 187 247 312 366 449
#     4  12  28  49  76 109 149 196 252 308 374 447
#
# _framework density 24.491793000000001
#
# number of rings (size 3 to 8) (size 9 to 14) (size 15 to 20)
#    0.000    0.800    4.667    1.200    5.600    1.600 
#    3.600    0.000    0.000    0.000    0.000    0.000 
#    0.000    0.000    0.000    0.000    0.000    0.000 
#
# Total GULP energy -371804.002142 kJ/mol
# GULP energy per Si atom -12393.466738 kJ/mol
# Density = 2.443605 g / cm^3
# Si number density = 24.491793 Si / 1000 Ang^3
#
#
#
# Elastic Constant Matrix: (Units=GPa)
#
#
# Indices 1 2 3 4 5 6 
#
# 1 147.8954 24.7877 43.5989 0.0000 30.7972 0.0000
# 2 24.7877 68.2946 15.3654 0.0000 -4.3446 0.0000
# 3 43.5989 15.3654 70.0754 0.0000 6.5151 0.0000
# 4 0.0000 0.0000 0.0000 29.9714 0.0000 -3.3015
# 5 30.7972 -4.3446 6.5151 0.0000 49.0255 0.0000
# 6 0.0000 0.0000 0.0000 -3.3015 0.0000 38.7249
#
#
#
# Elastic Compliance Matrix: (Units=1/GPa)
#
#
# Indices 1 2 3 4 5 6 
#
# 1 0.009929 -0.002847 -0.005012 0.000000 -0.005823 0.000000
# 2 -0.002847 0.016383 -0.002149 0.000000 0.003526 0.000000
# 3 -0.005012 -0.002149 0.017805 0.000000 0.000592 0.000000
# 4 0.000000 0.000000 0.000000 0.033681 0.000000 0.002871
# 5 -0.005823 0.003526 0.000592 0.000000 0.024289 0.000000
# 6 0.000000 0.000000 0.000000 0.002871 0.000000 0.026068
#
#
# Mechanical properties :
#
#
# Convention : Reuss Voigt Hill
#
# Bulk Modulus (GPa) = 41.49039 50.41882 45.95461
# Shear Modulus (GPa) = 32.00930 37.04527 34.52729
#
# Velocity S-wave (km/s) = 3.61908 3.89338 3.75874
# Velocity P-wave (km/s) = 5.86865 6.39077 6.13526
#
# Compressibility (1/GPa) = 0.02410197
#
# Stress axis : x y z
#
# Youngs Moduli (GPa) = 100.71819 61.03735 56.16480
#
# Poissons Ratio (x) = 0.17374 0.28149
# Poissons Ratio (y) = 0.28670 0.12071
# Poissons Ratio (z) = 0.50478 0.13118
#
# Static dielectric constant tensor:
#      x y z
#    x 4.885800 0.000000 0.140500 
#    y 0.000000 4.051840 0.000000 
#    z 0.140500 0.000000 4.355530 
# 
# 
# High freq. dielectric constant tensor:
#      x y z
#    x 1.997130 0.000000 0.011100 
#    y 0.000000 1.956010 0.000000 
#    z 0.011100 0.000000 1.968370 
# 
# From -- ./inp_files/209601.got.cif
#   From: 2010.06.25/outbox.cif.g09.slc.cpg/sg15_105_cif.got.tgz:209601.got - 2010.06.28 07:06:18.
