data_PCOD8147296
_publ_section_title
;
Structure prediction by ZEFSAII (Michael W. Deem and Ramdas Pophale) SiO2 
 PCOD8147296
Probable space group: C 2/C
;
_chemical_formula_sum "Si O2"
_cell_formula_units_Z 44
_cell_length_a 15.497544
_cell_length_b 27.546981
_cell_length_c 5.347667
_cell_angle_alpha 90.000000
_cell_angle_beta 57.229512
_cell_angle_gamma 90.000000
_cell_volume 1919.629679
_symmetry_space_group_name_H-M "C 2/C"
_symmetry_group_IT_number 15
_symmetry_cell_setting 'monoclinic'
loop_
_space_group_symop_operation_xyz
x,y,z
-x,y,1/2-z
-x,-y,-z
x,-y,1/2+z
1/2+x,1/2+y,z
1/2-x,1/2+y,1/2-z
1/2-x,1/2-y,-z
1/2+x,1/2-y,1/2+z
loop_
_atom_site_type_symbol
_atom_site_label
_atom_site_fract_x
_atom_site_fract_y
_atom_site_fract_z
Si Si1 0.000000 0.870832 0.750000
Si Si2 0.677005 0.301551 0.367365
Si Si3 0.803230 0.366085 0.845451
Si Si4 0.123261 0.295073 0.138953
Si Si5 0.781101 0.027159 0.089236
Si Si6 0.000000 0.667821 0.250000
Si Si7 0.500000 0.434162 0.250000
O O1 0.102162 0.838461 0.632613
O O2 0.008621 0.902290 0.486658
O O3 0.784519 0.286242 0.316622
O O4 0.618143 0.249650 0.444267
O O5 0.708198 0.329591 0.062401
O O6 0.853347 0.347420 0.513713
O O7 0.764793 0.419780 0.867683
O O8 0.896764 0.364724 0.899828
O O9 0.016109 0.299201 0.470204
O O10 0.742984 0.003793 0.409790
O O11 0.903577 0.030053 0.910692
#
# Coordination Sequence:
#
# PCOD8147296 Si02
#       7
#     4   8   8   8   8   4   4
#     4  12  24  39  70 108 146 190 218 291 336 430
#     4  10  23  39  65 100 143 183 236 271 347 412
#     4  11  23  45  68  97 139 179 234 292 355 410
#     4  10  22  43  66  98 138 189 231 285 342 419
#     4  12  27  46  75 103 137 184 237 297 361 424
#     4  10  24  39  72  98 134 184 232 291 352 418
#     4  12  24  46  70 102 144 182 234 282 360 422
#
# _framework density 22.921087
#
# number of rings (size 3 to 8) (size 9 to 14) (size 15 to 20)
#    0.000    1.091    1.818    3.818    7.636    0.727 
#    0.000    0.909    0.000    0.000    0.000    0.000 
#    0.000    0.000    0.000    0.000    0.000    0.000 
#
# Total GULP energy -272570.474826 kJ/mol
# GULP energy per Si atom -12389.567038 kJ/mol
# Density = 2.286892 g / cm^3
# Si number density = 22.921087 Si / 1000 Ang^3
#
#
#
# Elastic Constant Matrix: (Units=GPa)
#
#
# Indices 1 2 3 4 5 6 
#
# 1 54.5241 41.4663 33.9304 0.0000 -2.6096 0.0000
# 2 41.4663 146.1543 65.1292 0.0000 14.6409 0.0000
# 3 33.9304 65.1292 132.6008 0.0000 13.5174 0.0000
# 4 0.0000 0.0000 0.0000 18.9005 0.0000 5.0813
# 5 -2.6096 14.6409 13.5174 0.0000 38.2662 0.0000
# 6 0.0000 0.0000 0.0000 5.0813 0.0000 32.6508
#
#
#
# Elastic Compliance Matrix: (Units=1/GPa)
#
#
# Indices 1 2 3 4 5 6 
#
# 1 0.025789 -0.005991 -0.004221 0.000000 0.005542 0.000000
# 2 -0.005991 0.010286 -0.003191 0.000000 -0.003217 0.000000
# 3 -0.004221 -0.003191 0.010471 0.000000 -0.002766 0.000000
# 4 0.000000 0.000000 0.000000 0.055219 0.000000 -0.008594
# 5 0.005542 -0.003217 -0.002766 0.000000 0.028718 0.000000
# 6 0.000000 0.000000 0.000000 -0.008594 0.000000 0.031965
#
#
# Mechanical properties :
#
#
# Convention : Reuss Voigt Hill
#
# Bulk Modulus (GPa) = 50.66125 68.25898 59.46011
# Shear Modulus (GPa) = 25.53177 30.81372 28.17275
#
# Velocity S-wave (km/s) = 3.34113 3.67050 3.50968
# Velocity P-wave (km/s) = 6.08561 6.91434 6.51317
#
# Compressibility (1/GPa) = 0.01973895
#
# Stress axis : x y z
#
# Youngs Moduli (GPa) = 38.77655 97.21846 95.50129
#
# Poissons Ratio (x) = 0.58241 0.40315
# Poissons Ratio (y) = 0.23230 0.30478
# Poissons Ratio (z) = 0.16369 0.31026
#
# Static dielectric constant tensor:
#      x y z
#    x 4.400800 0.000000 -0.143300 
#    y 0.000000 4.082310 0.000000 
#    z -0.143300 0.000000 4.527040 
# 
# 
# High freq. dielectric constant tensor:
#      x y z
#    x 1.913720 0.000000 -0.006670 
#    y 0.000000 1.895240 0.000000 
#    z -0.006670 0.000000 1.915020 
# 
# From -- ./inp_files/7646.got.cif
#   From: 2010.06.25/outbox.cif.g09.slc.cpg/sg15_4_cif.got.tgz:7646.got - 2010.06.28 07:06:18.
