data_PCOD8147096
_publ_section_title
;
Structure prediction by ZEFSAII (Michael W. Deem and Ramdas Pophale) SiO2 
 PCOD8147096
Probable space group: C 2/C
;
_chemical_formula_sum "Si O2"
_cell_formula_units_Z 60
_cell_length_a 14.654672
_cell_length_b 14.938749
_cell_length_c 13.915119
_cell_angle_alpha 90.000000
_cell_angle_beta 61.584066
_cell_angle_gamma 90.000000
_cell_volume 2679.298704
_symmetry_space_group_name_H-M "C 2/C"
_symmetry_group_IT_number 15
_symmetry_cell_setting 'monoclinic'
loop_
_space_group_symop_operation_xyz
x,y,z
-x,y,1/2-z
-x,-y,-z
x,-y,1/2+z
1/2+x,1/2+y,z
1/2-x,1/2+y,1/2-z
1/2-x,1/2-y,-z
1/2+x,1/2-y,1/2+z
loop_
_atom_site_type_symbol
_atom_site_label
_atom_site_fract_x
_atom_site_fract_y
_atom_site_fract_z
Si Si1 0.283443 0.509614 0.419599
Si Si2 0.904525 0.108492 0.732289
Si Si3 0.062395 0.600619 0.548184
Si Si4 0.911889 0.511797 0.218505
Si Si5 0.885850 0.298404 0.657545
Si Si6 0.500000 0.786797 0.250000
Si Si7 0.161159 0.841131 0.749276
Si Si8 0.818455 0.007313 0.119530
O O1 0.301474 0.418970 0.346504
O O2 0.162658 0.536635 0.483044
O O3 0.346283 0.587892 0.334063
O O4 0.335128 0.494823 0.497369
O O5 0.922121 0.212459 0.698858
O O6 0.899331 0.059137 0.631448
O O7 0.000000 0.075387 0.750000
O O8 0.050743 0.675836 0.470828
O O9 0.958264 0.537163 0.599746
O O10 0.072748 0.653426 0.644412
O O11 0.900092 0.617819 0.220622
O O12 0.798740 0.473178 0.299263
O O13 0.000000 0.486515 0.250000
O O14 0.766480 0.284143 0.687933
O O15 0.432205 0.727623 0.211579
O O16 0.159861 0.892556 0.852227
#
# Coordination Sequence:
#
# PCOD8147096 Si02
#       8
#     8   8   8   8   8   4   8   8
#     4  10  22  44  70  97 133 180 231 275 340 406
#     4  11  26  44  66  96 134 185 232 274 329 415
#     4  11  23  41  71 106 130 179 222 282 352 394
#     4  11  20  42  70 101 137 170 222 280 344 408
#     4  10  24  41  64  96 138 178 218 276 340 398
#     4  12  24  40  66 102 136 162 232 288 330 410
#     4   9  24  40  61 100 137 170 223 285 329 400
#     4  10  22  42  70  96 134 185 220 279 347 398
#
# _framework density 22.393920000000001
#
# number of rings (size 3 to 8) (size 9 to 14) (size 15 to 20)
#    0.000    1.600    2.000    1.600    9.333    2.667 
#    0.000    2.667    0.000    0.000    0.000    0.000 
#    0.000    0.000    0.000    0.000    0.000    0.000 
#
# Total GULP energy -371753.585979 kJ/mol
# GULP energy per Si atom -12391.786199 kJ/mol
# Density = 2.234295 g / cm^3
# Si number density = 22.393920 Si / 1000 Ang^3
#
#
#
# Elastic Constant Matrix: (Units=GPa)
#
#
# Indices 1 2 3 4 5 6 
#
# 1 92.9810 31.0746 16.6783 0.0000 8.1954 0.0000
# 2 31.0746 101.0743 34.3477 0.0000 -6.1783 0.0000
# 3 16.6783 34.3477 100.8366 0.0000 17.9716 0.0000
# 4 0.0000 0.0000 0.0000 37.2420 0.0000 5.1492
# 5 8.1954 -6.1783 17.9716 0.0000 34.0904 0.0000
# 6 0.0000 0.0000 0.0000 5.1492 0.0000 21.8438
#
#
#
# Elastic Compliance Matrix: (Units=1/GPa)
#
#
# Indices 1 2 3 4 5 6 
#
# 1 0.012437 -0.004045 -0.000017 0.000000 -0.003714 0.000000
# 2 -0.004045 0.013153 -0.004867 0.000000 0.005922 0.000000
# 3 -0.000017 -0.004867 0.012951 0.000000 -0.007705 0.000000
# 4 0.000000 0.000000 0.000000 0.027756 0.000000 -0.006543
# 5 -0.003714 0.005922 -0.007705 0.000000 0.035362 0.000000
# 6 0.000000 0.000000 0.000000 -0.006543 0.000000 0.047322
#
#
# Mechanical properties :
#
#
# Convention : Reuss Voigt Hill
#
# Bulk Modulus (GPa) = 48.34829 51.01034 49.67931
# Shear Modulus (GPa) = 28.77982 32.82136 30.80059
#
# Velocity S-wave (km/s) = 3.58881 3.83252 3.71266
# Velocity P-wave (km/s) = 6.22973 6.51248 6.37267
#
# Compressibility (1/GPa) = 0.02068326
#
# Stress axis : x y z
#
# Youngs Moduli (GPa) = 80.40437 76.02797 77.21477
#
# Poissons Ratio (x) = 0.30752 0.00135
# Poissons Ratio (y) = 0.32522 0.37578
# Poissons Ratio (z) = 0.00140 0.37000
#
# Static dielectric constant tensor:
#      x y z
#    x 3.988410 0.000000 0.102760 
#    y 0.000000 3.953640 0.000000 
#    z 0.102760 0.000000 4.180070 
# 
# 
# High freq. dielectric constant tensor:
#      x y z
#    x 1.881330 0.000000 0.011070 
#    y 0.000000 1.874290 0.000000 
#    z 0.011070 0.000000 1.880350 
# 
# From -- ./inp_files/154254.got.cif
#   From: 2010.06.25/outbox.cif.g09.slc.cpg/sg15_78_cif.got.tgz:154254.got - 2010.06.28 07:06:18.
