data_PCOD8147555
_publ_section_title
;
Structure prediction by ZEFSAII (Michael W. Deem and Ramdas Pophale) SiO2 
 PCOD8147555
Probable space group: C 2/C
;
_chemical_formula_sum "Si O2"
_cell_formula_units_Z 32
_cell_length_a 7.942981
_cell_length_b 9.140446
_cell_length_c 19.074046
_cell_angle_alpha 90.000000
_cell_angle_beta 77.213574
_cell_angle_gamma 90.000000
_cell_volume 1350.480250
_symmetry_space_group_name_H-M "C 2/C"
_symmetry_group_IT_number 15
_symmetry_cell_setting 'monoclinic'
loop_
_space_group_symop_operation_xyz
x,y,z
-x,y,1/2-z
-x,-y,-z
x,-y,1/2+z
1/2+x,1/2+y,z
1/2-x,1/2+y,1/2-z
1/2-x,1/2-y,-z
1/2+x,1/2-y,1/2+z
loop_
_atom_site_type_symbol
_atom_site_label
_atom_site_fract_x
_atom_site_fract_y
_atom_site_fract_z
Si Si1 0.133945 0.869418 0.334480
Si Si2 0.182587 0.046308 0.455318
Si Si3 0.338668 0.952887 0.713291
Si Si4 0.730307 0.865357 0.407552
O O1 0.204200 0.711642 0.305618
O O2 0.931218 0.869004 0.368144
O O3 0.240197 0.922226 0.394190
O O4 0.171902 0.980628 0.267341
O O5 0.306069 0.063947 0.511853
O O6 0.168368 0.198213 0.413889
O O7 0.000000 0.000000 0.500000
O O8 0.500000 0.960221 0.750000
O O9 0.380399 0.044860 0.638916
#
# Coordination Sequence:
#
# PCOD8147555 Si02
#       4
#     8   8   8   8
#     4  11  23  42  63  91 127 166 211 261 315 373
#     4   9  20  41  69  94 123 165 209 261 317 370
#     4  12  25  39  62  93 126 165 211 259 311 374
#     4  10  22  44  66  91 128 165 209 261 314 376
#
# _framework density 23.695277000000001
#
# number of rings (size 3 to 8) (size 9 to 14) (size 15 to 20)
#    0.000    1.500    0.000    5.250    0.000    7.000 
#    0.000   18.750    0.000    0.000    0.000    0.000 
#    0.000    0.000    0.000    0.000    0.000    0.000 
#
# Total GULP energy -198340.223344 kJ/mol
# GULP energy per Si atom -12396.263959 kJ/mol
# Density = 2.364134 g / cm^3
# Si number density = 23.695277 Si / 1000 Ang^3
#
#
#
# Elastic Constant Matrix: (Units=GPa)
#
#
# Indices 1 2 3 4 5 6 
#
# 1 49.1052 59.6038 34.3563 0.0000 7.9422 0.0000
# 2 59.6038 202.2082 120.4105 0.0000 14.8961 0.0000
# 3 34.3563 120.4105 177.1631 0.0000 27.1834 0.0000
# 4 0.0000 0.0000 0.0000 66.7092 0.0000 4.2602
# 5 7.9422 14.8961 27.1834 0.0000 28.4393 0.0000
# 6 0.0000 0.0000 0.0000 4.2602 0.0000 25.8542
#
#
#
# Elastic Compliance Matrix: (Units=1/GPa)
#
#
# Indices 1 2 3 4 5 6 
#
# 1 0.032318 -0.009883 0.001219 0.000000 -0.005014 0.000000
# 2 -0.009883 0.011366 -0.006233 0.000000 0.002764 0.000000
# 3 0.001219 -0.006233 0.010776 0.000000 -0.007376 0.000000
# 4 0.000000 0.000000 0.000000 0.015150 0.000000 -0.002496
# 5 -0.005014 0.002764 -0.007376 0.000000 0.042165 0.000000
# 6 0.000000 0.000000 0.000000 -0.002496 0.000000 0.039090
#
#
# Mechanical properties :
#
#
# Convention : Reuss Voigt Hill
#
# Bulk Modulus (GPa) = 40.53928 95.24643 67.89285
# Shear Modulus (GPa) = 26.47160 38.47426 32.47293
#
# Velocity S-wave (km/s) = 3.34603 4.03390 3.70596
# Velocity P-wave (km/s) = 5.66336 7.87274 6.85761
#
# Compressibility (1/GPa) = 0.02466744
#
# Stress axis : x y z
#
# Youngs Moduli (GPa) = 30.94222 87.97862 92.79806
#
# Poissons Ratio (x) = 0.86947 -0.11312
# Poissons Ratio (y) = 0.30579 0.57840
# Poissons Ratio (z) = -0.03772 0.54836
#
# Static dielectric constant tensor:
#      x y z
#    x 3.814210 0.000000 0.238910 
#    y 0.000000 4.469020 0.000000 
#    z 0.238910 0.000000 5.462400 
# 
# 
# High freq. dielectric constant tensor:
#      x y z
#    x 1.906050 0.000000 0.001260 
#    y 0.000000 1.941250 0.000000 
#    z 0.001260 0.000000 1.976940 
# 
# From -- ./inp_files/229141.got.cif
#   From: 2010.06.25/outbox.cif.g09.slc.cpg/sg15_115_cif.got.tgz:229141.got - 2010.06.28 07:06:18.
