data_PCOD8147148
_publ_section_title
;
Structure prediction by ZEFSAII (Michael W. Deem and Ramdas Pophale) SiO2 
 PCOD8147148
Probable space group: C 2/C
;
_chemical_formula_sum "Si O2"
_cell_formula_units_Z 44
_cell_length_a 6.516417
_cell_length_b 20.065658
_cell_length_c 16.570869
_cell_angle_alpha 90.000000
_cell_angle_beta 73.549462
_cell_angle_gamma 90.000000
_cell_volume 2078.047169
_symmetry_space_group_name_H-M "C 2/C"
_symmetry_group_IT_number 15
_symmetry_cell_setting 'monoclinic'
loop_
_space_group_symop_operation_xyz
x,y,z
-x,y,1/2-z
-x,-y,-z
x,-y,1/2+z
1/2+x,1/2+y,z
1/2-x,1/2+y,1/2-z
1/2-x,1/2-y,-z
1/2+x,1/2-y,1/2+z
loop_
_atom_site_type_symbol
_atom_site_label
_atom_site_fract_x
_atom_site_fract_y
_atom_site_fract_z
Si Si1 0.636738 0.285096 0.159696
Si Si2 0.500000 0.427231 0.750000
Si Si3 0.990619 0.617402 0.848080
Si Si4 0.944232 0.470785 0.663930
Si Si5 0.382221 0.306741 0.032642
Si Si6 0.221384 0.140685 0.372584
O O1 0.500000 0.312745 0.250000
O O2 0.521701 0.273907 0.087142
O O3 0.703346 0.210505 0.171596
O O4 0.832049 0.336386 0.129040
O O5 0.686790 0.466727 0.681504
O O6 0.377777 0.386197 0.697467
O O7 0.764527 0.641331 0.904964
O O8 0.000000 0.623127 0.750000
O O9 0.001479 0.542111 0.881654
O O10 0.000000 0.477881 0.750000
O O11 0.086972 0.408044 0.614558
O O12 0.250000 0.250000 0.000000
O O13 0.538156 0.349657 0.959019
#
# Coordination Sequence:
#
# PCOD8147148 Si02
#       6
#     8   4   8   8   8   8
#     4  12  25  41  71  99 129 179 232 276 337 408
#     4  10  22  42  72  94 134 180 218 276 330 408
#     4  11  24  44  69 101 133 178 227 280 343 401
#     4   9  22  42  67  99 134 177 227 274 333 409
#     4  12  27  43  67 100 144 174 222 290 339 392
#     4  11  25  41  67 100 138 174 227 275 340 399
#
# _framework density 21.173725000000001
#
# number of rings (size 3 to 8) (size 9 to 14) (size 15 to 20)
#    0.000    1.091    3.636    2.182    7.636    2.182 
#    0.000    1.818    0.000    0.000    0.000    0.000 
#    0.000    0.000    0.000    0.000    0.000    0.000 
#
# Total GULP energy -272596.052213 kJ/mol
# GULP energy per Si atom -12390.729646 kJ/mol
# Density = 2.112553 g / cm^3
# Si number density = 21.173725 Si / 1000 Ang^3
#
#
#
# Elastic Constant Matrix: (Units=GPa)
#
#
# Indices 1 2 3 4 5 6 
#
# 1 119.8512 50.6853 22.9244 0.0000 -12.7742 0.0000
# 2 50.6853 145.5814 14.9961 0.0000 -14.2094 0.0000
# 3 22.9244 14.9961 79.6298 0.0000 -17.2440 0.0000
# 4 0.0000 0.0000 0.0000 -71.8225 0.0000 25.8132
# 5 -12.7742 -14.2094 -17.2440 0.0000 50.5970 0.0000
# 6 0.0000 0.0000 0.0000 25.8132 0.0000 45.0275
#
#
#
# Elastic Compliance Matrix: (Units=1/GPa)
#
#
# Indices 1 2 3 4 5 6 
#
# 1 0.010225 -0.003249 -0.002127 0.000000 0.000944 0.000000
# 2 -0.003249 0.008165 -0.000306 0.000000 0.001369 0.000000
# 3 -0.002127 -0.000306 0.014137 0.000000 0.004195 0.000000
# 4 0.000000 0.000000 0.000000 -0.011545 0.000000 0.006618
# 5 0.000944 0.001369 0.004195 0.000000 0.021816 0.000000
# 6 0.000000 0.000000 0.000000 0.006618 0.000000 0.018415
#
#
# Mechanical properties :
#
#
# Convention : Reuss Voigt Hill
#
# Bulk Modulus (GPa) = 47.25328 58.03044 52.64186
# Shear Modulus (GPa) = 62.78911 21.85752 42.32331
#
# Velocity S-wave (km/s) = 5.45148 3.21642 4.47571
# Velocity P-wave (km/s) = 7.87339 6.42340 7.18507
#
# Compressibility (1/GPa) = 0.02116255
#
# Stress axis : x y z
#
# Youngs Moduli (GPa) = 97.79863 122.47162 70.73835
#
# Poissons Ratio (x) = 0.39787 0.15049
# Poissons Ratio (y) = 0.31771 0.02165
# Poissons Ratio (z) = 0.20806 0.03749
#
# Static dielectric constant tensor:
#      x y z
#    x 4.342950 0.000000 -0.319640 
#    y 0.000000 4.172250 0.000000 
#    z -0.319640 0.000000 3.820290 
# 
# 
# High freq. dielectric constant tensor:
#      x y z
#    x 1.846200 0.000000 -0.011480 
#    y 0.000000 1.836440 0.000000 
#    z -0.011480 0.000000 1.822560 
# 
# From -- ./inp_files/184821.got.cif
#   From: 2010.06.25/outbox.cif.g09.slc.cpg/sg15_93_cif.got.tgz:184821.got - 2010.06.28 07:06:18.
