data_PCOD8147777
_publ_section_title
;
Structure prediction by ZEFSAII (Michael W. Deem and Ramdas Pophale) SiO2 
 PCOD8147777
Probable space group: C 2/C
;
_chemical_formula_sum "Si O2"
_cell_formula_units_Z 64
_cell_length_a 15.034460
_cell_length_b 15.162642
_cell_length_c 17.191993
_cell_angle_alpha 90.000000
_cell_angle_beta 49.708010
_cell_angle_gamma 90.000000
_cell_volume 2989.345660
_symmetry_space_group_name_H-M "C 2/C"
_symmetry_group_IT_number 15
_symmetry_cell_setting 'monoclinic'
loop_
_space_group_symop_operation_xyz
x,y,z
-x,y,1/2-z
-x,-y,-z
x,-y,1/2+z
1/2+x,1/2+y,z
1/2-x,1/2+y,1/2-z
1/2-x,1/2-y,-z
1/2+x,1/2-y,1/2+z
loop_
_atom_site_type_symbol
_atom_site_label
_atom_site_fract_x
_atom_site_fract_y
_atom_site_fract_z
Si Si1 0.296510 0.576145 0.189086
Si Si2 0.100668 0.162991 0.632796
Si Si3 0.743633 0.353613 0.488649
Si Si4 0.827828 0.762776 0.561445
Si Si5 0.530186 0.536783 0.144560
Si Si6 0.884537 0.439893 0.276690
Si Si7 0.666111 0.064881 0.407157
Si Si8 0.919543 0.391313 0.090058
O O1 0.297760 0.646560 0.119916
O O2 0.418545 0.533082 0.149639
O O3 0.214093 0.505378 0.195407
O O4 0.236356 0.617192 0.300342
O O5 0.088886 0.216701 0.559037
O O6 0.222075 0.197039 0.599462
O O7 0.000000 0.189991 0.750000
O O8 0.093950 0.058495 0.616490
O O9 0.750000 0.250000 0.500000
O O10 0.612006 0.390646 0.555643
O O11 0.821820 0.370396 0.368738
O O12 0.791707 0.410743 0.532288
O O13 0.898441 0.710168 0.585423
O O14 0.500000 0.567922 0.250000
O O15 0.938692 0.391092 0.171439
O O16 0.000000 0.484957 0.250000
O O17 0.530906 0.085247 0.474868
O O18 0.682319 0.959496 0.380376
#
# Coordination Sequence:
#
# PCOD8147777 Si02
#       8
#     8   8   8   8   8   8   8   8
#     4  11  26  44  74 105 134 186 234 292 343 422
#     4  10  25  46  70 102 139 186 222 289 357 414
#     4  12  26  41  69 100 139 183 226 286 350 409
#     4  11  25  44  69 107 138 171 238 293 338 412
#     4  11  24  48  72  98 146 187 233 278 361 434
#     4  11  25  46  66  99 140 182 234 283 347 420
#     4  10  22  45  64 101 128 187 222 273 353 410
#     4  10  23  42  72  93 137 178 227 283 343 411
#
# _framework density 21.409368000000001
#
# number of rings (size 3 to 8) (size 9 to 14) (size 15 to 20)
#    0.000    1.250    2.500    1.500   10.500    4.000 
#    0.000    0.000    0.000    0.000    0.000    0.000 
#    0.000    0.000    0.000    0.000    0.000    0.000 
#
# Total GULP energy -396454.712557 kJ/mol
# GULP energy per Si atom -12389.209767 kJ/mol
# Density = 2.136064 g / cm^3
# Si number density = 21.409368 Si / 1000 Ang^3
#
#
#
# Elastic Constant Matrix: (Units=GPa)
#
#
# Indices 1 2 3 4 5 6 
#
# 1 128.1644 62.6845 40.0917 0.0000 -0.1211 0.0000
# 2 62.6845 98.7717 60.2003 0.0000 -0.3599 0.0000
# 3 40.0917 60.2003 148.7434 0.0000 7.0706 0.0000
# 4 0.0000 0.0000 0.0000 16.6017 0.0000 -3.4855
# 5 -0.1211 -0.3599 7.0706 0.0000 36.5973 0.0000
# 6 0.0000 0.0000 0.0000 -3.4855 0.0000 18.3129
#
#
#
# Elastic Compliance Matrix: (Units=1/GPa)
#
#
# Indices 1 2 3 4 5 6 
#
# 1 0.011319 -0.007067 -0.000191 0.000000 0.000005 0.000000
# 2 -0.007067 0.017904 -0.005398 0.000000 0.001196 0.000000
# 3 -0.000191 -0.005398 0.009045 0.000000 -0.001801 0.000000
# 4 0.000000 0.000000 0.000000 0.062742 0.000000 0.011942
# 5 0.000005 0.001196 -0.001801 0.000000 0.027684 0.000000
# 6 0.000000 0.000000 0.000000 0.011942 0.000000 0.056879
#
#
# Mechanical properties :
#
#
# Convention : Reuss Voigt Hill
#
# Bulk Modulus (GPa) = 77.18809 77.95916 77.57363
# Shear Modulus (GPa) = 23.23393 28.48258 25.85825
#
# Velocity S-wave (km/s) = 3.29785 3.65139 3.47911
# Velocity P-wave (km/s) = 7.11567 7.36679 7.24232
#
# Compressibility (1/GPa) = 0.01295537
#
# Stress axis : x y z
#
# Youngs Moduli (GPa) = 88.35050 55.85410 110.56045
#
# Poissons Ratio (x) = 0.39471 0.02110
# Poissons Ratio (y) = 0.62436 0.59683
# Poissons Ratio (z) = 0.01686 0.30151
#
# Static dielectric constant tensor:
#      x y z
#    x 3.937460 0.000000 0.028150 
#    y 0.000000 3.790500 0.000000 
#    z 0.028150 0.000000 4.489270 
# 
# 
# High freq. dielectric constant tensor:
#      x y z
#    x 1.845360 0.000000 0.005200 
#    y 0.000000 1.826390 0.000000 
#    z 0.005200 0.000000 1.860190 
# 
# From -- ./inp_files/205681.got.cif
#   From: 2010.06.25/outbox.cif.g09.slc.cpg/sg15_103_cif.got.tgz:205681.got - 2010.06.28 07:06:18.
