data_PCOD8147417
_publ_section_title
;
Structure prediction by ZEFSAII (Michael W. Deem and Ramdas Pophale) SiO2 
 PCOD8147417
Probable space group: C 2/C
;
_chemical_formula_sum "Si O2"
_cell_formula_units_Z 60
_cell_length_a 8.352318
_cell_length_b 21.574651
_cell_length_c 21.166477
_cell_angle_alpha 90.000000
_cell_angle_beta 135.130992
_cell_angle_gamma 90.000000
_cell_volume 2690.848245
_symmetry_space_group_name_H-M "C 2/C"
_symmetry_group_IT_number 15
_symmetry_cell_setting 'monoclinic'
loop_
_space_group_symop_operation_xyz
x,y,z
-x,y,1/2-z
-x,-y,-z
x,-y,1/2+z
1/2+x,1/2+y,z
1/2-x,1/2+y,1/2-z
1/2-x,1/2-y,-z
1/2+x,1/2-y,1/2+z
loop_
_atom_site_type_symbol
_atom_site_label
_atom_site_fract_x
_atom_site_fract_y
_atom_site_fract_z
Si Si1 0.000000 0.989189 0.750000
Si Si2 0.597071 0.278607 0.512420
Si Si3 0.187960 0.118116 0.621145
Si Si4 0.310390 0.890509 0.645300
Si Si5 0.532473 0.148135 0.541178
Si Si6 0.331144 0.906929 0.295684
Si Si7 0.726256 0.059390 0.489974
Si Si8 0.633877 0.435850 0.915861
O O1 0.800201 0.029177 0.726811
O O2 0.113478 0.945858 0.834904
O O3 0.750000 0.250000 0.500000
O O4 0.374380 0.313753 0.422831
O O5 0.738326 0.324267 0.597067
O O6 0.512189 0.221478 0.530048
O O7 0.405009 0.085533 0.649688
O O8 0.209738 0.126371 0.702808
O O9 0.990463 0.070406 0.548119
O O10 0.500000 0.878463 0.750000
O O11 0.406643 0.932495 0.613887
O O12 0.110222 0.929800 0.621435
O O13 0.681104 0.134827 0.645179
O O14 0.652231 0.113743 0.516450
O O15 0.272259 0.125692 0.471654
O O16 0.704646 0.991210 0.512564
#
# Coordination Sequence:
#
# PCOD8147417 Si02
#       8
#     4   8   8   8   8   8   8   8
#     4  12  26  44  68 106 146 192 226 292 358 428
#     4  11  24  48  74  98 141 184 238 293 351 415
#     4  10  22  43  71 105 136 180 241 292 340 420
#     4  11  27  46  71 104 140 188 233 290 360 418
#     4  12  24  44  74 100 140 186 233 289 348 422
#     4  11  23  42  71 105 139 182 244 283 346 422
#     4  11  22  47  69 102 139 187 227 284 357 419
#     4  12  27  43  70 106 148 180 234 288 355 431
#
# _framework density 22.297802000000001
#
# number of rings (size 3 to 8) (size 9 to 14) (size 15 to 20)
#    0.000    0.800    5.333    2.400    1.867    4.267 
#    0.000    2.667    0.000    0.000    0.000    0.000 
#    0.000    0.000    0.000    0.000    0.000    0.000 
#
# Total GULP energy -371957.662066 kJ/mol
# GULP energy per Si atom -12398.588736 kJ/mol
# Density = 2.224705 g / cm^3
# Si number density = 22.297802 Si / 1000 Ang^3
#
#
#
# Elastic Constant Matrix: (Units=GPa)
#
#
# Indices 1 2 3 4 5 6 
#
# 1 87.6062 17.9598 36.0736 0.0000 -15.4918 -0.0001
# 2 17.9598 88.3422 39.7146 0.0000 -16.7588 0.0000
# 3 36.0736 39.7146 141.7247 -0.0001 -39.8003 0.0000
# 4 0.0000 0.0000 -0.0001 24.2697 0.0000 -2.9981
# 5 -15.4918 -16.7588 -39.8003 0.0000 50.3099 -0.0001
# 6 -0.0001 0.0000 0.0000 -2.9981 -0.0001 31.5837
#
#
#
# Elastic Compliance Matrix: (Units=1/GPa)
#
#
# Indices 1 2 3 4 5 6 
#
# 1 0.012981 -0.001203 -0.002516 0.000000 0.001606 0.000000
# 2 -0.001203 0.013199 -0.002908 0.000000 0.001726 0.000000
# 3 -0.002516 -0.002908 0.010313 0.000000 0.006415 0.000000
# 4 0.000000 0.000000 0.000000 0.041693 0.000000 0.003958
# 5 0.001606 0.001726 0.006415 0.000000 0.026021 0.000000
# 6 0.000000 0.000000 0.000000 0.003958 0.000000 0.032038
#
#
# Mechanical properties :
#
#
# Convention : Reuss Voigt Hill
#
# Bulk Modulus (GPa) = 43.03117 56.12990 49.58054
# Shear Modulus (GPa) = 31.79760 36.16100 33.97930
#
# Velocity S-wave (km/s) = 3.78039 4.03144 3.90793
# Velocity P-wave (km/s) = 6.19641 6.84817 6.53043
#
# Compressibility (1/GPa) = 0.02323897
#
# Stress axis : x y z
#
# Youngs Moduli (GPa) = 77.03312 75.76447 96.96831
#
# Poissons Ratio (x) = 0.09117 0.24397
# Poissons Ratio (y) = 0.09270 0.28195
# Poissons Ratio (z) = 0.19381 0.22030
#
# Static dielectric constant tensor:
#      x y z
#    x 4.293340 0.000000 -0.231260 
#    y 0.000000 3.975110 0.000000 
#    z -0.231260 0.000000 4.369830 
# 
# 
# High freq. dielectric constant tensor:
#      x y z
#    x 1.896400 0.000000 -0.012660 
#    y 0.000000 1.861320 0.000000 
#    z -0.012660 0.000000 1.888120 
# 
# From -- ./inp_files/266264.got.cif
#   From: 2010.06.25/outbox.cif.g09.slc.cpg/sg15_134_cif.got.tgz:266264.got - 2010.06.28 07:06:18.
