data_PCOD8147070
_publ_section_title
;
Structure prediction by ZEFSAII (Michael W. Deem and Ramdas Pophale) SiO2 
 PCOD8147070
Probable space group: C 2/C
;
_chemical_formula_sum "Si O2"
_cell_formula_units_Z 36
_cell_length_a 11.046690
_cell_length_b 24.726533
_cell_length_c 5.641387
_cell_angle_alpha 90.000000
_cell_angle_beta 82.672297
_cell_angle_gamma 90.000000
_cell_volume 1528.339341
_symmetry_space_group_name_H-M "C 2/C"
_symmetry_group_IT_number 15
_symmetry_cell_setting 'monoclinic'
loop_
_space_group_symop_operation_xyz
x,y,z
-x,y,1/2-z
-x,-y,-z
x,-y,1/2+z
1/2+x,1/2+y,z
1/2-x,1/2+y,1/2-z
1/2-x,1/2-y,-z
1/2+x,1/2-y,1/2+z
loop_
_atom_site_type_symbol
_atom_site_label
_atom_site_fract_x
_atom_site_fract_y
_atom_site_fract_z
Si Si1 0.232360 0.468003 0.074898
Si Si2 0.839703 0.679240 0.552271
Si Si3 0.500000 0.098249 0.750000
Si Si4 0.319836 0.715163 0.295599
Si Si5 0.385354 0.631814 0.608690
O O1 0.240990 0.497091 0.331453
O O2 0.347646 0.427661 0.029564
O O3 0.102451 0.438164 0.101399
O O4 0.786578 0.679339 0.301717
O O5 0.883874 0.741141 0.602819
O O6 0.730582 0.659244 0.744050
O O7 0.950049 0.637018 0.551628
O O8 0.250000 0.750000 0.500000
O O9 0.416690 0.672343 0.382034
O O10 0.500000 0.627298 0.750000
#
# Coordination Sequence:
#
# PCOD8147070 Si02
#       5
#     8   8   4   8   8
#     4  11  26  48  70 100 133 175 232 288 345 397
#     4   9  20  38  61  96 132 171 217 265 337 404
#     4  10  22  42  70 102 128 180 214 286 338 408
#     4   9  19  38  60  93 135 170 214 269 328 403
#     4  10  23  40  64  93 127 176 221 276 333 400
#
# _framework density 23.554978999999999
#
# number of rings (size 3 to 8) (size 9 to 14) (size 15 to 20)
#    0.000    2.222    0.000    0.667    6.222    7.111 
#    8.000    0.000    0.000    0.000    0.000    0.000 
#    0.000    0.000    0.000    0.000    0.000    0.000 
#
# Total GULP energy -222996.603903 kJ/mol
# GULP energy per Si atom -12388.700217 kJ/mol
# Density = 2.350137 g / cm^3
# Si number density = 23.554979 Si / 1000 Ang^3
#
#
#
# Elastic Constant Matrix: (Units=GPa)
#
#
# Indices 1 2 3 4 5 6 
#
# 1 81.4927 56.2987 27.2495 0.0000 29.9427 0.0000
# 2 56.2987 149.6728 61.1900 0.0000 23.2825 0.0000
# 3 27.2495 61.1900 127.4747 0.0000 24.8170 0.0000
# 4 0.0000 0.0000 0.0000 32.9814 0.0000 28.4822
# 5 29.9427 23.2825 24.8170 0.0000 31.6826 0.0000
# 6 0.0000 0.0000 0.0000 28.4822 0.0000 27.7746
#
#
#
# Elastic Compliance Matrix: (Units=1/GPa)
#
#
# Indices 1 2 3 4 5 6 
#
# 1 0.022855 -0.006489 0.001777 0.000000 -0.018224 0.000000
# 2 -0.006489 0.010501 -0.003947 0.000000 0.001507 0.000000
# 3 0.001777 -0.003947 0.010763 0.000000 -0.007209 0.000000
# 4 0.000000 0.000000 0.000000 0.264998 0.000000 -0.271749
# 5 -0.018224 0.001507 -0.007209 0.000000 0.053326 0.000000
# 6 0.000000 0.000000 0.000000 -0.271749 0.000000 0.314675
#
#
# Mechanical properties :
#
#
# Convention : Reuss Voigt Hill
#
# Bulk Modulus (GPa) = 37.31066 72.01294 54.66180
# Shear Modulus (GPa) = 7.10863 32.74786 19.92824
#
# Velocity S-wave (km/s) = 1.73909 3.73268 2.91182
# Velocity P-wave (km/s) = 4.46170 7.01540 5.87889
#
# Compressibility (1/GPa) = 0.02680199
#
# Stress axis : x y z
#
# Youngs Moduli (GPa) = 43.75323 95.22801 92.91023
#
# Poissons Ratio (x) = 0.61789 -0.16508
# Poissons Ratio (y) = 0.28389 0.36672
# Poissons Ratio (z) = -0.07774 0.37587
#
# Static dielectric constant tensor:
#      x y z
#    x 3.745260 0.000000 -0.119870 
#    y 0.000000 5.113980 0.000000 
#    z -0.119870 0.000000 3.941220 
# 
# 
# High freq. dielectric constant tensor:
#      x y z
#    x 1.921000 0.000000 0.021010 
#    y 0.000000 1.946160 0.000000 
#    z 0.021010 0.000000 1.935430 
# 
# From -- ./inp_files/4263.got.cif
#   From: 2010.06.25/outbox.cif.g09.slc.cpg/sg15_3_cif.got.tgz:4263.got - 2010.06.28 07:06:18.
