data_PCOD8147803
_publ_section_title
;
Structure prediction by ZEFSAII (Michael W. Deem and Ramdas Pophale) SiO2 
 PCOD8147803
Probable space group: C 2/C
;
_chemical_formula_sum "Si O2"
_cell_formula_units_Z 36
_cell_length_a 17.337811
_cell_length_b 7.768246
_cell_length_c 29.784878
_cell_angle_alpha 90.000000
_cell_angle_beta 154.509953
_cell_angle_gamma 90.000000
_cell_volume 1726.391172
_symmetry_space_group_name_H-M "C 2/C"
_symmetry_group_IT_number 15
_symmetry_cell_setting 'monoclinic'
loop_
_space_group_symop_operation_xyz
x,y,z
-x,y,1/2-z
-x,-y,-z
x,-y,1/2+z
1/2+x,1/2+y,z
1/2-x,1/2+y,1/2-z
1/2-x,1/2-y,-z
1/2+x,1/2-y,1/2+z
loop_
_atom_site_type_symbol
_atom_site_label
_atom_site_fract_x
_atom_site_fract_y
_atom_site_fract_z
Si Si1 0.739365 0.097321 0.678473
Si Si2 0.491826 0.407485 0.949769
Si Si3 0.655944 0.832700 0.407968
Si Si4 0.500000 0.415066 0.750000
Si Si5 0.656804 0.075177 0.221597
O O1 0.561131 0.205019 0.570581
O O2 0.676015 0.940823 0.677594
O O3 0.867832 0.226727 0.775385
O O4 0.842493 0.032391 0.688421
O O5 0.343752 0.496912 0.840293
O O6 0.500000 0.500000 0.000000
O O7 0.688882 0.439282 0.034181
O O8 0.750000 0.750000 0.500000
O O9 0.577090 0.695234 0.331583
O O10 0.502607 0.959993 0.343496
#
# Coordination Sequence:
#
# PCOD8147803 Si02
#       5
#     8   8   8   4   8
#     4  10  23  43  64  96 133 177 215 282 330 385
#     4  10  23  39  68  97 131 172 227 271 339 386
#     4  12  23  46  70  98 133 186 219 274 346 398
#     4  12  26  40  70 102 136 174 230 278 328 408
#     4  10  22  45  67  92 140 169 226 276 330 396
#
# _framework density 20.852747999999998
#
# number of rings (size 3 to 8) (size 9 to 14) (size 15 to 20)
#    1.333    0.000    2.222    4.000    3.111    0.889 
#    4.000    2.222    0.000    0.000    0.000    0.000 
#    0.000    0.000    0.000    0.000    0.000    0.000 
#
# Total GULP energy -223003.820797 kJ/mol
# GULP energy per Si atom -12389.101155 kJ/mol
# Density = 2.080529 g / cm^3
# Si number density = 20.852748 Si / 1000 Ang^3
#
#
#
# Elastic Constant Matrix: (Units=GPa)
#
#
# Indices 1 2 3 4 5 6 
#
# 1 142.7871 36.5761 20.4992 -0.0001 16.9124 0.0001
# 2 36.5761 31.1065 29.8481 0.0003 16.3200 -0.0015
# 3 20.4992 29.8481 71.6262 -0.0011 7.7356 0.0009
# 4 -0.0001 0.0003 -0.0011 35.2112 0.0001 -1.8695
# 5 16.9124 16.3200 7.7356 0.0001 47.8651 0.0001
# 6 0.0001 -0.0015 0.0009 -1.8695 0.0001 41.4248
#
#
#
# Elastic Compliance Matrix: (Units=1/GPa)
#
#
# Indices 1 2 3 4 5 6 
#
# 1 0.010619 -0.016924 0.003863 0.000000 0.001394 -0.000001
# 2 -0.016924 0.093546 -0.031897 -0.000002 -0.020760 0.000004
# 3 0.003863 -0.031897 0.025567 0.000001 0.005379 -0.000002
# 4 0.000000 -0.000002 0.000001 0.028468 0.000000 0.001285
# 5 0.001394 -0.020760 0.005379 0.000000 0.026609 -0.000001
# 6 -0.000001 0.000004 -0.000002 0.001285 -0.000001 0.024198
#
#
# Mechanical properties :
#
#
# Convention : Reuss Voigt Hill
#
# Bulk Modulus (GPa) = 25.11561 46.59629 35.85595
# Shear Modulus (GPa) = 16.01563 35.47331 25.74447
#
# Velocity S-wave (km/s) = 2.77435 4.12895 3.51748
# Velocity P-wave (km/s) = 4.72579 6.71751 5.80767
#
# Compressibility (1/GPa) = 0.03981588
#
# Stress axis : x y z
#
# Youngs Moduli (GPa) = 94.17062 10.68992 39.11305
#
# Poissons Ratio (x) = 0.18092 -0.15109
# Poissons Ratio (y) = 1.59378 1.24758
# Poissons Ratio (z) = -0.36378 0.34097
#
# Static dielectric constant tensor:
#      x y z
#    x 3.857380 0.000000 -0.042090 
#    y 0.000000 3.518470 0.000000 
#    z -0.042090 0.000000 3.279310 
# 
# 
# High freq. dielectric constant tensor:
#      x y z
#    x 1.836440 0.000000 0.006220 
#    y 0.000000 1.799990 0.000000 
#    z 0.006220 0.000000 1.814820 
# 
# From -- ./inp_files/150163.got.cif
#   From: 2010.06.25/outbox.cif.g09.slc.cpg/sg15_76_cif.got.tgz:150163.got - 2010.06.28 07:06:18.
