data_PCOD8147085
_publ_section_title
;
Structure prediction by ZEFSAII (Michael W. Deem and Ramdas Pophale) SiO2 
 PCOD8147085
Probable space group: C 2/C
;
_chemical_formula_sum "Si O2"
_cell_formula_units_Z 32
_cell_length_a 23.916219
_cell_length_b 7.380520
_cell_length_c 13.752547
_cell_angle_alpha 90.000000
_cell_angle_beta 33.681712
_cell_angle_gamma 90.000000
_cell_volume 1346.250646
_symmetry_space_group_name_H-M "C 2/C"
_symmetry_group_IT_number 15
_symmetry_cell_setting 'monoclinic'
loop_
_space_group_symop_operation_xyz
x,y,z
-x,y,1/2-z
-x,-y,-z
x,-y,1/2+z
1/2+x,1/2+y,z
1/2-x,1/2+y,1/2-z
1/2-x,1/2-y,-z
1/2+x,1/2-y,1/2+z
loop_
_atom_site_type_symbol
_atom_site_label
_atom_site_fract_x
_atom_site_fract_y
_atom_site_fract_z
Si Si1 0.826650 0.499241 0.092888
Si Si2 0.661532 0.593586 0.978274
Si Si3 0.846532 0.995142 0.292890
Si Si4 0.044451 0.816986 0.034621
O O1 0.761882 0.489815 0.285206
O O2 0.861141 0.703079 0.023761
O O3 0.757968 0.423593 0.102725
O O4 0.926273 0.375935 0.960872
O O5 0.675756 0.589156 0.072808
O O6 0.566546 0.475656 0.080564
O O7 0.924727 0.826292 0.186594
O O8 0.891517 0.150193 0.156438
#
# Coordination Sequence:
#
# PCOD8147085 Si02
#       4
#     8   8   8   8
#     4  11  22  40  70  98 133 176 229 269 327 407
#     4  11  21  42  65  97 135 176 220 274 327 398
#     4  10  22  42  70  93 140 176 212 287 337 375
#     4  10  23  44  63 102 135 169 225 281 323 401
#
# _framework density 23.769718999999998
#
# number of rings (size 3 to 8) (size 9 to 14) (size 15 to 20)
#    0.000    1.500    5.000    1.500    0.000    1.000 
#    0.000   18.750    0.000    0.000    0.000    0.000 
#    0.000    0.000    0.000    0.000    0.000    0.000 
#
# Total GULP energy -198411.549947 kJ/mol
# GULP energy per Si atom -12400.721872 kJ/mol
# Density = 2.371562 g / cm^3
# Si number density = 23.769719 Si / 1000 Ang^3
#
#
#
# Elastic Constant Matrix: (Units=GPa)
#
#
# Indices 1 2 3 4 5 6 
#
# 1 108.5934 29.9364 34.4410 -0.0011 45.5488 -0.0001
# 2 29.9364 100.0956 33.2125 -0.0049 26.0090 0.0014
# 3 34.4410 33.2125 39.4243 -0.0060 18.7883 0.0015
# 4 -0.0011 -0.0049 -0.0060 6.2897 0.0015 -9.4091
# 5 45.5488 26.0090 18.7883 0.0015 36.2030 -0.0001
# 6 -0.0001 0.0014 0.0015 -9.4091 -0.0001 40.8433
#
#
#
# Elastic Compliance Matrix: (Units=1/GPa)
#
#
# Indices 1 2 3 4 5 6 
#
# 1 0.021786 0.003178 -0.010042 0.000005 -0.024482 0.000001
# 2 0.003178 0.015102 -0.011190 0.000006 -0.009040 0.000001
# 3 -0.010042 -0.011190 0.044790 0.000047 -0.002571 0.000010
# 4 0.000005 0.000006 0.000047 0.242597 -0.000045 0.055887
# 5 -0.024482 -0.009040 -0.002571 -0.000045 0.066252 -0.000010
# 6 0.000001 0.000001 0.000010 0.055887 -0.000010 0.037359
#
#
# Mechanical properties :
#
#
# Convention : Reuss Voigt Hill
#
# Bulk Modulus (GPa) = 21.94483 49.25481 35.59982
# Shear Modulus (GPa) = 10.43435 26.70208 18.56821
#
# Velocity S-wave (km/s) = 2.09745 3.35530 2.79798
# Velocity P-wave (km/s) = 3.88819 5.98142 5.04457
#
# Compressibility (1/GPa) = 0.04556882
#
# Stress axis : x y z
#
# Youngs Moduli (GPa) = 45.90037 66.21573 22.32618
#
# Poissons Ratio (x) = -0.21041 0.22421
# Poissons Ratio (y) = -0.14586 0.24984
# Poissons Ratio (z) = 0.46095 0.74098
#
# Static dielectric constant tensor:
#      x y z
#    x 4.687480 0.000000 0.014940 
#    y 0.000000 3.977930 0.000000 
#    z 0.014940 0.000000 4.107490 
# 
# 
# High freq. dielectric constant tensor:
#      x y z
#    x 1.958390 0.000000 0.007680 
#    y 0.000000 1.917840 0.000000 
#    z 0.007680 0.000000 1.930170 
# 
# From -- ./inp_files/172235.got.cif
#   From: 2010.06.25/outbox.cif.g09.slc.cpg/sg15_87_cif.got.tgz:172235.got - 2010.06.28 07:06:18.
