data_PCOD8147297
_publ_section_title
;
Structure prediction by ZEFSAII (Michael W. Deem and Ramdas Pophale) SiO2 
 PCOD8147297
Probable space group: C 2/C
;
_chemical_formula_sum "Si O2"
_cell_formula_units_Z 52
_cell_length_a 8.129509
_cell_length_b 14.760659
_cell_length_c 29.446258
_cell_angle_alpha 90.000000
_cell_angle_beta 137.478970
_cell_angle_gamma 90.000000
_cell_volume 2388.126996
_symmetry_space_group_name_H-M "C 2/C"
_symmetry_group_IT_number 15
_symmetry_cell_setting 'monoclinic'
loop_
_space_group_symop_operation_xyz
x,y,z
-x,y,1/2-z
-x,-y,-z
x,-y,1/2+z
1/2+x,1/2+y,z
1/2-x,1/2+y,1/2-z
1/2-x,1/2-y,-z
1/2+x,1/2-y,1/2+z
loop_
_atom_site_type_symbol
_atom_site_label
_atom_site_fract_x
_atom_site_fract_y
_atom_site_fract_z
Si Si1 0.256528 0.037623 0.471692
Si Si2 0.420146 0.309187 0.889499
Si Si3 0.961006 0.859128 0.063068
Si Si4 0.212551 0.462712 0.700230
Si Si5 0.119401 0.676916 0.413491
Si Si6 0.000000 0.393783 0.750000
Si Si7 0.087505 0.615067 0.904579
O O1 0.296532 0.051221 0.533500
O O2 0.162813 0.130686 0.428954
O O3 0.500000 0.000000 0.500000
O O4 0.048108 0.961753 0.419613
O O5 0.335218 0.341147 0.921901
O O6 0.212034 0.327965 0.810597
O O7 0.466792 0.202892 0.902302
O O8 0.955565 0.783427 0.101445
O O9 0.208937 0.845139 0.086905
O O10 0.716916 0.850218 0.982816
O O11 0.500000 0.462201 0.750000
O O12 0.122270 0.452434 0.734253
O O13 0.112771 0.381842 0.648246
O O14 0.112234 0.559493 0.663866
#
# Coordination Sequence:
#
# PCOD8147297 Si02
#       7
#     8   8   8   8   8   4   8
#     4  12  25  40  69 101 138 178 224 284 348 409
#     4  11  25  45  66  99 138 178 228 282 339 410
#     4  11  22  39  69 100 135 170 221 277 348 405
#     4  11  26  48  72  97 139 183 235 282 344 413
#     4  10  22  43  67 100 134 175 221 280 341 406
#     4  10  26  48  70  92 138 190 232 284 336 410
#     4  12  25  42  69 102 135 177 226 289 342 410
#
# _framework density 21.774386
#
# number of rings (size 3 to 8) (size 9 to 14) (size 15 to 20)
#    0.000    0.923    3.077    3.692    9.692    0.000 
#    2.769    0.000    1.692    0.000    0.000    0.000 
#    0.000    0.000    0.000    0.000    0.000    0.000 
#
# Total GULP energy -322420.409565 kJ/mol
# GULP energy per Si atom -12400.784983 kJ/mol
# Density = 2.172483 g / cm^3
# Si number density = 21.774386 Si / 1000 Ang^3
#
#
#
# Elastic Constant Matrix: (Units=GPa)
#
#
# Indices 1 2 3 4 5 6 
#
# 1 96.1673 29.7836 39.8574 0.0001 16.9968 0.0000
# 2 29.7836 139.9501 41.5094 0.0000 5.0343 0.0000
# 3 39.8574 41.5094 91.2813 0.0003 13.5115 0.0002
# 4 0.0001 0.0000 0.0003 37.8455 0.0001 -0.2773
# 5 16.9968 5.0343 13.5115 0.0001 30.6658 0.0000
# 6 0.0000 0.0000 0.0002 -0.2773 0.0000 36.2822
#
#
#
# Elastic Compliance Matrix: (Units=1/GPa)
#
#
# Indices 1 2 3 4 5 6 
#
# 1 0.013650 -0.001363 -0.004550 0.000000 -0.005337 0.000000
# 2 -0.001363 0.008399 -0.003350 0.000000 0.000853 0.000000
# 3 -0.004550 -0.003350 0.014988 0.000000 -0.003532 0.000000
# 4 0.000000 0.000000 0.000000 0.026425 0.000000 0.000202
# 5 -0.005337 0.000853 -0.003532 0.000000 0.036984 0.000000
# 6 0.000000 0.000000 0.000000 0.000202 0.000000 0.027563
#
#
# Mechanical properties :
#
#
# Convention : Reuss Voigt Hill
#
# Bulk Modulus (GPa) = 54.02691 61.07770 57.55231
# Shear Modulus (GPa) = 32.74277 35.37524 34.05900
#
# Velocity S-wave (km/s) = 3.88200 4.03504 3.95926
# Velocity P-wave (km/s) = 6.70517 7.05832 6.88401
#
# Compressibility (1/GPa) = 0.01850930
#
# Stress axis : x y z
#
# Youngs Moduli (GPa) = 73.26051 119.06870 66.71917
#
# Poissons Ratio (x) = 0.16233 0.30359
# Poissons Ratio (y) = 0.09988 0.22352
# Poissons Ratio (z) = 0.33335 0.39889
#
# Static dielectric constant tensor:
#      x y z
#    x 3.876650 0.000000 -0.008120 
#    y 0.000000 4.262740 0.000000 
#    z -0.008120 0.000000 3.859230 
# 
# 
# High freq. dielectric constant tensor:
#      x y z
#    x 1.859990 0.000000 0.007530 
#    y 0.000000 1.870450 0.000000 
#    z 0.007530 0.000000 1.840870 
# 
# From -- ./inp_files/231306.got.cif
#   From: 2010.06.25/outbox.cif.g09.slc.cpg/sg15_116_cif.got.tgz:231306.got - 2010.06.28 07:06:18.
