data_PCOD8147214
_publ_section_title
;
Structure prediction by ZEFSAII (Michael W. Deem and Ramdas Pophale) SiO2 
 PCOD8147214
Probable space group: C 2/C
;
_chemical_formula_sum "Si O2"
_cell_formula_units_Z 48
_cell_length_a 28.735962
_cell_length_b 10.400443
_cell_length_c 15.273692
_cell_angle_alpha 90.000000
_cell_angle_beta 30.101624
_cell_angle_gamma 90.000000
_cell_volume 2289.407376
_symmetry_space_group_name_H-M "C 2/C"
_symmetry_group_IT_number 15
_symmetry_cell_setting 'monoclinic'
loop_
_space_group_symop_operation_xyz
x,y,z
-x,y,1/2-z
-x,-y,-z
x,-y,1/2+z
1/2+x,1/2+y,z
1/2-x,1/2+y,1/2-z
1/2-x,1/2-y,-z
1/2+x,1/2-y,1/2+z
loop_
_atom_site_type_symbol
_atom_site_label
_atom_site_fract_x
_atom_site_fract_y
_atom_site_fract_z
Si Si1 0.819114 0.750308 0.134856
Si Si2 0.023147 0.688509 0.499165
Si Si3 0.620011 0.011951 0.219155
Si Si4 0.769829 0.512570 0.640384
Si Si5 0.409011 0.579330 0.160212
Si Si6 0.784571 0.137548 0.507092
O O1 0.801044 0.595508 0.160862
O O2 0.738753 0.841919 0.307869
O O3 0.829198 0.801834 0.020252
O O4 0.914373 0.768806 0.033592
O O5 0.089817 0.648312 0.309589
O O6 0.974705 0.570661 0.628808
O O7 0.938983 0.772823 0.597380
O O8 0.697021 0.956917 0.161832
O O9 0.660688 0.022162 0.055140
O O10 0.668054 0.460704 0.783327
O O11 0.367934 0.560208 0.324657
O O12 0.500000 0.500000 0.000000
O O13 0.750000 0.250000 0.500000
#
# Coordination Sequence:
#
# PCOD8147214 Si02
#       6
#     8   8   8   8   8   8
#     4  12  23  40  67 100 123 169 222 269 307 388
#     4  11  22  38  69  97 125 163 224 259 318 383
#     4  10  22  43  64  93 128 178 203 262 326 392
#     4  11  24  43  66  92 137 170 216 262 326 382
#     4  11  21  42  61  90 125 168 202 264 322 382
#     4  11  20  41  66  82 125 173 207 250 329 382
#
# _framework density 20.966125000000002
#
# number of rings (size 3 to 8) (size 9 to 14) (size 15 to 20)
#    0.000    1.000    6.667    1.000    0.000    4.667 
#    3.000    0.000    0.000    0.000    0.000    0.000 
#    0.000    0.000    0.000    0.000    0.000    0.000 
#
# Total GULP energy -297394.794197 kJ/mol
# GULP energy per Si atom -12391.449758 kJ/mol
# Density = 2.091841 g / cm^3
# Si number density = 20.966125 Si / 1000 Ang^3
#
#
#
# Elastic Constant Matrix: (Units=GPa)
#
#
# Indices 1 2 3 4 5 6 
#
# 1 65.1269 29.0703 34.8465 0.0000 9.6963 0.0000
# 2 29.0703 74.8572 47.1301 0.0000 10.9783 0.0000
# 3 34.8465 47.1301 129.8367 0.0000 0.3391 0.0000
# 4 0.0000 0.0000 0.0000 45.8205 0.0000 -5.3393
# 5 9.6963 10.9783 0.3391 0.0000 25.2611 0.0000
# 6 0.0000 0.0000 0.0000 -5.3393 0.0000 28.0730
#
#
#
# Elastic Compliance Matrix: (Units=1/GPa)
#
#
# Indices 1 2 3 4 5 6 
#
# 1 0.020294 -0.004700 -0.003726 0.000000 -0.005697 0.000000
# 2 -0.004700 0.019926 -0.005954 0.000000 -0.006776 0.000000
# 3 -0.003726 -0.005954 0.010853 0.000000 0.003872 0.000000
# 4 0.000000 0.000000 0.000000 0.022319 0.000000 0.004245
# 5 -0.005697 -0.006776 0.003872 0.000000 0.044666 0.000000
# 6 0.000000 0.000000 0.000000 0.004245 0.000000 0.036429
#
#
# Mechanical properties :
#
#
# Convention : Reuss Voigt Hill
#
# Bulk Modulus (GPa) = 44.81442 54.65717 49.73579
# Shear Modulus (GPa) = 26.22125 30.41587 28.31856
#
# Velocity S-wave (km/s) = 3.54029 3.81296 3.67915
# Velocity P-wave (km/s) = 6.17516 6.74616 6.46697
#
# Compressibility (1/GPa) = 0.02231425
#
# Stress axis : x y z
#
# Youngs Moduli (GPa) = 49.27513 50.18490 92.13919
#
# Poissons Ratio (x) = 0.23586 0.34330
# Poissons Ratio (y) = 0.23158 0.54861
# Poissons Ratio (z) = 0.18359 0.29881
#
# Static dielectric constant tensor:
#      x y z
#    x 3.678880 0.000000 -0.631460 
#    y 0.000000 1.821940 0.000000 
#    z -0.631460 0.000000 2.688840 
# 
# 
# High freq. dielectric constant tensor:
#      x y z
#    x 1.806560 0.000000 -0.010150 
#    y 0.000000 1.820480 0.000000 
#    z -0.010150 0.000000 1.828330 
# 
# From -- ./inp_files/181713.got.cif
#   From: 2010.06.25/outbox.cif.g09.slc.cpg/sg15_91_cif.got.tgz:181713.got - 2010.06.28 07:06:18.
