data_PCOD8147007
_publ_section_title
;
Structure prediction by ZEFSAII (Michael W. Deem and Ramdas Pophale) SiO2 
 PCOD8147007
Probable space group: C 2/C
;
_chemical_formula_sum "Si O2"
_cell_formula_units_Z 56
_cell_length_a 8.585530
_cell_length_b 29.600361
_cell_length_c 12.907144
_cell_angle_alpha 90.000000
_cell_angle_beta 56.952734
_cell_angle_gamma 90.000000
_cell_volume 2749.494162
_symmetry_space_group_name_H-M "C 2/C"
_symmetry_group_IT_number 15
_symmetry_cell_setting 'monoclinic'
loop_
_space_group_symop_operation_xyz
x,y,z
-x,y,1/2-z
-x,-y,-z
x,-y,1/2+z
1/2+x,1/2+y,z
1/2-x,1/2+y,1/2-z
1/2-x,1/2-y,-z
1/2+x,1/2-y,1/2+z
loop_
_atom_site_type_symbol
_atom_site_label
_atom_site_fract_x
_atom_site_fract_y
_atom_site_fract_z
Si Si1 0.881496 0.883536 0.191327
Si Si2 0.198710 0.281955 0.719123
Si Si3 0.244712 0.297129 0.942179
Si Si4 0.439306 0.641285 0.084463
Si Si5 0.221509 0.529771 0.649039
Si Si6 0.907097 0.304505 0.176129
Si Si7 0.004076 0.955847 0.868348
O O1 0.766430 0.928267 0.206926
O O2 0.747831 0.841680 0.254677
O O3 0.000000 0.893602 0.250000
O O4 0.014699 0.870427 0.049631
O O5 0.209058 0.288175 0.836858
O O6 0.251546 0.329355 0.645410
O O7 0.331278 0.239726 0.644023
O O8 0.000000 0.267305 0.750000
O O9 0.424164 0.326509 0.900448
O O10 0.250000 0.250000 0.000000
O O11 0.068929 0.325999 0.047123
O O12 0.419819 0.595226 0.155293
O O13 0.335830 0.485655 0.638037
O O14 0.301481 0.540123 0.501989
O O15 0.000000 0.521049 0.750000
O O16 0.000000 0.289045 0.250000
O O17 0.000000 0.970755 0.750000
#
# Coordination Sequence:
#
# PCOD8147007 Si02
#       7
#     8   8   8   8   8   8   8
#     4  11  24  41  65  95 126 160 206 267 319 371
#     4  12  26  39  57  90 130 167 209 262 314 369
#     4  12  22  40  64  86 120 169 214 255 309 377
#     4  11  23  43  64  89 127 169 210 257 314 383
#     4  10  23  43  68  97 130 168 213 265 327 393
#     4  12  22  39  63  89 119 164 217 257 311 374
#     4  10  22  42  68  96 129 167 214 271 322 381
#
# _framework density 20.367381999999999
#
# number of rings (size 3 to 8) (size 9 to 14) (size 15 to 20)
#    0.000    0.857    4.286    2.571    4.000    1.714 
#    0.000    0.000    0.000    0.000    0.000    0.000 
#    0.000    0.000    0.000    0.000    0.000    0.000 
#
# Total GULP energy -347018.092120 kJ/mol
# GULP energy per Si atom -12393.503290 kJ/mol
# Density = 2.032102 g / cm^3
# Si number density = 20.367382 Si / 1000 Ang^3
#
#
#
# Elastic Constant Matrix: (Units=GPa)
#
#
# Indices 1 2 3 4 5 6 
#
# 1 97.2200 26.4806 42.2034 0.0000 -2.3536 0.0000
# 2 26.4806 117.3855 17.2542 0.0000 -4.4670 0.0000
# 3 42.2034 17.2542 94.1007 0.0000 -0.5419 0.0000
# 4 0.0000 0.0000 0.0000 30.8150 0.0000 -5.3092
# 5 -2.3536 -4.4670 -0.5419 0.0000 37.4782 0.0000
# 6 0.0000 0.0000 0.0000 -5.3092 0.0000 33.4158
#
#
#
# Elastic Compliance Matrix: (Units=1/GPa)
#
#
# Indices 1 2 3 4 5 6 
#
# 1 0.013304 -0.002164 -0.005567 0.000000 0.000497 0.000000
# 2 -0.002164 0.009146 -0.000701 0.000000 0.000944 0.000000
# 3 -0.005567 -0.000701 0.013251 0.000000 -0.000242 0.000000
# 4 0.000000 0.000000 0.000000 0.033365 0.000000 0.005301
# 5 0.000497 0.000944 -0.000242 0.000000 0.026822 0.000000
# 6 0.000000 0.000000 0.000000 0.005301 0.000000 0.030768
#
#
# Mechanical properties :
#
#
# Convention : Reuss Voigt Hill
#
# Bulk Modulus (GPa) = 53.08785 53.39808 53.24296
# Shear Modulus (GPa) = 33.37783 35.19301 34.28542
#
# Velocity S-wave (km/s) = 4.05259 4.16132 4.10732
# Velocity P-wave (km/s) = 6.92962 7.02589 6.97792
#
# Compressibility (1/GPa) = 0.01883670
#
# Stress axis : x y z
#
# Youngs Moduli (GPa) = 75.16472 109.33645 75.46670
#
# Poissons Ratio (x) = 0.23661 0.42013
# Poissons Ratio (y) = 0.16266 0.05291
# Poissons Ratio (z) = 0.41845 0.07665
#
# Static dielectric constant tensor:
#      x y z
#    x 3.701960 0.000000 -0.579560 
#    y 0.000000 4.680450 0.000000 
#    z -0.579560 0.000000 3.402230 
# 
# 
# High freq. dielectric constant tensor:
#      x y z
#    x 1.785020 0.000000 -0.004650 
#    y 0.000000 1.806150 0.000000 
#    z -0.004650 0.000000 1.809320 
# 
# From -- ./inp_files/82478.got.cif
#   From: 2010.06.25/outbox.cif.g09.slc.cpg/sg15_42_cif.got.tgz:82478.got - 2010.06.28 07:06:18.
