data_PCOD8147709
_publ_section_title
;
Structure prediction by ZEFSAII (Michael W. Deem and Ramdas Pophale) SiO2 
 PCOD8147709
Probable space group: C 2/C
;
_chemical_formula_sum "Si O2"
_cell_formula_units_Z 40
_cell_length_a 19.750961
_cell_length_b 10.211091
_cell_length_c 19.496288
_cell_angle_alpha 90.000000
_cell_angle_beta 152.937055
_cell_angle_gamma 90.000000
_cell_volume 1788.933494
_symmetry_space_group_name_H-M "C 2/C"
_symmetry_group_IT_number 15
_symmetry_cell_setting 'monoclinic'
loop_
_space_group_symop_operation_xyz
x,y,z
-x,y,1/2-z
-x,-y,-z
x,-y,1/2+z
1/2+x,1/2+y,z
1/2-x,1/2+y,1/2-z
1/2-x,1/2-y,-z
1/2+x,1/2-y,1/2+z
loop_
_atom_site_type_symbol
_atom_site_label
_atom_site_fract_x
_atom_site_fract_y
_atom_site_fract_z
Si Si1 0.812873 0.125562 0.140929
Si Si2 0.666753 0.046181 0.138731
Si Si3 0.905725 0.115791 0.795157
Si Si4 0.237106 0.859071 0.634371
Si Si5 0.849469 0.588103 0.644316
O O1 0.676254 0.118836 0.072798
O O2 0.885612 0.269694 0.210432
O O3 0.930667 0.010321 0.267494
O O4 0.767406 0.099338 0.022236
O O5 0.718615 0.142770 0.245687
O O6 0.785065 0.925150 0.245034
O O7 0.500000 0.000000 0.000000
O O8 0.828557 0.236789 0.684123
O O9 0.060783 0.162138 0.967405
O O10 0.285962 0.994819 0.645256
O O11 0.000000 0.526624 0.750000
#
# Coordination Sequence:
#
# PCOD8147709 Si02
#       5
#     8   8   8   8   8
#     4   9  25  43  68 100 143 176 242 282 358 412
#     4  10  22  44  71 101 142 181 232 294 351 423
#     4  10  26  45  68 106 138 187 236 294 355 415
#     4  12  25  45  73 101 145 184 242 287 358 418
#     4  11  25  45  72 102 138 192 233 292 361 424
#
# _framework density 22.359691999999999
#
# number of rings (size 3 to 8) (size 9 to 14) (size 15 to 20)
#    1.200    0.400    0.000    3.000   11.200    0.800 
#    7.200    0.000    0.000    0.000    0.000    0.000 
#    0.000    0.000    0.000    0.000    0.000    0.000 
#
# Total GULP energy -247854.875600 kJ/mol
# GULP energy per Si atom -12392.743780 kJ/mol
# Density = 2.230880 g / cm^3
# Si number density = 22.359692 Si / 1000 Ang^3
#
#
#
# Elastic Constant Matrix: (Units=GPa)
#
#
# Indices 1 2 3 4 5 6 
#
# 1 85.0446 33.6960 23.4034 0.0002 2.1981 -0.0001
# 2 33.6960 134.8011 50.2184 0.0005 -4.7870 0.0000
# 3 23.4034 50.2184 124.5155 0.0007 22.4345 0.0001
# 4 0.0002 0.0005 0.0007 33.8552 0.0004 0.2688
# 5 2.1981 -4.7870 22.4345 0.0004 41.7428 0.0000
# 6 -0.0001 0.0000 0.0001 0.2688 0.0000 14.0901
#
#
#
# Elastic Compliance Matrix: (Units=1/GPa)
#
#
# Indices 1 2 3 4 5 6 
#
# 1 0.013248 -0.002846 -0.001282 0.000000 -0.000335 0.000000
# 2 -0.002846 0.009746 -0.004013 0.000000 0.003424 0.000000
# 3 -0.001282 -0.004013 0.011029 0.000000 -0.006320 0.000000
# 4 0.000000 0.000000 0.000000 0.029542 0.000000 -0.000563
# 5 -0.000335 0.003424 -0.006320 0.000000 0.027763 0.000000
# 6 0.000000 0.000000 0.000000 -0.000563 0.000000 0.070983
#
#
# Mechanical properties :
#
#
# Convention : Reuss Voigt Hill
#
# Bulk Modulus (GPa) = 56.36340 62.11074 59.23707
# Shear Modulus (GPa) = 27.09940 33.74052 30.41996
#
# Velocity S-wave (km/s) = 3.48512 3.88878 3.69247
# Velocity P-wave (km/s) = 6.43872 6.92833 6.68801
#
# Compressibility (1/GPa) = 0.01774201
#
# Stress axis : x y z
#
# Youngs Moduli (GPa) = 75.48591 102.60375 90.66819
#
# Poissons Ratio (x) = 0.29199 0.11622
# Poissons Ratio (y) = 0.21482 0.36384
# Poissons Ratio (z) = 0.09676 0.41173
#
# Static dielectric constant tensor:
#      x y z
#    x 3.876590 0.000000 -0.008030 
#    y 0.000000 4.097550 0.000000 
#    z -0.008030 0.000000 3.787440 
# 
# 
# High freq. dielectric constant tensor:
#      x y z
#    x 1.873060 0.000000 0.006540 
#    y 0.000000 1.886530 0.000000 
#    z 0.006540 0.000000 1.873760 
# 
# From -- ./inp_files/252313.got.cif
#   From: 2010.06.25/outbox.cif.g09.slc.cpg/sg15_127_cif.got.tgz:252313.got - 2010.06.28 07:06:18.
