data_PCOD8147345
_publ_section_title
;
Structure prediction by ZEFSAII (Michael W. Deem and Ramdas Pophale) SiO2 
 PCOD8147345
Probable space group: C 2/C
;
_chemical_formula_sum "Si O2"
_cell_formula_units_Z 52
_cell_length_a 14.648486
_cell_length_b 11.196305
_cell_length_c 15.403212
_cell_angle_alpha 90.000000
_cell_angle_beta 110.471162
_cell_angle_gamma 90.000000
_cell_volume 2366.726337
_symmetry_space_group_name_H-M "C 2/C"
_symmetry_group_IT_number 15
_symmetry_cell_setting 'monoclinic'
loop_
_space_group_symop_operation_xyz
x,y,z
-x,y,1/2-z
-x,-y,-z
x,-y,1/2+z
1/2+x,1/2+y,z
1/2-x,1/2+y,1/2-z
1/2-x,1/2-y,-z
1/2+x,1/2-y,1/2+z
loop_
_atom_site_type_symbol
_atom_site_label
_atom_site_fract_x
_atom_site_fract_y
_atom_site_fract_z
Si Si1 0.137834 0.464873 0.119392
Si Si2 0.042647 0.855514 0.931126
Si Si3 0.416428 0.906733 0.067711
Si Si4 0.831169 0.573192 0.186736
Si Si5 0.671173 0.336163 0.354038
Si Si6 0.500000 0.509821 0.250000
Si Si7 0.138170 0.915484 0.527548
O O1 0.153655 0.548204 0.207431
O O2 0.219981 0.361352 0.146427
O O3 0.031576 0.408510 0.088712
O O4 0.145839 0.542434 0.033696
O O5 0.103119 0.734963 0.931000
O O6 0.988579 0.905072 0.828409
O O7 0.958163 0.843931 0.975170
O O8 0.120836 0.948911 0.992567
O O9 0.388434 0.977135 0.146077
O O10 0.870590 0.706605 0.184525
O O11 0.716624 0.575082 0.129604
O O12 0.596938 0.431024 0.288894
O O13 0.678992 0.340912 0.460498
#
# Coordination Sequence:
#
# PCOD8147345 Si02
#       7
#     8   8   8   8   8   4   8
#     4  11  26  43  65 101 133 179 225 280 349 398
#     4  10  23  43  68  96 138 177 228 283 338 413
#     4  11  26  44  65 102 139 174 227 286 342 403
#     4  12  25  42  72  99 136 180 230 281 354 399
#     4  11  24  45  67 101 138 175 232 286 333 424
#     4  10  24  42  70  98 132 180 232 272 348 414
#     4  10  22  43  68  96 132 186 223 279 348 397
#
# _framework density 21.971277000000001
#
# number of rings (size 3 to 8) (size 9 to 14) (size 15 to 20)
#    0.000    1.231    1.538    2.769    8.615    4.308 
#    2.769    0.000    0.000    0.000    0.000    0.000 
#    0.000    0.000    0.000    0.000    0.000    0.000 
#
# Total GULP energy -322451.463046 kJ/mol
# GULP energy per Si atom -12401.979348 kJ/mol
# Density = 2.192127 g / cm^3
# Si number density = 21.971277 Si / 1000 Ang^3
#
#
#
# Elastic Constant Matrix: (Units=GPa)
#
#
# Indices 1 2 3 4 5 6 
#
# 1 64.7615 22.6649 11.8944 0.0000 -12.3662 0.0000
# 2 22.6649 136.9639 27.8408 0.0000 -13.0673 0.0000
# 3 11.8944 27.8408 116.5309 0.0000 -1.1498 0.0000
# 4 0.0000 0.0000 0.0000 15.9269 0.0000 -7.0484
# 5 -12.3662 -13.0673 -1.1498 0.0000 29.3876 0.0000
# 6 0.0000 0.0000 0.0000 -7.0484 0.0000 24.3488
#
#
#
# Elastic Compliance Matrix: (Units=1/GPa)
#
#
# Indices 1 2 3 4 5 6 
#
# 1 0.017619 -0.002046 -0.001246 0.000000 0.006455 0.000000
# 2 -0.002046 0.008254 -0.001736 0.000000 0.002741 0.000000
# 3 -0.001246 -0.001736 0.009114 0.000000 -0.000940 0.000000
# 4 0.000000 0.000000 0.000000 0.072012 0.000000 0.020846
# 5 0.006455 0.002741 -0.000940 0.000000 0.037926 0.000000
# 6 0.000000 0.000000 0.000000 0.020846 0.000000 0.047104
#
#
# Mechanical properties :
#
#
# Convention : Reuss Voigt Hill
#
# Bulk Modulus (GPa) = 40.11139 49.22847 44.66993
# Shear Modulus (GPa) = 23.76460 30.98975 27.37718
#
# Velocity S-wave (km/s) = 3.29237 3.75969 3.53376
# Velocity P-wave (km/s) = 5.72266 6.42663 6.08483
#
# Compressibility (1/GPa) = 0.02493058
#
# Stress axis : x y z
#
# Youngs Moduli (GPa) = 56.75714 121.14926 109.72035
#
# Poissons Ratio (x) = 0.24793 0.13668
# Poissons Ratio (y) = 0.11615 0.19049
# Poissons Ratio (z) = 0.07070 0.21033
#
# Static dielectric constant tensor:
#      x y z
#    x 3.894460 0.000000 -0.023510 
#    y 0.000000 3.955270 0.000000 
#    z -0.023510 0.000000 4.077460 
# 
# 
# High freq. dielectric constant tensor:
#      x y z
#    x 1.865730 0.000000 0.003210 
#    y 0.000000 1.867220 0.000000 
#    z 0.003210 0.000000 1.872030 
# 
# From -- ./inp_files/152705.got.cif
#   From: 2010.06.25/outbox.cif.g09.slc.cpg/sg15_77_cif.got.tgz:152705.got - 2010.06.28 07:06:18.
