data_PCOD8147381
_publ_section_title
;
Structure prediction by ZEFSAII (Michael W. Deem and Ramdas Pophale) SiO2 
 PCOD8147381
Probable space group: C 2/C
;
_chemical_formula_sum "Si O2"
_cell_formula_units_Z 56
_cell_length_a 17.459106
_cell_length_b 28.519328
_cell_length_c 5.291854
_cell_angle_alpha 90.000000
_cell_angle_beta 94.731909
_cell_angle_gamma 90.000000
_cell_volume 2625.949473
_symmetry_space_group_name_H-M "C 2/C"
_symmetry_group_IT_number 15
_symmetry_cell_setting 'monoclinic'
loop_
_space_group_symop_operation_xyz
x,y,z
-x,y,1/2-z
-x,-y,-z
x,-y,1/2+z
1/2+x,1/2+y,z
1/2-x,1/2+y,1/2-z
1/2-x,1/2-y,-z
1/2+x,1/2-y,1/2+z
loop_
_atom_site_type_symbol
_atom_site_label
_atom_site_fract_x
_atom_site_fract_y
_atom_site_fract_z
Si Si1 0.654378 0.470700 0.455906
Si Si2 0.330709 0.970686 0.514559
Si Si3 0.411159 0.203080 0.744560
Si Si4 0.550060 0.381233 0.510261
Si Si5 0.342858 0.292776 0.948934
Si Si6 0.052304 0.613572 0.511031
Si Si7 0.806086 0.724613 0.329598
O O1 0.637646 0.493410 0.178889
O O2 0.742612 0.453211 0.485041
O O3 0.596762 0.428164 0.472170
O O4 0.386938 0.927556 0.490656
O O5 0.347937 0.006642 0.291664
O O6 0.500000 0.211791 0.750000
O O7 0.399454 0.162602 0.953040
O O8 0.366666 0.187701 0.473341
O O9 0.374581 0.253952 0.766329
O O10 0.500000 0.386752 0.750000
O O11 0.611124 0.340305 0.566947
O O12 0.500000 0.369582 0.250000
O O13 0.354888 0.267167 0.219594
O O14 0.250934 0.302608 0.882240
O O15 0.000000 0.608617 0.750000
O O16 0.000000 0.614251 0.250000
O O17 0.750000 0.750000 0.500000
#
# Coordination Sequence:
#
# PCOD8147381 Si02
#       7
#     8   8   8   8   8   8   8
#     4  10  23  47  70  98 133 173 222 274 340 417
#     4  10  22  43  69  98 131 180 227 282 344 399
#     4  10  23  39  63  91 133 179 220 269 329 393
#     4  12  28  44  70 106 134 176 223 279 351 405
#     4  10  23  41  66  94 133 174 225 276 330 399
#     4  11  25  41  63 102 139 181 231 277 340 401
#     4   9  21  41  61  92 125 176 222 271 331 382
#
# _framework density 21.325620000000001
#
# number of rings (size 3 to 8) (size 9 to 14) (size 15 to 20)
#    0.000    1.714    0.000    2.143   10.000    6.857 
#    7.714    0.000    0.000    0.000    0.000    0.000 
#    0.000    0.000    0.000    0.000    0.000    0.000 
#
# Total GULP energy -346881.803516 kJ/mol
# GULP energy per Si atom -12388.635840 kJ/mol
# Density = 2.127708 g / cm^3
# Si number density = 21.325620 Si / 1000 Ang^3
#
#
#
# Elastic Constant Matrix: (Units=GPa)
#
#
# Indices 1 2 3 4 5 6 
#
# 1 113.2189 55.4116 51.9522 0.0000 10.1640 0.0000
# 2 55.4116 83.7413 16.7985 0.0000 7.3916 0.0000
# 3 51.9522 16.7985 124.9358 0.0000 -1.1536 0.0000
# 4 0.0000 0.0000 0.0000 19.4501 0.0000 -2.7475
# 5 10.1640 7.3916 -1.1536 0.0000 37.1789 0.0000
# 6 0.0000 0.0000 0.0000 -2.7475 0.0000 21.7521
#
#
#
# Elastic Compliance Matrix: (Units=1/GPa)
#
#
# Indices 1 2 3 4 5 6 
#
# 1 0.016182 -0.009364 -0.005495 0.000000 -0.002733 0.000000
# 2 -0.009364 0.017927 0.001475 0.000000 -0.000958 0.000000
# 3 -0.005495 0.001475 0.010105 0.000000 0.001523 0.000000
# 4 0.000000 0.000000 0.000000 0.052348 0.000000 0.006612
# 5 -0.002733 -0.000958 0.001523 0.000000 0.027882 0.000000
# 6 0.000000 0.000000 0.000000 0.006612 0.000000 0.046808
#
#
# Mechanical properties :
#
#
# Convention : Reuss Voigt Hill
#
# Bulk Modulus (GPa) = 57.32512 63.35784 60.34148
# Shear Modulus (GPa) = 24.52955 28.85848 26.69402
#
# Velocity S-wave (km/s) = 3.39520 3.68262 3.54182
# Velocity P-wave (km/s) = 6.50454 6.91784 6.71437
#
# Compressibility (1/GPa) = 0.01744436
#
# Stress axis : x y z
#
# Youngs Moduli (GPa) = 61.79531 55.78286 98.96099
#
# Poissons Ratio (x) = 0.52237 0.54382
# Poissons Ratio (y) = 0.57867 -0.14594
# Poissons Ratio (z) = 0.33958 -0.08227
#
# Static dielectric constant tensor:
#      x y z
#    x 4.450540 0.000000 0.678320 
#    y 0.000000 3.787620 0.000000 
#    z 0.678320 0.000000 5.362750 
# 
# 
# High freq. dielectric constant tensor:
#      x y z
#    x 1.854140 0.000000 0.002670 
#    y 0.000000 1.820720 0.000000 
#    z 0.002670 0.000000 1.860650 
# 
# From -- ./inp_files/11577.got.cif
#   From: 2010.06.25/outbox.cif.g09.slc.cpg/sg15_6_cif.got.tgz:11577.got - 2010.06.28 07:06:18.
