data_PCOD8147456
_publ_section_title
;
Structure prediction by ZEFSAII (Michael W. Deem and Ramdas Pophale) SiO2 
 PCOD8147456
Probable space group: C 2/C
;
_chemical_formula_sum "Si O2"
_cell_formula_units_Z 36
_cell_length_a 13.119278
_cell_length_b 19.753488
_cell_length_c 8.229406
_cell_angle_alpha 90.000000
_cell_angle_beta 141.861793
_cell_angle_gamma 90.000000
_cell_volume 1317.048367
_symmetry_space_group_name_H-M "C 2/C"
_symmetry_group_IT_number 15
_symmetry_cell_setting 'monoclinic'
loop_
_space_group_symop_operation_xyz
x,y,z
-x,y,1/2-z
-x,-y,-z
x,-y,1/2+z
1/2+x,1/2+y,z
1/2-x,1/2+y,1/2-z
1/2-x,1/2-y,-z
1/2+x,1/2-y,1/2+z
loop_
_atom_site_type_symbol
_atom_site_label
_atom_site_fract_x
_atom_site_fract_y
_atom_site_fract_z
Si Si1 0.675699 0.900159 0.638272
Si Si2 0.000000 0.188415 0.250000
Si Si3 0.400275 0.273002 0.964187
Si Si4 0.808653 0.526859 0.024372
Si Si5 0.692393 0.130111 0.732441
O O1 0.755343 0.826857 0.752525
O O2 0.477287 0.892593 0.393467
O O3 0.724030 0.946154 0.540014
O O4 0.748103 0.949288 0.870094
O O5 0.004145 0.231034 0.424200
O O6 0.169813 0.145460 0.457063
O O7 0.333149 0.197558 0.910214
O O8 0.500000 0.295195 0.250000
O O9 0.726133 0.573440 0.781511
O O10 0.000000 0.545566 0.250000
#
# Coordination Sequence:
#
# PCOD8147456 Si02
#       5
#     8   4   8   8   8
#     4  11  25  45  80 102 144 197 243 297 364 436
#     4  12  28  44  70 116 148 184 238 304 378 416
#     4  12  27  49  74 110 150 191 243 305 366 431
#     4  10  22  43  74 108 133 193 248 294 356 428
#     4  11  24  47  76 109 146 190 247 301 361 438
#
# _framework density 27.333848
#
# number of rings (size 3 to 8) (size 9 to 14) (size 15 to 20)
#    0.000    0.889    0.000    8.000    6.222    2.667 
#    2.000    2.222    0.000    0.000    0.000    0.000 
#    0.000    0.000    0.000    0.000    0.000    0.000 
#
# Total GULP energy -223059.434385 kJ/mol
# GULP energy per Si atom -12392.190799 kJ/mol
# Density = 2.727163 g / cm^3
# Si number density = 27.333848 Si / 1000 Ang^3
#
#
#
# Elastic Constant Matrix: (Units=GPa)
#
#
# Indices 1 2 3 4 5 6 
#
# 1 77.4923 29.2168 30.7538 0.0000 -15.5223 0.0000
# 2 29.2168 183.3266 31.0224 0.0000 3.7513 0.0000
# 3 30.7538 31.0224 129.6291 0.0000 -8.9404 0.0000
# 4 0.0000 0.0000 0.0000 32.8723 0.0000 -4.3125
# 5 -15.5223 3.7513 -8.9404 0.0000 33.8967 0.0000
# 6 0.0000 0.0000 0.0000 -4.3125 0.0000 41.9715
#
#
#
# Elastic Compliance Matrix: (Units=1/GPa)
#
#
# Indices 1 2 3 4 5 6 
#
# 1 0.016275 -0.002255 -0.002842 0.000000 0.006953 0.000000
# 2 -0.002255 0.006031 -0.001045 0.000000 -0.001976 0.000000
# 3 -0.002842 -0.001045 0.008715 0.000000 0.001113 0.000000
# 4 0.000000 0.000000 0.000000 0.030836 0.000000 0.003168
# 5 0.006953 -0.001976 0.001113 0.000000 0.033198 0.000000
# 6 0.000000 0.000000 0.000000 0.003168 0.000000 0.024151
#
#
# Mechanical properties :
#
#
# Convention : Reuss Voigt Hill
#
# Bulk Modulus (GPa) = 53.36622 63.60377 58.48499
# Shear Modulus (GPa) = 36.30104 41.71176 39.00640
#
# Velocity S-wave (km/s) = 3.64821 3.91066 3.78171
# Velocity P-wave (km/s) = 6.10837 6.61141 6.36486
#
# Compressibility (1/GPa) = 0.01873845
#
# Stress axis : x y z
#
# Youngs Moduli (GPa) = 61.44243 165.80022 114.74050
#
# Poissons Ratio (x) = 0.37391 0.32609
# Poissons Ratio (y) = 0.13856 0.11986
# Poissons Ratio (z) = 0.17462 0.17320
#
# Static dielectric constant tensor:
#      x y z
#    x 4.869710 0.000000 -0.441100 
#    y 0.000000 4.990100 0.000000 
#    z -0.441100 0.000000 5.065370 
# 
# 
# High freq. dielectric constant tensor:
#      x y z
#    x 2.081490 0.000000 -0.035690 
#    y 0.000000 2.121100 0.000000 
#    z -0.035690 0.000000 2.103980 
# 
# From -- ./inp_files/41333.got.cif
#   From: 2010.06.25/outbox.cif.g09.slc.cpg/sg15_21_cif.got.tgz:41333.got - 2010.06.28 07:06:18.
