data_PCOD8147234
_publ_section_title
;
Structure prediction by ZEFSAII (Michael W. Deem and Ramdas Pophale) SiO2 
 PCOD8147234
Probable space group: C 2/C
;
_chemical_formula_sum "Si O2"
_cell_formula_units_Z 60
_cell_length_a 27.091110
_cell_length_b 10.137733
_cell_length_c 11.880485
_cell_angle_alpha 90.000000
_cell_angle_beta 55.693600
_cell_angle_gamma 90.000000
_cell_volume 2695.258649
_symmetry_space_group_name_H-M "C 2/C"
_symmetry_group_IT_number 15
_symmetry_cell_setting 'monoclinic'
loop_
_space_group_symop_operation_xyz
x,y,z
-x,y,1/2-z
-x,-y,-z
x,-y,1/2+z
1/2+x,1/2+y,z
1/2-x,1/2+y,1/2-z
1/2-x,1/2-y,-z
1/2+x,1/2-y,1/2+z
loop_
_atom_site_type_symbol
_atom_site_label
_atom_site_fract_x
_atom_site_fract_y
_atom_site_fract_z
Si Si1 0.354254 0.666746 0.378143
Si Si2 0.696973 0.588597 0.478230
Si Si3 0.674080 0.806046 0.692497
Si Si4 0.919012 0.792280 0.016402
Si Si5 0.000000 0.508831 0.250000
Si Si6 0.903043 0.079745 0.080785
Si Si7 0.473798 0.175196 0.499322
Si Si8 0.388057 0.933155 0.286645
O O1 0.301544 0.566368 0.484021
O O2 0.407064 0.681119 0.401304
O O3 0.384985 0.606887 0.230690
O O4 0.336855 0.820488 0.375286
O O5 0.675203 0.680477 0.608726
O O6 0.761077 0.639789 0.355070
O O7 0.653736 0.594951 0.427636
O O8 0.641023 0.766251 0.849221
O O9 0.641246 0.923942 0.669625
O O10 0.933119 0.936939 0.047014
O O11 0.975186 0.697427 0.970735
O O12 0.061483 0.425105 0.178563
O O13 0.001977 0.595139 0.360929
O O14 0.951698 0.186161 0.977674
O O15 0.419281 0.095004 0.625936
#
# Coordination Sequence:
#
# PCOD8147234 Si02
#       8
#     8   8   8   8   4   8   8   8
#     4  10  23  44  66  94 135 167 222 272 329 388
#     4  10  23  47  68  92 129 174 225 276 321 404
#     4  11  23  44  69  94 130 177 220 271 343 380
#     4  11  22  42  67  98 134 179 213 274 337 396
#     4  12  22  38  64  94 136 178 216 276 326 412
#     4  10  22  43  65 100 128 177 224 274 325 399
#     4  11  24  39  64  98 138 169 224 269 335 396
#     4  11  24  40  62  98 132 172 215 275 332 396
#
# _framework density 22.261315
#
# number of rings (size 3 to 8) (size 9 to 14) (size 15 to 20)
#    0.000    1.333    2.667    2.400    1.867    2.133 
#   12.000    0.000    0.000    0.000    0.000    0.000 
#    0.000    0.000    0.000    0.000    0.000    0.000 
#
# Total GULP energy -371832.118564 kJ/mol
# GULP energy per Si atom -12394.403952 kJ/mol
# Density = 2.221065 g / cm^3
# Si number density = 22.261315 Si / 1000 Ang^3
#
#
#
# Elastic Constant Matrix: (Units=GPa)
#
#
# Indices 1 2 3 4 5 6 
#
# 1 76.5324 31.1788 32.6168 0.0000 3.4635 0.0000
# 2 31.1788 119.7719 11.9430 0.0000 -9.8257 0.0000
# 3 32.6168 11.9430 57.9192 0.0000 6.8853 0.0000
# 4 0.0000 0.0000 0.0000 22.2276 0.0000 -4.4793
# 5 3.4635 -9.8257 6.8853 0.0000 36.3071 0.0000
# 6 0.0000 0.0000 0.0000 -4.4793 0.0000 33.8821
#
#
#
# Elastic Compliance Matrix: (Units=1/GPa)
#
#
# Indices 1 2 3 4 5 6 
#
# 1 0.018883 -0.004038 -0.009675 0.000000 -0.001059 0.000000
# 2 -0.004038 0.009655 -0.000075 0.000000 0.003012 0.000000
# 3 -0.009675 -0.000075 0.023144 0.000000 -0.003486 0.000000
# 4 0.000000 0.000000 0.000000 0.046221 0.000000 0.006110
# 5 -0.001059 0.003012 -0.003486 0.000000 0.029120 0.000000
# 6 0.000000 0.000000 0.000000 0.006110 0.000000 0.030322
#
#
# Mechanical properties :
#
#
# Convention : Reuss Voigt Hill
#
# Bulk Modulus (GPa) = 41.48434 45.07786 43.28110
# Shear Modulus (GPa) = 25.91280 30.38236 28.14758
#
# Velocity S-wave (km/s) = 3.41549 3.69834 3.55972
# Velocity P-wave (km/s) = 5.85061 6.20728 6.03158
#
# Compressibility (1/GPa) = 0.02410548
#
# Stress axis : x y z
#
# Youngs Moduli (GPa) = 52.95890 103.57450 43.20805
#
# Poissons Ratio (x) = 0.41820 0.41804
# Poissons Ratio (y) = 0.21383 0.00325
# Poissons Ratio (z) = 0.51238 0.00779
#
# Static dielectric constant tensor:
#      x y z
#    x 3.813700 0.000000 0.034790 
#    y 0.000000 3.962680 0.000000 
#    z 0.034790 0.000000 3.844550 
# 
# 
# High freq. dielectric constant tensor:
#      x y z
#    x 1.862680 0.000000 0.013250 
#    y 0.000000 1.907780 0.000000 
#    z 0.013250 0.000000 1.866760 
# 
# From -- ./inp_files/122653.got.cif
#   From: 2010.06.25/outbox.cif.g09.slc.cpg/sg15_62_cif.got.tgz:122653.got - 2010.06.28 07:06:18.
