data_PCOD8147193
_publ_section_title
;
Structure prediction by ZEFSAII (Michael W. Deem and Ramdas Pophale) SiO2 
 PCOD8147193
Probable space group: C 2/C
;
_chemical_formula_sum "Si O2"
_cell_formula_units_Z 48
_cell_length_a 8.819213
_cell_length_b 15.984690
_cell_length_c 18.056995
_cell_angle_alpha 90.000000
_cell_angle_beta 92.976025
_cell_angle_gamma 90.000000
_cell_volume 2542.104619
_symmetry_space_group_name_H-M "C 2/C"
_symmetry_group_IT_number 15
_symmetry_cell_setting 'monoclinic'
loop_
_space_group_symop_operation_xyz
x,y,z
-x,y,1/2-z
-x,-y,-z
x,-y,1/2+z
1/2+x,1/2+y,z
1/2-x,1/2+y,1/2-z
1/2-x,1/2-y,-z
1/2+x,1/2-y,1/2+z
loop_
_atom_site_type_symbol
_atom_site_label
_atom_site_fract_x
_atom_site_fract_y
_atom_site_fract_z
Si Si1 0.082823 0.335999 0.329271
Si Si2 0.062880 0.146000 0.670818
Si Si3 0.088662 0.009853 0.926195
Si Si4 0.581888 0.920468 0.036706
Si Si5 0.033051 0.728988 0.048033
Si Si6 0.370052 0.323709 0.583150
O O1 0.256714 0.361932 0.325806
O O2 0.078256 0.237704 0.349479
O O3 0.000000 0.352392 0.250000
O O4 0.005853 0.391520 0.391407
O O5 0.996343 0.226312 0.624642
O O6 0.000000 0.159396 0.750000
O O7 0.007877 0.059326 0.635955
O O8 0.246513 0.057386 0.940893
O O9 0.109072 0.918536 0.890601
O O10 0.000000 0.000000 0.000000
O O11 0.584562 0.844414 0.976816
O O12 0.500000 0.000000 0.000000
O O13 0.196514 0.685936 0.054523
O O14 0.029282 0.802756 0.986702
#
# Coordination Sequence:
#
# PCOD8147193 Si02
#       6
#     8   8   8   8   8   8
#     4  10  22  43  63  83 116 166 206 240 300 372
#     4  11  23  39  61  87 126 155 196 254 309 349
#     4  12  22  37  60  97 123 152 196 259 305 347
#     4  11  21  37  66  90 117 160 206 242 295 365
#     4   9  18  38  60  85 115 158 200 236 288 361
#     4   9  18  36  64  84 115 155 197 242 294 351
#
# _framework density 18.881993000000001
#
# number of rings (size 3 to 8) (size 9 to 14) (size 15 to 20)
#    0.000    1.667    3.333    3.000    0.000    1.333 
#    3.000    0.833    3.667    0.000    0.000    0.000 
#    0.000    0.000    0.000    0.000    0.000    0.000 
#
# Total GULP energy -297583.915697 kJ/mol
# GULP energy per Si atom -12399.329821 kJ/mol
# Density = 1.883902 g / cm^3
# Si number density = 18.881993 Si / 1000 Ang^3
#
#
#
# Elastic Constant Matrix: (Units=GPa)
#
#
# Indices 1 2 3 4 5 6 
#
# 1 111.9100 64.3018 60.2720 0.0000 -2.9198 0.0000
# 2 64.3018 162.8622 74.2825 0.0000 8.2825 0.0000
# 3 60.2720 74.2825 140.4675 0.0000 0.3911 0.0000
# 4 0.0000 0.0000 0.0000 29.9133 0.0000 6.2699
# 5 -2.9198 8.2825 0.3911 0.0000 32.5265 0.0000
# 6 0.0000 0.0000 0.0000 6.2699 0.0000 27.2904
#
#
#
# Elastic Compliance Matrix: (Units=1/GPa)
#
#
# Indices 1 2 3 4 5 6 
#
# 1 0.013039 -0.003560 -0.003718 0.000000 0.002122 0.000000
# 2 -0.003560 0.009197 -0.003329 0.000000 -0.002622 0.000000
# 3 -0.003718 -0.003329 0.010474 0.000000 0.000388 0.000000
# 4 0.000000 0.000000 0.000000 0.035121 0.000000 -0.008069
# 5 0.002122 -0.002622 0.000388 0.000000 0.031597 0.000000
# 6 0.000000 0.000000 0.000000 -0.008069 0.000000 0.038497
#
#
# Mechanical properties :
#
#
# Convention : Reuss Voigt Hill
#
# Bulk Modulus (GPa) = 86.98653 90.32806 88.65730
# Shear Modulus (GPa) = 30.68005 32.37161 31.52583
#
# Velocity S-wave (km/s) = 4.03529 4.14504 4.09054
# Velocity P-wave (km/s) = 8.23893 8.41728 8.32858
#
# Compressibility (1/GPa) = 0.01149603
#
# Stress axis : x y z
#
# Youngs Moduli (GPa) = 76.69158 108.72520 95.47674
#
# Poissons Ratio (x) = 0.38709 0.35499
# Poissons Ratio (y) = 0.27304 0.31783
# Poissons Ratio (z) = 0.28514 0.36194
#
# Static dielectric constant tensor:
#      x y z
#    x 3.510220 0.000000 0.024080 
#    y 0.000000 2.890410 0.000000 
#    z 0.024080 0.000000 3.408800 
# 
# 
# High freq. dielectric constant tensor:
#      x y z
#    x 1.734400 0.000000 0.005350 
#    y 0.000000 1.745670 0.000000 
#    z 0.005350 0.000000 1.724420 
# 
# From -- ./inp_files/189239.got.cif
#   From: 2010.06.25/outbox.cif.g09.slc.cpg/sg15_95_cif.got.tgz:189239.got - 2010.06.28 07:06:18.
