data_PCOD8147396
_publ_section_title
;
Structure prediction by ZEFSAII (Michael W. Deem and Ramdas Pophale) SiO2 
 PCOD8147396
Probable space group: C 2/C
;
_chemical_formula_sum "Si O2"
_cell_formula_units_Z 56
_cell_length_a 13.730846
_cell_length_b 14.052162
_cell_length_c 21.913757
_cell_angle_alpha 90.000000
_cell_angle_beta 35.951037
_cell_angle_gamma 90.000000
_cell_volume 2482.359578
_symmetry_space_group_name_H-M "C 2/C"
_symmetry_group_IT_number 15
_symmetry_cell_setting 'monoclinic'
loop_
_space_group_symop_operation_xyz
x,y,z
-x,y,1/2-z
-x,-y,-z
x,-y,1/2+z
1/2+x,1/2+y,z
1/2-x,1/2+y,1/2-z
1/2-x,1/2-y,-z
1/2+x,1/2-y,1/2+z
loop_
_atom_site_type_symbol
_atom_site_label
_atom_site_fract_x
_atom_site_fract_y
_atom_site_fract_z
Si Si1 0.999302 0.817908 0.120582
Si Si2 0.456548 0.489674 0.705154
Si Si3 0.098322 0.464894 0.390858
Si Si4 0.299281 0.812314 0.894835
Si Si5 0.362092 0.659887 0.458729
Si Si6 0.193220 0.743851 0.830271
Si Si7 0.404322 0.975999 0.361382
O O1 0.102987 0.771333 0.122526
O O2 0.994612 0.930279 0.135832
O O3 0.812268 0.773895 0.210663
O O4 0.100375 0.801010 0.007438
O O5 0.500000 0.527708 0.750000
O O6 0.259138 0.466884 0.800867
O O7 0.574101 0.398300 0.632868
O O8 0.153264 0.358209 0.379979
O O9 0.000000 0.500000 0.500000
O O10 0.000863 0.457545 0.375976
O O11 0.315479 0.801554 0.813999
O O12 0.360707 0.914045 0.885514
O O13 0.250000 0.750000 0.500000
O O14 0.530394 0.695121 0.403821
O O15 0.259104 0.590742 0.555795
O O16 0.500000 0.949679 0.250000
#
# Coordination Sequence:
#
# PCOD8147396 Si02
#       7
#     8   8   8   8   8   8   8
#     4  10  22  43  70 108 135 178 236 309 373 426
#     4  11  24  44  75 101 143 190 250 307 366 443
#     4  11  26  47  76 106 144 192 254 305 376 449
#     4  11  24  42  76 104 150 178 241 309 385 430
#     4  12  27  49  65 102 153 196 252 300 372 452
#     4  11  25  44  69 101 143 189 248 304 359 458
#     4  12  27  48  74 110 153 198 247 316 384 452
#
# _framework density 22.559182
#
# number of rings (size 3 to 8) (size 9 to 14) (size 15 to 20)
#    0.000    0.857    2.857    3.857    8.000    3.429 
#    0.000    0.000    0.000    0.000    0.000    0.000 
#    0.000    0.000    0.000    0.000    0.000    0.000 
#
# Total GULP energy -347002.628758 kJ/mol
# GULP energy per Si atom -12392.951027 kJ/mol
# Density = 2.250784 g / cm^3
# Si number density = 22.559182 Si / 1000 Ang^3
#
#
#
# Elastic Constant Matrix: (Units=GPa)
#
#
# Indices 1 2 3 4 5 6 
#
# 1 64.6045 8.7575 15.9905 0.0000 3.9825 0.0000
# 2 8.7575 93.3119 36.1030 -0.0003 -7.3427 0.0001
# 3 15.9905 36.1030 170.8577 -0.0005 -0.3729 0.0004
# 4 0.0000 -0.0003 -0.0005 43.8280 0.0002 -9.1573
# 5 3.9825 -7.3427 -0.3729 0.0002 33.5821 -0.0001
# 6 0.0000 0.0001 0.0004 -9.1573 -0.0001 30.1693
#
#
#
# Elastic Compliance Matrix: (Units=1/GPa)
#
#
# Indices 1 2 3 4 5 6 
#
# 1 0.016087 -0.001195 -0.001258 0.000000 -0.002183 0.000000
# 2 -0.001195 0.011978 -0.002413 0.000000 0.002734 0.000000
# 3 -0.001258 -0.002413 0.006480 0.000000 -0.000307 0.000000
# 4 0.000000 0.000000 0.000000 0.024361 0.000000 0.007394
# 5 -0.002183 0.002734 -0.000307 0.000000 0.030631 0.000000
# 6 0.000000 0.000000 0.000000 0.007394 0.000000 0.035391
#
#
# Mechanical properties :
#
#
# Convention : Reuss Voigt Hill
#
# Bulk Modulus (GPa) = 40.30240 50.05291 45.17766
# Shear Modulus (GPa) = 34.98223 39.37743 37.17983
#
# Velocity S-wave (km/s) = 3.94215 4.18247 4.06409
# Velocity P-wave (km/s) = 6.21488 6.74979 6.48785
#
# Compressibility (1/GPa) = 0.02481242
#
# Stress axis : x y z
#
# Youngs Moduli (GPa) = 62.16335 83.48867 154.32621
#
# Poissons Ratio (x) = 0.09976 0.19411
# Poissons Ratio (y) = 0.07428 0.37241
# Poissons Ratio (z) = 0.07819 0.20147
#
# Static dielectric constant tensor:
#      x y z
#    x 2.348140 0.000000 1.338120 
#    y 0.000000 4.125420 0.000000 
#    z 1.338120 0.000000 2.998390 
# 
# 
# High freq. dielectric constant tensor:
#      x y z
#    x 1.862410 0.000000 -0.013900 
#    y 0.000000 1.896420 0.000000 
#    z -0.013900 0.000000 1.921950 
# 
# From -- ./inp_files/274463.got.cif
#   From: 2010.06.25/outbox.cif.g09.slc.cpg/sg15_138_cif.got.tgz:274463.got - 2010.06.28 07:06:18.
