data_PCOD8147033
_publ_section_title
;
Structure prediction by ZEFSAII (Michael W. Deem and Ramdas Pophale) SiO2 
 PCOD8147033
Probable space group: C 2/C
;
_chemical_formula_sum "Si O2"
_cell_formula_units_Z 32
_cell_length_a 10.122186
_cell_length_b 14.718858
_cell_length_c 19.373859
_cell_angle_alpha 90.000000
_cell_angle_beta 151.517944
_cell_angle_gamma 90.000000
_cell_volume 1376.502062
_symmetry_space_group_name_H-M "C 2/C"
_symmetry_group_IT_number 15
_symmetry_cell_setting 'monoclinic'
loop_
_space_group_symop_operation_xyz
x,y,z
-x,y,1/2-z
-x,-y,-z
x,-y,1/2+z
1/2+x,1/2+y,z
1/2-x,1/2+y,1/2-z
1/2-x,1/2-y,-z
1/2+x,1/2-y,1/2+z
loop_
_atom_site_type_symbol
_atom_site_label
_atom_site_fract_x
_atom_site_fract_y
_atom_site_fract_z
Si Si1 0.044884 0.906401 0.612076
Si Si2 0.703481 0.083404 0.081466
Si Si3 0.213030 0.094676 0.649546
Si Si4 0.060562 0.278950 0.625757
O O1 0.304793 0.845414 0.755657
O O2 0.765254 0.891389 0.529533
O O3 0.999362 0.885344 0.510835
O O4 0.111691 0.013565 0.652182
O O5 0.570221 0.171845 0.055876
O O6 0.000000 0.058222 0.250000
O O7 0.500000 0.000000 0.000000
O O8 0.500000 0.062109 0.750000
O O9 0.241868 0.186878 0.706616
O O10 0.750000 0.250000 0.500000
#
# Coordination Sequence:
#
# PCOD8147033 Si02
#       4
#     8   8   8   8
#     4  10  25  45  70 103 144 182 242 293 356 436
#     4  10  22  42  69 103 145 185 232 297 362 427
#     4  11  25  43  73  99 140 190 233 297 360 427
#     4  11  25  45  69 103 144 186 240 293 360 432
#
# _framework density 23.247333000000001
#
# number of rings (size 3 to 8) (size 9 to 14) (size 15 to 20)
#    0.000    1.500    0.000    3.750   14.000    4.000 
#    4.500    0.000    0.000    0.000    0.000    0.000 
#    0.000    0.000    0.000    0.000    0.000    0.000 
#
# Total GULP energy -198404.205573 kJ/mol
# GULP energy per Si atom -12400.262848 kJ/mol
# Density = 2.319442 g / cm^3
# Si number density = 23.247333 Si / 1000 Ang^3
#
#
#
# Elastic Constant Matrix: (Units=GPa)
#
#
# Indices 1 2 3 4 5 6 
#
# 1 118.8163 57.7911 49.5126 -0.0012 19.1944 0.0004
# 2 57.7911 178.8271 59.4717 -0.0075 -1.1669 -0.0012
# 3 49.5126 59.4717 83.9424 -0.0083 17.8988 -0.0010
# 4 -0.0012 -0.0075 -0.0083 46.9116 -0.0038 9.5792
# 5 19.1944 -1.1669 17.8988 -0.0038 41.9528 -0.0010
# 6 0.0004 -0.0012 -0.0010 9.5792 -0.0010 50.5250
#
#
#
# Elastic Compliance Matrix: (Units=1/GPa)
#
#
# Indices 1 2 3 4 5 6 
#
# 1 0.012109 -0.002377 -0.004689 -0.000001 -0.003606 0.000000
# 2 -0.002377 0.008062 -0.005048 0.000001 0.003466 0.000000
# 3 -0.004689 -0.005048 0.019612 0.000002 -0.006362 0.000000
# 4 -0.000001 0.000001 0.000002 0.022175 0.000002 -0.004204
# 5 -0.003606 0.003466 -0.006362 0.000002 0.028297 0.000000
# 6 0.000000 0.000000 0.000000 -0.004204 0.000000 0.020589
#
#
# Mechanical properties :
#
#
# Convention : Reuss Voigt Hill
#
# Bulk Modulus (GPa) = 64.29601 79.45964 71.87782
# Shear Modulus (GPa) = 35.64824 42.19857 38.92340
#
# Velocity S-wave (km/s) = 3.92016 4.26514 4.09628
# Velocity P-wave (km/s) = 6.94317 7.64915 7.30469
#
# Compressibility (1/GPa) = 0.01555307
#
# Stress axis : x y z
#
# Youngs Moduli (GPa) = 82.58107 124.04162 50.98847
#
# Poissons Ratio (x) = 0.29489 0.23911
# Poissons Ratio (y) = 0.19632 0.25741
# Poissons Ratio (z) = 0.38726 0.62621
#
# Static dielectric constant tensor:
#      x y z
#    x 4.569140 -0.000010 -0.082800 
#    y -0.000010 4.323830 -0.000010 
#    z -0.082800 -0.000010 3.989470 
# 
# 
# High freq. dielectric constant tensor:
#      x y z
#    x 1.927740 0.000000 0.006150 
#    y 0.000000 1.931740 0.000000 
#    z 0.006150 0.000000 1.907900 
# 
# From -- ./inp_files/47359.got.cif
#   From: 2010.06.25/outbox.cif.g09.slc.cpg/sg15_24_cif.got.tgz:47359.got - 2010.06.28 07:06:18.
