data_PCOD8147258
_publ_section_title
;
Structure prediction by ZEFSAII (Michael W. Deem and Ramdas Pophale) SiO2 
 PCOD8147258
Probable space group: C 2/C
;
_chemical_formula_sum "Si O2"
_cell_formula_units_Z 64
_cell_length_a 17.568416
_cell_length_b 15.442956
_cell_length_c 15.576322
_cell_angle_alpha 90.000000
_cell_angle_beta 131.634458
_cell_angle_gamma 90.000000
_cell_volume 3158.495596
_symmetry_space_group_name_H-M "C 2/C"
_symmetry_group_IT_number 15
_symmetry_cell_setting 'monoclinic'
loop_
_space_group_symop_operation_xyz
x,y,z
-x,y,1/2-z
-x,-y,-z
x,-y,1/2+z
1/2+x,1/2+y,z
1/2-x,1/2+y,1/2-z
1/2-x,1/2-y,-z
1/2+x,1/2-y,1/2+z
loop_
_atom_site_type_symbol
_atom_site_label
_atom_site_fract_x
_atom_site_fract_y
_atom_site_fract_z
Si Si1 0.497549 0.254418 0.511333
Si Si2 0.462782 0.079012 0.026629
Si Si3 0.610828 0.528393 0.794510
Si Si4 0.194825 0.693755 0.030146
Si Si5 0.691342 0.005874 0.970712
Si Si6 0.916403 0.782858 0.260859
Si Si7 0.339472 0.894678 0.716094
Si Si8 0.665484 0.378345 0.717681
O O1 0.554326 0.161658 0.547514
O O2 0.400073 0.246046 0.501081
O O3 0.465168 0.283444 0.392166
O O4 0.576426 0.322388 0.609082
O O5 0.549368 0.100336 0.159984
O O6 0.357950 0.055201 0.993931
O O7 0.500000 0.000000 0.000000
O O8 0.500000 0.524569 0.750000
O O9 0.640900 0.625696 0.790200
O O10 0.615041 0.465108 0.716447
O O11 0.687525 0.497090 0.926110
O O12 0.276398 0.675867 0.165986
O O13 0.250000 0.750000 0.000000
O O14 0.154146 0.604906 0.955457
O O15 0.663370 0.968568 0.857534
O O16 0.833555 0.706140 0.182000
O O17 0.000000 0.772531 0.250000
O O18 0.247190 0.912535 0.710624
#
# Coordination Sequence:
#
# PCOD8147258 Si02
#       8
#     8   8   8   8   8   8   8   8
#     4  11  24  41  70  97 135 179 218 284 339 394
#     4  11  20  42  67  94 137 161 217 283 333 398
#     4  10  25  44  63  92 134 175 227 270 328 408
#     4  11  25  47  65  99 138 172 231 278 330 415
#     4  11  24  41  70  97 127 181 214 283 346 385
#     4  10  22  43  65  95 133 172 223 276 332 404
#     4  11  23  42  65 100 133 162 226 275 332 406
#     4  11  25  44  66  96 135 180 223 274 342 398
#
# _framework density 20.262812
#
# number of rings (size 3 to 8) (size 9 to 14) (size 15 to 20)
#    0.000    1.250    3.750    2.625    8.750    3.000 
#    2.250    0.000    0.000    0.000    0.000    0.000 
#    0.000    0.000    0.000    0.000    0.000    0.000 
#
# Total GULP energy -396782.460220 kJ/mol
# GULP energy per Si atom -12399.451882 kJ/mol
# Density = 2.021669 g / cm^3
# Si number density = 20.262812 Si / 1000 Ang^3
#
#
#
# Elastic Constant Matrix: (Units=GPa)
#
#
# Indices 1 2 3 4 5 6 
#
# 1 123.9662 35.3870 30.5753 0.0000 -10.6083 0.0000
# 2 35.3870 103.2156 31.7859 0.0000 -10.8863 0.0000
# 3 30.5753 31.7859 75.9005 0.0000 -6.7927 0.0000
# 4 0.0000 0.0000 0.0000 34.5607 0.0000 -6.8462
# 5 -10.6083 -10.8863 -6.7927 0.0000 33.2080 0.0000
# 6 0.0000 0.0000 0.0000 -6.8462 0.0000 31.2313
#
#
#
# Elastic Compliance Matrix: (Units=1/GPa)
#
#
# Indices 1 2 3 4 5 6 
#
# 1 0.009533 -0.002238 -0.002746 0.000000 0.001750 0.000000
# 2 -0.002238 0.011899 -0.003867 0.000000 0.002395 0.000000
# 3 -0.002746 -0.003867 0.016002 0.000000 0.001128 0.000000
# 4 0.000000 0.000000 0.000000 0.030248 0.000000 0.006631
# 5 0.001750 0.002395 0.001128 0.000000 0.031688 0.000000
# 6 0.000000 0.000000 0.000000 0.006631 0.000000 0.033473
#
#
# Mechanical properties :
#
#
# Convention : Reuss Voigt Hill
#
# Bulk Modulus (GPa) = 50.68230 55.39764 53.03997
# Shear Modulus (GPa) = 31.82224 33.48895 32.65559
#
# Velocity S-wave (km/s) = 3.96722 4.06979 4.01883
# Velocity P-wave (km/s) = 6.78615 7.03443 6.91141
#
# Compressibility (1/GPa) = 0.01973075
#
# Stress axis : x y z
#
# Youngs Moduli (GPa) = 104.90290 84.03862 62.49221
#
# Poissons Ratio (x) = 0.18807 0.17162
# Poissons Ratio (y) = 0.23477 0.24168
# Poissons Ratio (z) = 0.28809 0.32501
#
# Static dielectric constant tensor:
#      x y z
#    x 4.000560 0.000000 -0.399310 
#    y 0.000000 4.172100 0.000000 
#    z -0.399310 0.000000 3.962250 
# 
# 
# High freq. dielectric constant tensor:
#      x y z
#    x 1.804880 0.000000 -0.004530 
#    y 0.000000 1.807780 0.000000 
#    z -0.004530 0.000000 1.778160 
# 
# From -- ./inp_files/162575.got.cif
#   From: 2010.06.25/outbox.cif.g09.slc.cpg/sg15_82_cif.got.tgz:162575.got - 2010.06.28 07:06:18.
