data_PCOD8147409
_publ_section_title
;
Structure prediction by ZEFSAII (Michael W. Deem and Ramdas Pophale) SiO2 
 PCOD8147409
Probable space group: C 2/C
;
_chemical_formula_sum "Si O2"
_cell_formula_units_Z 56
_cell_length_a 9.623860
_cell_length_b 30.654362
_cell_length_c 11.294004
_cell_angle_alpha 90.000000
_cell_angle_beta 125.618424
_cell_angle_gamma 90.000000
_cell_volume 2708.531361
_symmetry_space_group_name_H-M "C 2/C"
_symmetry_group_IT_number 15
_symmetry_cell_setting 'monoclinic'
loop_
_space_group_symop_operation_xyz
x,y,z
-x,y,1/2-z
-x,-y,-z
x,-y,1/2+z
1/2+x,1/2+y,z
1/2-x,1/2+y,1/2-z
1/2-x,1/2-y,-z
1/2+x,1/2-y,1/2+z
loop_
_atom_site_type_symbol
_atom_site_label
_atom_site_fract_x
_atom_site_fract_y
_atom_site_fract_z
Si Si1 0.294350 0.180600 0.864463
Si Si2 0.678485 0.915825 0.180560
Si Si3 0.006645 0.915314 0.005234
Si Si4 0.446302 0.321548 0.047268
Si Si5 0.954025 0.245696 0.095270
Si Si6 0.000000 0.050550 0.250000
Si Si7 0.209298 0.978117 0.465235
Si Si8 0.000000 0.478293 0.250000
O O1 0.375210 0.132424 0.887935
O O2 0.222934 0.191565 0.961043
O O3 0.452106 0.211185 0.907176
O O4 0.125928 0.185942 0.701705
O O5 0.754724 0.937801 0.102383
O O6 0.528258 0.947304 0.149966
O O7 0.797525 0.911876 0.356427
O O8 0.973284 0.917936 0.848417
O O9 0.910668 0.872159 0.001694
O O10 0.946429 0.960596 0.033421
O O11 0.465569 0.293943 0.938357
O O12 0.000000 0.234900 0.250000
O O13 0.750000 0.250000 0.000000
O O14 0.838508 0.019840 0.138294
O O15 0.352316 0.989394 0.632953
#
# Coordination Sequence:
#
# PCOD8147409 Si02
#       8
#     8   8   8   8   8   4   8   4
#     4  10  22  43  73  98 130 179 223 266 330 408
#     4  11  22  41  66  96 127 173 226 268 324 390
#     4  11  22  40  67  96 124 174 226 270 323 389
#     4  10  22  43  71 100 134 171 222 274 331 400
#     4  12  25  45  70 104 137 167 213 273 334 403
#     4  12  22  36  66  93 132 169 226 274 322 382
#     4  12  22  43  63  92 129 179 223 269 326 384
#     4  12  26  36  60  97 142 169 214 282 332 372
#
# _framework density 20.675412999999999
#
# number of rings (size 3 to 8) (size 9 to 14) (size 15 to 20)
#    0.000    0.857    5.714    2.143    2.000    0.000 
#    0.000    1.429    0.000    0.000    0.000    0.000 
#    0.000    0.000    0.000    0.000    0.000    0.000 
#
# Total GULP energy -346944.849210 kJ/mol
# GULP energy per Si atom -12390.887472 kJ/mol
# Density = 2.062835 g / cm^3
# Si number density = 20.675413 Si / 1000 Ang^3
#
#
#
# Elastic Constant Matrix: (Units=GPa)
#
#
# Indices 1 2 3 4 5 6 
#
# 1 102.1119 50.0175 48.9786 0.0000 -17.9152 0.0000
# 2 50.0175 105.2149 42.1453 0.0000 -4.5116 0.0000
# 3 48.9786 42.1453 84.9162 0.0000 -8.4407 0.0000
# 4 0.0000 0.0000 0.0000 29.1058 0.0000 4.9777
# 5 -17.9152 -4.5116 -8.4407 0.0000 35.2520 0.0000
# 6 0.0000 0.0000 0.0000 4.9777 0.0000 -52.2542
#
#
#
# Elastic Compliance Matrix: (Units=1/GPa)
#
#
# Indices 1 2 3 4 5 6 
#
# 1 0.016353 -0.004964 -0.006357 0.000000 0.006153 0.000000
# 2 -0.004964 0.013370 -0.003947 0.000000 -0.001757 0.000000
# 3 -0.006357 -0.003947 0.017446 0.000000 0.000441 0.000000
# 4 0.000000 0.000000 0.000000 0.033807 0.000000 0.003220
# 5 0.006153 -0.001757 0.000441 0.000000 0.031375 0.000000
# 6 0.000000 0.000000 0.000000 0.003220 0.000000 -0.018830
#
#
# Mechanical properties :
#
#
# Convention : Reuss Voigt Hill
#
# Bulk Modulus (GPa) = 60.12199 63.83618 61.97908
# Shear Modulus (GPa) = 38.57978 12.49418 25.53698
#
# Velocity S-wave (km/s) = 4.32438 2.46092 3.51827
# Velocity P-wave (km/s) = 7.35362 6.24638 6.82250
#
# Compressibility (1/GPa) = 0.01663285
#
# Stress axis : x y z
#
# Youngs Moduli (GPa) = 61.14899 74.79495 57.31977
#
# Poissons Ratio (x) = 0.37127 0.36439
# Poissons Ratio (y) = 0.30354 0.22625
# Poissons Ratio (z) = 0.38874 0.29523
#
# Static dielectric constant tensor:
#      x y z
#    x 5.257670 0.000000 -1.041320 
#    y 0.000000 3.830090 0.000000 
#    z -1.041320 0.000000 4.113440 
# 
# 
# High freq. dielectric constant tensor:
#      x y z
#    x 1.810770 0.000000 -0.019510 
#    y 0.000000 1.816750 0.000000 
#    z -0.019510 0.000000 1.801060 
# 
# From -- ./inp_files/82717.got.cif
#   From: 2010.06.25/outbox.cif.g09.slc.cpg/sg15_42_cif.got.tgz:82717.got - 2010.06.28 07:06:18.
