data_PCOD8147160
_publ_section_title
;
Structure prediction by ZEFSAII (Michael W. Deem and Ramdas Pophale) SiO2 
 PCOD8147160
Probable space group: C 2/C
;
_chemical_formula_sum "Si O2"
_cell_formula_units_Z 28
_cell_length_a 20.890618
_cell_length_b 5.062791
_cell_length_c 9.222083
_cell_angle_alpha 90.000000
_cell_angle_beta 93.125527
_cell_angle_gamma 90.000000
_cell_volume 973.921179
_symmetry_space_group_name_H-M "C 2/C"
_symmetry_group_IT_number 15
_symmetry_cell_setting 'monoclinic'
loop_
_space_group_symop_operation_xyz
x,y,z
-x,y,1/2-z
-x,-y,-z
x,-y,1/2+z
1/2+x,1/2+y,z
1/2-x,1/2+y,1/2-z
1/2-x,1/2-y,-z
1/2+x,1/2-y,1/2+z
loop_
_atom_site_type_symbol
_atom_site_label
_atom_site_fract_x
_atom_site_fract_y
_atom_site_fract_z
Si Si1 0.583865 0.203852 0.518480
Si Si2 0.000000 0.564232 0.250000
Si Si3 0.171623 0.939873 0.175325
Si Si4 0.686628 0.941096 0.363525
O O1 0.542853 0.240973 0.365114
O O2 0.613030 0.492591 0.559156
O O3 0.643477 0.995475 0.501508
O O4 0.542999 0.118134 0.652101
O O5 0.237702 0.964802 0.090541
O O6 0.171458 0.151391 0.304377
O O7 0.163838 0.652906 0.241946
#
# Coordination Sequence:
#
# PCOD8147160 Si02
#       4
#     8   4   8   8
#     4  11  21  46  71 103 143 188 242 287 349 418
#     4  10  24  42  78  98 146 194 238 288 346 418
#     4  10  22  42  73 107 141 181 230 295 356 415
#     4  10  22  42  73 107 141 181 230 295 356 415
#
# _framework density 28.749756999999999
#
# number of rings (size 3 to 8) (size 9 to 14) (size 15 to 20)
#    0.000    1.714    2.857    0.857    0.000    2.286 
#    0.000   12.857    0.000    0.000    0.000    0.000 
#    0.000    0.000    0.000    0.000    0.000    0.000 
#
# Total GULP energy -173577.383494 kJ/mol
# GULP energy per Si atom -12398.384535 kJ/mol
# Density = 2.868432 g / cm^3
# Si number density = 28.749757 Si / 1000 Ang^3
#
#
#
# Elastic Constant Matrix: (Units=GPa)
#
#
# Indices 1 2 3 4 5 6 
#
# 1 145.7688 -16.8070 80.6346 0.0000 -10.1437 0.0000
# 2 -16.8070 40.1902 46.3949 0.0000 -6.7296 0.0000
# 3 80.6346 46.3949 197.4053 0.0000 -2.9265 0.0000
# 4 0.0000 0.0000 0.0000 8.2403 0.0000 -10.6902
# 5 -10.1437 -6.7296 -2.9265 0.0000 72.6847 0.0000
# 6 0.0000 0.0000 0.0000 -10.6902 0.0000 8.8178
#
#
#
# Elastic Compliance Matrix: (Units=1/GPa)
#
#
# Indices 1 2 3 4 5 6 
#
# 1 0.015281 0.019379 -0.010745 0.000000 0.003494 0.000000
# 2 0.019379 0.059318 -0.021748 0.000000 0.007321 0.000000
# 3 -0.010745 -0.021748 0.014523 0.000000 -0.002928 0.000000
# 4 0.000000 0.000000 0.000000 -0.211874 0.000000 -0.256863
# 5 0.003494 0.007321 -0.002928 0.000000 0.014806 0.000000
# 6 0.000000 0.000000 0.000000 -0.256863 0.000000 -0.197997
#
#
# Mechanical properties :
#
#
# Convention : Reuss Voigt Hill
#
# Bulk Modulus (GPa) = 15.89980 67.08989 41.49485
# Shear Modulus (GPa) = -19.32353 36.15802 8.41725
#
# Velocity S-wave (km/s) = -2.59536 3.55023 1.71293
# Velocity P-wave (km/s) = 1.85439 6.33971 4.28679
#
# Compressibility (1/GPa) = 0.06289386
#
# Stress axis : x y z
#
# Youngs Moduli (GPa) = 65.43893 16.85837 68.85800
#
# Poissons Ratio (x) = -0.32670 0.73987
# Poissons Ratio (y) = -1.26816 1.49755
# Poissons Ratio (z) = 0.70313 0.36664
#
# Static dielectric constant tensor:
#      x y z
#    x 6.279220 0.000000 -0.201750 
#    y 0.000000 5.029420 0.000000 
#    z -0.201750 0.000000 5.364830 
# 
# 
# High freq. dielectric constant tensor:
#      x y z
#    x 2.182630 0.000000 -0.008080 
#    y 0.000000 2.153900 0.000000 
#    z -0.008080 0.000000 2.191320 
# 
# From -- ./inp_files/67927.got.cif
#   From: 2010.06.25/outbox.cif.g09.slc.cpg/sg15_34_cif.got.tgz:67927.got - 2010.06.28 07:06:18.
