data_PCOD8147282
_publ_section_title
;
Structure prediction by ZEFSAII (Michael W. Deem and Ramdas Pophale) SiO2 
 PCOD8147282
Probable space group: C 2/C
;
_chemical_formula_sum "Si O2"
_cell_formula_units_Z 56
_cell_length_a 18.134162
_cell_length_b 12.639923
_cell_length_c 13.764829
_cell_angle_alpha 90.000000
_cell_angle_beta 120.751790
_cell_angle_gamma 90.000000
_cell_volume 2711.460343
_symmetry_space_group_name_H-M "C 2/C"
_symmetry_group_IT_number 15
_symmetry_cell_setting 'monoclinic'
loop_
_space_group_symop_operation_xyz
x,y,z
-x,y,1/2-z
-x,-y,-z
x,-y,1/2+z
1/2+x,1/2+y,z
1/2-x,1/2+y,1/2-z
1/2-x,1/2-y,-z
1/2+x,1/2-y,1/2+z
loop_
_atom_site_type_symbol
_atom_site_label
_atom_site_fract_x
_atom_site_fract_y
_atom_site_fract_z
Si Si1 0.331762 0.509810 0.696367
Si Si2 0.184906 0.228201 0.369186
Si Si3 0.740190 0.894394 0.957419
Si Si4 0.000000 0.887097 0.250000
Si Si5 0.000000 0.311801 0.250000
Si Si6 0.444192 0.911865 0.411596
Si Si7 0.274923 0.067299 0.708285
Si Si8 0.110246 0.252641 0.963315
O O1 0.304917 0.389089 0.663791
O O2 0.276446 0.583302 0.588513
O O3 0.431329 0.531991 0.747797
O O4 0.312771 0.544749 0.794071
O O5 0.250000 0.250000 0.500000
O O6 0.084822 0.242852 0.330168
O O7 0.212354 0.308454 0.302788
O O8 0.649321 0.835418 0.910918
O O9 0.723878 0.003567 0.891300
O O10 0.810384 0.822144 0.948058
O O11 0.963339 0.814609 0.139095
O O12 0.014035 0.382138 0.163548
O O13 0.352998 0.968279 0.330417
O O14 0.432806 0.809159 0.472948
O O15 0.500000 0.000000 0.500000
#
# Coordination Sequence:
#
# PCOD8147282 Si02
#       8
#     8   8   8   4   4   8   8   8
#     4  11  23  45  67  99 134 170 231 269 334 412
#     4  11  24  44  70  96 138 182 221 281 344 395
#     4  10  22  43  66  94 132 171 225 281 311 408
#     4  10  25  43  70  96 132 182 211 287 336 382
#     4  10  27  43  60 100 136 170 227 279 334 398
#     4  11  26  41  64  97 134 174 223 281 333 403
#     4  11  25  40  71  96 128 181 220 273 344 395
#     4  10  23  43  66  96 132 172 223 271 335 385
#
# _framework density 20.653077
#
# number of rings (size 3 to 8) (size 9 to 14) (size 15 to 20)
#    0.000    1.429    2.857    0.429   12.000    1.143 
#    0.000    1.429    0.000    0.000    0.000    0.000 
#    0.000    0.000    0.000    0.000    0.000    0.000 
#
# Total GULP energy -347205.412622 kJ/mol
# GULP energy per Si atom -12400.193308 kJ/mol
# Density = 2.060607 g / cm^3
# Si number density = 20.653077 Si / 1000 Ang^3
#
#
#
# Elastic Constant Matrix: (Units=GPa)
#
#
# Indices 1 2 3 4 5 6 
#
# 1 121.6185 56.3901 46.1326 0.0000 -7.1539 0.0000
# 2 56.3901 124.3619 32.3200 0.0000 -6.5092 0.0000
# 3 46.1326 32.3200 92.0949 0.0000 3.7747 0.0000
# 4 0.0000 0.0000 0.0000 32.6916 0.0000 -1.5538
# 5 -7.1539 -6.5092 3.7747 0.0000 35.6001 0.0000
# 6 0.0000 0.0000 0.0000 -1.5538 0.0000 29.2270
#
#
#
# Elastic Compliance Matrix: (Units=1/GPa)
#
#
# Indices 1 2 3 4 5 6 
#
# 1 0.012035 -0.004131 -0.004667 0.000000 0.002158 0.000000
# 2 -0.004131 0.010404 -0.001633 0.000000 0.001245 0.000000
# 3 -0.004667 -0.001633 0.013880 0.000000 -0.002708 0.000000
# 4 0.000000 0.000000 0.000000 0.030666 0.000000 0.001630
# 5 0.002158 0.001245 -0.002708 0.000000 0.029038 0.000000
# 6 0.000000 0.000000 0.000000 0.001630 0.000000 0.034302
#
#
# Mechanical properties :
#
#
# Convention : Reuss Voigt Hill
#
# Bulk Modulus (GPa) = 64.69681 67.52896 66.11288
# Shear Modulus (GPa) = 31.98140 33.05259 32.51699
#
# Velocity S-wave (km/s) = 3.93937 4.00480 3.97222
# Velocity P-wave (km/s) = 7.21700 7.35883 7.28826
#
# Compressibility (1/GPa) = 0.01545671
#
# Stress axis : x y z
#
# Youngs Moduli (GPa) = 83.08856 96.11853 72.04426
#
# Poissons Ratio (x) = 0.39710 0.33626
# Poissons Ratio (y) = 0.34326 0.11763
# Poissons Ratio (z) = 0.38781 0.15693
#
# Static dielectric constant tensor:
#      x y z
#    x 3.841160 0.000000 0.155530 
#    y 0.000000 3.745910 0.000000 
#    z 0.155530 0.000000 3.826900 
# 
# 
# High freq. dielectric constant tensor:
#      x y z
#    x 1.812940 0.000000 0.004060 
#    y 0.000000 1.813860 0.000000 
#    z 0.004060 0.000000 1.806840 
# 
# From -- ./inp_files/161462.got.cif
#   From: 2010.06.25/outbox.cif.g09.slc.cpg/sg15_81_cif.got.tgz:161462.got - 2010.06.28 07:06:18.
