data_PCOD8147052
_publ_section_title
;
Structure prediction by ZEFSAII (Michael W. Deem and Ramdas Pophale) SiO2 
 PCOD8147052
Probable space group: C 2/C
;
_chemical_formula_sum "Si O2"
_cell_formula_units_Z 48
_cell_length_a 9.104119
_cell_length_b 15.736118
_cell_length_c 17.083214
_cell_angle_alpha 90.000000
_cell_angle_beta 65.748487
_cell_angle_gamma 90.000000
_cell_volume 2231.420677
_symmetry_space_group_name_H-M "C 2/C"
_symmetry_group_IT_number 15
_symmetry_cell_setting 'monoclinic'
loop_
_space_group_symop_operation_xyz
x,y,z
-x,y,1/2-z
-x,-y,-z
x,-y,1/2+z
1/2+x,1/2+y,z
1/2-x,1/2+y,1/2-z
1/2-x,1/2-y,-z
1/2+x,1/2-y,1/2+z
loop_
_atom_site_type_symbol
_atom_site_label
_atom_site_fract_x
_atom_site_fract_y
_atom_site_fract_z
Si Si1 0.491547 0.768968 0.916490
Si Si2 0.519687 0.465221 0.580815
Si Si3 0.681984 0.694809 0.399804
Si Si4 0.434950 0.154097 0.679916
Si Si5 0.109022 0.419209 0.996793
Si Si6 0.393852 0.379804 0.202641
O O1 0.373599 0.808505 0.875489
O O2 0.580601 0.845255 0.940418
O O3 0.618938 0.701861 0.852606
O O4 0.396298 0.711944 0.999260
O O5 0.500000 0.500000 0.500000
O O6 0.388729 0.391170 0.621777
O O7 0.703002 0.436450 0.551313
O O8 0.484509 0.538724 0.649618
O O9 0.642499 0.765826 0.345534
O O10 0.500000 0.182279 0.750000
O O11 0.566731 0.109483 0.595093
O O12 0.284370 0.091409 0.730626
O O13 0.000000 0.500000 0.000000
O O14 0.500000 0.345505 0.250000
#
# Coordination Sequence:
#
# PCOD8147052 Si02
#       6
#     8   8   8   8   8   8
#     4  10  22  43  72  93 133 181 233 271 343 420
#     4  12  24  42  73 102 138 179 237 281 343 418
#     4  10  22  42  69  98 129 182 229 274 337 430
#     4  11  25  42  66 101 145 174 225 293 358 396
#     4  11  25  45  71 103 136 188 238 282 336 425
#     4  12  24  45  68 100 137 185 224 295 351 402
#
# _framework density 21.510959
#
# number of rings (size 3 to 8) (size 9 to 14) (size 15 to 20)
#    0.000    1.000    3.333    3.000    4.667    2.000 
#    3.000    0.833    0.000    0.000    0.000    0.000 
#    0.000    0.000    0.000    0.000    0.000    0.000 
#
# Total GULP energy -297524.846743 kJ/mol
# GULP energy per Si atom -12396.868614 kJ/mol
# Density = 2.146200 g / cm^3
# Si number density = 21.510959 Si / 1000 Ang^3
#
#
#
# Elastic Constant Matrix: (Units=GPa)
#
#
# Indices 1 2 3 4 5 6 
#
# 1 108.3427 42.6480 44.2062 0.0000 -5.0782 0.0000
# 2 42.6480 124.4863 49.9425 0.0000 -4.5376 0.0000
# 3 44.2062 49.9425 108.6033 0.0000 1.2875 0.0000
# 4 0.0000 0.0000 0.0000 12.4972 0.0000 -10.4424
# 5 -5.0782 -4.5376 1.2875 0.0000 41.9868 0.0000
# 6 0.0000 0.0000 0.0000 -10.4424 0.0000 35.1053
#
#
#
# Elastic Compliance Matrix: (Units=1/GPa)
#
#
# Indices 1 2 3 4 5 6 
#
# 1 0.011770 -0.002524 -0.003645 0.000000 0.001263 0.000000
# 2 -0.002524 0.010453 -0.003791 0.000000 0.000941 0.000000
# 3 -0.003645 -0.003791 0.012449 0.000000 -0.001232 0.000000
# 4 0.000000 0.000000 0.000000 0.106484 0.000000 0.031675
# 5 0.001263 0.000941 -0.001232 0.000000 0.024109 0.000000
# 6 0.000000 0.000000 0.000000 0.031675 0.000000 0.037908
#
#
# Mechanical properties :
#
#
# Convention : Reuss Voigt Hill
#
# Bulk Modulus (GPa) = 67.78460 68.33619 68.06039
# Shear Modulus (GPa) = 21.92888 31.56024 26.74456
#
# Velocity S-wave (km/s) = 3.19631 3.83452 3.52987
# Velocity P-wave (km/s) = 6.72324 7.17229 6.95139
#
# Compressibility (1/GPa) = 0.01475261
#
# Stress axis : x y z
#
# Youngs Moduli (GPa) = 84.96201 95.66895 80.32539
#
# Poissons Ratio (x) = 0.24145 0.29280
# Poissons Ratio (y) = 0.21443 0.30448
# Poissons Ratio (z) = 0.30971 0.36265
#
# Static dielectric constant tensor:
#      x y z
#    x 3.943650 0.000000 0.041970 
#    y 0.000000 3.659280 0.000000 
#    z 0.041970 0.000000 4.074390 
# 
# 
# High freq. dielectric constant tensor:
#      x y z
#    x 1.858330 0.000000 0.005030 
#    y 0.000000 1.840050 0.000000 
#    z 0.005030 0.000000 1.850040 
# 
# From -- ./inp_files/190222.got.cif
#   From: 2010.06.25/outbox.cif.g09.slc.cpg/sg15_96_cif.got.tgz:190222.got - 2010.06.28 07:06:18.
