data_PCOD8147744
_publ_section_title
;
Structure prediction by ZEFSAII (Michael W. Deem and Ramdas Pophale) SiO2 
 PCOD8147744
Probable space group: C 2/C
;
_chemical_formula_sum "Si O2"
_cell_formula_units_Z 36
_cell_length_a 12.631041
_cell_length_b 8.116189
_cell_length_c 16.085557
_cell_angle_alpha 90.000000
_cell_angle_beta 84.215126
_cell_angle_gamma 90.000000
_cell_volume 1640.627705
_symmetry_space_group_name_H-M "C 2/C"
_symmetry_group_IT_number 15
_symmetry_cell_setting 'monoclinic'
loop_
_space_group_symop_operation_xyz
x,y,z
-x,y,1/2-z
-x,-y,-z
x,-y,1/2+z
1/2+x,1/2+y,z
1/2-x,1/2+y,1/2-z
1/2-x,1/2-y,-z
1/2+x,1/2-y,1/2+z
loop_
_atom_site_type_symbol
_atom_site_label
_atom_site_fract_x
_atom_site_fract_y
_atom_site_fract_z
Si Si1 0.727982 0.118677 0.141999
Si Si2 0.000000 0.880258 0.750000
Si Si3 0.562513 0.551883 0.913323
Si Si4 0.999726 0.586692 0.412741
Si Si5 0.149519 0.613969 0.786579
O O1 0.621905 0.130673 0.097011
O O2 0.764962 0.306437 0.156733
O O3 0.819311 0.021015 0.085171
O O4 0.708713 0.023792 0.229628
O O5 0.895267 0.765005 0.765441
O O6 0.993779 0.989170 0.666941
O O7 0.570373 0.748854 0.908424
O O8 0.500000 0.500000 0.000000
O O9 0.000000 0.500000 0.500000
O O10 0.048131 0.463240 0.341470
#
# Coordination Sequence:
#
# PCOD8147744 Si02
#       5
#     8   4   8   8   8
#     4  11  25  44  71 103 135 189 229 289 361 409
#     4  10  22  44  72  98 144 180 230 298 348 410
#     4  11  27  46  69 105 142 184 239 292 348 424
#     4  12  26  46  71 103 144 183 233 297 349 422
#     4  11  23  43  72 103 138 181 241 285 346 430
#
# _framework density 21.942820000000001
#
# number of rings (size 3 to 8) (size 9 to 14) (size 15 to 20)
#    0.000    0.889    2.222    4.000    9.333    4.444 
#    0.000    0.000    0.000    0.000    0.000    0.000 
#    0.000    0.000    0.000    0.000    0.000    0.000 
#
# Total GULP energy -223262.157286 kJ/mol
# GULP energy per Si atom -12403.453183 kJ/mol
# Density = 2.189288 g / cm^3
# Si number density = 21.942820 Si / 1000 Ang^3
#
#
#
# Elastic Constant Matrix: (Units=GPa)
#
#
# Indices 1 2 3 4 5 6 
#
# 1 96.0204 3.1530 18.0631 0.0000 -5.8152 0.0000
# 2 3.1530 87.9548 19.6049 0.0000 2.8943 0.0000
# 3 18.0631 19.6049 117.7720 0.0000 -11.7277 0.0000
# 4 0.0000 0.0000 0.0000 35.4666 0.0000 3.1249
# 5 -5.8152 2.8943 -11.7277 0.0000 36.5502 0.0000
# 6 0.0000 0.0000 0.0000 3.1249 0.0000 27.9647
#
#
#
# Elastic Compliance Matrix: (Units=1/GPa)
#
#
# Indices 1 2 3 4 5 6 
#
# 1 0.010777 -0.000089 -0.001515 0.000000 0.001236 0.000000
# 2 -0.000089 0.011902 -0.002131 0.000000 -0.001640 0.000000
# 3 -0.001515 -0.002131 0.009370 0.000000 0.002934 0.000000
# 4 0.000000 0.000000 0.000000 0.028476 0.000000 -0.003182
# 5 0.001236 -0.001640 0.002934 0.000000 0.028628 0.000000
# 6 0.000000 0.000000 0.000000 -0.003182 0.000000 0.036115
#
#
# Mechanical properties :
#
#
# Convention : Reuss Voigt Hill
#
# Bulk Modulus (GPa) = 40.68564 42.59883 41.64223
# Shear Modulus (GPa) = 35.47841 37.39140 36.43491
#
# Velocity S-wave (km/s) = 4.02538 4.13248 4.07928
# Velocity P-wave (km/s) = 6.33931 6.49812 6.41920
#
# Compressibility (1/GPa) = 0.02457870
#
# Stress axis : x y z
#
# Youngs Moduli (GPa) = 92.78832 84.02223 106.72070
#
# Poissons Ratio (x) = 0.00750 0.16169
# Poissons Ratio (y) = 0.00829 0.22741
# Poissons Ratio (z) = 0.14058 0.17904
#
# Static dielectric constant tensor:
#      x y z
#    x 3.415010 0.000000 0.219850 
#    y 0.000000 4.263600 0.000000 
#    z 0.219850 0.000000 3.729960 
# 
# 
# High freq. dielectric constant tensor:
#      x y z
#    x 1.872150 0.000000 -0.003740 
#    y 0.000000 1.879840 0.000000 
#    z -0.003740 0.000000 1.857030 
# 
# From -- ./inp_files/194887.got.cif
#   From: 2010.06.25/outbox.cif.g09.slc.cpg/sg15_98_cif.got.tgz:194887.got - 2010.06.28 07:06:18.
