data_PCOD8147674
_publ_section_title
;
Structure prediction by ZEFSAII (Michael W. Deem and Ramdas Pophale) SiO2 
 PCOD8147674
Probable space group: C 2/C
;
_chemical_formula_sum "Si O2"
_cell_formula_units_Z 56
_cell_length_a 13.634481
_cell_length_b 13.953574
_cell_length_c 12.310761
_cell_angle_alpha 90.000000
_cell_angle_beta 90.860252
_cell_angle_gamma 90.000000
_cell_volume 2341.855091
_symmetry_space_group_name_H-M "C 2/C"
_symmetry_group_IT_number 15
_symmetry_cell_setting 'monoclinic'
loop_
_space_group_symop_operation_xyz
x,y,z
-x,y,1/2-z
-x,-y,-z
x,-y,1/2+z
1/2+x,1/2+y,z
1/2-x,1/2+y,1/2-z
1/2-x,1/2-y,-z
1/2+x,1/2-y,1/2+z
loop_
_atom_site_type_symbol
_atom_site_label
_atom_site_fract_x
_atom_site_fract_y
_atom_site_fract_z
Si Si1 0.023872 0.105094 0.133851
Si Si2 0.859414 0.940761 0.475240
Si Si3 0.937918 0.318581 0.353076
Si Si4 0.254940 0.036251 0.857322
Si Si5 0.617711 0.666878 0.739658
Si Si6 0.505382 0.097224 0.436833
Si Si7 0.149802 0.377655 0.755027
O O1 0.000000 0.056657 0.250000
O O2 0.081765 0.205075 0.159151
O O3 0.922495 0.116646 0.066304
O O4 0.091780 0.037363 0.065645
O O5 0.844205 0.867716 0.376598
O O6 0.758152 0.977992 0.529572
O O7 0.842742 0.386606 0.360997
O O8 0.996593 0.322831 0.468584
O O9 0.000000 0.356102 0.250000
O O10 0.153264 0.092416 0.831819
O O11 0.264658 0.955662 0.761991
O O12 0.500000 0.683020 0.750000
O O13 0.677434 0.765680 0.758407
O O14 0.417896 0.108497 0.351801
O O15 0.605115 0.098665 0.370633
O O16 0.500000 0.000000 0.500000
#
# Coordination Sequence:
#
# PCOD8147674 Si02
#       7
#     8   8   8   8   8   8   8
#     4  10  22  44  69  99 138 186 237 295 361 432
#     4  11  24  42  69  99 142 190 238 292 363 425
#     4  11  25  44  73 108 146 186 239 304 373 432
#     4  12  28  43  70 114 142 187 244 303 365 430
#     4  12  26  49  75 100 147 198 249 296 356 455
#     4  11  21  43  76 100 143 186 234 296 361 435
#     4  11  26  46  74 108 141 198 243 293 371 437
#
# _framework density 23.912666999999999
#
# number of rings (size 3 to 8) (size 9 to 14) (size 15 to 20)
#    0.000    0.857    2.857    4.714    4.000    5.714 
#    0.000    0.000    0.000    0.000    0.000    0.000 
#    0.000    0.000    0.000    0.000    0.000    0.000 
#
# Total GULP energy -347036.959460 kJ/mol
# GULP energy per Si atom -12394.177124 kJ/mol
# Density = 2.385824 g / cm^3
# Si number density = 23.912667 Si / 1000 Ang^3
#
#
#
# Elastic Constant Matrix: (Units=GPa)
#
#
# Indices 1 2 3 4 5 6 
#
# 1 63.8075 44.5252 19.7748 0.0000 -21.6393 0.0000
# 2 44.5252 143.6074 39.1565 0.0000 -18.8904 0.0000
# 3 19.7748 39.1565 154.8538 0.0000 -26.0912 0.0000
# 4 0.0000 0.0000 0.0000 44.6081 0.0000 2.7588
# 5 -21.6393 -18.8904 -26.0912 0.0000 36.0473 0.0000
# 6 0.0000 0.0000 0.0000 2.7588 0.0000 25.0476
#
#
#
# Elastic Compliance Matrix: (Units=1/GPa)
#
#
# Indices 1 2 3 4 5 6 
#
# 1 0.023505 -0.005909 0.000397 0.000000 0.011301 0.000000
# 2 -0.005909 0.009242 -0.001553 0.000000 0.000171 0.000000
# 3 0.000397 -0.001553 0.007634 0.000000 0.004949 0.000000
# 4 0.000000 0.000000 0.000000 0.022571 0.000000 -0.002486
# 5 0.011301 0.000171 0.004949 0.000000 0.038197 0.000000
# 6 0.000000 0.000000 0.000000 -0.002486 0.000000 0.040198
#
#
# Mechanical properties :
#
#
# Convention : Reuss Voigt Hill
#
# Bulk Modulus (GPa) = 38.09751 63.24242 50.66997
# Shear Modulus (GPa) = 30.44537 38.39476 34.42007
#
# Velocity S-wave (km/s) = 3.57205 4.01137 3.79807
# Velocity P-wave (km/s) = 5.74276 6.92528 6.36155
#
# Compressibility (1/GPa) = 0.02624843
#
# Stress axis : x y z
#
# Youngs Moduli (GPa) = 42.54377 108.20503 130.99708
#
# Poissons Ratio (x) = 0.63943 -0.05196
# Poissons Ratio (y) = 0.25141 0.20349
# Poissons Ratio (z) = -0.01688 0.16808
#
# Static dielectric constant tensor:
#      x y z
#    x 4.075640 0.000000 -0.013100 
#    y 0.000000 4.834100 0.000000 
#    z -0.013100 0.000000 3.914870 
# 
# 
# High freq. dielectric constant tensor:
#      x y z
#    x 1.918790 0.000000 -0.008320 
#    y 0.000000 1.964790 0.000000 
#    z -0.008320 0.000000 1.970140 
# 
# From -- ./inp_files/97046.got.cif
#   From: 2010.06.25/outbox.cif.g09.slc.cpg/sg15_49_cif.got.tgz:97046.got - 2010.06.28 07:06:18.
