data_PCOD8147219
_publ_section_title
;
Structure prediction by ZEFSAII (Michael W. Deem and Ramdas Pophale) SiO2 
 PCOD8147219
Probable space group: C 2/C
;
_chemical_formula_sum "Si O2"
_cell_formula_units_Z 48
_cell_length_a 17.459139
_cell_length_b 12.413894
_cell_length_c 12.803358
_cell_angle_alpha 90.000000
_cell_angle_beta 53.849642
_cell_angle_gamma 90.000000
_cell_volume 2240.691493
_symmetry_space_group_name_H-M "C 2/C"
_symmetry_group_IT_number 15
_symmetry_cell_setting 'monoclinic'
loop_
_space_group_symop_operation_xyz
x,y,z
-x,y,1/2-z
-x,-y,-z
x,-y,1/2+z
1/2+x,1/2+y,z
1/2-x,1/2+y,1/2-z
1/2-x,1/2-y,-z
1/2+x,1/2-y,1/2+z
loop_
_atom_site_type_symbol
_atom_site_label
_atom_site_fract_x
_atom_site_fract_y
_atom_site_fract_z
Si Si1 0.340218 0.421115 0.851348
Si Si2 0.500000 0.404837 0.250000
Si Si3 0.100357 0.258678 0.333319
Si Si4 0.314839 0.059348 0.863539
Si Si5 0.954757 0.723308 0.121044
Si Si6 0.242964 0.627063 0.228771
Si Si7 0.500000 0.047068 0.250000
O O1 0.406046 0.520783 0.834053
O O2 0.406792 0.319397 0.763781
O O3 0.269260 0.445393 0.810429
O O4 0.268561 0.386354 0.001788
O O5 0.483570 0.331551 0.160630
O O6 0.152203 0.367979 0.259061
O O7 0.167020 0.203428 0.367739
O O8 0.000011 0.276797 0.468856
O O9 0.271889 0.947831 0.857573
O O10 0.410343 0.028806 0.849603
O O11 0.843884 0.710571 0.186142
O O12 0.987980 0.618386 0.156719
#
# Coordination Sequence:
#
# PCOD8147219 Si02
#       7
#     8   4   8   8   8   8   4
#     4  10  25  41  61  98 125 171 215 258 325 379
#     4  11  24  43  68  92 134 169 208 281 306 384
#     4  10  24  38  64  92 123 169 207 266 314 383
#     4  11  22  41  64  90 134 164 213 269 315 380
#     4  10  22  43  64  94 128 165 219 259 322 378
#     4   9  24  40  62  98 120 175 213 255 325 382
#     4   9  24  37  64  94 120 171 210 265 318 374
#
# _framework density 21.421958
#
# number of rings (size 3 to 8) (size 9 to 14) (size 15 to 20)
#    1.000    1.000    0.000    1.500    7.000    4.000 
#    0.000    5.000    0.000    0.000    0.000    0.000 
#    0.000    0.000    0.000    0.000    0.000    0.000 
#
# Total GULP energy -297313.861580 kJ/mol
# GULP energy per Si atom -12388.077566 kJ/mol
# Density = 2.137320 g / cm^3
# Si number density = 21.421958 Si / 1000 Ang^3
#
#
#
# Elastic Constant Matrix: (Units=GPa)
#
#
# Indices 1 2 3 4 5 6 
#
# 1 84.1101 19.4853 3.8916 0.0000 -13.8559 0.0000
# 2 19.4853 77.5343 22.6408 0.0000 -9.6349 0.0000
# 3 3.8916 22.6408 116.0202 0.0000 -7.0876 0.0000
# 4 0.0000 0.0000 0.0000 27.6170 0.0000 -5.1453
# 5 -13.8559 -9.6349 -7.0876 0.0000 18.1209 0.0000
# 6 0.0000 0.0000 0.0000 -5.1453 0.0000 31.2470
#
#
#
# Elastic Compliance Matrix: (Units=1/GPa)
#
#
# Indices 1 2 3 4 5 6 
#
# 1 0.014028 -0.002506 0.000607 0.000000 0.009631 0.000000
# 2 -0.002506 0.014885 -0.002514 0.000000 0.005015 0.000000
# 3 0.000607 -0.002514 0.009257 0.000000 0.002748 0.000000
# 4 0.000000 0.000000 0.000000 0.037356 0.000000 0.006151
# 5 0.009631 0.005015 0.002748 0.000000 0.066291 0.000000
# 6 0.000000 0.000000 0.000000 0.006151 0.000000 0.033016
#
#
# Mechanical properties :
#
#
# Convention : Reuss Voigt Hill
#
# Bulk Modulus (GPa) = 34.07884 41.07780 37.57832
# Shear Modulus (GPa) = 25.84782 30.84013 28.34398
#
# Velocity S-wave (km/s) = 3.47739 3.79839 3.64143
# Velocity P-wave (km/s) = 5.66267 6.20114 5.93802
#
# Compressibility (1/GPa) = 0.02934373
#
# Stress axis : x y z
#
# Youngs Moduli (GPa) = 71.28471 67.18351 108.02227
#
# Poissons Ratio (x) = 0.16835 -0.06555
# Poissons Ratio (y) = 0.17863 0.27160
# Poissons Ratio (z) = -0.04326 0.16892
#
# Static dielectric constant tensor:
#      x y z
#    x 3.833610 0.000000 -0.197900 
#    y 0.000000 3.799260 0.000000 
#    z -0.197900 0.000000 3.598610 
# 
# 
# High freq. dielectric constant tensor:
#      x y z
#    x 1.840610 0.000000 -0.015210 
#    y 0.000000 1.838280 0.000000 
#    z -0.015210 0.000000 1.831650 
# 
# From -- ./inp_files/167860.got.cif
#   From: 2010.06.25/outbox.cif.g09.slc.cpg/sg15_84_cif.got.tgz:167860.got - 2010.06.28 07:06:18.
