data_PCOD8147552
_publ_section_title
;
Structure prediction by ZEFSAII (Michael W. Deem and Ramdas Pophale) SiO2 
 PCOD8147552
Probable space group: C 2/C
;
_chemical_formula_sum "Si O2"
_cell_formula_units_Z 60
_cell_length_a 17.469532
_cell_length_b 10.044752
_cell_length_c 15.780100
_cell_angle_alpha 90.000000
_cell_angle_beta 103.840787
_cell_angle_gamma 90.000000
_cell_volume 2688.645049
_symmetry_space_group_name_H-M "C 2/C"
_symmetry_group_IT_number 15
_symmetry_cell_setting 'monoclinic'
loop_
_space_group_symop_operation_xyz
x,y,z
-x,y,1/2-z
-x,-y,-z
x,-y,1/2+z
1/2+x,1/2+y,z
1/2-x,1/2+y,1/2-z
1/2-x,1/2-y,-z
1/2+x,1/2-y,1/2+z
loop_
_atom_site_type_symbol
_atom_site_label
_atom_site_fract_x
_atom_site_fract_y
_atom_site_fract_z
Si Si1 0.760743 0.979299 0.075087
Si Si2 0.641819 0.873988 0.161933
Si Si3 0.149335 0.646913 0.939238
Si Si4 0.500000 0.486890 0.750000
Si Si5 0.091642 0.439007 0.790975
Si Si6 0.911233 0.815244 0.111455
Si Si7 0.496304 0.844227 0.484714
Si Si8 0.843144 0.157839 0.209873
O O1 0.684535 0.894038 0.082543
O O2 0.831747 0.889133 0.055412
O O3 0.787137 0.032670 0.175947
O O4 0.731589 0.092896 0.001473
O O5 0.686869 0.757181 0.225369
O O6 0.636940 0.006874 0.219418
O O7 0.554906 0.821521 0.114082
O O8 0.110827 0.526730 0.877463
O O9 0.162576 0.771586 0.882834
O O10 0.087126 0.699400 0.993642
O O11 0.528251 0.575788 0.836459
O O12 0.570529 0.390803 0.739982
O O13 0.115008 0.286852 0.820462
O O14 0.000000 0.447504 0.750000
O O15 0.958925 0.738027 0.051906
O O16 0.500000 0.000000 0.500000
#
# Coordination Sequence:
#
# PCOD8147552 Si02
#       8
#     8   8   8   4   8   8   8   8
#     4  11  25  43  61  98 136 173 215 275 345 396
#     4  11  23  39  66  93 128 168 225 270 322 402
#     4  11  22  41  70  92 130 171 226 272 326 399
#     4  10  22  44  66  90 126 172 220 266 328 386
#     4  11  20  37  67  96 122 173 222 271 327 380
#     4  11  24  40  67  95 141 169 215 281 336 396
#     4  12  21  40  64 100 126 170 221 273 321 399
#     4  10  24  45  65  90 128 177 215 270 329 396
#
# _framework density 22.316072999999999
#
# number of rings (size 3 to 8) (size 9 to 14) (size 15 to 20)
#    0.000    1.067    4.667    1.200    3.733    2.133 
#    4.800    6.000    0.000    0.000    0.000    0.000 
#    0.000    0.000    0.000    0.000    0.000    0.000 
#
# Total GULP energy -371793.771009 kJ/mol
# GULP energy per Si atom -12393.125700 kJ/mol
# Density = 2.226528 g / cm^3
# Si number density = 22.316073 Si / 1000 Ang^3
#
#
#
# Elastic Constant Matrix: (Units=GPa)
#
#
# Indices 1 2 3 4 5 6 
#
# 1 94.5346 22.6939 33.6480 0.0000 10.7585 0.0000
# 2 22.6939 79.7966 29.8804 0.0000 3.0538 0.0000
# 3 33.6480 29.8804 83.7934 0.0000 2.9142 0.0000
# 4 0.0000 0.0000 0.0000 43.7448 0.0000 9.6660
# 5 10.7585 3.0538 2.9142 0.0000 36.4535 0.0000
# 6 0.0000 0.0000 0.0000 9.6660 0.0000 25.8007
#
#
#
# Elastic Compliance Matrix: (Units=1/GPa)
#
#
# Indices 1 2 3 4 5 6 
#
# 1 0.012987 -0.001912 -0.004418 0.000000 -0.003320 0.000000
# 2 -0.001912 0.014768 -0.004487 0.000000 -0.000314 0.000000
# 3 -0.004418 -0.004487 0.015292 0.000000 0.000457 0.000000
# 4 0.000000 0.000000 0.000000 0.024923 0.000000 -0.009337
# 5 -0.003320 -0.000314 0.000457 0.000000 0.028402 0.000000
# 6 0.000000 0.000000 0.000000 -0.009337 0.000000 0.042257
#
#
# Mechanical properties :
#
#
# Convention : Reuss Voigt Hill
#
# Bulk Modulus (GPa) = 46.70089 47.84101 47.27095
# Shear Modulus (GPa) = 29.86820 32.65995 31.26407
#
# Velocity S-wave (km/s) = 3.66241 3.82974 3.74701
# Velocity P-wave (km/s) = 6.23352 6.40628 6.32049
#
# Compressibility (1/GPa) = 0.02141287
#
# Stress axis : x y z
#
# Youngs Moduli (GPa) = 76.99741 67.71366 65.39174
#
# Poissons Ratio (x) = 0.12948 0.28889
# Poissons Ratio (y) = 0.14724 0.29344
# Poissons Ratio (z) = 0.34017 0.30386
#
# Static dielectric constant tensor:
#      x y z
#    x 4.764250 0.000000 0.422910 
#    y 0.000000 4.195850 0.000000 
#    z 0.422910 0.000000 4.067590 
# 
# 
# High freq. dielectric constant tensor:
#      x y z
#    x 1.872140 0.000000 0.022280 
#    y 0.000000 1.881930 0.000000 
#    z 0.022280 0.000000 1.876440 
# 
# From -- ./inp_files/160949.got.cif
#   From: 2010.06.25/outbox.cif.g09.slc.cpg/sg15_81_cif.got.tgz:160949.got - 2010.06.28 07:06:18.
