data_PCOD8147667
_publ_section_title
;
Structure prediction by ZEFSAII (Michael W. Deem and Ramdas Pophale) SiO2 
 PCOD8147667
Probable space group: C 2/C
;
_chemical_formula_sum "Si O2"
_cell_formula_units_Z 64
_cell_length_a 11.667243
_cell_length_b 24.810126
_cell_length_c 19.657839
_cell_angle_alpha 90.000000
_cell_angle_beta 150.074730
_cell_angle_gamma 90.000000
_cell_volume 2838.705913
_symmetry_space_group_name_H-M "C 2/C"
_symmetry_group_IT_number 15
_symmetry_cell_setting 'monoclinic'
loop_
_space_group_symop_operation_xyz
x,y,z
-x,y,1/2-z
-x,-y,-z
x,-y,1/2+z
1/2+x,1/2+y,z
1/2-x,1/2+y,1/2-z
1/2-x,1/2-y,-z
1/2+x,1/2-y,1/2+z
loop_
_atom_site_type_symbol
_atom_site_label
_atom_site_fract_x
_atom_site_fract_y
_atom_site_fract_z
Si Si1 0.142273 0.299656 0.729607
Si Si2 0.653153 0.884580 0.998200
Si Si3 0.041086 0.859790 0.513205
Si Si4 0.207207 0.540296 0.409273
Si Si5 0.921383 0.781939 0.638397
Si Si6 0.921135 0.819280 0.309997
Si Si7 0.183956 0.420239 0.403832
Si Si8 0.049504 0.632947 0.966632
O O1 0.237606 0.326608 0.847865
O O2 0.347436 0.295493 0.781729
O O3 0.022701 0.242102 0.682705
O O4 0.945483 0.337429 0.599618
O O5 0.634904 0.940430 0.947694
O O6 0.509306 0.895850 0.992233
O O7 0.914207 0.862399 0.144251
O O8 0.094558 0.919676 0.513369
O O9 0.928810 0.825220 0.395559
O O10 0.865208 0.871474 0.484903
O O11 0.301910 0.479371 0.464509
O O12 0.000000 0.542849 0.250000
O O13 0.750000 0.750000 0.500000
O O14 0.789369 0.835646 0.595404
O O15 0.000000 0.752021 0.750000
O O16 0.656762 0.826026 0.153496
O O17 0.000000 0.417103 0.250000
O O18 0.062379 0.411714 0.413993
#
# Coordination Sequence:
#
# PCOD8147667 Si02
#       8
#     8   8   8   8   8   8   8   8
#     4  12  24  40  67  99 131 183 229 277 339 412
#     4  11  25  46  63  95 143 175 232 274 344 411
#     4  11  23  42  69 101 137 172 233 287 344 412
#     4  10  22  44  69  98 131 178 228 293 348 406
#     4  12  26  42  67  98 140 184 230 290 342 411
#     4  11  26  42  65  96 139 190 221 280 332 419
#     4  11  23  42  72  99 131 177 234 294 353 407
#     4  12  24  43  67  97 138 178 225 281 346 407
#
# _framework density 22.545483000000001
#
# number of rings (size 3 to 8) (size 9 to 14) (size 15 to 20)
#    0.000    0.750    6.250    1.125    3.500    1.000 
#    4.500    0.000    0.000    1.500    0.000    0.000 
#    0.000    0.000    0.000    0.000    0.000    0.000 
#
# Total GULP energy -396765.118561 kJ/mol
# GULP energy per Si atom -12398.909955 kJ/mol
# Density = 2.249417 g / cm^3
# Si number density = 22.545483 Si / 1000 Ang^3
#
#
#
# Elastic Constant Matrix: (Units=GPa)
#
#
# Indices 1 2 3 4 5 6 
#
# 1 117.8224 17.6396 5.5217 0.0052 -23.5440 -0.0032
# 2 17.6396 102.8666 15.3794 0.0233 -14.1097 -0.0004
# 3 5.5217 15.3794 69.8563 0.1135 -16.2370 0.0101
# 4 0.0052 0.0233 0.1135 -19.0745 0.0259 1.6807
# 5 -23.5440 -14.1097 -16.2370 0.0259 39.6928 -0.0023
# 6 -0.0032 -0.0004 0.0101 1.6807 -0.0023 24.6386
#
#
#
# Elastic Compliance Matrix: (Units=1/GPa)
#
#
# Indices 1 2 3 4 5 6 
#
# 1 0.009749 -0.001001 0.000786 0.000014 0.005748 0.000001
# 2 -0.001001 0.010477 -0.001657 0.000006 0.002453 0.000001
# 3 0.000786 -0.001657 0.016122 0.000102 0.006472 -0.000013
# 4 0.000014 0.000006 0.000102 -0.052112 0.000086 0.003555
# 5 0.005748 0.002453 0.006472 0.000086 0.032122 -0.000005
# 6 0.000001 0.000001 -0.000013 0.003555 -0.000005 0.040344
#
#
# Mechanical properties :
#
#
# Convention : Reuss Voigt Hill
#
# Bulk Modulus (GPa) = 30.67165 40.84742 35.75954
# Shear Modulus (GPa) = 70.11115 25.85168 47.98142
#
# Velocity S-wave (km/s) = 5.58258 3.38989 4.61825
# Velocity P-wave (km/s) = 7.42882 5.78610 6.65832
#
# Compressibility (1/GPa) = 0.03260340
#
# Stress axis : x y z
#
# Youngs Moduli (GPa) = 102.57427 95.44560 62.02712
#
# Poissons Ratio (x) = 0.09552 -0.04874
# Poissons Ratio (y) = 0.10265 0.10281
# Poissons Ratio (z) = -0.08061 0.15819
#
# Static dielectric constant tensor:
#      x y z
#    x 4.322050 0.000030 -0.060400 
#    y 0.000030 4.064150 0.000020 
#    z -0.060400 0.000020 4.125270 
# 
# 
# High freq. dielectric constant tensor:
#      x y z
#    x 1.905100 0.000000 -0.002340 
#    y 0.000000 1.868510 -0.000010 
#    z -0.002340 -0.000010 1.893320 
# 
# From -- ./inp_files/241028.got.cif
#   From: 2010.06.25/outbox.cif.g09.slc.cpg/sg15_121_cif.got.tgz:241028.got - 2010.06.28 07:06:18.
