data_PCOD8147367
_publ_section_title
;
Structure prediction by ZEFSAII (Michael W. Deem and Ramdas Pophale) SiO2 
 PCOD8147367
Probable space group: C 2/C
;
_chemical_formula_sum "Si O2"
_cell_formula_units_Z 48
_cell_length_a 11.499539
_cell_length_b 11.244267
_cell_length_c 16.778756
_cell_angle_alpha 90.000000
_cell_angle_beta 104.091194
_cell_angle_gamma 90.000000
_cell_volume 2104.275155
_symmetry_space_group_name_H-M "C 2/C"
_symmetry_group_IT_number 15
_symmetry_cell_setting 'monoclinic'
loop_
_space_group_symop_operation_xyz
x,y,z
-x,y,1/2-z
-x,-y,-z
x,-y,1/2+z
1/2+x,1/2+y,z
1/2-x,1/2+y,1/2-z
1/2-x,1/2-y,-z
1/2+x,1/2-y,1/2+z
loop_
_atom_site_type_symbol
_atom_site_label
_atom_site_fract_x
_atom_site_fract_y
_atom_site_fract_z
Si Si1 0.820682 0.131481 0.917423
Si Si2 0.748717 0.077658 0.611732
Si Si3 0.635939 0.339296 0.893545
Si Si4 0.471724 0.271777 0.152879
Si Si5 0.467289 0.849946 0.331518
Si Si6 0.872800 0.466010 0.573570
O O1 0.732934 0.240757 0.886500
O O2 0.929685 0.147030 0.874711
O O3 0.748284 0.004953 0.896895
O O4 0.873636 0.134401 0.014855
O O5 0.842839 0.178929 0.606955
O O6 0.672620 0.125880 0.674661
O O7 0.660271 0.061697 0.522566
O O8 0.821695 0.957696 0.646054
O O9 0.505548 0.290238 0.842907
O O10 0.500000 0.280471 0.250000
O O11 0.459026 0.134771 0.124950
O O12 0.500000 0.901513 0.250000
O O13 0.544250 0.916755 0.412613
#
# Coordination Sequence:
#
# PCOD8147367 Si02
#       6
#     8   8   8   8   8   8
#     4   9  20  41  66  92 123 169 220 259 327 385
#     4  11  24  41  66  97 129 174 222 262 332 400
#     4   9  20  40  68  90 123 168 216 274 308 395
#     4  12  26  40  61  98 140 168 210 280 333 393
#     4  11  23  40  66  98 128 168 221 274 334 389
#     4  10  22  43  69  90 125 179 221 268 314 401
#
# _framework density 22.810704000000001
#
# number of rings (size 3 to 8) (size 9 to 14) (size 15 to 20)
#    0.000    1.667    0.000    4.500    4.667    4.667 
#    0.000    0.000    0.000    0.000    0.000    0.000 
#    0.000    0.000    0.000    0.000    0.000    0.000 
#
# Total GULP energy -297459.591405 kJ/mol
# GULP energy per Si atom -12394.149642 kJ/mol
# Density = 2.275879 g / cm^3
# Si number density = 22.810704 Si / 1000 Ang^3
#
#
#
# Elastic Constant Matrix: (Units=GPa)
#
#
# Indices 1 2 3 4 5 6 
#
# 1 139.0223 45.1344 30.9388 0.0000 -33.8732 0.0000
# 2 45.1344 69.9159 10.9062 0.0000 -0.7292 0.0000
# 3 30.9388 10.9062 63.1771 0.0000 -13.1910 0.0000
# 4 0.0000 0.0000 0.0000 75.9290 0.0000 30.5308
# 5 -33.8732 -0.7292 -13.1910 0.0000 33.5487 0.0000
# 6 0.0000 0.0000 0.0000 30.5308 0.0000 62.0314
#
#
#
# Elastic Compliance Matrix: (Units=1/GPa)
#
#
# Indices 1 2 3 4 5 6 
#
# 1 0.013419 -0.008130 -0.002588 0.000000 0.012354 0.000000
# 2 -0.008130 0.019641 -0.001127 0.000000 -0.008224 0.000000
# 3 -0.002588 -0.001127 0.018237 0.000000 0.004533 0.000000
# 4 0.000000 0.000000 0.000000 0.016420 0.000000 -0.008082
# 5 0.012354 -0.008224 0.004533 0.000000 0.043884 0.000000
# 6 0.000000 0.000000 0.000000 -0.008082 0.000000 0.020098
#
#
# Mechanical properties :
#
#
# Convention : Reuss Voigt Hill
#
# Bulk Modulus (GPa) = 36.22257 49.56379 42.89318
# Shear Modulus (GPa) = 30.37832 46.64420 38.51126
#
# Velocity S-wave (km/s) = 3.65328 4.52689 4.11335
# Velocity P-wave (km/s) = 5.80598 7.00708 6.43462
#
# Compressibility (1/GPa) = 0.02760710
#
# Stress axis : x y z
#
# Youngs Moduli (GPa) = 74.52342 50.91378 54.83370
#
# Poissons Ratio (x) = 0.41392 0.14193
# Poissons Ratio (y) = 0.60586 0.06177
# Poissons Ratio (z) = 0.19290 0.05736
#
# Static dielectric constant tensor:
#      x y z
#    x 4.247390 0.000000 0.045940 
#    y 0.000000 4.323260 0.000000 
#    z 0.045940 0.000000 3.819810 
# 
# 
# High freq. dielectric constant tensor:
#      x y z
#    x 1.903620 0.000000 0.003440 
#    y 0.000000 1.897800 0.000000 
#    z 0.003440 0.000000 1.884880 
# 
# From -- ./inp_files/196187.got.cif
#   From: 2010.06.25/outbox.cif.g09.slc.cpg/sg15_99_cif.got.tgz:196187.got - 2010.06.28 07:06:18.
