data_PCOD8147825
_publ_section_title
;
Structure prediction by ZEFSAII (Michael W. Deem and Ramdas Pophale) SiO2 
 PCOD8147825
Probable space group: C 2/C
;
_chemical_formula_sum "Si O2"
_cell_formula_units_Z 60
_cell_length_a 19.497254
_cell_length_b 8.905137
_cell_length_c 23.803777
_cell_angle_alpha 90.000000
_cell_angle_beta 39.482107
_cell_angle_gamma 90.000000
_cell_volume 2627.882074
_symmetry_space_group_name_H-M "C 2/C"
_symmetry_group_IT_number 15
_symmetry_cell_setting 'monoclinic'
loop_
_space_group_symop_operation_xyz
x,y,z
-x,y,1/2-z
-x,-y,-z
x,-y,1/2+z
1/2+x,1/2+y,z
1/2-x,1/2+y,1/2-z
1/2-x,1/2-y,-z
1/2+x,1/2-y,1/2+z
loop_
_atom_site_type_symbol
_atom_site_label
_atom_site_fract_x
_atom_site_fract_y
_atom_site_fract_z
Si Si1 0.777147 0.171970 0.663836
Si Si2 0.826156 0.811346 0.876505
Si Si3 0.500000 0.546986 0.750000
Si Si4 0.561876 0.906222 0.414329
Si Si5 0.516907 0.339297 0.015189
Si Si6 0.207454 0.614521 0.256466
Si Si7 0.482834 0.765005 0.863308
Si Si8 0.611151 0.086865 0.570297
O O1 0.715805 0.203348 0.645651
O O2 0.724065 0.260514 0.751547
O O3 0.898300 0.237083 0.585812
O O4 0.778908 0.989886 0.669848
O O5 0.895846 0.702072 0.872918
O O6 0.729509 0.896033 0.969183
O O7 0.898261 0.940136 0.802609
O O8 0.468353 0.648864 0.822588
O O9 0.598349 0.752771 0.423136
O O10 0.482725 0.865773 0.412860
O O11 0.500000 0.000000 0.500000
O O12 0.666022 0.993911 0.328446
O O13 0.553883 0.324269 0.056668
O O14 0.500000 0.500000 0.000000
O O15 0.108148 0.687830 0.285656
O O16 0.408125 0.912034 0.900341
#
# Coordination Sequence:
#
# PCOD8147825 Si02
#       8
#     8   8   4   8   8   8   8   8
#     4  11  24  43  62 101 127 167 219 261 337 384
#     4  11  26  42  69  95 127 174 227 273 317 403
#     4  12  30  42  64  96 140 168 224 276 324 398
#     4  11  18  43  66  91 123 171 210 266 317 379
#     4  11  24  40  70 100 129 162 220 273 322 387
#     4  10  24  39  67  91 131 165 206 273 325 390
#     4  10  25  47  63  96 133 174 214 265 339 391
#     4  10  22  45  69  90 128 175 222 262 328 395
#
# _framework density 22.832073999999999
#
# number of rings (size 3 to 8) (size 9 to 14) (size 15 to 20)
#    0.000    1.333    5.333    0.000   13.067    0.533 
#    2.400    0.000    0.000    0.000    0.000    0.000 
#    0.000    0.000    0.000    0.000    0.000    0.000 
#
# Total GULP energy -371837.843156 kJ/mol
# GULP energy per Si atom -12394.594772 kJ/mol
# Density = 2.278011 g / cm^3
# Si number density = 22.832074 Si / 1000 Ang^3
#
#
#
# Elastic Constant Matrix: (Units=GPa)
#
#
# Indices 1 2 3 4 5 6 
#
# 1 108.4342 39.4022 7.8810 0.0000 23.1934 0.0010
# 2 39.4022 137.9764 8.0633 0.0000 16.9537 0.0011
# 3 7.8810 8.0633 12.2343 0.0001 9.1925 -0.0002
# 4 0.0000 0.0000 0.0001 41.2229 0.0000 11.5775
# 5 23.1934 16.9537 9.1925 0.0000 29.5162 -0.0005
# 6 0.0010 0.0011 -0.0002 11.5775 -0.0005 37.5361
#
#
#
# Elastic Compliance Matrix: (Units=1/GPa)
#
#
# Indices 1 2 3 4 5 6 
#
# 1 0.011778 -0.002393 -0.000116 0.000000 -0.007844 0.000000
# 2 -0.002393 0.008335 -0.002307 0.000000 -0.002188 0.000000
# 3 -0.000116 -0.002307 0.107402 0.000000 -0.032033 0.000000
# 4 0.000000 0.000000 0.000000 0.026559 0.000000 -0.008192
# 5 -0.007844 -0.002188 -0.032033 0.000000 0.051277 0.000001
# 6 0.000000 0.000000 0.000000 -0.008192 0.000001 0.029168
#
#
# Mechanical properties :
#
#
# Convention : Reuss Voigt Hill
#
# Bulk Modulus (GPa) = 8.48305 41.03753 24.76029
# Shear Modulus (GPa) = 17.64014 35.20826 26.42420
#
# Velocity S-wave (km/s) = 2.78259 3.93116 3.40564
# Velocity P-wave (km/s) = 3.74796 6.21434 5.13153
#
# Compressibility (1/GPa) = 0.11788206
#
# Stress axis : x y z
#
# Youngs Moduli (GPa) = 84.90426 119.98048 9.31084
#
# Poissons Ratio (x) = 0.28709 0.00108
# Poissons Ratio (y) = 0.20316 0.02148
# Poissons Ratio (z) = 0.00984 0.27685
#
# Static dielectric constant tensor:
#      x y z
#    x 3.989230 0.000010 0.382950 
#    y 0.000010 3.479780 0.000010 
#    z 0.382950 0.000010 4.927120 
# 
# 
# High freq. dielectric constant tensor:
#      x y z
#    x 1.882140 0.000000 0.012260 
#    y 0.000000 1.924740 0.000000 
#    z 0.012260 0.000000 1.905380 
# 
# From -- ./inp_files/300504.got.cif
#   From: 2010.06.25/outbox.cif.g09.slc.cpg/sg15_151_cif.got.tgz:300504.got - 2010.06.28 07:06:18.
