data_PCOD8147545
_publ_section_title
;
Structure prediction by ZEFSAII (Michael W. Deem and Ramdas Pophale) SiO2 
 PCOD8147545
Probable space group: C 2/C
;
_chemical_formula_sum "Si O2"
_cell_formula_units_Z 40
_cell_length_a 22.907504
_cell_length_b 6.465393
_cell_length_c 25.232939
_cell_angle_alpha 90.000000
_cell_angle_beta 152.441102
_cell_angle_gamma 90.000000
_cell_volume 1729.030539
_symmetry_space_group_name_H-M "C 2/C"
_symmetry_group_IT_number 15
_symmetry_cell_setting 'monoclinic'
loop_
_space_group_symop_operation_xyz
x,y,z
-x,y,1/2-z
-x,-y,-z
x,-y,1/2+z
1/2+x,1/2+y,z
1/2-x,1/2+y,1/2-z
1/2-x,1/2-y,-z
1/2+x,1/2-y,1/2+z
loop_
_atom_site_type_symbol
_atom_site_label
_atom_site_fract_x
_atom_site_fract_y
_atom_site_fract_z
Si Si1 0.984006 0.977838 0.315164
Si Si2 0.135716 0.102189 0.104699
Si Si3 0.300284 0.577603 0.579695
Si Si4 0.354599 0.191171 0.780062
Si Si5 0.572559 0.118527 0.461532
O O1 0.894522 0.847866 0.202731
O O2 0.110836 0.065795 0.386619
O O3 0.020332 0.824265 0.391361
O O4 0.907410 0.174885 0.274093
O O5 0.185050 0.167808 0.202271
O O6 0.232984 0.931253 0.160538
O O7 0.136734 0.301979 0.067365
O O8 0.000000 0.000000 0.000000
O O9 0.250000 0.750000 0.500000
O O10 0.174760 0.491276 0.507860
O O11 0.461286 0.034963 0.886624
#
# Coordination Sequence:
#
# PCOD8147545 Si02
#       5
#     8   8   8   8   8
#     4  10  22  44  66 106 139 180 237 286 355 435
#     4  12  26  45  68 103 142 189 241 292 363 418
#     4   9  21  41  72  99 140 181 229 291 356 414
#     4  12  27  43  70 102 139 186 240 297 351 435
#     4  11  23  44  70  99 140 186 232 296 358 420
#
# _framework density 23.134350999999999
#
# number of rings (size 3 to 8) (size 9 to 14) (size 15 to 20)
#    0.000    1.200    2.000    3.000    5.600    0.800 
#    0.000   18.000    0.000    0.000    0.000    0.000 
#    0.000    0.000    0.000    0.000    0.000    0.000 
#
# Total GULP energy -247821.853448 kJ/mol
# GULP energy per Si atom -12391.092672 kJ/mol
# Density = 2.308170 g / cm^3
# Si number density = 23.134351 Si / 1000 Ang^3
#
#
#
# Elastic Constant Matrix: (Units=GPa)
#
#
# Indices 1 2 3 4 5 6 
#
# 1 138.2639 46.7573 49.6405 -0.0013 20.7440 0.0000
# 2 46.7573 71.2683 36.5274 -0.0018 14.8105 0.0013
# 3 49.6405 36.5274 111.7630 -0.0027 11.8313 -0.0005
# 4 -0.0013 -0.0018 -0.0027 42.8806 -0.0002 8.2665
# 5 20.7440 14.8105 11.8313 -0.0002 48.4448 0.0006
# 6 0.0000 0.0013 -0.0005 8.2665 0.0006 36.1572
#
#
#
# Elastic Compliance Matrix: (Units=1/GPa)
#
#
# Indices 1 2 3 4 5 6 
#
# 1 0.010168 -0.004823 -0.002705 0.000000 -0.002219 0.000000
# 2 -0.004823 0.019896 -0.004039 0.000001 -0.003031 -0.000001
# 3 -0.002705 -0.004039 0.011513 0.000000 -0.000419 0.000000
# 4 0.000000 0.000001 0.000000 0.024396 0.000000 -0.005578
# 5 -0.002219 -0.003031 -0.000419 0.000000 0.022621 0.000000
# 6 0.000000 -0.000001 0.000000 -0.005578 0.000000 0.028932
#
#
# Mechanical properties :
#
#
# Convention : Reuss Voigt Hill
#
# Bulk Modulus (GPa) = 54.22414 65.23843 59.73128
# Shear Modulus (GPa) = 34.05793 38.05451 36.05622
#
# Velocity S-wave (km/s) = 3.84106 4.06018 3.95214
# Velocity P-wave (km/s) = 6.56973 7.08810 6.83383
#
# Compressibility (1/GPa) = 0.01844197
#
# Stress axis : x y z
#
# Youngs Moduli (GPa) = 98.35119 50.26090 86.85542
#
# Poissons Ratio (x) = 0.24243 0.23492
# Poissons Ratio (y) = 0.47439 0.35085
# Poissons Ratio (z) = 0.26602 0.20303
#
# Static dielectric constant tensor:
#      x y z
#    x 4.787550 0.000000 0.278430 
#    y 0.000000 3.769150 0.000010 
#    z 0.278430 0.000010 4.370410 
# 
# 
# High freq. dielectric constant tensor:
#      x y z
#    x 1.944630 0.000000 0.011420 
#    y 0.000000 1.867550 0.000000 
#    z 0.011420 0.000000 1.930410 
# 
# From -- ./inp_files/301794.got.cif
#   From: 2010.06.25/outbox.cif.g09.slc.cpg/sg15_151_cif.got.tgz:301794.got - 2010.06.28 07:06:18.
