data_PCOD8147721
_publ_section_title
;
Structure prediction by ZEFSAII (Michael W. Deem and Ramdas Pophale) SiO2 
 PCOD8147721
Probable space group: C 2/C
;
_chemical_formula_sum "Si O2"
_cell_formula_units_Z 40
_cell_length_a 19.446335
_cell_length_b 6.952427
_cell_length_c 19.332719
_cell_angle_alpha 90.000000
_cell_angle_beta 41.905166
_cell_angle_gamma 90.000000
_cell_volume 1745.735177
_symmetry_space_group_name_H-M "C 2/C"
_symmetry_group_IT_number 15
_symmetry_cell_setting 'monoclinic'
loop_
_space_group_symop_operation_xyz
x,y,z
-x,y,1/2-z
-x,-y,-z
x,-y,1/2+z
1/2+x,1/2+y,z
1/2-x,1/2+y,1/2-z
1/2-x,1/2-y,-z
1/2+x,1/2-y,1/2+z
loop_
_atom_site_type_symbol
_atom_site_label
_atom_site_fract_x
_atom_site_fract_y
_atom_site_fract_z
Si Si1 0.117396 0.209785 0.034100
Si Si2 0.196633 0.726054 0.211100
Si Si3 0.572458 0.142458 0.760850
Si Si4 0.702942 0.536272 0.094963
Si Si5 0.379672 0.526470 0.606380
O O1 0.138191 0.030442 0.071638
O O2 0.996826 0.263207 0.126131
O O3 0.181237 0.397698 0.011376
O O4 0.158694 0.160034 0.927537
O O5 0.125853 0.541879 0.253476
O O6 0.310308 0.668410 0.154722
O O7 0.139713 0.866371 0.307267
O O8 0.205885 0.830826 0.129973
O O9 0.500000 0.088696 0.750000
O O10 0.655597 0.301533 0.679947
O O11 0.500000 0.500000 0.500000
#
# Coordination Sequence:
#
# PCOD8147721 Si02
#       5
#     8   8   8   8   8
#     4  10  22  44  71  98 137 171 231 290 346 403
#     4  12  27  46  71  98 147 184 234 284 349 414
#     4  10  23  44  71 103 132 179 230 289 352 403
#     4  10  22  46  70 100 134 172 230 296 334 414
#     4  12  28  44  68 104 139 191 234 280 349 419
#
# _framework density 22.912982
#
# number of rings (size 3 to 8) (size 9 to 14) (size 15 to 20)
#    0.000    1.200    2.000    2.400    5.600    5.600 
#    0.000    0.000    0.000    0.000    0.000    0.000 
#    0.000    0.000    0.000    0.000    0.000    0.000 
#
# Total GULP energy -247958.962613 kJ/mol
# GULP energy per Si atom -12397.948131 kJ/mol
# Density = 2.286083 g / cm^3
# Si number density = 22.912982 Si / 1000 Ang^3
#
#
#
# Elastic Constant Matrix: (Units=GPa)
#
#
# Indices 1 2 3 4 5 6 
#
# 1 69.4546 23.7454 14.0565 -0.0006 -16.0786 0.0011
# 2 23.7454 67.3977 6.6215 -0.0017 -5.6722 0.0058
# 3 14.0565 6.6215 83.2538 -0.0008 -14.6305 -0.0001
# 4 -0.0006 -0.0017 -0.0008 38.7824 0.0004 0.2277
# 5 -16.0786 -5.6722 -14.6305 0.0004 49.6613 -0.0009
# 6 0.0011 0.0058 -0.0001 0.2277 -0.0009 31.0050
#
#
#
# Elastic Compliance Matrix: (Units=1/GPa)
#
#
# Indices 1 2 3 4 5 6 
#
# 1 0.017761 -0.005700 -0.001739 0.000000 0.004587 0.000001
# 2 -0.005700 0.016881 -0.000386 0.000001 -0.000031 -0.000003
# 3 -0.001739 -0.000386 0.012897 0.000000 0.003192 0.000000
# 4 0.000000 0.000001 0.000000 0.025786 0.000000 -0.000189
# 5 0.004587 -0.000031 0.003192 0.000000 0.022558 0.000000
# 6 0.000001 -0.000003 0.000000 -0.000189 0.000000 0.032254
#
#
# Mechanical properties :
#
#
# Convention : Reuss Voigt Hill
#
# Bulk Modulus (GPa) = 31.36011 34.32811 32.84411
# Shear Modulus (GPa) = 32.37988 35.60192 33.99090
#
# Velocity S-wave (km/s) = 3.76329 3.94609 3.85577
# Velocity P-wave (km/s) = 5.70959 5.98136 5.84705
#
# Compressibility (1/GPa) = 0.03188765
#
# Stress axis : x y z
#
# Youngs Moduli (GPa) = 56.30432 59.23841 77.53874
#
# Poissons Ratio (x) = 0.33769 0.13486
# Poissons Ratio (y) = 0.32096 0.02990
# Poissons Ratio (z) = 0.09793 0.02284
#
# Static dielectric constant tensor:
#      x y z
#    x 4.340240 0.000000 0.051700 
#    y 0.000000 3.854830 0.000000 
#    z 0.051700 0.000000 4.377390 
# 
# 
# High freq. dielectric constant tensor:
#      x y z
#    x 1.914910 0.000000 -0.004150 
#    y 0.000000 1.878310 0.000000 
#    z -0.004150 0.000000 1.926660 
# 
# From -- ./inp_files/254201.got.cif
#   From: 2010.06.25/outbox.cif.g09.slc.cpg/sg15_128_cif.got.tgz:254201.got - 2010.06.28 07:06:18.
