data_PCOD8147369
_publ_section_title
;
Structure prediction by ZEFSAII (Michael W. Deem and Ramdas Pophale) SiO2 
 PCOD8147369
Probable space group: C 2/C
;
_chemical_formula_sum "Si O2"
_cell_formula_units_Z 60
_cell_length_a 21.981978
_cell_length_b 22.790000
_cell_length_c 8.872320
_cell_angle_alpha 90.000000
_cell_angle_beta 42.079317
_cell_angle_gamma 90.000000
_cell_volume 2978.694558
_symmetry_space_group_name_H-M "C 2/C"
_symmetry_group_IT_number 15
_symmetry_cell_setting 'monoclinic'
loop_
_space_group_symop_operation_xyz
x,y,z
-x,y,1/2-z
-x,-y,-z
x,-y,1/2+z
1/2+x,1/2+y,z
1/2-x,1/2+y,1/2-z
1/2-x,1/2-y,-z
1/2+x,1/2-y,1/2+z
loop_
_atom_site_type_symbol
_atom_site_label
_atom_site_fract_x
_atom_site_fract_y
_atom_site_fract_z
Si Si1 0.000000 0.006580 0.750000
Si Si2 0.155164 0.271719 0.729867
Si Si3 0.910468 0.076196 0.170957
Si Si4 0.931236 0.492932 0.254577
Si Si5 0.603294 0.123740 0.104573
Si Si6 0.798617 0.397390 0.380059
Si Si7 0.333020 0.778022 0.436343
Si Si8 0.507952 0.697232 0.412070
O O1 0.073260 0.045419 0.521261
O O2 0.056691 0.966496 0.758171
O O3 0.250000 0.250000 0.500000
O O4 0.131735 0.333517 0.690265
O O5 0.165159 0.272046 0.889507
O O6 0.080095 0.221520 0.837867
O O7 0.807613 0.091738 0.402464
O O8 0.966149 0.136458 0.057178
O O9 0.888694 0.555680 0.369456
O O10 0.848267 0.454716 0.348811
O O11 0.000000 0.464479 0.250000
O O12 0.000000 0.500000 0.000000
O O13 0.500000 0.139971 0.250000
O O14 0.675136 0.126872 0.834719
O O15 0.834119 0.347357 0.423355
O O16 0.250000 0.750000 0.500000
O O17 0.419507 0.748843 0.198834
O O18 0.500000 0.683561 0.250000
#
# Coordination Sequence:
#
# PCOD8147369 Si02
#       8
#     4   8   8   8   8   8   8   8
#     4  10  26  46  66  94 134 168 224 280 346 394
#     4  11  26  42  67 102 132 178 225 281 342 412
#     4  11  24  46  69  97 127 176 225 282 340 400
#     4  11  24  43  65  97 138 183 223 277 350 413
#     4  11  24  45  66  99 141 181 225 282 344 411
#     4  12  25  41  71  97 135 178 230 283 335 420
#     4  11  23  43  66  97 132 175 226 279 341 410
#     4  10  22  43  69  91 132 174 216 273 341 394
#
# _framework density 20.143052000000001
#
# number of rings (size 3 to 8) (size 9 to 14) (size 15 to 20)
#    0.000    1.067    4.667    1.600    5.600    1.600 
#    6.000    0.000    0.000    0.000    0.000    0.000 
#    0.000    0.000    0.000    0.000    0.000    0.000 
#
# Total GULP energy -371668.354958 kJ/mol
# GULP energy per Si atom -12388.945165 kJ/mol
# Density = 2.009721 g / cm^3
# Si number density = 20.143052 Si / 1000 Ang^3
#
#
#
# Elastic Constant Matrix: (Units=GPa)
#
#
# Indices 1 2 3 4 5 6 
#
# 1 101.2595 52.5181 45.9717 0.0000 -4.7585 0.0000
# 2 52.5181 126.1415 52.9988 0.0000 -14.9753 0.0000
# 3 45.9717 52.9988 155.2023 0.0000 -12.0259 0.0000
# 4 0.0000 0.0000 0.0000 34.3534 0.0000 1.4682
# 5 -4.7585 -14.9753 -12.0259 0.0000 29.3687 0.0000
# 6 0.0000 0.0000 0.0000 1.4682 0.0000 47.0265
#
#
#
# Elastic Compliance Matrix: (Units=1/GPa)
#
#
# Indices 1 2 3 4 5 6 
#
# 1 0.013357 -0.004675 -0.002455 0.000000 -0.001225 0.000000
# 2 -0.004675 0.011262 -0.002143 0.000000 0.004108 0.000000
# 3 -0.002455 -0.002143 0.008042 0.000000 0.001803 0.000000
# 4 0.000000 0.000000 0.000000 0.029148 0.000000 -0.000910
# 5 -0.001225 0.004108 0.001803 0.000000 0.036684 0.000000
# 6 0.000000 0.000000 0.000000 -0.000910 0.000000 0.021293
#
#
# Mechanical properties :
#
#
# Convention : Reuss Voigt Hill
#
# Bulk Modulus (GPa) = 70.84421 76.17561 73.50991
# Shear Modulus (GPa) = 34.95595 37.55734 36.25664
#
# Velocity S-wave (km/s) = 4.17031 4.32271 4.24719
# Velocity P-wave (km/s) = 7.64432 7.92552 7.78619
#
# Compressibility (1/GPa) = 0.01411548
#
# Stress axis : x y z
#
# Youngs Moduli (GPa) = 74.86495 88.79410 124.35145
#
# Poissons Ratio (x) = 0.41513 0.30527
# Poissons Ratio (y) = 0.35001 0.26644
# Poissons Ratio (z) = 0.18379 0.19026
#
# Static dielectric constant tensor:
#      x y z
#    x 3.524640 0.000000 -0.119090 
#    y 0.000000 3.751790 0.000000 
#    z -0.119090 0.000000 3.710660 
# 
# 
# High freq. dielectric constant tensor:
#      x y z
#    x 1.789860 0.000000 0.000840 
#    y 0.000000 1.801620 0.000000 
#    z 0.000840 0.000000 1.799360 
# 
# From -- ./inp_files/58735.got.cif
#   From: 2010.06.25/outbox.cif.g09.slc.cpg/sg15_30_cif.got.tgz:58735.got - 2010.06.28 07:06:18.
