data_PCOD8147842
_publ_section_title
;
Structure prediction by ZEFSAII (Michael W. Deem and Ramdas Pophale) SiO2 
 PCOD8147842
Probable space group: C 2/C
;
_chemical_formula_sum "Si O2"
_cell_formula_units_Z 28
_cell_length_a 14.008704
_cell_length_b 5.057606
_cell_length_c 17.134116
_cell_angle_alpha 90.000000
_cell_angle_beta 64.968100
_cell_angle_gamma 90.000000
_cell_volume 1099.936295
_symmetry_space_group_name_H-M "C 2/C"
_symmetry_group_IT_number 15
_symmetry_cell_setting 'monoclinic'
loop_
_space_group_symop_operation_xyz
x,y,z
-x,y,1/2-z
-x,-y,-z
x,-y,1/2+z
1/2+x,1/2+y,z
1/2-x,1/2+y,1/2-z
1/2-x,1/2-y,-z
1/2+x,1/2-y,1/2+z
loop_
_atom_site_type_symbol
_atom_site_label
_atom_site_fract_x
_atom_site_fract_y
_atom_site_fract_z
Si Si1 0.789585 0.206326 0.280614
Si Si2 0.363516 0.731527 0.536053
Si Si3 0.065358 0.265634 0.570805
Si Si4 0.000000 0.042755 0.750000
O O1 0.776572 0.488051 0.243842
O O2 0.748248 0.217930 0.383955
O O3 0.913624 0.141146 0.237508
O O4 0.449819 0.736898 0.574216
O O5 0.358284 0.450076 0.495158
O O6 0.385764 0.948098 0.462016
O O7 0.057128 0.228246 0.666578
#
# Coordination Sequence:
#
# PCOD8147842 Si02
#       4
#     8   8   8   4
#     4  12  27  47  73 108 147 191 236 304 360 422
#     4  10  22  45  70  98 147 189 229 293 365 414
#     4  10  23  42  72 103 139 188 238 291 353 432
#     4  12  28  46  76 112 142 188 252 294 356 432
#
# _framework density 25.456019000000001
#
# number of rings (size 3 to 8) (size 9 to 14) (size 15 to 20)
#    0.000    1.143    2.857    1.714    8.000    6.857 
#    0.000    0.000    0.000    0.000    0.000    0.000 
#    0.000    0.000    0.000    0.000    0.000    0.000 
#
# Total GULP energy -173739.385275 kJ/mol
# GULP energy per Si atom -12409.956091 kJ/mol
# Density = 2.539808 g / cm^3
# Si number density = 25.456019 Si / 1000 Ang^3
#
#
#
# Elastic Constant Matrix: (Units=GPa)
#
#
# Indices 1 2 3 4 5 6 
#
# 1 64.7474 -4.5892 16.2812 -0.0047 -0.4781 -0.0045
# 2 -4.5892 90.3052 17.1410 -0.0083 -0.4404 -0.0059
# 3 16.2812 17.1410 141.6385 0.0002 -7.5511 -0.0004
# 4 -0.0047 -0.0083 0.0002 27.9055 -0.0026 -7.2236
# 5 -0.4781 -0.4404 -7.5511 -0.0026 29.5060 -0.0030
# 6 -0.0045 -0.0059 -0.0004 -7.2236 -0.0030 6.3038
#
#
#
# Elastic Compliance Matrix: (Units=1/GPa)
#
#
# Indices 1 2 3 4 5 6 
#
# 1 0.016030 0.001193 -0.002000 0.000009 -0.000234 0.000022
# 2 0.001193 0.011424 -0.001530 0.000009 -0.000202 0.000022
# 3 -0.002000 -0.001530 0.007576 -0.000002 0.001884 -0.000003
# 4 0.000009 0.000009 -0.000002 0.050948 0.000010 0.058381
# 5 -0.000234 -0.000202 0.001884 0.000010 0.034367 0.000028
# 6 0.000022 0.000022 -0.000003 0.058381 0.000028 0.225534
#
#
# Mechanical properties :
#
#
# Convention : Reuss Voigt Hill
#
# Bulk Modulus (GPa) = 32.94255 39.37302 36.15778
# Shear Modulus (GPa) = 13.86309 30.60026 22.23167
#
# Velocity S-wave (km/s) = 2.33618 3.47087 2.95843
# Velocity P-wave (km/s) = 4.49956 5.61812 5.08966
#
# Compressibility (1/GPa) = 0.03035588
#
# Stress axis : x y z
#
# Youngs Moduli (GPa) = 62.38198 87.53736 132.00110
#
# Poissons Ratio (x) = -0.10443 0.26394
# Poissons Ratio (y) = -0.07442 0.20201
# Poissons Ratio (z) = 0.12473 0.13397
#
# Static dielectric constant tensor:
#      x y z
#    x 4.449950 0.000000 -0.065540 
#    y 0.000000 4.556490 0.000000 
#    z -0.065540 0.000000 4.533660 
# 
# 
# High freq. dielectric constant tensor:
#      x y z
#    x 2.012910 0.000000 0.000380 
#    y 0.000000 2.018980 0.000000 
#    z 0.000380 0.000000 2.028130 
# 
# From -- ./inp_files/201662.got.cif
#   From: 2010.06.25/outbox.cif.g09.slc.cpg/sg15_101_cif.got.tgz:201662.got - 2010.06.28 07:06:18.
