data_PCOD8147266
_publ_section_title
;
Structure prediction by ZEFSAII (Michael W. Deem and Ramdas Pophale) SiO2 
 PCOD8147266
Probable space group: C 2/C
;
_chemical_formula_sum "Si O2"
_cell_formula_units_Z 56
_cell_length_a 10.968002
_cell_length_b 25.596138
_cell_length_c 9.590995
_cell_angle_alpha 90.000000
_cell_angle_beta 108.196462
_cell_angle_gamma 90.000000
_cell_volume 2557.910079
_symmetry_space_group_name_H-M "C 2/C"
_symmetry_group_IT_number 15
_symmetry_cell_setting 'monoclinic'
loop_
_space_group_symop_operation_xyz
x,y,z
-x,y,1/2-z
-x,-y,-z
x,-y,1/2+z
1/2+x,1/2+y,z
1/2-x,1/2+y,1/2-z
1/2-x,1/2-y,-z
1/2+x,1/2-y,1/2+z
loop_
_atom_site_type_symbol
_atom_site_label
_atom_site_fract_x
_atom_site_fract_y
_atom_site_fract_z
Si Si1 0.000000 0.153557 0.750000
Si Si2 0.674937 0.433893 0.402563
Si Si3 0.728563 0.695413 0.661492
Si Si4 0.467038 0.051742 0.400278
Si Si5 0.651908 0.306542 0.820593
Si Si6 0.785387 0.912866 0.788378
Si Si7 0.603463 0.896121 0.175787
Si Si8 0.500000 0.522403 0.250000
O O1 0.920833 0.115385 0.620305
O O2 0.901990 0.190165 0.797909
O O3 0.762184 0.427206 0.571918
O O4 0.767434 0.431897 0.297850
O O5 0.596142 0.487347 0.375319
O O6 0.693481 0.678546 0.492207
O O7 0.774526 0.754264 0.695728
O O8 0.847517 0.660859 0.761702
O O9 0.500000 0.047122 0.250000
O O10 0.314529 0.062011 0.356188
O O11 0.533622 0.101859 0.499712
O O12 0.500000 0.000000 0.500000
O O13 0.500000 0.298435 0.750000
O O14 0.701222 0.351218 0.733788
O O15 0.923983 0.939725 0.825762
O O16 0.500000 0.918767 0.250000
#
# Coordination Sequence:
#
# PCOD8147266 Si02
#       8
#     4   8   8   8   8   8   8   4
#     4   9  20  40  70  96 138 182 226 279 348 418
#     4  10  22  43  66 100 137 177 232 287 339 424
#     4  10  23  44  70 100 139 187 230 287 359 422
#     4  12  26  45  68 100 144 185 236 291 350 425
#     4  11  23  43  68 103 137 177 236 296 346 421
#     4  12  24  42  67  99 136 176 231 291 346 410
#     4  11  22  45  71  99 136 189 234 284 356 422
#     4  11  24  42  68  94 134 184 226 279 360 412
#
# _framework density 21.892871
#
# number of rings (size 3 to 8) (size 9 to 14) (size 15 to 20)
#    0.000    1.143    2.143    3.857    0.000    1.143 
#    6.429    7.857    0.000    0.000    0.000    0.000 
#    0.000    0.000    0.000    0.000    0.000    0.000 
#
# Total GULP energy -347043.069184 kJ/mol
# GULP energy per Si atom -12394.395328 kJ/mol
# Density = 2.184304 g / cm^3
# Si number density = 21.892871 Si / 1000 Ang^3
#
#
#
# Elastic Constant Matrix: (Units=GPa)
#
#
# Indices 1 2 3 4 5 6 
#
# 1 138.0649 53.7431 50.4459 0.0000 2.6478 0.0000
# 2 53.7431 119.1164 65.6555 0.0000 2.0249 0.0000
# 3 50.4459 65.6555 136.4143 0.0000 2.9442 0.0000
# 4 0.0000 0.0000 0.0000 32.4759 0.0000 11.7231
# 5 2.6478 2.0249 2.9442 0.0000 38.6819 0.0000
# 6 0.0000 0.0000 0.0000 11.7231 0.0000 30.5309
#
#
#
# Elastic Compliance Matrix: (Units=1/GPa)
#
#
# Indices 1 2 3 4 5 6 
#
# 1 0.009137 -0.003074 -0.001893 0.000000 -0.000320 0.000000
# 2 -0.003074 0.012462 -0.004859 0.000000 -0.000072 0.000000
# 3 -0.001893 -0.004859 0.010378 0.000000 -0.000406 0.000000
# 4 0.000000 0.000000 0.000000 0.035747 0.000000 -0.013726
# 5 -0.000320 -0.000072 -0.000406 0.000000 0.025908 0.000000
# 6 0.000000 0.000000 0.000000 -0.013726 0.000000 0.038024
#
#
# Mechanical properties :
#
#
# Convention : Reuss Voigt Hill
#
# Bulk Modulus (GPa) = 81.13524 81.47605 81.30564
# Shear Modulus (GPa) = 32.17159 35.25448 33.71303
#
# Velocity S-wave (km/s) = 3.83757 4.01723 3.92842
# Velocity P-wave (km/s) = 7.53501 7.66904 7.60232
#
# Compressibility (1/GPa) = 0.01232510
#
# Stress axis : x y z
#
# Youngs Moduli (GPa) = 109.44312 80.24541 96.35700
#
# Poissons Ratio (x) = 0.24667 0.18236
# Poissons Ratio (y) = 0.33642 0.46825
# Poissons Ratio (z) = 0.20712 0.38995
#
# Static dielectric constant tensor:
#      x y z
#    x 4.221940 0.000000 0.226910 
#    y 0.000000 3.772870 0.000000 
#    z 0.226910 0.000000 4.105120 
# 
# 
# High freq. dielectric constant tensor:
#      x y z
#    x 1.884520 0.000000 0.011860 
#    y 0.000000 1.848130 0.000000 
#    z 0.011860 0.000000 1.860790 
# 
# From -- ./inp_files/34388.got.cif
#   From: 2010.06.25/outbox.cif.g09.slc.cpg/sg15_18_cif.got.tgz:34388.got - 2010.06.28 07:06:18.
