data_PCOD8147158
_publ_section_title
;
Structure prediction by ZEFSAII (Michael W. Deem and Ramdas Pophale) SiO2 
 PCOD8147158
Probable space group: C 2/C
;
_chemical_formula_sum "Si O2"
_cell_formula_units_Z 64
_cell_length_a 12.178329
_cell_length_b 25.590286
_cell_length_c 14.698562
_cell_angle_alpha 90.000000
_cell_angle_beta 142.719871
_cell_angle_gamma 90.000000
_cell_volume 2774.624483
_symmetry_space_group_name_H-M "C 2/C"
_symmetry_group_IT_number 15
_symmetry_cell_setting 'monoclinic'
loop_
_space_group_symop_operation_xyz
x,y,z
-x,y,1/2-z
-x,-y,-z
x,-y,1/2+z
1/2+x,1/2+y,z
1/2-x,1/2+y,1/2-z
1/2-x,1/2-y,-z
1/2+x,1/2-y,1/2+z
loop_
_atom_site_type_symbol
_atom_site_label
_atom_site_fract_x
_atom_site_fract_y
_atom_site_fract_z
Si Si1 0.540842 0.282848 0.532396
Si Si2 0.002998 0.412841 0.857441
Si Si3 0.738872 0.629448 0.690825
Si Si4 0.802282 0.113271 0.031252
Si Si5 0.043278 0.706072 0.177998
Si Si6 0.827436 0.053087 0.689123
Si Si7 0.188819 0.935110 0.784408
Si Si8 0.057438 0.295802 0.388277
O O1 0.442557 0.336391 0.441559
O O2 0.741984 0.295846 0.699551
O O3 0.554813 0.245428 0.454571
O O4 0.426094 0.254546 0.536537
O O5 0.000000 0.429861 0.750000
O O6 0.043070 0.351255 0.892932
O O7 0.812272 0.426310 0.778351
O O8 0.156138 0.446131 0.009274
O O9 0.783526 0.599941 0.624466
O O10 0.707824 0.586804 0.745852
O O11 0.905438 0.665787 0.830609
O O12 0.714248 0.078320 0.054441
O O13 0.018225 0.104291 0.166870
O O14 0.750767 0.174102 0.016518
O O15 0.000000 0.726623 0.250000
O O16 0.000000 0.076175 0.750000
O O17 0.873470 0.994935 0.753573
O O18 0.000000 0.277946 0.250000
#
# Coordination Sequence:
#
# PCOD8147158 Si02
#       8
#     8   8   8   8   8   8   8   8
#     4  12  23  45  69 102 147 197 246 301 368 444
#     4  11  27  48  75 107 147 194 247 306 371 446
#     4  11  25  42  68 107 146 194 248 306 367 442
#     4  10  22  42  73 102 151 185 240 306 366 445
#     4  11  25  42  68 102 142 193 251 299 365 434
#     4  12  27  46  75 106 149 192 251 309 375 447
#     4  11  23  48  71 110 144 195 246 305 381 438
#     4  10  23  45  67 107 146 194 243 296 373 440
#
# _framework density 23.066184
#
# number of rings (size 3 to 8) (size 9 to 14) (size 15 to 20)
#    0.000    1.000    2.500    3.750    5.250    5.000 
#    4.500    1.250    0.000    0.000    0.000    0.000 
#    0.000    0.000    0.000    0.000    0.000    0.000 
#
# Total GULP energy -396843.031483 kJ/mol
# GULP energy per Si atom -12401.344734 kJ/mol
# Density = 2.301368 g / cm^3
# Si number density = 23.066184 Si / 1000 Ang^3
#
#
#
# Elastic Constant Matrix: (Units=GPa)
#
#
# Indices 1 2 3 4 5 6 
#
# 1 152.6989 30.5891 30.7752 0.0000 -19.5225 0.0000
# 2 30.5891 54.8525 23.7159 0.0000 -11.5048 0.0000
# 3 30.7752 23.7159 72.9773 0.0000 2.1911 0.0000
# 4 0.0000 0.0000 0.0000 26.9190 0.0000 1.6484
# 5 -19.5225 -11.5048 2.1911 0.0000 49.4672 0.0000
# 6 0.0000 0.0000 0.0000 1.6484 0.0000 12.5540
#
#
#
# Elastic Compliance Matrix: (Units=1/GPa)
#
#
# Indices 1 2 3 4 5 6 
#
# 1 0.007950 -0.002798 -0.002521 0.000000 0.002598 0.000000
# 2 -0.002798 0.023648 -0.006646 0.000000 0.004690 0.000000
# 3 -0.002521 -0.006646 0.017025 0.000000 -0.003295 0.000000
# 4 0.000000 0.000000 0.000000 0.037450 0.000000 -0.004917
# 5 0.002598 0.004690 -0.003295 0.000000 0.022478 0.000000
# 6 0.000000 0.000000 0.000000 -0.004917 0.000000 0.080301
#
#
# Mechanical properties :
#
#
# Convention : Reuss Voigt Hill
#
# Bulk Modulus (GPa) = 40.49860 50.07656 45.28758
# Shear Modulus (GPa) = 22.62314 30.81793 26.72054
#
# Velocity S-wave (km/s) = 3.13516 3.65919 3.40726
# Velocity P-wave (km/s) = 5.54088 6.29364 5.92922
#
# Compressibility (1/GPa) = 0.02469221
#
# Stress axis : x y z
#
# Youngs Moduli (GPa) = 125.79116 42.28629 58.73801
#
# Poissons Ratio (x) = 0.11833 0.14808
# Poissons Ratio (y) = 0.35200 0.39037
# Poissons Ratio (z) = 0.31713 0.28103
#
# Static dielectric constant tensor:
#      x y z
#    x 4.444250 0.000000 -0.177410 
#    y 0.000000 3.976280 0.000000 
#    z -0.177410 0.000000 4.166240 
# 
# 
# High freq. dielectric constant tensor:
#      x y z
#    x 1.933050 0.000000 -0.007120 
#    y 0.000000 1.901600 0.000000 
#    z -0.007120 0.000000 1.907040 
# 
# From -- ./inp_files/148814.got.cif
#   From: 2010.06.25/outbox.cif.g09.slc.cpg/sg15_75_cif.got.tgz:148814.got - 2010.06.28 07:06:18.
