data_PCOD8147348
_publ_section_title
;
Structure prediction by ZEFSAII (Michael W. Deem and Ramdas Pophale) SiO2 
 PCOD8147348
Probable space group: C 2/C
;
_chemical_formula_sum "Si O2"
_cell_formula_units_Z 64
_cell_length_a 11.755649
_cell_length_b 24.409710
_cell_length_c 11.202019
_cell_angle_alpha 90.000000
_cell_angle_beta 109.743400
_cell_angle_gamma 90.000000
_cell_volume 3025.480406
_symmetry_space_group_name_H-M "C 2/C"
_symmetry_group_IT_number 15
_symmetry_cell_setting 'monoclinic'
loop_
_space_group_symop_operation_xyz
x,y,z
-x,y,1/2-z
-x,-y,-z
x,-y,1/2+z
1/2+x,1/2+y,z
1/2-x,1/2+y,1/2-z
1/2-x,1/2-y,-z
1/2+x,1/2-y,1/2+z
loop_
_atom_site_type_symbol
_atom_site_label
_atom_site_fract_x
_atom_site_fract_y
_atom_site_fract_z
Si Si1 0.026731 0.323542 0.398130
Si Si2 0.198361 0.377538 0.099934
Si Si3 0.878978 0.079132 0.819715
Si Si4 0.307771 0.538548 0.245840
Si Si5 0.384148 0.385082 0.977503
Si Si6 0.431351 0.015098 0.852229
Si Si7 0.534973 0.300250 0.899400
Si Si8 0.732875 0.387044 0.988129
O O1 0.064597 0.262160 0.445628
O O2 0.126253 0.369160 0.472192
O O3 0.000000 0.331091 0.250000
O O4 0.901325 0.330447 0.426117
O O5 0.320161 0.370650 0.222466
O O6 0.138402 0.431214 0.133521
O O7 0.248622 0.379584 0.982673
O O8 0.871045 0.020544 0.749077
O O9 0.795788 0.074669 0.908892
O O10 0.018806 0.093729 0.890615
O O11 0.377598 0.567881 0.376981
O O12 0.163812 0.532400 0.214579
O O13 0.320935 0.577794 0.137799
O O14 0.425805 0.326864 0.937403
O O15 0.500000 0.025160 0.750000
O O16 0.500000 0.000000 0.000000
O O17 0.500000 0.304307 0.750000
O O18 0.658109 0.331271 0.972704
#
# Coordination Sequence:
#
# PCOD8147348 Si02
#       8
#     8   8   8   8   8   8   8   8
#     4  11  22  41  71  95 126 172 224 273 329 389
#     4  11  23  39  64  91 130 169 217 267 322 398
#     4  10  24  39  63  92 130 178 217 261 326 390
#     4  11  24  37  64  93 129 172 216 267 331 381
#     4  11  23  44  60  93 137 166 221 272 333 396
#     4  11  24  40  62  91 134 176 223 267 329 404
#     4  10  22  43  68  97 128 169 216 283 331 384
#     4  11  22  42  67  99 132 166 223 273 320 396
#
# _framework density 21.153666000000001
#
# number of rings (size 3 to 8) (size 9 to 14) (size 15 to 20)
#    0.000    1.250    2.500    3.000    8.750    0.500 
#    9.000    0.000    0.000    1.500    0.000    0.000 
#    0.000    0.000    0.000    0.000    0.000    0.000 
#
# Total GULP energy -396528.554297 kJ/mol
# GULP energy per Si atom -12391.517322 kJ/mol
# Density = 2.110552 g / cm^3
# Si number density = 21.153666 Si / 1000 Ang^3
#
#
#
# Elastic Constant Matrix: (Units=GPa)
#
#
# Indices 1 2 3 4 5 6 
#
# 1 134.5329 38.0718 31.0130 0.0000 -12.0115 0.0000
# 2 38.0718 97.8159 31.0780 0.0000 -1.0517 0.0000
# 3 31.0130 31.0780 77.6192 0.0000 5.0507 0.0000
# 4 0.0000 0.0000 0.0000 22.1323 0.0000 5.9476
# 5 -12.0115 -1.0517 5.0507 0.0000 35.8678 0.0000
# 6 0.0000 0.0000 0.0000 5.9476 0.0000 29.1706
#
#
#
# Elastic Compliance Matrix: (Units=1/GPa)
#
#
# Indices 1 2 3 4 5 6 
#
# 1 0.009125 -0.002621 -0.002816 0.000000 0.003376 0.000000
# 2 -0.002621 0.012503 -0.003962 0.000000 0.000047 0.000000
# 3 -0.002816 -0.003962 0.015809 0.000000 -0.003285 0.000000
# 4 0.000000 0.000000 0.000000 0.047802 0.000000 -0.009746
# 5 0.003376 0.000047 -0.003285 0.000000 0.029475 0.000000
# 6 0.000000 0.000000 0.000000 -0.009746 0.000000 0.036268
#
#
# Mechanical properties :
#
#
# Convention : Reuss Voigt Hill
#
# Bulk Modulus (GPa) = 53.65142 56.69928 55.17535
# Shear Modulus (GPa) = 28.41025 31.42112 29.91569
#
# Velocity S-wave (km/s) = 3.66873 3.85824 3.76468
# Velocity P-wave (km/s) = 6.58512 6.83445 6.71094
#
# Compressibility (1/GPa) = 0.01863883
#
# Stress axis : x y z
#
# Youngs Moduli (GPa) = 109.58419 79.98359 63.25581
#
# Poissons Ratio (x) = 0.20961 0.17816
# Poissons Ratio (y) = 0.28718 0.25061
# Poissons Ratio (z) = 0.30864 0.31688
#
# Static dielectric constant tensor:
#      x y z
#    x 4.398560 0.000000 0.103250 
#    y 0.000000 3.797670 0.000000 
#    z 0.103250 0.000000 4.027060 
# 
# 
# High freq. dielectric constant tensor:
#      x y z
#    x 1.841640 0.000000 0.007020 
#    y 0.000000 1.813710 0.000000 
#    z 0.007020 0.000000 1.834520 
# 
# From -- ./inp_files/91285.got.cif
#   From: 2010.06.25/outbox.cif.g09.slc.cpg/sg15_46_cif.got.tgz:91285.got - 2010.06.28 07:06:18.
