data_PCOD8147988
_publ_section_title
;
Structure prediction by ZEFSAII (Michael W. Deem and Ramdas Pophale) SiO2 
 PCOD8147988
Probable space group: C 2/C
;
_chemical_formula_sum "Si O2"
_cell_formula_units_Z 40
_cell_length_a 27.077927
_cell_length_b 5.370057
_cell_length_c 13.578850
_cell_angle_alpha 90.000000
_cell_angle_beta 65.247685
_cell_angle_gamma 90.000000
_cell_volume 1793.095962
_symmetry_space_group_name_H-M "C 2/C"
_symmetry_group_IT_number 15
_symmetry_cell_setting 'monoclinic'
loop_
_space_group_symop_operation_xyz
x,y,z
-x,y,1/2-z
-x,-y,-z
x,-y,1/2+z
1/2+x,1/2+y,z
1/2-x,1/2+y,1/2-z
1/2-x,1/2-y,-z
1/2+x,1/2-y,1/2+z
loop_
_atom_site_type_symbol
_atom_site_label
_atom_site_fract_x
_atom_site_fract_y
_atom_site_fract_z
Si Si1 0.856086 0.134035 0.817812
Si Si2 0.259125 0.693657 0.379286
Si Si3 0.402830 0.158438 0.460859
Si Si4 0.667057 0.023330 0.319669
Si Si5 0.056959 0.854681 0.649987
O O1 0.858129 0.316233 0.910999
O O2 0.872533 0.285488 0.705571
O O3 0.794021 0.058186 0.848771
O O4 0.896351 0.898075 0.804582
O O5 0.250000 0.750000 0.500000
O O6 0.200991 0.664171 0.376108
O O7 0.292542 0.903313 0.293093
O O8 0.443738 0.396790 0.419248
O O9 0.372445 0.171192 0.591546
O O10 0.432845 0.893129 0.422498
O O11 0.000000 0.821575 0.750000
#
# Coordination Sequence:
#
# PCOD8147988 Si02
#       5
#     8   8   8   8   8
#     4  10  24  42  68  98 141 179 232 290 344 411
#     4  12  26  41  67 101 144 194 236 285 343 418
#     4  10  25  43  72  99 140 177 230 291 346 413
#     4  12  24  41  65 102 143 188 232 284 349 418
#     4  10  22  47  74  99 134 183 232 293 359 410
#
# _framework density 22.307786
#
# number of rings (size 3 to 8) (size 9 to 14) (size 15 to 20)
#    1.200    0.000    2.000    4.200    5.600    1.600 
#    0.000    2.000    0.000    0.000    0.000    0.000 
#    0.000    0.000    0.000    0.000    0.000    0.000 
#
# Total GULP energy -247826.938134 kJ/mol
# GULP energy per Si atom -12391.346907 kJ/mol
# Density = 2.225701 g / cm^3
# Si number density = 22.307786 Si / 1000 Ang^3
#
#
#
# Elastic Constant Matrix: (Units=GPa)
#
#
# Indices 1 2 3 4 5 6 
#
# 1 29.3878 3.9735 20.3577 0.0000 2.2974 0.0000
# 2 3.9735 118.6714 23.3790 0.0000 1.9225 0.0000
# 3 20.3577 23.3790 100.7333 0.0000 16.0428 0.0000
# 4 0.0000 0.0000 0.0000 34.9068 0.0000 -5.4483
# 5 2.2974 1.9225 16.0428 0.0000 30.9204 0.0000
# 6 0.0000 0.0000 0.0000 -5.4483 0.0000 27.3572
#
#
#
# Elastic Compliance Matrix: (Units=1/GPa)
#
#
# Indices 1 2 3 4 5 6 
#
# 1 0.039625 0.000284 -0.008287 0.000000 0.001338 0.000000
# 2 0.000284 0.008841 -0.002200 0.000000 0.000571 0.000000
# 3 -0.008287 -0.002200 0.013073 0.000000 -0.006030 0.000000
# 4 0.000000 0.000000 0.000000 0.029567 0.000000 0.005888
# 5 0.001338 0.000571 -0.006030 0.000000 0.035335 0.000000
# 6 0.000000 0.000000 0.000000 0.005888 0.000000 0.037726
#
#
# Mechanical properties :
#
#
# Convention : Reuss Voigt Hill
#
# Bulk Modulus (GPa) = 24.31121 38.24589 31.27855
# Shear Modulus (GPa) = 25.21619 32.04236 28.62927
#
# Velocity S-wave (km/s) = 3.36575 3.79407 3.58631
# Velocity P-wave (km/s) = 5.10158 6.03118 5.58575
#
# Compressibility (1/GPa) = 0.04113328
#
# Stress axis : x y z
#
# Youngs Moduli (GPa) = 25.23632 113.10502 76.49334
#
# Poissons Ratio (x) = -0.03214 0.63391
# Poissons Ratio (y) = -0.00717 0.16831
# Poissons Ratio (z) = 0.20914 0.24886
#
# Static dielectric constant tensor:
#      x y z
#    x 3.829180 0.000000 0.108590 
#    y 0.000000 4.040770 0.000000 
#    z 0.108590 0.000000 4.072970 
# 
# 
# High freq. dielectric constant tensor:
#      x y z
#    x 1.851520 0.000000 0.010540 
#    y 0.000000 1.884220 0.000000 
#    z 0.010540 0.000000 1.881320 
# 
# From -- ./inp_files/179423.got.cif
#   From: 2010.06.25/outbox.cif.g09.slc.cpg/sg15_90_cif.got.tgz:179423.got - 2010.06.28 07:06:18.
