data_PCOD8147670
_publ_section_title
;
Structure prediction by ZEFSAII (Michael W. Deem and Ramdas Pophale) SiO2 
 PCOD8147670
Probable space group: C 2/C
;
_chemical_formula_sum "Si O2"
_cell_formula_units_Z 56
_cell_length_a 19.985257
_cell_length_b 8.618889
_cell_length_c 28.462589
_cell_angle_alpha 90.000000
_cell_angle_beta 31.458202
_cell_angle_gamma 90.000000
_cell_volume 2558.604127
_symmetry_space_group_name_H-M "C 2/C"
_symmetry_group_IT_number 15
_symmetry_cell_setting 'monoclinic'
loop_
_space_group_symop_operation_xyz
x,y,z
-x,y,1/2-z
-x,-y,-z
x,-y,1/2+z
1/2+x,1/2+y,z
1/2-x,1/2+y,1/2-z
1/2-x,1/2-y,-z
1/2+x,1/2-y,1/2+z
loop_
_atom_site_type_symbol
_atom_site_label
_atom_site_fract_x
_atom_site_fract_y
_atom_site_fract_z
Si Si1 0.500000 0.726941 0.750000
Si Si2 0.805365 0.024871 0.336608
Si Si3 0.090714 0.594922 0.028421
Si Si4 0.500000 0.227682 0.750000
Si Si5 0.134355 0.945391 0.978129
Si Si6 0.848589 0.009430 0.139731
Si Si7 0.302058 0.847010 0.690322
Si Si8 0.619710 0.987011 0.617120
O O1 0.605528 0.625585 0.713647
O O2 0.572404 0.824834 0.667099
O O3 0.873652 0.170757 0.319523
O O4 0.782949 0.057842 0.295518
O O5 0.668953 0.003859 0.443550
O O6 0.127889 0.527064 0.056687
O O7 0.941103 0.573786 0.107999
O O8 0.127124 0.774003 0.003383
O O9 0.519837 0.121029 0.691905
O O10 0.240435 0.032947 0.945903
O O11 0.179370 0.944640 0.897132
O O12 0.998268 0.033061 0.063160
O O13 0.806820 0.833222 0.174279
O O14 0.765136 0.131360 0.219153
#
# Coordination Sequence:
#
# PCOD8147670 Si02
#       8
#     4   8   8   4   8   8   8   8
#     4  10  24  38  74  94 132 174 230 274 334 396
#     4  11  24  45  62 100 137 176 219 282 328 400
#     4  11  25  40  71 101 132 177 230 268 335 395
#     4  10  26  44  66  94 140 174 224 272 348 388
#     4  10  22  44  69  99 134 171 224 283 324 396
#     4  10  25  44  69 101 131 179 224 271 342 395
#     4  11  26  43  69  97 137 178 225 273 335 397
#     4  11  23  43  70  99 130 176 223 280 333 398
#
# _framework density 21.886935999999999
#
# number of rings (size 3 to 8) (size 9 to 14) (size 15 to 20)
#    0.000    1.429    1.429    1.714   12.000    1.714 
#    5.143    0.000    0.000    0.000    0.000    0.000 
#    0.000    0.000    0.000    0.000    0.000    0.000 
#
# Total GULP energy -347358.379844 kJ/mol
# GULP energy per Si atom -12405.656423 kJ/mol
# Density = 2.183712 g / cm^3
# Si number density = 21.886936 Si / 1000 Ang^3
#
#
#
# Elastic Constant Matrix: (Units=GPa)
#
#
# Indices 1 2 3 4 5 6 
#
# 1 72.5169 2.0995 12.5176 0.0231 -6.9661 -0.0683
# 2 2.0995 49.9425 12.4697 0.0219 -10.3100 -0.0906
# 3 12.5176 12.4697 97.1533 0.0129 -5.4624 -0.0262
# 4 0.0231 0.0219 0.0129 31.9562 0.0029 3.0062
# 5 -6.9661 -10.3100 -5.4624 0.0029 30.5944 0.0197
# 6 -0.0683 -0.0906 -0.0262 3.0062 0.0197 24.3492
#
#
#
# Elastic Compliance Matrix: (Units=1/GPa)
#
#
# Indices 1 2 3 4 5 6 
#
# 1 0.014376 0.000474 -0.001738 -0.000014 0.003123 0.000039
# 2 0.000474 0.022094 -0.002497 -0.000022 0.007108 0.000078
# 3 -0.001738 -0.002497 0.010877 -0.000001 0.000705 -0.000003
# 4 -0.000014 -0.000022 -0.000001 0.031661 -0.000011 -0.003909
# 5 0.003123 0.007108 0.000705 -0.000011 0.035918 0.000008
# 6 0.000039 0.000078 -0.000003 -0.003909 0.000008 0.041552
#
#
# Mechanical properties :
#
#
# Convention : Reuss Voigt Hill
#
# Bulk Modulus (GPa) = 25.10916 30.42069 27.76493
# Shear Modulus (GPa) = 28.20491 30.21501 29.20996
#
# Velocity S-wave (km/s) = 3.59369 3.71954 3.65716
# Velocity P-wave (km/s) = 5.35879 5.68998 5.52687
#
# Compressibility (1/GPa) = 0.03982610
#
# Stress axis : x y z
#
# Youngs Moduli (GPa) = 69.55980 45.26107 91.93675
#
# Poissons Ratio (x) = -0.02147 0.15975
# Poissons Ratio (y) = -0.03299 0.22959
# Poissons Ratio (z) = 0.12086 0.11303
#
# Static dielectric constant tensor:
#      x y z
#    x 3.963110 -0.000010 -0.194590 
#    y -0.000010 3.837600 0.000010 
#    z -0.194590 0.000010 4.169730 
# 
# 
# High freq. dielectric constant tensor:
#      x y z
#    x 1.864740 0.000000 -0.009120 
#    y 0.000000 1.855120 0.000000 
#    z -0.009120 0.000000 1.874420 
# 
# From -- ./inp_files/259050.got.cif
#   From: 2010.06.25/outbox.cif.g09.slc.cpg/sg15_130_cif.got.tgz:259050.got - 2010.06.28 07:06:18.
