data_PCOD8147117
_publ_section_title
;
Structure prediction by ZEFSAII (Michael W. Deem and Ramdas Pophale) SiO2 
 PCOD8147117
Probable space group: C 2/C
;
_chemical_formula_sum "Si O2"
_cell_formula_units_Z 52
_cell_length_a 16.430450
_cell_length_b 15.638905
_cell_length_c 9.402813
_cell_angle_alpha 90.000000
_cell_angle_beta 101.357242
_cell_angle_gamma 90.000000
_cell_volume 2368.781786
_symmetry_space_group_name_H-M "C 2/C"
_symmetry_group_IT_number 15
_symmetry_cell_setting 'monoclinic'
loop_
_space_group_symop_operation_xyz
x,y,z
-x,y,1/2-z
-x,-y,-z
x,-y,1/2+z
1/2+x,1/2+y,z
1/2-x,1/2+y,1/2-z
1/2-x,1/2-y,-z
1/2+x,1/2-y,1/2+z
loop_
_atom_site_type_symbol
_atom_site_label
_atom_site_fract_x
_atom_site_fract_y
_atom_site_fract_z
Si Si1 0.500000 0.490997 0.250000
Si Si2 0.145510 0.175435 0.067596
Si Si3 0.328533 0.325525 0.606938
Si Si4 0.307575 0.872452 0.129103
Si Si5 0.464517 0.388245 0.483569
Si Si6 0.197838 0.369232 0.055501
Si Si7 0.561577 0.005823 0.393761
O O1 0.437154 0.432291 0.324770
O O2 0.546423 0.546065 0.386691
O O3 0.147415 0.138956 0.229468
O O4 0.155484 0.276769 0.055669
O O5 0.055205 0.148914 0.981752
O O6 0.216046 0.129702 0.999366
O O7 0.300596 0.229693 0.628369
O O8 0.261322 0.392529 0.516076
O O9 0.402190 0.314727 0.514604
O O10 0.285757 0.906069 0.280260
O O11 0.396578 0.912826 0.119487
O O12 0.134821 0.426882 0.943615
O O13 0.500000 0.036692 0.250000
O O14 0.500000 0.000000 0.500000
#
# Coordination Sequence:
#
# PCOD8147117 Si02
#       7
#     4   8   8   8   8   8   8
#     4  10  24  38  56  94 126 150 222 256 320 374
#     4  10  22  43  69  95 132 175 215 271 330 389
#     4  10  22  42  71  95 128 178 218 267 330 394
#     4  10  24  44  66  98 133 170 223 269 331 395
#     4  11  22  43  64  95 127 175 213 272 319 397
#     4  10  24  45  64  99 135 169 220 273 330 395
#     4  12  26  45  68 101 132 177 224 280 336 393
#
# _framework density 21.952211999999999
#
# number of rings (size 3 to 8) (size 9 to 14) (size 15 to 20)
#    0.000    1.538    3.077    0.000    6.462    2.462 
#    1.385    0.000    0.000    0.000    0.000    0.000 
#    0.000    0.000    0.000    0.000    0.000    0.000 
#
# Total GULP energy -322104.270329 kJ/mol
# GULP energy per Si atom -12388.625782 kJ/mol
# Density = 2.190225 g / cm^3
# Si number density = 21.952212 Si / 1000 Ang^3
#
#
#
# Elastic Constant Matrix: (Units=GPa)
#
#
# Indices 1 2 3 4 5 6 
#
# 1 131.6556 19.5656 36.0225 0.0000 -12.7033 0.0000
# 2 19.5656 30.9330 22.3597 0.0000 -0.3324 0.0000
# 3 36.0225 22.3597 127.1928 0.0000 -9.0691 0.0000
# 4 0.0000 0.0000 0.0000 29.8931 0.0000 -6.0228
# 5 -12.7033 -0.3324 -9.0691 0.0000 46.2926 0.0000
# 6 0.0000 0.0000 0.0000 -6.0228 0.0000 35.9711
#
#
#
# Elastic Compliance Matrix: (Units=1/GPa)
#
#
# Indices 1 2 3 4 5 6 
#
# 1 0.008894 -0.004457 -0.001586 0.000000 0.002098 0.000000
# 2 -0.004457 0.039315 -0.005797 0.000000 -0.002076 0.000000
# 3 -0.001586 -0.005797 0.009428 0.000000 0.001370 0.000000
# 4 0.000000 0.000000 0.000000 0.034620 0.000000 0.005797
# 5 0.002098 -0.002076 0.001370 0.000000 0.022431 0.000000
# 6 0.000000 0.000000 0.000000 0.005797 0.000000 0.028771
#
#
# Mechanical properties :
#
#
# Convention : Reuss Voigt Hill
#
# Bulk Modulus (GPa) = 29.44853 49.51967 39.48410
# Shear Modulus (GPa) = 28.01772 36.55360 32.28566
#
# Velocity S-wave (km/s) = 3.57642 4.08504 3.83916
# Velocity P-wave (km/s) = 5.52253 6.69754 6.13821
#
# Compressibility (1/GPa) = 0.03395755
#
# Stress axis : x y z
#
# Youngs Moduli (GPa) = 112.43194 25.43552 106.06665
#
# Poissons Ratio (x) = 0.11336 0.16821
# Poissons Ratio (y) = 0.50109 0.61489
# Poissons Ratio (z) = 0.17830 0.14745
#
# Static dielectric constant tensor:
#      x y z
#    x 3.954030 0.000000 -0.108510 
#    y 0.000000 2.806300 0.000000 
#    z -0.108510 0.000000 4.469710 
# 
# 
# High freq. dielectric constant tensor:
#      x y z
#    x 1.860090 0.000000 -0.011960 
#    y 0.000000 1.848720 0.000000 
#    z -0.011960 0.000000 1.884860 
# 
# From -- ./inp_files/48599.got.cif
#   From: 2010.06.25/outbox.cif.g09.slc.cpg/sg15_25_cif.got.tgz:48599.got - 2010.06.28 07:06:18.
