data_PCOD8147821
_publ_section_title
;
Structure prediction by ZEFSAII (Michael W. Deem and Ramdas Pophale) SiO2 
 PCOD8147821
Probable space group: C 2/C
;
_chemical_formula_sum "Si O2"
_cell_formula_units_Z 60
_cell_length_a 10.471824
_cell_length_b 8.902059
_cell_length_c 29.098055
_cell_angle_alpha 90.000000
_cell_angle_beta 101.754568
_cell_angle_gamma 90.000000
_cell_volume 2655.659700
_symmetry_space_group_name_H-M "C 2/C"
_symmetry_group_IT_number 15
_symmetry_cell_setting 'monoclinic'
loop_
_space_group_symop_operation_xyz
x,y,z
-x,y,1/2-z
-x,-y,-z
x,-y,1/2+z
1/2+x,1/2+y,z
1/2-x,1/2+y,1/2-z
1/2-x,1/2-y,-z
1/2+x,1/2-y,1/2+z
loop_
_atom_site_type_symbol
_atom_site_label
_atom_site_fract_x
_atom_site_fract_y
_atom_site_fract_z
Si Si1 0.049671 0.820339 0.413200
Si Si2 0.433049 0.013667 0.566790
Si Si3 0.301891 0.025225 0.960222
Si Si4 0.000000 0.251035 0.750000
Si Si5 0.730916 0.272571 0.093823
Si Si6 0.792438 0.526820 0.223495
Si Si7 0.026607 0.988175 0.179199
Si Si8 0.812555 0.197802 0.199262
O O1 0.049788 0.641953 0.404509
O O2 0.178360 0.862135 0.451579
O O3 0.057690 0.920123 0.367947
O O4 0.908885 0.854338 0.427302
O O5 0.575826 0.079214 0.562756
O O6 0.357314 0.123797 0.595469
O O7 0.346807 0.987077 0.515574
O O8 0.250642 0.864999 0.939391
O O9 0.098486 0.356955 0.785650
O O10 0.931151 0.144644 0.782231
O O11 0.726737 0.223212 0.146940
O O12 0.671620 0.549429 0.178595
O O13 0.843518 0.355422 0.226822
O O14 0.759117 0.577404 0.273351
O O15 0.950456 0.124411 0.196440
#
# Coordination Sequence:
#
# PCOD8147821 Si02
#       8
#     8   8   8   4   8   8   8   8
#     4  11  23  41  67  97 139 177 227 284 337 408
#     4  10  24  42  69 102 138 183 230 281 351 415
#     4  10  22  45  68  99 142 182 227 288 343 410
#     4  12  26  42  70  94 132 174 220 284 344 398
#     4  11  23  43  66 103 136 177 230 284 338 416
#     4  12  25  45  67  97 131 178 223 283 339 410
#     4  12  24  45  64  94 134 176 225 283 336 409
#     4  12  24  46  68  95 137 179 231 281 349 405
#
# _framework density 22.593256
#
# number of rings (size 3 to 8) (size 9 to 14) (size 15 to 20)
#    0.000    0.800    5.333    0.800    3.733    1.600 
#    2.400    0.000    0.000    0.000    0.000    0.000 
#    0.000    0.000    0.000    0.000    0.000    0.000 
#
# Total GULP energy -371884.721142 kJ/mol
# GULP energy per Si atom -12396.157371 kJ/mol
# Density = 2.254183 g / cm^3
# Si number density = 22.593256 Si / 1000 Ang^3
#
#
#
# Elastic Constant Matrix: (Units=GPa)
#
#
# Indices 1 2 3 4 5 6 
#
# 1 115.0520 57.2950 21.1897 0.0000 18.6907 0.0000
# 2 57.2950 101.6786 23.1847 0.0000 3.9925 0.0000
# 3 21.1897 23.1847 76.5856 0.0000 11.4489 0.0000
# 4 0.0000 0.0000 0.0000 35.2037 0.0000 6.2492
# 5 18.6907 3.9925 11.4489 0.0000 33.9345 0.0000
# 6 0.0000 0.0000 0.0000 6.2492 0.0000 37.6562
#
#
#
# Elastic Compliance Matrix: (Units=1/GPa)
#
#
# Indices 1 2 3 4 5 6 
#
# 1 0.013399 -0.007167 -0.000590 0.000000 -0.006338 0.000000
# 2 -0.007167 0.014398 -0.002857 0.000000 0.003217 0.000000
# 3 -0.000590 -0.002857 0.014729 0.000000 -0.004308 0.000000
# 4 0.000000 0.000000 0.000000 0.029268 0.000000 -0.004857
# 5 -0.006338 0.003217 -0.004308 0.000000 0.034034 0.000000
# 6 0.000000 0.000000 0.000000 -0.004857 0.000000 0.027362
#
#
# Mechanical properties :
#
#
# Convention : Reuss Voigt Hill
#
# Bulk Modulus (GPa) = 46.95013 55.18389 51.06701
# Shear Modulus (GPa) = 30.95606 34.13530 32.54568
#
# Velocity S-wave (km/s) = 3.70556 3.89120 3.79952
# Velocity P-wave (km/s) = 6.25572 6.68330 6.47304
#
# Compressibility (1/GPa) = 0.02129920
#
# Stress axis : x y z
#
# Youngs Moduli (GPa) = 74.63227 69.45196 67.89097
#
# Poissons Ratio (x) = 0.49775 0.04007
# Poissons Ratio (y) = 0.53487 0.19396
# Poissons Ratio (z) = 0.04405 0.19842
#
# Static dielectric constant tensor:
#      x y z
#    x 4.264660 0.000000 0.153470 
#    y 0.000000 4.120670 0.000000 
#    z 0.153470 0.000000 3.849260 
# 
# 
# High freq. dielectric constant tensor:
#      x y z
#    x 1.907720 0.000000 0.014820 
#    y 0.000000 1.888930 0.000000 
#    z 0.014820 0.000000 1.872650 
# 
# From -- ./inp_files/310353.got.cif
#   From: 2010.06.25/outbox.cif.g09.slc.cpg/sg15_156_cif.got.tgz:310353.got - 2010.06.28 07:06:18.
