data_PCOD8147829
_publ_section_title
;
Structure prediction by ZEFSAII (Michael W. Deem and Ramdas Pophale) SiO2 
 PCOD8147829
Probable space group: C 2/C
;
_chemical_formula_sum "Si O2"
_cell_formula_units_Z 44
_cell_length_a 20.961867
_cell_length_b 17.675822
_cell_length_c 13.230490
_cell_angle_alpha 90.000000
_cell_angle_beta 24.534883
_cell_angle_gamma 90.000000
_cell_volume 2035.598828
_symmetry_space_group_name_H-M "C 2/C"
_symmetry_group_IT_number 15
_symmetry_cell_setting 'monoclinic'
loop_
_space_group_symop_operation_xyz
x,y,z
-x,y,1/2-z
-x,-y,-z
x,-y,1/2+z
1/2+x,1/2+y,z
1/2-x,1/2+y,1/2-z
1/2-x,1/2-y,-z
1/2+x,1/2-y,1/2+z
loop_
_atom_site_type_symbol
_atom_site_label
_atom_site_fract_x
_atom_site_fract_y
_atom_site_fract_z
Si Si1 0.760551 0.174419 0.217595
Si Si2 0.463410 0.911376 0.063999
Si Si3 0.500000 0.584718 0.750000
Si Si4 0.830895 0.395428 0.458737
Si Si5 0.144301 0.035325 0.733385
Si Si6 0.155742 0.338832 0.463609
O O1 0.616688 0.134481 0.370992
O O2 0.766759 0.163877 0.331861
O O3 0.761792 0.262194 0.189378
O O4 0.913202 0.136382 0.955559
O O5 0.330326 0.888951 0.337864
O O6 0.393378 0.887965 0.059850
O O7 0.500000 0.000000 0.000000
O O8 0.610229 0.533873 0.661746
O O9 0.784515 0.480027 0.555126
O O10 0.000000 0.381737 0.250000
O O11 0.207501 0.117737 0.674129
O O12 0.000000 0.000000 0.000000
O O13 0.000000 0.322295 0.750000
#
# Coordination Sequence:
#
# PCOD8147829 Si02
#       6
#     8   8   4   8   8   8
#     4  11  24  42  69 101 138 182 229 294 345 416
#     4  11  24  44  73  97 138 188 240 280 350 424
#     4  12  24  42  66  98 146 172 224 294 352 404
#     4  10  22  45  69  97 138 184 234 284 345 422
#     4  12  26  42  69 103 139 177 235 291 352 413
#     4  12  26  44  71 102 138 187 236 285 359 424
#
# _framework density 21.615261
#
# number of rings (size 3 to 8) (size 9 to 14) (size 15 to 20)
#    0.000    0.727    2.727    6.000    5.091    2.182 
#    0.000    3.636    0.000    0.000    0.000    0.000 
#    0.000    0.000    0.000    0.000    0.000    0.000 
#
# Total GULP energy -272612.536355 kJ/mol
# GULP energy per Si atom -12391.478925 kJ/mol
# Density = 2.156606 g / cm^3
# Si number density = 21.615261 Si / 1000 Ang^3
#
#
#
# Elastic Constant Matrix: (Units=GPa)
#
#
# Indices 1 2 3 4 5 6 
#
# 1 131.5706 49.0267 36.2642 -0.0006 25.6204 -0.0002
# 2 49.0267 149.0128 47.4980 -0.0032 8.5308 0.0003
# 3 36.2642 47.4980 114.9613 -0.0040 31.2706 0.0009
# 4 -0.0006 -0.0032 -0.0040 27.2011 0.0015 -2.9657
# 5 25.6204 8.5308 31.2706 0.0015 37.0765 0.0001
# 6 -0.0002 0.0003 0.0009 -2.9657 0.0001 25.6977
#
#
#
# Elastic Compliance Matrix: (Units=1/GPa)
#
#
# Indices 1 2 3 4 5 6 
#
# 1 0.009890 -0.002802 -0.000362 0.000000 -0.005885 0.000000
# 2 -0.002802 0.008563 -0.003432 0.000000 0.002861 0.000000
# 3 -0.000362 -0.003432 0.012910 0.000002 -0.009848 0.000000
# 4 0.000000 0.000000 0.000002 0.037232 -0.000003 0.004297
# 5 -0.005885 0.002861 -0.009848 -0.000003 0.038686 0.000000
# 6 0.000000 0.000000 0.000000 0.004297 0.000000 0.039410
#
#
# Mechanical properties :
#
#
# Convention : Reuss Voigt Hill
#
# Bulk Modulus (GPa) = 55.03121 73.45808 64.24465
# Shear Modulus (GPa) = 30.13173 35.51210 32.82192
#
# Velocity S-wave (km/s) = 3.73769 4.05769 3.90097
# Velocity P-wave (km/s) = 6.64393 7.48407 7.07648
#
# Compressibility (1/GPa) = 0.01817151
#
# Stress axis : x y z
#
# Youngs Moduli (GPa) = 101.11171 116.78283 77.46202
#
# Poissons Ratio (x) = 0.32720 0.02800
# Poissons Ratio (y) = 0.28330 0.26586
# Poissons Ratio (z) = 0.03655 0.40082
#
# Static dielectric constant tensor:
#      x y z
#    x 4.814060 0.000010 1.372010 
#    y 0.000010 3.892550 0.000040 
#    z 1.372010 0.000040 6.167580 
# 
# 
# High freq. dielectric constant tensor:
#      x y z
#    x 1.856530 0.000000 0.013640 
#    y 0.000000 1.841920 0.000000 
#    z 0.013640 0.000000 1.863950 
# 
# From -- ./inp_files/174186.got.cif
#   From: 2010.06.25/outbox.cif.g09.slc.cpg/sg15_88_cif.got.tgz:174186.got - 2010.06.28 07:06:18.
