data_PCOD8147023
_publ_section_title
;
Structure prediction by ZEFSAII (Michael W. Deem and Ramdas Pophale) SiO2 
 PCOD8147023
Probable space group: C 2/C
;
_chemical_formula_sum "Si O2"
_cell_formula_units_Z 64
_cell_length_a 16.859070
_cell_length_b 9.272717
_cell_length_c 31.325551
_cell_angle_alpha 90.000000
_cell_angle_beta 143.008829
_cell_angle_gamma 90.000000
_cell_volume 2946.548130
_symmetry_space_group_name_H-M "C 2/C"
_symmetry_group_IT_number 15
_symmetry_cell_setting 'monoclinic'
loop_
_space_group_symop_operation_xyz
x,y,z
-x,y,1/2-z
-x,-y,-z
x,-y,1/2+z
1/2+x,1/2+y,z
1/2-x,1/2+y,1/2-z
1/2-x,1/2-y,-z
1/2+x,1/2-y,1/2+z
loop_
_atom_site_type_symbol
_atom_site_label
_atom_site_fract_x
_atom_site_fract_y
_atom_site_fract_z
Si Si1 0.803219 0.592358 0.032659
Si Si2 0.603855 0.857047 0.661840
Si Si3 0.679250 0.973992 0.373411
Si Si4 0.645538 0.723403 0.821621
Si Si5 0.034394 0.764655 0.695501
Si Si6 0.230041 0.341360 0.212898
Si Si7 0.228739 0.273229 0.636228
Si Si8 0.805238 0.979695 0.597331
O O1 0.744214 0.526158 0.050963
O O2 0.958379 0.591836 0.109701
O O3 0.750000 0.750000 0.000000
O O4 0.769608 0.482646 0.980068
O O5 0.640125 0.723042 0.708135
O O6 0.604089 0.800160 0.613155
O O7 0.710577 0.987427 0.712805
O O8 0.555127 0.871742 0.330557
O O9 0.782751 0.885142 0.389131
O O10 0.634089 0.107533 0.325326
O O11 0.500000 0.662095 0.750000
O O12 0.750451 0.689415 0.828948
O O13 0.690412 0.643347 0.883976
O O14 0.103891 0.737894 0.679639
O O15 0.138485 0.788990 0.778317
O O16 0.949324 0.909596 0.653602
O O17 0.222197 0.388182 0.595502
#
# Coordination Sequence:
#
# PCOD8147023 Si02
#       8
#     8   8   8   8   8   8   8   8
#     4  12  26  45  64  96 140 186 225 266 338 414
#     4  11  25  45  67 103 136 177 221 287 338 402
#     4  11  22  42  65  95 131 178 218 276 340 390
#     4  12  23  38  66 102 132 172 224 276 343 395
#     4  10  22  43  69 101 130 170 227 290 334 389
#     4  11  25  42  71 102 135 168 227 286 349 388
#     4  10  22  42  68  99 130 165 230 288 332 385
#     4  11  23  41  66  91 136 178 222 269 331 408
#
# _framework density 21.720331000000002
#
# number of rings (size 3 to 8) (size 9 to 14) (size 15 to 20)
#    0.000    1.000    3.750    3.750    5.250    2.500 
#    0.000    0.625    0.000    0.000    0.000    0.000 
#    0.000    0.000    0.000    0.000    0.000    0.000 
#
# Total GULP energy -396744.542785 kJ/mol
# GULP energy per Si atom -12398.266962 kJ/mol
# Density = 2.167089 g / cm^3
# Si number density = 21.720331 Si / 1000 Ang^3
#
#
#
# Elastic Constant Matrix: (Units=GPa)
#
#
# Indices 1 2 3 4 5 6 
#
# 1 94.5897 34.4248 17.1976 0.0000 -20.3861 0.0000
# 2 34.4248 126.0958 39.4839 0.0000 -7.1660 0.0000
# 3 17.1976 39.4839 80.5950 0.0000 -21.6684 0.0000
# 4 0.0000 0.0000 0.0000 37.7899 0.0000 -9.9346
# 5 -20.3861 -7.1660 -21.6684 0.0000 25.9333 0.0000
# 6 0.0000 0.0000 0.0000 -9.9346 0.0000 37.5340
#
#
#
# Elastic Compliance Matrix: (Units=1/GPa)
#
#
# Indices 1 2 3 4 5 6 
#
# 1 0.014124 -0.003819 0.002010 0.000000 0.011727 0.000000
# 2 -0.003819 0.010452 -0.005593 0.000000 -0.004787 0.000000
# 3 0.002010 -0.005593 0.018995 0.000000 0.015906 0.000000
# 4 0.000000 0.000000 0.000000 0.028441 0.000000 0.007528
# 5 0.011727 -0.004787 0.015906 0.000000 0.059746 0.000000
# 6 0.000000 0.000000 0.000000 0.007528 0.000000 0.028635
#
#
# Mechanical properties :
#
#
# Convention : Reuss Voigt Hill
#
# Bulk Modulus (GPa) = 34.76094 53.72146 44.24120
# Shear Modulus (GPa) = 27.05838 34.26305 30.66071
#
# Velocity S-wave (km/s) = 3.53337 3.97604 3.76122
# Velocity P-wave (km/s) = 5.71707 6.77241 6.26699
#
# Compressibility (1/GPa) = 0.02876792
#
# Stress axis : x y z
#
# Youngs Moduli (GPa) = 70.80292 95.67368 52.64524
#
# Poissons Ratio (x) = 0.36535 -0.10581
# Poissons Ratio (y) = 0.27038 0.29443
# Poissons Ratio (z) = -0.14230 0.53507
#
# Static dielectric constant tensor:
#      x y z
#    x 4.231770 0.000000 -0.271710 
#    y 0.000000 4.048440 0.000000 
#    z -0.271710 0.000000 3.631790 
# 
# 
# High freq. dielectric constant tensor:
#      x y z
#    x 1.864610 0.000000 -0.026270 
#    y 0.000000 1.868740 0.000000 
#    z -0.026270 0.000000 1.819570 
# 
# From -- ./inp_files/315760.got.cif
#   From: 2010.06.25/outbox.cif.g09.slc.cpg/sg15_158_cif.got.tgz:315760.got - 2010.06.28 07:06:18.
