data_PCOD8147437
_publ_section_title
;
Structure prediction by ZEFSAII (Michael W. Deem and Ramdas Pophale) SiO2 
 PCOD8147437
Probable space group: C 2/C
;
_chemical_formula_sum "Si O2"
_cell_formula_units_Z 36
_cell_length_a 17.673150
_cell_length_b 20.740156
_cell_length_c 7.200240
_cell_angle_alpha 90.000000
_cell_angle_beta 35.120044
_cell_angle_gamma 90.000000
_cell_volume 1518.311431
_symmetry_space_group_name_H-M "C 2/C"
_symmetry_group_IT_number 15
_symmetry_cell_setting 'monoclinic'
loop_
_space_group_symop_operation_xyz
x,y,z
-x,y,1/2-z
-x,-y,-z
x,-y,1/2+z
1/2+x,1/2+y,z
1/2-x,1/2+y,1/2-z
1/2-x,1/2-y,-z
1/2+x,1/2-y,1/2+z
loop_
_atom_site_type_symbol
_atom_site_label
_atom_site_fract_x
_atom_site_fract_y
_atom_site_fract_z
Si Si1 0.614000 0.418372 0.261881
Si Si2 0.220078 0.209714 0.379153
Si Si3 0.674972 0.557543 0.054461
Si Si4 0.000000 0.301070 0.750000
Si Si5 0.910737 0.369041 0.271661
O O1 0.680306 0.480043 0.028351
O O2 0.455922 0.423331 0.569648
O O3 0.668390 0.412177 0.362494
O O4 0.651701 0.356963 0.068541
O O5 0.250000 0.250000 0.500000
O O6 0.124248 0.255890 0.455542
O O7 0.345725 0.193988 0.999423
O O8 0.802802 0.583093 0.904122
O O9 0.988007 0.345995 0.591817
O O10 0.000000 0.404635 0.250000
#
# Coordination Sequence:
#
# PCOD8147437 Si02
#       5
#     8   8   8   4   8
#     4  10  22  43  72 104 135 178 242 292 352 402
#     4  12  24  43  69  98 139 183 232 285 343 418
#     4  10  22  43  73 103 137 181 233 302 346 408
#     4  12  26  46  72 104 142 192 236 290 350 418
#     4  12  26  46  71 107 145 187 235 287 358 424
#
# _framework density 23.710550999999999
#
# number of rings (size 3 to 8) (size 9 to 14) (size 15 to 20)
#    0.000    0.889    2.222    4.667    0.000    7.111 
#    0.000    4.444    2.444    0.000    0.000    0.000 
#    0.000    0.000    0.000    0.000    0.000    0.000 
#
# Total GULP energy -223241.983332 kJ/mol
# GULP energy per Si atom -12402.332407 kJ/mol
# Density = 2.365658 g / cm^3
# Si number density = 23.710551 Si / 1000 Ang^3
#
#
#
# Elastic Constant Matrix: (Units=GPa)
#
#
# Indices 1 2 3 4 5 6 
#
# 1 139.0926 38.6268 31.4534 0.0001 -20.7985 -0.0001
# 2 38.6268 103.4183 32.8209 0.0001 1.7265 0.0000
# 3 31.4534 32.8209 88.0501 0.0001 3.1236 -0.0001
# 4 0.0001 0.0001 0.0001 14.1908 -0.0001 -8.3432
# 5 -20.7985 1.7265 3.1236 -0.0001 44.7781 0.0001
# 6 -0.0001 0.0000 -0.0001 -8.3432 0.0001 42.8188
#
#
#
# Elastic Compliance Matrix: (Units=1/GPa)
#
#
# Indices 1 2 3 4 5 6 
#
# 1 0.009174 -0.002735 -0.002419 0.000000 0.004535 0.000000
# 2 -0.002735 0.011783 -0.003362 0.000000 -0.001490 0.000000
# 3 -0.002419 -0.003362 0.013543 0.000000 -0.001939 0.000000
# 4 0.000000 0.000000 0.000000 0.079585 0.000000 0.015507
# 5 0.004535 -0.001490 -0.001939 0.000000 0.024632 0.000000
# 6 0.000000 0.000000 0.000000 0.015507 0.000000 0.026376
#
#
# Mechanical properties :
#
#
# Convention : Reuss Voigt Hill
#
# Bulk Modulus (GPa) = 57.24512 59.59592 58.42052
# Shear Modulus (GPa) = 26.60328 35.53487 31.06907
#
# Velocity S-wave (km/s) = 3.35326 3.87550 3.62380
# Velocity P-wave (km/s) = 6.26005 6.72423 6.49629
#
# Compressibility (1/GPa) = 0.01746874
#
# Stress axis : x y z
#
# Youngs Moduli (GPa) = 109.00402 84.86950 73.83734
#
# Poissons Ratio (x) = 0.23208 0.17859
# Poissons Ratio (y) = 0.29808 0.24827
# Poissons Ratio (z) = 0.26365 0.28536
#
# Static dielectric constant tensor:
#      x y z
#    x 4.649830 0.000000 -0.221130 
#    y 0.000000 4.231590 0.000000 
#    z -0.221130 0.000000 1.138790 
# 
# 
# High freq. dielectric constant tensor:
#      x y z
#    x 1.961930 0.000000 0.006140 
#    y 0.000000 1.926950 0.000000 
#    z 0.006140 0.000000 1.935770 
# 
# From -- ./inp_files/56914.got.cif
#   From: 2010.06.25/outbox.cif.g09.slc.cpg/sg15_29_cif.got.tgz:56914.got - 2010.06.28 07:06:18.
