data_PCOD8147125
_publ_section_title
;
Structure prediction by ZEFSAII (Michael W. Deem and Ramdas Pophale) SiO2 
 PCOD8147125
Probable space group: C 2/C
;
_chemical_formula_sum "Si O2"
_cell_formula_units_Z 44
_cell_length_a 11.285926
_cell_length_b 20.533659
_cell_length_c 9.009165
_cell_angle_alpha 90.000000
_cell_angle_beta 65.266048
_cell_angle_gamma 90.000000
_cell_volume 1896.262535
_symmetry_space_group_name_H-M "C 2/C"
_symmetry_group_IT_number 15
_symmetry_cell_setting 'monoclinic'
loop_
_space_group_symop_operation_xyz
x,y,z
-x,y,1/2-z
-x,-y,-z
x,-y,1/2+z
1/2+x,1/2+y,z
1/2-x,1/2+y,1/2-z
1/2-x,1/2-y,-z
1/2+x,1/2-y,1/2+z
loop_
_atom_site_type_symbol
_atom_site_label
_atom_site_fract_x
_atom_site_fract_y
_atom_site_fract_z
Si Si1 0.149583 0.675835 0.687736
Si Si2 0.500000 0.859465 0.750000
Si Si3 0.857182 0.266160 0.602540
Si Si4 0.236649 0.925024 0.942063
Si Si5 0.701325 0.441281 0.298603
Si Si6 0.507390 0.357881 0.920985
O O1 0.207459 0.687873 0.491608
O O2 0.235308 0.726985 0.743764
O O3 0.171091 0.602786 0.731607
O O4 0.000000 0.694366 0.750000
O O5 0.437672 0.813378 0.661872
O O6 0.387436 0.903737 0.881351
O O7 0.961363 0.214353 0.484441
O O8 0.154914 0.867455 0.904923
O O9 0.230509 0.986753 0.837644
O O10 0.178184 0.942072 0.134016
O O11 0.577196 0.412105 0.447963
O O12 0.500000 0.371391 0.750000
#
# Coordination Sequence:
#
# PCOD8147125 Si02
#       6
#     8   4   8   8   8   8
#     4  10  22  42  71  97 138 186 229 288 359 414
#     4  12  30  44  70 110 150 190 242 290 354 428
#     4  10  25  42  70 105 145 182 240 284 359 425
#     4  12  28  46  74 104 149 190 240 297 356 421
#     4  11  26  47  74 107 142 187 243 297 355 429
#     4  11  25  47  79 107 142 187 239 298 359 425
#
# _framework density 23.203537000000001
#
# number of rings (size 3 to 8) (size 9 to 14) (size 15 to 20)
#    0.000    1.091    0.000    3.818   19.091    1.455 
#    0.000    0.000    0.000    0.000    0.000    0.000 
#    0.000    0.000    0.000    0.000    0.000    0.000 
#
# Total GULP energy -272729.318284 kJ/mol
# GULP energy per Si atom -12396.787195 kJ/mol
# Density = 2.315072 g / cm^3
# Si number density = 23.203537 Si / 1000 Ang^3
#
#
#
# Elastic Constant Matrix: (Units=GPa)
#
#
# Indices 1 2 3 4 5 6 
#
# 1 101.1372 13.0164 29.8486 0.0000 -5.3931 0.0000
# 2 13.0164 82.6726 25.7290 0.0000 16.6315 0.0000
# 3 29.8486 25.7290 117.1962 0.0000 11.8961 0.0000
# 4 0.0000 0.0000 0.0000 25.2250 0.0000 11.0841
# 5 -5.3931 16.6315 11.8961 0.0000 44.7784 0.0000
# 6 0.0000 0.0000 0.0000 11.0841 0.0000 50.2110
#
#
#
# Elastic Compliance Matrix: (Units=1/GPa)
#
#
# Indices 1 2 3 4 5 6 
#
# 1 0.011020 -0.001394 -0.002762 0.000000 0.002579 0.000000
# 2 -0.001394 0.013967 -0.002228 0.000000 -0.004764 0.000000
# 3 -0.002762 -0.002228 0.009943 0.000000 -0.002147 0.000000
# 4 0.000000 0.000000 0.000000 0.043902 0.000000 -0.009691
# 5 0.002579 -0.004764 -0.002147 0.000000 0.024982 0.000000
# 6 0.000000 0.000000 0.000000 -0.009691 0.000000 0.022055
#
#
# Mechanical properties :
#
#
# Convention : Reuss Voigt Hill
#
# Bulk Modulus (GPa) = 45.12284 48.68823 46.90554
# Shear Modulus (GPa) = 34.24075 39.53702 36.88888
#
# Velocity S-wave (km/s) = 3.84561 4.13234 3.99155
# Velocity P-wave (km/s) = 6.26155 6.61793 6.44220
#
# Compressibility (1/GPa) = 0.02216172
#
# Stress axis : x y z
#
# Youngs Moduli (GPa) = 90.74628 71.59724 100.57116
#
# Poissons Ratio (x) = 0.09982 0.27781
# Poissons Ratio (y) = 0.12651 0.22404
# Poissons Ratio (z) = 0.25067 0.15950
#
# Static dielectric constant tensor:
#      x y z
#    x 33.639090 0.000000 0.308500 
#    y 0.000000 4.161800 0.000000 
#    z 0.308500 0.000000 4.190410 
# 
# 
# High freq. dielectric constant tensor:
#      x y z
#    x 1.936060 0.000000 -0.002650 
#    y 0.000000 1.920940 0.000000 
#    z -0.002650 0.000000 1.910470 
# 
# From -- ./inp_files/30739.got.cif
#   From: 2010.06.25/outbox.cif.g09.slc.cpg/sg15_16_cif.got.tgz:30739.got - 2010.06.28 07:06:18.
