data_PCOD8147857
_publ_section_title
;
Structure prediction by ZEFSAII (Michael W. Deem and Ramdas Pophale) SiO2 
 PCOD8147857
Probable space group: C 2/C
;
_chemical_formula_sum "Si O2"
_cell_formula_units_Z 40
_cell_length_a 13.687044
_cell_length_b 10.340697
_cell_length_c 13.180155
_cell_angle_alpha 90.000000
_cell_angle_beta 113.535065
_cell_angle_gamma 90.000000
_cell_volume 1710.259909
_symmetry_space_group_name_H-M "C 2/C"
_symmetry_group_IT_number 15
_symmetry_cell_setting 'monoclinic'
loop_
_space_group_symop_operation_xyz
x,y,z
-x,y,1/2-z
-x,-y,-z
x,-y,1/2+z
1/2+x,1/2+y,z
1/2-x,1/2+y,1/2-z
1/2-x,1/2-y,-z
1/2+x,1/2-y,1/2+z
loop_
_atom_site_type_symbol
_atom_site_label
_atom_site_fract_x
_atom_site_fract_y
_atom_site_fract_z
Si Si1 0.886368 0.229982 0.657855
Si Si2 0.211651 0.262399 0.233215
Si Si3 0.614455 0.968507 0.337113
Si Si4 0.460523 0.353054 0.979092
Si Si5 0.667116 0.184199 0.040218
O O1 0.786442 0.171819 0.677932
O O2 0.864516 0.381279 0.664065
O O3 0.882770 0.179573 0.541357
O O4 0.000000 0.187000 0.750000
O O5 0.192316 0.383262 0.300158
O O6 0.107656 0.186947 0.148531
O O7 0.275632 0.155454 0.328307
O O8 0.500000 0.927591 0.250000
O O9 0.625326 0.941520 0.462819
O O10 0.500000 0.500000 0.000000
O O11 0.566299 0.270431 0.026580
O O12 0.750000 0.250000 0.000000
#
# Coordination Sequence:
#
# PCOD8147857 Si02
#       5
#     8   8   8   8   8
#     4  11  25  46  70 105 141 188 240 300 355 426
#     4  11  24  46  70 102 144 195 235 296 369 414
#     4  10  22  45  72 101 137 182 250 295 349 428
#     4  12  27  49  68 109 150 188 238 297 368 435
#     4  10  23  45  69 104 137 188 242 289 356 430
#
# _framework density 23.388258
#
# number of rings (size 3 to 8) (size 9 to 14) (size 15 to 20)
#    0.000    1.200    4.000    0.600    5.600    2.400 
#   14.400    0.000    0.000    0.000    0.000    0.000 
#    0.000    0.000    0.000    0.000    0.000    0.000 
#
# Total GULP energy -247870.472130 kJ/mol
# GULP energy per Si atom -12393.523607 kJ/mol
# Density = 2.333503 g / cm^3
# Si number density = 23.388258 Si / 1000 Ang^3
#
#
#
# Elastic Constant Matrix: (Units=GPa)
#
#
# Indices 1 2 3 4 5 6 
#
# 1 108.7029 30.8699 40.1446 0.0000 -17.6023 0.0000
# 2 30.8699 67.1526 32.9549 0.0000 -6.7260 0.0000
# 3 40.1446 32.9549 158.5453 0.0000 7.4615 0.0000
# 4 0.0000 0.0000 0.0000 24.0662 0.0000 -7.7593
# 5 -17.6023 -6.7260 7.4615 0.0000 52.7649 0.0000
# 6 0.0000 0.0000 0.0000 -7.7593 0.0000 20.4658
#
#
#
# Elastic Compliance Matrix: (Units=1/GPa)
#
#
# Indices 1 2 3 4 5 6 
#
# 1 0.011782 -0.003884 -0.002353 0.000000 0.003768 0.000000
# 2 -0.003884 0.018231 -0.002874 0.000000 0.001435 0.000000
# 3 -0.002353 -0.002874 0.007605 0.000000 -0.002227 0.000000
# 4 0.000000 0.000000 0.000000 0.047339 0.000000 0.017948
# 5 0.003768 0.001435 -0.002227 0.000000 0.020707 0.000000
# 6 0.000000 0.000000 0.000000 0.017948 0.000000 0.055667
#
#
# Mechanical properties :
#
#
# Convention : Reuss Voigt Hill
#
# Bulk Modulus (GPa) = 51.55557 60.25995 55.90776
# Shear Modulus (GPa) = 26.87942 34.82147 30.85044
#
# Velocity S-wave (km/s) = 3.39377 3.86274 3.63582
# Velocity P-wave (km/s) = 6.11948 6.76131 6.44839
#
# Compressibility (1/GPa) = 0.01939655
#
# Stress axis : x y z
#
# Youngs Moduli (GPa) = 84.87881 54.85272 131.48770
#
# Poissons Ratio (x) = 0.21303 0.30942
# Poissons Ratio (y) = 0.32964 0.37783
# Poissons Ratio (z) = 0.19974 0.15762
#
# Static dielectric constant tensor:
#      x y z
#    x 4.395640 0.000000 0.029750 
#    y 0.000000 3.846780 0.000000 
#    z 0.029750 0.000000 4.938520 
# 
# 
# High freq. dielectric constant tensor:
#      x y z
#    x 1.944110 0.000000 0.002580 
#    y 0.000000 1.895870 0.000000 
#    z 0.002580 0.000000 1.948760 
# 
# From -- ./inp_files/95159.got.cif
#   From: 2010.06.25/outbox.cif.g09.slc.cpg/sg15_48_cif.got.tgz:95159.got - 2010.06.28 07:06:18.
