data_PCOD8147553
_publ_section_title
;
Structure prediction by ZEFSAII (Michael W. Deem and Ramdas Pophale) SiO2 
 PCOD8147553
Probable space group: C 2/C
;
_chemical_formula_sum "Si O2"
_cell_formula_units_Z 52
_cell_length_a 23.178597
_cell_length_b 7.079227
_cell_length_c 18.072930
_cell_angle_alpha 90.000000
_cell_angle_beta 122.280762
_cell_angle_gamma 90.000000
_cell_volume 2507.176793
_symmetry_space_group_name_H-M "C 2/C"
_symmetry_group_IT_number 15
_symmetry_cell_setting 'monoclinic'
loop_
_space_group_symop_operation_xyz
x,y,z
-x,y,1/2-z
-x,-y,-z
x,-y,1/2+z
1/2+x,1/2+y,z
1/2-x,1/2+y,1/2-z
1/2-x,1/2-y,-z
1/2+x,1/2-y,1/2+z
loop_
_atom_site_type_symbol
_atom_site_label
_atom_site_fract_x
_atom_site_fract_y
_atom_site_fract_z
Si Si1 0.029787 0.291645 0.026351
Si Si2 0.941506 0.971908 0.561768
Si Si3 0.707822 0.438799 0.987475
Si Si4 0.267604 0.943153 0.674041
Si Si5 0.657261 0.290341 0.705895
Si Si6 0.143463 0.119810 0.804957
Si Si7 0.500000 0.571952 0.750000
O O1 0.094408 0.312249 0.124134
O O2 0.969795 0.165619 0.018843
O O3 0.000000 0.500000 0.000000
O O4 0.052945 0.190027 0.964900
O O5 0.865069 0.899102 0.524392
O O6 0.984785 0.946730 0.666880
O O7 0.696181 0.562051 0.905867
O O8 0.750000 0.250000 0.000000
O O9 0.752439 0.556063 0.076332
O O10 0.200136 0.899299 0.673505
O O11 0.324369 0.781657 0.724001
O O12 0.295748 0.142448 0.719745
O O13 0.628203 0.437939 0.744803
O O14 0.069725 0.192979 0.785027
#
# Coordination Sequence:
#
# PCOD8147553 Si02
#       7
#     8   8   8   8   8   8   4
#     4  11  25  42  67  98 128 171 224 272 329 390
#     4  10  23  44  67  90 136 169 215 276 323 387
#     4  11  23  44  67  97 136 178 214 267 340 395
#     4  12  25  42  68 100 132 175 220 272 330 393
#     4  12  24  42  68  99 131 170 226 272 324 393
#     4  11  24  44  67  95 133 171 218 271 327 391
#     4  10  22  44  66  90 130 176 204 266 328 378
#
# _framework density 20.740459999999999
#
# number of rings (size 3 to 8) (size 9 to 14) (size 15 to 20)
#    0.000    0.923    6.154    0.462    2.154    2.462 
#    5.538    1.538    0.000    0.000    0.000    0.000 
#    0.000    0.000    0.000    0.000    0.000    0.000 
#
# Total GULP energy -322340.314017 kJ/mol
# GULP energy per Si atom -12397.704385 kJ/mol
# Density = 2.069325 g / cm^3
# Si number density = 20.740460 Si / 1000 Ang^3
#
#
#
# Elastic Constant Matrix: (Units=GPa)
#
#
# Indices 1 2 3 4 5 6 
#
# 1 115.3475 46.6745 26.8268 -0.0001 6.8034 0.0000
# 2 46.6745 100.0456 40.5192 -0.0005 1.9486 -0.0004
# 3 26.8268 40.5192 120.1871 0.0001 -3.1707 0.0000
# 4 -0.0001 -0.0005 0.0001 16.6504 0.0000 -6.5433
# 5 6.8034 1.9486 -3.1707 0.0000 36.0021 0.0000
# 6 0.0000 -0.0004 0.0000 -6.5433 0.0000 30.5548
#
#
#
# Elastic Compliance Matrix: (Units=1/GPa)
#
#
# Indices 1 2 3 4 5 6 
#
# 1 0.010882 -0.004675 -0.000903 0.000000 -0.001883 0.000000
# 2 -0.004675 0.013618 -0.003552 0.000001 -0.000167 0.000000
# 3 -0.000903 -0.003552 0.009752 0.000000 0.001222 0.000000
# 4 0.000000 0.000001 0.000000 0.065577 0.000000 0.014043
# 5 -0.001883 -0.000167 0.001222 0.000000 0.028249 0.000000
# 6 0.000000 0.000000 0.000000 0.014043 0.000000 0.035735
#
#
# Mechanical properties :
#
#
# Convention : Reuss Voigt Hill
#
# Bulk Modulus (GPa) = 62.52721 62.62459 62.57590
# Shear Modulus (GPa) = 26.68050 31.41212 29.04631
#
# Velocity S-wave (km/s) = 3.59053 3.89592 3.74634
# Velocity P-wave (km/s) = 6.88492 7.10616 6.99642
#
# Compressibility (1/GPa) = 0.01599304
#
# Stress axis : x y z
#
# Youngs Moduli (GPa) = 91.89521 73.43135 102.54699
#
# Poissons Ratio (x) = 0.34326 0.09257
# Poissons Ratio (y) = 0.42957 0.36426
# Poissons Ratio (z) = 0.08295 0.26084
#
# Static dielectric constant tensor:
#      x y z
#    x 3.970080 0.000000 -0.069350 
#    y 0.000000 3.464300 0.000000 
#    z -0.069350 0.000000 3.992360 
# 
# 
# High freq. dielectric constant tensor:
#      x y z
#    x 1.829310 0.000000 0.001350 
#    y 0.000000 1.785800 0.000000 
#    z 0.001350 0.000000 1.828910 
# 
# From -- ./inp_files/256812.got.cif
#   From: 2010.06.25/outbox.cif.g09.slc.cpg/sg15_129_cif.got.tgz:256812.got - 2010.06.28 07:06:18.
