data_PCOD8147905
_publ_section_title
;
Structure prediction by ZEFSAII (Michael W. Deem and Ramdas Pophale) SiO2 
 PCOD8147905
Probable space group: C 2/C
;
_chemical_formula_sum "Si O2"
_cell_formula_units_Z 44
_cell_length_a 20.101397
_cell_length_b 5.137077
_cell_length_c 18.524242
_cell_angle_alpha 90.000000
_cell_angle_beta 114.832016
_cell_angle_gamma 90.000000
_cell_volume 1736.000922
_symmetry_space_group_name_H-M "C 2/C"
_symmetry_group_IT_number 15
_symmetry_cell_setting 'monoclinic'
loop_
_space_group_symop_operation_xyz
x,y,z
-x,y,1/2-z
-x,-y,-z
x,-y,1/2+z
1/2+x,1/2+y,z
1/2-x,1/2+y,1/2-z
1/2-x,1/2-y,-z
1/2+x,1/2-y,1/2+z
loop_
_atom_site_type_symbol
_atom_site_label
_atom_site_fract_x
_atom_site_fract_y
_atom_site_fract_z
Si Si1 0.626226 0.357407 0.388904
Si Si2 0.287029 0.268184 0.299045
Si Si3 0.285450 0.158859 0.589270
Si Si4 0.435442 0.009377 0.363244
Si Si5 0.500000 0.916488 0.750000
Si Si6 0.057773 0.207165 0.001943
O O1 0.649430 0.634327 0.365096
O O2 0.550838 0.280007 0.317375
O O3 0.617574 0.398150 0.472050
O O4 0.686100 0.134983 0.401901
O O5 0.256603 0.502955 0.237463
O O6 0.275923 0.333397 0.377497
O O7 0.374398 0.234947 0.325222
O O8 0.250000 0.250000 0.500000
O O9 0.456038 0.912086 0.290771
O O10 0.512180 0.075641 0.437128
O O11 0.401516 0.800869 0.405051
O O12 0.000000 0.000000 0.000000
#
# Coordination Sequence:
#
# PCOD8147905 Si02
#       6
#     8   8   8   8   4   8
#     4  11  26  45  71 104 140 179 239 286 356 416
#     4  12  27  46  71 104 146 190 235 287 357 429
#     4  12  26  46  72 102 142 188 235 291 347 423
#     4  10  23  43  67 100 136 180 234 288 351 421
#     4  10  22  46  68 100 138 180 228 296 352 414
#     4  10  24  42  71 100 134 183 231 299 348 411
#
# _framework density 25.345611000000002
#
# number of rings (size 3 to 8) (size 9 to 14) (size 15 to 20)
#    0.000    1.091    0.000    4.909   12.727    0.727 
#    3.273    0.000    0.000    0.000    0.000    0.000 
#    0.000    0.000    0.000    0.000    0.000    0.000 
#
# Total GULP energy -272662.986087 kJ/mol
# GULP energy per Si atom -12393.772095 kJ/mol
# Density = 2.528792 g / cm^3
# Si number density = 25.345611 Si / 1000 Ang^3
#
#
#
# Elastic Constant Matrix: (Units=GPa)
#
#
# Indices 1 2 3 4 5 6 
#
# 1 105.0229 2.0850 45.2643 0.0000 -44.2468 0.0002
# 2 2.0850 77.1138 8.6729 0.0003 -13.5549 0.0007
# 3 45.2643 8.6729 140.8732 0.0002 -38.5482 0.0001
# 4 0.0000 0.0003 0.0002 27.3460 0.0000 -5.6066
# 5 -44.2468 -13.5549 -38.5482 0.0000 64.6575 0.0001
# 6 0.0002 0.0007 0.0001 -5.6066 0.0001 35.2249
#
#
#
# Elastic Compliance Matrix: (Units=1/GPa)
#
#
# Indices 1 2 3 4 5 6 
#
# 1 0.014084 0.001382 -0.002263 0.000000 0.008578 0.000000
# 2 0.001382 0.013600 -0.000290 0.000000 0.003624 0.000000
# 3 -0.002263 -0.000290 0.008846 0.000000 0.003665 0.000000
# 4 0.000000 0.000000 0.000000 0.037802 0.000000 0.006017
# 5 0.008578 0.003624 0.003665 0.000000 0.024281 0.000000
# 6 0.000000 0.000000 0.000000 0.006017 0.000000 0.029347
#
#
# Mechanical properties :
#
#
# Convention : Reuss Voigt Hill
#
# Bulk Modulus (GPa) = 29.24980 48.33938 38.79459
# Shear Modulus (GPa) = 35.28632 43.24487 39.26560
#
# Velocity S-wave (km/s) = 3.73528 4.13511 3.94027
# Velocity P-wave (km/s) = 5.49258 6.47397 6.00337
#
# Compressibility (1/GPa) = 0.03418827
#
# Stress axis : x y z
#
# Youngs Moduli (GPa) = 71.00380 73.52906 113.04081
#
# Poissons Ratio (x) = -0.10159 0.25581
# Poissons Ratio (y) = -0.09810 0.03273
# Poissons Ratio (z) = 0.16068 0.02129
#
# Static dielectric constant tensor:
#      x y z
#    x 3.818930 0.000000 -0.614950 
#    y 0.000000 4.519360 0.000000 
#    z -0.614950 0.000000 5.132600 
# 
# 
# High freq. dielectric constant tensor:
#      x y z
#    x 2.019380 0.000000 -0.015300 
#    y 0.000000 1.990220 0.000000 
#    z -0.015300 0.000000 2.033420 
# 
# From -- ./inp_files/212965.got.cif
#   From: 2010.06.25/outbox.cif.g09.slc.cpg/sg15_107_cif.got.tgz:212965.got - 2010.06.28 07:06:18.
