data_PCOD8147784
_publ_section_title
;
Structure prediction by ZEFSAII (Michael W. Deem and Ramdas Pophale) SiO2 
 PCOD8147784
Probable space group: C 2/C
;
_chemical_formula_sum "Si O2"
_cell_formula_units_Z 40
_cell_length_a 10.755594
_cell_length_b 18.832712
_cell_length_c 9.356229
_cell_angle_alpha 90.000000
_cell_angle_beta 100.232645
_cell_angle_gamma 90.000000
_cell_volume 1865.026193
_symmetry_space_group_name_H-M "C 2/C"
_symmetry_group_IT_number 15
_symmetry_cell_setting 'monoclinic'
loop_
_space_group_symop_operation_xyz
x,y,z
-x,y,1/2-z
-x,-y,-z
x,-y,1/2+z
1/2+x,1/2+y,z
1/2-x,1/2+y,1/2-z
1/2-x,1/2-y,-z
1/2+x,1/2-y,1/2+z
loop_
_atom_site_type_symbol
_atom_site_label
_atom_site_fract_x
_atom_site_fract_y
_atom_site_fract_z
Si Si1 0.786999 0.436332 0.543677
Si Si2 0.143518 0.573011 0.767940
Si Si3 0.448355 0.626703 0.384678
Si Si4 0.282566 0.790871 0.649039
Si Si5 0.679545 0.302645 0.091221
O O1 0.843705 0.503113 0.634803
O O2 0.813885 0.445451 0.382822
O O3 0.634330 0.430021 0.539747
O O4 0.854076 0.364465 0.620039
O O5 0.226129 0.635385 0.848234
O O6 0.000000 0.598961 0.750000
O O7 0.500000 0.589825 0.250000
O O8 0.354041 0.689041 0.309654
O O9 0.555018 0.661212 0.504500
O O10 0.250000 0.750000 0.500000
O O11 0.360682 0.742811 0.776164
O O12 0.750000 0.250000 0.000000
#
# Coordination Sequence:
#
# PCOD8147784 Si02
#       5
#     8   8   8   8   8
#     4  10  26  48  68 101 145 184 241 288 355 429
#     4  12  28  48  71 105 143 191 240 293 361 431
#     4  10  23  45  70 105 143 180 240 290 355 421
#     4  10  22  45  65 104 144 176 233 290 346 420
#     4  12  24  42  77 106 140 191 232 293 364 414
#
# _framework density 21.447420000000001
#
# number of rings (size 3 to 8) (size 9 to 14) (size 15 to 20)
#    1.200    0.000    4.000    0.600    8.400    4.000 
#    3.600    0.000    0.000    0.000    0.000    0.000 
#    0.000    0.000    0.000    0.000    0.000    0.000 
#
# Total GULP energy -247843.431776 kJ/mol
# GULP energy per Si atom -12392.171589 kJ/mol
# Density = 2.139860 g / cm^3
# Si number density = 21.447420 Si / 1000 Ang^3
#
#
#
# Elastic Constant Matrix: (Units=GPa)
#
#
# Indices 1 2 3 4 5 6 
#
# 1 81.7742 -8.0005 22.5335 0.0000 -2.4506 0.0000
# 2 -8.0005 106.0785 30.9485 0.0000 6.5314 0.0000
# 3 22.5335 30.9485 130.5774 0.0000 -12.2903 0.0000
# 4 0.0000 0.0000 0.0000 42.4359 0.0000 -5.2018
# 5 -2.4506 6.5314 -12.2903 0.0000 43.3374 0.0000
# 6 0.0000 0.0000 0.0000 -5.2018 0.0000 21.3949
#
#
#
# Elastic Compliance Matrix: (Units=1/GPa)
#
#
# Indices 1 2 3 4 5 6 
#
# 1 0.013147 0.001805 -0.002725 0.000000 -0.000301 0.000000
# 2 0.001805 0.010597 -0.003045 0.000000 -0.002359 0.000000
# 3 -0.002725 -0.003045 0.009122 0.000000 0.002892 0.000000
# 4 0.000000 0.000000 0.000000 0.024289 0.000000 0.005905
# 5 -0.000301 -0.002359 0.002892 0.000000 0.024233 0.000000
# 6 0.000000 0.000000 0.000000 0.005905 0.000000 0.048176
#
#
# Mechanical properties :
#
#
# Convention : Reuss Voigt Hill
#
# Bulk Modulus (GPa) = 40.10167 45.48813 42.79490
# Shear Modulus (GPa) = 34.29200 39.63021 36.96110
#
# Velocity S-wave (km/s) = 4.00295 4.30325 4.15581
# Velocity P-wave (km/s) = 6.33270 6.77833 6.55930
#
# Compressibility (1/GPa) = 0.02493662
#
# Stress axis : x y z
#
# Youngs Moduli (GPa) = 76.06143 94.36863 109.61957
#
# Poissons Ratio (x) = -0.17035 0.29872
# Poissons Ratio (y) = -0.13730 0.33380
# Poissons Ratio (z) = 0.20727 0.28736
#
# Static dielectric constant tensor:
#      x y z
#    x 3.956300 0.000000 -0.062440 
#    y 0.000000 4.225610 0.000000 
#    z -0.062440 0.000000 3.956990 
# 
# 
# High freq. dielectric constant tensor:
#      x y z
#    x 1.834910 0.000000 -0.010130 
#    y 0.000000 1.844120 0.000000 
#    z -0.010130 0.000000 1.854910 
# 
# From -- ./inp_files/30424.got.cif
#   From: 2010.06.25/outbox.cif.g09.slc.cpg/sg15_16_cif.got.tgz:30424.got - 2010.06.28 07:06:18.
