data_PCOD8147233
_publ_section_title
;
Structure prediction by ZEFSAII (Michael W. Deem and Ramdas Pophale) SiO2 
 PCOD8147233
Probable space group: C 2/C
;
_chemical_formula_sum "Si O2"
_cell_formula_units_Z 32
_cell_length_a 6.938501
_cell_length_b 12.769428
_cell_length_c 14.560250
_cell_angle_alpha 90.000000
_cell_angle_beta 90.033733
_cell_angle_gamma 90.000000
_cell_volume 1290.047958
_symmetry_space_group_name_H-M "C 2/C"
_symmetry_group_IT_number 15
_symmetry_cell_setting 'monoclinic'
loop_
_space_group_symop_operation_xyz
x,y,z
-x,y,1/2-z
-x,-y,-z
x,-y,1/2+z
1/2+x,1/2+y,z
1/2-x,1/2+y,1/2-z
1/2-x,1/2-y,-z
1/2+x,1/2-y,1/2+z
loop_
_atom_site_type_symbol
_atom_site_label
_atom_site_fract_x
_atom_site_fract_y
_atom_site_fract_z
Si Si1 0.209346 0.092254 0.913017
Si Si2 0.206399 0.732179 0.267617
Si Si3 0.394386 0.901493 0.157992
Si Si4 0.588342 0.571083 0.111164
O O1 0.144794 0.175678 0.837235
O O2 0.441879 0.096775 0.920706
O O3 0.121541 0.123509 0.011734
O O4 0.128957 0.976306 0.881819
O O5 0.310634 0.784309 0.178696
O O6 0.363047 0.653299 0.309741
O O7 0.000000 0.675229 0.250000
O O8 0.500000 0.944952 0.250000
O O9 0.223475 0.970600 0.120768
#
# Coordination Sequence:
#
# PCOD8147233 Si02
#       4
#     8   8   8   8
#     4  10  23  44  67  98 140 180 238 286 345 417
#     4  11  22  44  68 102 146 180 233 288 348 419
#     4  10  22  43  64  97 141 176 235 289 334 417
#     4  11  22  43  72  97 137 189 224 295 352 400
#
# _framework density 24.80528
#
# number of rings (size 3 to 8) (size 9 to 14) (size 15 to 20)
#    0.000    1.500    2.500    2.250    0.000    0.000 
#   40.500    1.250    0.000    0.000    0.000    0.000 
#    0.000    0.000    0.000    0.000    0.000    0.000 
#
# Total GULP energy -198296.099335 kJ/mol
# GULP energy per Si atom -12393.506208 kJ/mol
# Density = 2.474882 g / cm^3
# Si number density = 24.805280 Si / 1000 Ang^3
#
#
#
# Elastic Constant Matrix: (Units=GPa)
#
#
# Indices 1 2 3 4 5 6 
#
# 1 147.9982 43.2470 28.5642 0.0000 -22.8712 0.0000
# 2 43.2470 86.1371 17.5860 0.0000 -11.4190 0.0000
# 3 28.5642 17.5860 49.6590 0.0000 -7.0920 0.0000
# 4 0.0000 0.0000 0.0000 18.5905 0.0000 -23.7174
# 5 -22.8712 -11.4190 -7.0920 0.0000 31.3662 0.0000
# 6 0.0000 0.0000 0.0000 -23.7174 0.0000 -74.2890
#
#
#
# Elastic Compliance Matrix: (Units=1/GPa)
#
#
# Indices 1 2 3 4 5 6 
#
# 1 0.009085 -0.003246 -0.003409 0.000000 0.004672 0.000000
# 2 -0.003246 0.014097 -0.002821 0.000000 0.002127 0.000000
# 3 -0.003409 -0.002821 0.023350 0.000000 0.001766 0.000000
# 4 0.000000 0.000000 0.000000 0.038223 0.000000 -0.012203
# 5 0.004672 0.002127 0.001766 0.000000 0.036462 0.000000
# 6 0.000000 0.000000 0.000000 -0.012203 0.000000 -0.009565
#
#
# Mechanical properties :
#
#
# Convention : Reuss Voigt Hill
#
# Bulk Modulus (GPa) = 36.25931 51.39874 43.82903
# Shear Modulus (GPa) = 35.76579 8.09334 21.92956
#
# Velocity S-wave (km/s) = 3.80131 1.80827 2.97655
# Velocity P-wave (km/s) = 5.82373 5.01255 5.43330
#
# Compressibility (1/GPa) = 0.02757912
#
# Stress axis : x y z
#
# Youngs Moduli (GPa) = 110.06653 70.93607 42.82708
#
# Poissons Ratio (x) = 0.23027 0.14600
# Poissons Ratio (y) = 0.35729 0.12083
# Poissons Ratio (z) = 0.37524 0.20013
#
# Static dielectric constant tensor:
#      x y z
#    x 4.839050 0.000000 -0.164520 
#    y 0.000000 4.246480 0.000000 
#    z -0.164520 0.000000 4.357270 
# 
# 
# High freq. dielectric constant tensor:
#      x y z
#    x 2.008110 0.000000 -0.005670 
#    y 0.000000 1.968550 0.000000 
#    z -0.005670 0.000000 1.970620 
# 
# From -- ./inp_files/132002.got.cif
#   From: 2010.06.25/outbox.cif.g09.slc.cpg/sg15_67_cif.got.tgz:132002.got - 2010.06.28 07:06:18.
