data_PCOD8147997
_publ_section_title
;
Structure prediction by ZEFSAII (Michael W. Deem and Ramdas Pophale) SiO2 
 PCOD8147997
Probable space group: C 2/C
;
_chemical_formula_sum "Si O2"
_cell_formula_units_Z 56
_cell_length_a 23.211705
_cell_length_b 8.129001
_cell_length_c 14.826913
_cell_angle_alpha 90.000000
_cell_angle_beta 55.042711
_cell_angle_gamma 90.000000
_cell_volume 2292.904603
_symmetry_space_group_name_H-M "C 2/C"
_symmetry_group_IT_number 15
_symmetry_cell_setting 'monoclinic'
loop_
_space_group_symop_operation_xyz
x,y,z
-x,y,1/2-z
-x,-y,-z
x,-y,1/2+z
1/2+x,1/2+y,z
1/2-x,1/2+y,1/2-z
1/2-x,1/2-y,-z
1/2+x,1/2-y,1/2+z
loop_
_atom_site_type_symbol
_atom_site_label
_atom_site_fract_x
_atom_site_fract_y
_atom_site_fract_z
Si Si1 0.705910 0.854328 0.109131
Si Si2 0.180895 0.173622 0.855240
Si Si3 0.069237 0.875015 0.142767
Si Si4 0.347536 0.170385 0.301613
Si Si5 0.464907 0.072578 0.620975
Si Si6 0.413552 0.244771 0.896578
Si Si7 0.928468 0.890902 0.556560
O O1 0.738842 0.837817 0.179616
O O2 0.624932 0.800599 0.163847
O O3 0.705733 0.052631 0.094096
O O4 0.750000 0.750000 0.000000
O O5 0.191049 0.266219 0.752614
O O6 0.141032 0.002630 0.869034
O O7 0.136665 0.272067 0.970631
O O8 0.133155 0.821159 0.149920
O O9 0.000000 0.801658 0.250000
O O10 0.061960 0.069429 0.137049
O O11 0.075472 0.800535 0.037326
O O12 0.413434 0.062530 0.208556
O O13 0.522286 0.120435 0.645776
O O14 0.426121 0.245120 0.631186
O O15 0.500000 0.000000 0.500000
O O16 0.000000 0.000000 0.500000
#
# Coordination Sequence:
#
# PCOD8147997 Si02
#       7
#     8   8   8   8   8   8   8
#     4  10  26  47  68  96 144 189 234 292 349 430
#     4  10  22  48  67  94 136 188 241 283 357 426
#     4  11  24  39  64 105 140 179 231 293 359 434
#     4  12  27  39  70 106 137 183 240 305 347 430
#     4  12  23  41  71 109 139 178 231 302 375 416
#     4  10  23  44  67  96 143 186 224 289 362 430
#     4  11  21  42  70  93 137 185 226 289 364 421
#
# _framework density 24.423169999999999
#
# number of rings (size 3 to 8) (size 9 to 14) (size 15 to 20)
#    0.000    1.143    4.286    1.714    6.000    2.286 
#    0.000    6.429    0.000    0.000    0.000    0.000 
#    0.000    0.000    0.000    0.000    0.000    0.000 
#
# Total GULP energy -346917.560896 kJ/mol
# GULP energy per Si atom -12389.912889 kJ/mol
# Density = 2.436758 g / cm^3
# Si number density = 24.423170 Si / 1000 Ang^3
#
#
#
# Elastic Constant Matrix: (Units=GPa)
#
#
# Indices 1 2 3 4 5 6 
#
# 1 204.9496 46.1688 26.8372 0.0000 28.2860 0.0000
# 2 46.1688 81.2642 26.7283 -0.0002 13.2397 0.0002
# 3 26.8372 26.7283 66.8179 -0.0001 23.0309 0.0000
# 4 0.0000 -0.0002 -0.0001 24.0475 0.0000 9.0299
# 5 28.2860 13.2397 23.0309 0.0000 30.3386 0.0000
# 6 0.0000 0.0002 0.0000 9.0299 0.0000 44.3148
#
#
#
# Elastic Compliance Matrix: (Units=1/GPa)
#
#
# Indices 1 2 3 4 5 6 
#
# 1 0.006123 -0.002806 0.000283 0.000000 -0.004699 0.000000
# 2 -0.002806 0.015603 -0.004969 0.000000 -0.000420 0.000000
# 3 0.000283 -0.004969 0.021919 0.000000 -0.014734 0.000000
# 4 0.000000 0.000000 0.000000 0.045030 0.000000 -0.009176
# 5 -0.004699 -0.000420 -0.014734 0.000000 0.048711 0.000000
# 6 0.000000 0.000000 0.000000 -0.009176 0.000000 0.024435
#
#
# Mechanical properties :
#
#
# Convention : Reuss Voigt Hill
#
# Bulk Modulus (GPa) = 34.89289 61.38893 48.14091
# Shear Modulus (GPa) = 26.82994 36.62668 31.72831
#
# Velocity S-wave (km/s) = 3.31803 3.87676 3.60822
# Velocity P-wave (km/s) = 5.38487 6.72526 6.09204
#
# Compressibility (1/GPa) = 0.02865913
#
# Stress axis : x y z
#
# Youngs Moduli (GPa) = 163.32317 64.09140 45.62260
#
# Poissons Ratio (x) = 0.17985 -0.01290
# Poissons Ratio (y) = 0.45830 0.22672
# Poissons Ratio (z) = -0.04619 0.31850
#
# Static dielectric constant tensor:
#      x y z
#    x 5.166250 0.000000 0.187890 
#    y 0.000000 4.365580 0.000000 
#    z 0.187890 0.000000 4.548320 
# 
# 
# High freq. dielectric constant tensor:
#      x y z
#    x 1.988520 0.000000 0.021170 
#    y 0.000000 1.966490 0.000000 
#    z 0.021170 0.000000 1.959140 
# 
# From -- ./inp_files/172297.got.cif
#   From: 2010.06.25/outbox.cif.g09.slc.cpg/sg15_87_cif.got.tgz:172297.got - 2010.06.28 07:06:18.
