data_PCOD8147198
_publ_section_title
;
Structure prediction by ZEFSAII (Michael W. Deem and Ramdas Pophale) SiO2 
 PCOD8147198
Probable space group: C 2/C
;
_chemical_formula_sum "Si O2"
_cell_formula_units_Z 56
_cell_length_a 17.497412
_cell_length_b 11.838876
_cell_length_c 16.397895
_cell_angle_alpha 90.000000
_cell_angle_beta 128.055399
_cell_angle_gamma 90.000000
_cell_volume 2674.706498
_symmetry_space_group_name_H-M "C 2/C"
_symmetry_group_IT_number 15
_symmetry_cell_setting 'monoclinic'
loop_
_space_group_symop_operation_xyz
x,y,z
-x,y,1/2-z
-x,-y,-z
x,-y,1/2+z
1/2+x,1/2+y,z
1/2-x,1/2+y,1/2-z
1/2-x,1/2-y,-z
1/2+x,1/2-y,1/2+z
loop_
_atom_site_type_symbol
_atom_site_label
_atom_site_fract_x
_atom_site_fract_y
_atom_site_fract_z
Si Si1 0.277337 0.783487 0.895342
Si Si2 0.993477 0.785402 0.341036
Si Si3 0.015581 0.366807 0.516485
Si Si4 0.320935 0.418476 0.538397
Si Si5 0.795292 0.844054 0.974833
Si Si6 0.657406 0.285036 0.664614
Si Si7 0.473602 0.513274 0.387659
O O1 0.384969 0.835446 0.962621
O O2 0.205462 0.876106 0.888414
O O3 0.234134 0.741015 0.781090
O O4 0.280033 0.670574 0.948307
O O5 0.972688 0.673802 0.381004
O O6 0.090390 0.842059 0.438870
O O7 0.000000 0.751860 0.250000
O O8 0.927462 0.896317 0.317922
O O9 0.924654 0.306693 0.412511
O O10 0.000000 0.500000 0.500000
O O11 0.259519 0.532674 0.478751
O O12 0.435963 0.437833 0.605084
O O13 0.750000 0.750000 0.000000
O O14 0.773487 0.817322 0.866348
O O15 0.611343 0.396434 0.673277
O O16 0.500000 0.500000 0.500000
#
# Coordination Sequence:
#
# PCOD8147198 Si02
#       7
#     8   8   8   8   8   8   8
#     4  11  25  42  67  96 132 180 225 267 337 415
#     4  10  23  40  67  97 121 172 217 279 343 388
#     4  11  25  48  64  95 144 175 219 279 342 407
#     4  10  22  43  63  94 133 171 219 284 331 396
#     4  10  23  41  63  94 132 163 218 284 331 393
#     4  11  24  42  71  96 125 184 224 275 339 399
#     4  11  18  43  68  91 132 163 222 293 335 385
#
# _framework density 20.936876000000002
#
# number of rings (size 3 to 8) (size 9 to 14) (size 15 to 20)
#    0.000    1.429    5.714    0.000   10.000    1.143 
#    0.000    0.000    0.000    0.000    0.000    0.000 
#    0.000    0.000    0.000    0.000    0.000    0.000 
#
# Total GULP energy -347029.509137 kJ/mol
# GULP energy per Si atom -12393.911041 kJ/mol
# Density = 2.088922 g / cm^3
# Si number density = 20.936876 Si / 1000 Ang^3
#
#
#
# Elastic Constant Matrix: (Units=GPa)
#
#
# Indices 1 2 3 4 5 6 
#
# 1 86.0911 52.5253 23.1890 0.0000 -23.5319 0.0000
# 2 52.5253 171.5197 40.1349 0.0000 -21.9419 0.0000
# 3 23.1890 40.1349 102.0295 0.0000 -24.5168 0.0000
# 4 0.0000 0.0000 0.0000 19.1543 0.0000 -7.1483
# 5 -23.5319 -21.9419 -24.5168 0.0000 33.5566 0.0000
# 6 0.0000 0.0000 0.0000 -7.1483 0.0000 26.8648
#
#
#
# Elastic Compliance Matrix: (Units=1/GPa)
#
#
# Indices 1 2 3 4 5 6 
#
# 1 0.016444 -0.003876 -0.000062 0.000000 0.008952 0.000000
# 2 -0.003876 0.007569 -0.001892 0.000000 0.000848 0.000000
# 3 -0.000062 -0.001892 0.012435 0.000000 0.007804 0.000000
# 4 0.000000 0.000000 0.000000 0.057963 0.000000 0.015423
# 5 0.008952 0.000848 0.007804 0.000000 0.042335 0.000000
# 6 0.000000 0.000000 0.000000 0.015423 0.000000 0.041327
#
#
# Mechanical properties :
#
#
# Convention : Reuss Voigt Hill
#
# Bulk Modulus (GPa) = 40.34345 65.70432 53.02389
# Shear Modulus (GPa) = 25.25313 32.16787 28.71050
#
# Velocity S-wave (km/s) = 3.47674 3.92397 3.70711
# Velocity P-wave (km/s) = 5.95213 7.20974 6.61091
#
# Compressibility (1/GPa) = 0.02478717
#
# Stress axis : x y z
#
# Youngs Moduli (GPa) = 60.81250 132.12547 80.41922
#
# Poissons Ratio (x) = 0.51214 0.00495
# Poissons Ratio (y) = 0.23572 0.15219
# Poissons Ratio (z) = 0.00374 0.25004
#
# Static dielectric constant tensor:
#      x y z
#    x 3.787650 0.000000 -0.298930 
#    y 0.000000 3.930300 0.000000 
#    z -0.298930 0.000000 3.706660 
# 
# 
# High freq. dielectric constant tensor:
#      x y z
#    x 1.820360 0.000000 -0.017700 
#    y 0.000000 1.829610 0.000000 
#    z -0.017700 0.000000 1.809430 
# 
# From -- ./inp_files/161395.got.cif
#   From: 2010.06.25/outbox.cif.g09.slc.cpg/sg15_81_cif.got.tgz:161395.got - 2010.06.28 07:06:18.
