data_PCOD8147846
_publ_section_title
;
Structure prediction by ZEFSAII (Michael W. Deem and Ramdas Pophale) SiO2 
 PCOD8147846
Probable space group: C 2/C
;
_chemical_formula_sum "Si O2"
_cell_formula_units_Z 48
_cell_length_a 11.465373
_cell_length_b 21.185082
_cell_length_c 9.873283
_cell_angle_alpha 90.000000
_cell_angle_beta 120.353487
_cell_angle_gamma 90.000000
_cell_volume 2069.438690
_symmetry_space_group_name_H-M "C 2/C"
_symmetry_group_IT_number 15
_symmetry_cell_setting 'monoclinic'
loop_
_space_group_symop_operation_xyz
x,y,z
-x,y,1/2-z
-x,-y,-z
x,-y,1/2+z
1/2+x,1/2+y,z
1/2-x,1/2+y,1/2-z
1/2-x,1/2-y,-z
1/2+x,1/2-y,1/2+z
loop_
_atom_site_type_symbol
_atom_site_label
_atom_site_fract_x
_atom_site_fract_y
_atom_site_fract_z
Si Si1 0.757903 0.153438 0.397917
Si Si2 0.270388 0.638469 0.831262
Si Si3 0.350404 0.161065 0.460520
Si Si4 0.889988 0.717353 0.967531
Si Si5 0.041519 0.547284 0.637802
Si Si6 0.520825 0.559994 0.915896
O O1 0.729500 0.145525 0.222441
O O2 0.859591 0.211068 0.489205
O O3 0.625237 0.169049 0.412161
O O4 0.826918 0.087710 0.483571
O O5 0.221430 0.696111 0.708948
O O6 0.193871 0.573156 0.742245
O O7 0.425298 0.618829 0.901756
O O8 0.252104 0.666395 0.973324
O O9 0.454641 0.218992 0.495032
O O10 0.451213 0.107813 0.566807
O O11 0.000000 0.510932 0.750000
O O12 0.000000 0.500000 0.500000
O O13 0.500000 0.537039 0.750000
O O14 0.500000 0.500000 0.000000
#
# Coordination Sequence:
#
# PCOD8147846 Si02
#       6
#     8   8   8   8   8   8
#     4  11  25  42  74 100 137 181 231 286 346 421
#     4  10  23  45  65  95 139 173 226 286 345 410
#     4  10  23  42  64 101 132 168 227 282 343 406
#     4  10  22  45  71 102 134 181 227 293 354 404
#     4   9  20  36  61  89 125 165 209 270 321 387
#     4  12  29  48  69  97 143 192 231 281 348 433
#
# _framework density 23.194693999999998
#
# number of rings (size 3 to 8) (size 9 to 14) (size 15 to 20)
#    0.000    1.667    1.667    2.000    7.000    4.667 
#    3.000    0.000    0.000    0.000    0.000    0.000 
#    0.000    0.000    0.000    0.000    0.000    0.000 
#
# Total GULP energy -297412.753738 kJ/mol
# GULP energy per Si atom -12392.198072 kJ/mol
# Density = 2.314190 g / cm^3
# Si number density = 23.194694 Si / 1000 Ang^3
#
#
#
# Elastic Constant Matrix: (Units=GPa)
#
#
# Indices 1 2 3 4 5 6 
#
# 1 80.8527 9.4385 22.5663 0.0000 -18.0267 0.0000
# 2 9.4385 39.7715 15.5487 0.0000 -2.7797 0.0000
# 3 22.5663 15.5487 153.6792 0.0000 -28.2038 0.0000
# 4 0.0000 0.0000 0.0000 22.9078 0.0000 -8.3139
# 5 -18.0267 -2.7797 -28.2038 0.0000 40.8955 0.0000
# 6 0.0000 0.0000 0.0000 -8.3139 0.0000 26.2713
#
#
#
# Elastic Compliance Matrix: (Units=1/GPa)
#
#
# Indices 1 2 3 4 5 6 
#
# 1 0.014126 -0.002657 -0.000797 0.000000 0.005497 0.000000
# 2 -0.002657 0.026679 -0.002509 0.000000 -0.001088 0.000000
# 3 -0.000797 -0.002509 0.007765 0.000000 0.004833 0.000000
# 4 0.000000 0.000000 0.000000 0.049318 0.000000 0.015607
# 5 0.005497 -0.001088 0.004833 0.000000 0.030135 0.000000
# 6 0.000000 0.000000 0.000000 0.015607 0.000000 0.043003
#
#
# Mechanical properties :
#
#
# Convention : Reuss Voigt Hill
#
# Bulk Modulus (GPa) = 27.28848 41.04560 34.16704
# Shear Modulus (GPa) = 25.61926 33.13159 29.37543
#
# Velocity S-wave (km/s) = 3.32705 3.78353 3.56261
# Velocity P-wave (km/s) = 5.15263 6.06806 5.62898
#
# Compressibility (1/GPa) = 0.03664550
#
# Stress axis : x y z
#
# Youngs Moduli (GPa) = 70.79033 37.48281 128.78418
#
# Poissons Ratio (x) = 0.09958 0.10260
# Poissons Ratio (y) = 0.18807 0.32310
# Poissons Ratio (z) = 0.05640 0.09404
#
# Static dielectric constant tensor:
#      x y z
#    x 15.701840 0.000000 -4.899000 
#    y 0.000000 3.831390 0.000000 
#    z -4.899000 0.000000 6.119350 
# 
# 
# High freq. dielectric constant tensor:
#      x y z
#    x 1.916680 0.000000 -0.011500 
#    y 0.000000 1.901370 0.000000 
#    z -0.011500 0.000000 1.929600 
# 
# From -- ./inp_files/32656.got.cif
#   From: 2010.06.25/outbox.cif.g09.slc.cpg/sg15_17_cif.got.tgz:32656.got - 2010.06.28 07:06:18.
