data_PCOD8147164
_publ_section_title
;
Structure prediction by ZEFSAII (Michael W. Deem and Ramdas Pophale) SiO2 
 PCOD8147164
Probable space group: C 2/C
;
_chemical_formula_sum "Si O2"
_cell_formula_units_Z 44
_cell_length_a 11.504858
_cell_length_b 19.779880
_cell_length_c 8.148886
_cell_angle_alpha 90.000000
_cell_angle_beta 110.082464
_cell_angle_gamma 90.000000
_cell_volume 1741.650299
_symmetry_space_group_name_H-M "C 2/C"
_symmetry_group_IT_number 15
_symmetry_cell_setting 'monoclinic'
loop_
_space_group_symop_operation_xyz
x,y,z
-x,y,1/2-z
-x,-y,-z
x,-y,1/2+z
1/2+x,1/2+y,z
1/2-x,1/2+y,1/2-z
1/2-x,1/2-y,-z
1/2+x,1/2-y,1/2+z
loop_
_atom_site_type_symbol
_atom_site_label
_atom_site_fract_x
_atom_site_fract_y
_atom_site_fract_z
Si Si1 0.057501 0.744185 0.984673
Si Si2 0.451767 0.103206 0.943249
Si Si3 0.296283 0.330357 0.668988
Si Si4 0.194982 0.443122 0.432225
Si Si5 0.000000 0.160258 0.750000
Si Si6 0.718777 0.410571 0.513868
O O1 0.176609 0.715895 0.139804
O O2 0.994612 0.794808 0.082733
O O3 0.092146 0.780428 0.827215
O O4 0.971078 0.680595 0.897511
O O5 0.366657 0.063397 0.773581
O O6 0.583152 0.062091 0.017527
O O7 0.366429 0.105915 0.064046
O O8 0.282982 0.379398 0.505830
O O9 0.327301 0.375611 0.841824
O O10 0.283366 0.508169 0.481173
O O11 0.874985 0.113968 0.676354
#
# Coordination Sequence:
#
# PCOD8147164 Si02
#       6
#     8   8   8   8   4   8
#     4  10  23  44  67 105 136 179 228 276 353 400
#     4  10  22  42  74 101 136 175 225 292 338 403
#     4  10  23  42  70  99 140 178 223 285 339 411
#     4  10  22  43  71 102 136 176 221 281 344 406
#     4  12  28  44  68  96 144 188 228 280 330 420
#     4  12  25  43  66 102 137 183 231 277 341 404
#
# _framework density 25.263394000000002
#
# number of rings (size 3 to 8) (size 9 to 14) (size 15 to 20)
#    0.000    1.455    0.000    3.818    0.000   18.909 
#    0.000    8.182    0.000    0.000    0.000    0.000 
#    0.000    0.000    0.000    0.000    0.000    0.000 
#
# Total GULP energy -272629.852781 kJ/mol
# GULP energy per Si atom -12392.266036 kJ/mol
# Density = 2.520589 g / cm^3
# Si number density = 25.263394 Si / 1000 Ang^3
#
#
#
# Elastic Constant Matrix: (Units=GPa)
#
#
# Indices 1 2 3 4 5 6 
#
# 1 68.3908 44.4604 18.7859 0.0000 -0.0490 0.0000
# 2 44.4604 142.9510 28.7935 0.0000 6.7351 0.0000
# 3 18.7859 28.7935 44.0687 0.0000 -7.1964 0.0000
# 4 0.0000 0.0000 0.0000 37.2367 0.0000 -7.8337
# 5 -0.0490 6.7351 -7.1964 0.0000 42.5715 0.0000
# 6 0.0000 0.0000 0.0000 -7.8337 0.0000 24.5971
#
#
#
# Elastic Compliance Matrix: (Units=1/GPa)
#
#
# Indices 1 2 3 4 5 6 
#
# 1 0.019217 -0.004980 -0.004942 0.000000 -0.000025 0.000000
# 2 -0.004980 0.009557 -0.004493 0.000000 -0.002277 0.000000
# 3 -0.004942 -0.004493 0.028640 0.000000 0.005546 0.000000
# 4 0.000000 0.000000 0.000000 0.028784 0.000000 0.009167
# 5 -0.000025 -0.002277 0.005546 0.000000 0.024788 0.000000
# 6 0.000000 0.000000 0.000000 0.009167 0.000000 0.043575
#
#
# Mechanical properties :
#
#
# Convention : Reuss Voigt Hill
#
# Bulk Modulus (GPa) = 34.98591 48.83225 41.90908
# Shear Modulus (GPa) = 25.91776 31.77243 28.84509
#
# Velocity S-wave (km/s) = 3.20644 3.55018 3.38268
# Velocity P-wave (km/s) = 5.25232 6.01467 5.64638
#
# Compressibility (1/GPa) = 0.02858294
#
# Stress axis : x y z
#
# Youngs Moduli (GPa) = 52.03737 104.63977 34.91630
#
# Poissons Ratio (x) = 0.52112 0.17256
# Poissons Ratio (y) = 0.25916 0.15688
# Poissons Ratio (z) = 0.25718 0.47014
#
# Static dielectric constant tensor:
#      x y z
#    x 4.694560 0.000000 0.065690 
#    y 0.000000 4.676460 0.000000 
#    z 0.065690 0.000000 4.180720 
# 
# 
# High freq. dielectric constant tensor:
#      x y z
#    x 2.003560 0.000000 0.005580 
#    y 0.000000 2.021980 0.000000 
#    z 0.005580 0.000000 2.000300 
# 
# From -- ./inp_files/31012.got.cif
#   From: 2010.06.25/outbox.cif.g09.slc.cpg/sg15_16_cif.got.tgz:31012.got - 2010.06.28 07:06:18.
