data_PCOD8147081
_publ_section_title
;
Structure prediction by ZEFSAII (Michael W. Deem and Ramdas Pophale) SiO2 
 PCOD8147081
Probable space group: C 2/C
;
_chemical_formula_sum "Si O2"
_cell_formula_units_Z 44
_cell_length_a 8.943456
_cell_length_b 14.566024
_cell_length_c 16.501828
_cell_angle_alpha 90.000000
_cell_angle_beta 80.626194
_cell_angle_gamma 90.000000
_cell_volume 2120.997376
_symmetry_space_group_name_H-M "C 2/C"
_symmetry_group_IT_number 15
_symmetry_cell_setting 'monoclinic'
loop_
_space_group_symop_operation_xyz
x,y,z
-x,y,1/2-z
-x,-y,-z
x,-y,1/2+z
1/2+x,1/2+y,z
1/2-x,1/2+y,1/2-z
1/2-x,1/2-y,-z
1/2+x,1/2-y,1/2+z
loop_
_atom_site_type_symbol
_atom_site_label
_atom_site_fract_x
_atom_site_fract_y
_atom_site_fract_z
Si Si1 0.420053 0.383663 0.181148
Si Si2 0.087036 0.605857 0.088235
Si Si3 0.910396 0.581604 0.840387
Si Si4 0.500000 0.210604 0.250000
Si Si5 0.922042 0.274060 0.471864
Si Si6 0.421842 0.597801 0.994201
O O1 0.500000 0.437446 0.250000
O O2 0.268912 0.433011 0.162516
O O3 0.382157 0.278723 0.213084
O O4 0.549040 0.375620 0.101293
O O5 0.031001 0.501799 0.108424
O O6 0.095134 0.650349 0.177463
O O7 0.245464 0.598517 0.028047
O O8 0.972886 0.661925 0.042078
O O9 0.943476 0.674738 0.885093
O O10 0.000000 0.585267 0.750000
O O11 0.750000 0.250000 0.500000
O O12 0.009492 0.178021 0.456023
O O13 0.500000 0.500000 0.000000
#
# Coordination Sequence:
#
# PCOD8147081 Si02
#       6
#     8   8   8   4   8   8
#     4  10  23  46  66  92 137 179 226 281 339 405
#     4  12  24  44  71  99 135 186 222 280 347 413
#     4  12  26  43  66 103 140 174 230 279 343 408
#     4  10  22  42  70  92 130 184 224 278 344 398
#     4  12  24  46  68 101 136 176 227 286 340 410
#     4  12  24  44  70  98 132 180 233 275 344 415
#
# _framework density 20.744955999999998
#
# number of rings (size 3 to 8) (size 9 to 14) (size 15 to 20)
#    0.545    0.000    6.364    1.091    5.091    0.000 
#    0.000    0.909    0.000    0.000    0.000    0.000 
#    0.000    0.000    0.000    0.000    0.000    0.000 
#
# Total GULP energy -272685.057040 kJ/mol
# GULP energy per Si atom -12394.775320 kJ/mol
# Density = 2.069774 g / cm^3
# Si number density = 20.744956 Si / 1000 Ang^3
#
#
#
# Elastic Constant Matrix: (Units=GPa)
#
#
# Indices 1 2 3 4 5 6 
#
# 1 95.8358 49.7964 68.1455 0.0000 -4.5983 0.0000
# 2 49.7964 140.9391 47.5570 0.0000 6.3156 0.0000
# 3 68.1455 47.5570 140.9428 0.0000 -18.7759 0.0000
# 4 0.0000 0.0000 0.0000 36.0713 0.0000 0.3021
# 5 -4.5983 6.3156 -18.7759 0.0000 37.9470 0.0000
# 6 0.0000 0.0000 0.0000 0.3021 0.0000 27.2967
#
#
#
# Elastic Compliance Matrix: (Units=1/GPa)
#
#
# Indices 1 2 3 4 5 6 
#
# 1 0.017530 -0.003670 -0.007358 0.000000 -0.000906 0.000000
# 2 -0.003670 0.009076 -0.001657 0.000000 -0.002775 0.000000
# 3 -0.007358 -0.001657 0.011915 0.000000 0.005280 0.000000
# 4 0.000000 0.000000 0.000000 0.027725 0.000000 -0.000307
# 5 -0.000906 -0.002775 0.005280 0.000000 0.029317 0.000000
# 6 0.000000 0.000000 0.000000 -0.000307 0.000000 0.036638
#
#
# Mechanical properties :
#
#
# Convention : Reuss Voigt Hill
#
# Bulk Modulus (GPa) = 76.04806 78.74619 77.39712
# Shear Modulus (GPa) = 30.87252 34.41093 32.64172
#
# Velocity S-wave (km/s) = 3.86190 4.07721 3.97101
# Velocity P-wave (km/s) = 7.52488 7.75928 7.64298
#
# Compressibility (1/GPa) = 0.01314958
#
# Stress axis : x y z
#
# Youngs Moduli (GPa) = 57.04445 110.18432 83.92594
#
# Poissons Ratio (x) = 0.40442 0.61753
# Poissons Ratio (y) = 0.20937 0.13910
# Poissons Ratio (z) = 0.41973 0.18262
#
# Static dielectric constant tensor:
#      x y z
#    x 3.481360 0.000000 -0.062840 
#    y 0.000000 4.042740 0.000000 
#    z -0.062840 0.000000 3.971680 
# 
# 
# High freq. dielectric constant tensor:
#      x y z
#    x 1.792280 0.000000 -0.004460 
#    y 0.000000 1.822210 0.000000 
#    z -0.004460 0.000000 1.830500 
# 
# From -- ./inp_files/188844.got.cif
#   From: 2010.06.25/outbox.cif.g09.slc.cpg/sg15_95_cif.got.tgz:188844.got - 2010.06.28 07:06:18.
