data_PCOD8147686
_publ_section_title
;
Structure prediction by ZEFSAII (Michael W. Deem and Ramdas Pophale) SiO2 
 PCOD8147686
Probable space group: C 2/C
;
_chemical_formula_sum "Si O2"
_cell_formula_units_Z 36
_cell_length_a 16.134604
_cell_length_b 19.172267
_cell_length_c 8.572837
_cell_angle_alpha 90.000000
_cell_angle_beta 144.217714
_cell_angle_gamma 90.000000
_cell_volume 1550.581360
_symmetry_space_group_name_H-M "C 2/C"
_symmetry_group_IT_number 15
_symmetry_cell_setting 'monoclinic'
loop_
_space_group_symop_operation_xyz
x,y,z
-x,y,1/2-z
-x,-y,-z
x,-y,1/2+z
1/2+x,1/2+y,z
1/2-x,1/2+y,1/2-z
1/2-x,1/2-y,-z
1/2+x,1/2-y,1/2+z
loop_
_atom_site_type_symbol
_atom_site_label
_atom_site_fract_x
_atom_site_fract_y
_atom_site_fract_z
Si Si1 0.160941 0.871509 0.991523
Si Si2 0.735892 0.875713 0.691021
Si Si3 0.130162 0.248820 0.687659
Si Si4 0.107086 0.522495 0.534350
Si Si5 0.000000 0.826186 0.250000
O O1 0.168689 0.803146 0.108015
O O2 0.266332 0.928212 0.222890
O O3 0.207291 0.849631 0.889009
O O4 0.000000 0.901690 0.750000
O O5 0.614027 0.824246 0.577787
O O6 0.676704 0.952461 0.571460
O O7 0.862970 0.875427 0.014690
O O8 0.997588 0.222185 0.588618
O O9 0.250000 0.250000 0.000000
O O10 0.000000 0.500000 0.500000
O O11 0.000000 0.560352 0.250000
#
# Coordination Sequence:
#
# PCOD8147686 Si02
#       5
#     8   8   8   8   4
#     4  12  26  49  77 107 143 197 249 294 353 441
#     4  11  25  46  74 107 145 193 242 299 360 439
#     4  10  24  43  70 109 144 186 233 307 357 420
#     4  12  29  49  70 109 147 192 237 303 374 422
#     4  10  22  44  70 112 142 186 246 298 364 416
#
# _framework density 23.217099999999999
#
# number of rings (size 3 to 8) (size 9 to 14) (size 15 to 20)
#    0.000    0.889    4.444    0.667    7.778    5.333 
#    2.000    0.000    0.000    0.000    0.000    0.000 
#    0.000    0.000    0.000    0.000    0.000    0.000 
#
# Total GULP energy -222997.163169 kJ/mol
# GULP energy per Si atom -12388.731287 kJ/mol
# Density = 2.316426 g / cm^3
# Si number density = 23.217100 Si / 1000 Ang^3
#
#
#
# Elastic Constant Matrix: (Units=GPa)
#
#
# Indices 1 2 3 4 5 6 
#
# 1 108.2947 12.0535 23.4593 0.0000 -15.5797 0.0000
# 2 12.0535 96.7510 44.7801 0.0000 -1.3596 0.0000
# 3 23.4593 44.7801 148.3791 0.0000 1.8250 0.0000
# 4 0.0000 0.0000 0.0000 36.8120 0.0000 0.8481
# 5 -15.5797 -1.3596 1.8250 0.0000 37.0103 0.0000
# 6 0.0000 0.0000 0.0000 0.8481 0.0000 29.5516
#
#
#
# Elastic Compliance Matrix: (Units=1/GPa)
#
#
# Indices 1 2 3 4 5 6 
#
# 1 0.010249 -0.000512 -0.001520 0.000000 0.004370 0.000000
# 2 -0.000512 0.012054 -0.003562 0.000000 0.000403 0.000000
# 3 -0.001520 -0.003562 0.008069 0.000000 -0.001168 0.000000
# 4 0.000000 0.000000 0.000000 0.027183 0.000000 -0.000780
# 5 0.004370 0.000403 -0.001168 0.000000 0.028932 0.000000
# 6 0.000000 0.000000 0.000000 -0.000780 0.000000 0.033861
#
#
# Mechanical properties :
#
#
# Convention : Reuss Voigt Hill
#
# Bulk Modulus (GPa) = 52.12436 57.11228 54.61832
# Shear Modulus (GPa) = 36.25029 38.88359 37.56694
#
# Velocity S-wave (km/s) = 3.95569 4.09685 4.02689
# Velocity P-wave (km/s) = 6.58505 6.85795 6.72289
#
# Compressibility (1/GPa) = 0.01918489
#
# Stress axis : x y z
#
# Youngs Moduli (GPa) = 97.57044 82.96149 123.93045
#
# Poissons Ratio (x) = 0.04248 0.18833
# Poissons Ratio (y) = 0.04997 0.44141
# Poissons Ratio (z) = 0.14827 0.29549
#
# Static dielectric constant tensor:
#      x y z
#    x 5.366040 0.000000 0.185620 
#    y 0.000000 4.141900 0.000000 
#    z 0.185620 0.000000 4.380650 
# 
# 
# High freq. dielectric constant tensor:
#      x y z
#    x 1.938260 0.000000 -0.010470 
#    y 0.000000 1.898980 0.000000 
#    z -0.010470 0.000000 1.933750 
# 
# From -- ./inp_files/41330.got.cif
#   From: 2010.06.25/outbox.cif.g09.slc.cpg/sg15_21_cif.got.tgz:41330.got - 2010.06.28 07:06:18.
