data_PCOD8147695
_publ_section_title
;
Structure prediction by ZEFSAII (Michael W. Deem and Ramdas Pophale) SiO2 
 PCOD8147695
Probable space group: C 2/C
;
_chemical_formula_sum "Si O2"
_cell_formula_units_Z 48
_cell_length_a 9.662193
_cell_length_b 20.459718
_cell_length_c 11.928836
_cell_angle_alpha 90.000000
_cell_angle_beta 62.641593
_cell_angle_gamma 90.000000
_cell_volume 2094.398708
_symmetry_space_group_name_H-M "C 2/C"
_symmetry_group_IT_number 15
_symmetry_cell_setting 'monoclinic'
loop_
_space_group_symop_operation_xyz
x,y,z
-x,y,1/2-z
-x,-y,-z
x,-y,1/2+z
1/2+x,1/2+y,z
1/2-x,1/2+y,1/2-z
1/2-x,1/2-y,-z
1/2+x,1/2-y,1/2+z
loop_
_atom_site_type_symbol
_atom_site_label
_atom_site_fract_x
_atom_site_fract_y
_atom_site_fract_z
Si Si1 0.677291 0.426045 0.695571
Si Si2 0.360243 0.373590 0.567707
Si Si3 0.196816 0.863340 0.351935
Si Si4 0.886616 0.747539 0.693944
Si Si5 0.734227 0.932455 0.391248
Si Si6 0.075092 0.627650 0.543327
O O1 0.500000 0.403175 0.750000
O O2 0.699164 0.429431 0.822685
O O3 0.713182 0.492686 0.615260
O O4 0.790835 0.370325 0.602030
O O5 0.546201 0.372168 0.484327
O O6 0.318741 0.303678 0.638409
O O7 0.275073 0.387937 0.483199
O O8 0.234916 0.788406 0.303545
O O9 0.171005 0.905763 0.250441
O O10 0.346213 0.888870 0.366275
O O11 0.000000 0.775039 0.750000
O O12 0.984307 0.696331 0.581442
O O13 0.549084 0.929132 0.439326
#
# Coordination Sequence:
#
# PCOD8147695 Si02
#       6
#     8   8   8   8   8   8
#     4  12  25  42  70 102 135 180 234 278 339 408
#     4  12  25  41  70 104 137 178 227 293 337 401
#     4  10  22  44  70  97 134 184 227 280 340 409
#     4   9  22  41  71 102 134 179 234 278 343 407
#     4  11  26  45  65  99 139 182 228 282 348 398
#     4  10  23  46  69  97 134 185 227 280 340 411
#
# _framework density 22.918272000000002
#
# number of rings (size 3 to 8) (size 9 to 14) (size 15 to 20)
#    0.000    1.333    1.667    4.000    4.667    6.000 
#    3.000    0.000    0.000    0.000    0.000    0.000 
#    0.000    0.000    0.000    0.000    0.000    0.000 
#
# Total GULP energy -297518.972669 kJ/mol
# GULP energy per Si atom -12396.623861 kJ/mol
# Density = 2.286611 g / cm^3
# Si number density = 22.918272 Si / 1000 Ang^3
#
#
#
# Elastic Constant Matrix: (Units=GPa)
#
#
# Indices 1 2 3 4 5 6 
#
# 1 84.0502 38.7680 42.5874 0.0000 4.8847 0.0000
# 2 38.7680 99.7130 44.6900 0.0000 7.2104 0.0000
# 3 42.5874 44.6900 142.8437 0.0000 7.0512 0.0000
# 4 0.0000 0.0000 0.0000 33.2943 0.0000 5.9386
# 5 4.8847 7.2104 7.0512 0.0000 41.2612 0.0000
# 6 0.0000 0.0000 0.0000 5.9386 0.0000 18.5261
#
#
#
# Elastic Compliance Matrix: (Units=1/GPa)
#
#
# Indices 1 2 3 4 5 6 
#
# 1 0.015684 -0.004626 -0.003204 0.000000 -0.000501 0.000000
# 2 -0.004626 0.013112 -0.002660 0.000000 -0.001289 0.000000
# 3 -0.003204 -0.002660 0.008821 0.000000 -0.000663 0.000000
# 4 0.000000 0.000000 0.000000 0.031857 0.000000 -0.010212
# 5 -0.000501 -0.001289 -0.000663 0.000000 0.024634 0.000000
# 6 0.000000 0.000000 0.000000 -0.010212 0.000000 0.057251
#
#
# Mechanical properties :
#
#
# Convention : Reuss Voigt Hill
#
# Bulk Modulus (GPa) = 60.10192 64.29975 62.20083
# Shear Modulus (GPa) = 28.10831 31.98708 30.04769
#
# Velocity S-wave (km/s) = 3.50588 3.73996 3.62481
# Velocity P-wave (km/s) = 6.53220 6.83862 6.68717
#
# Compressibility (1/GPa) = 0.01663840
#
# Stress axis : x y z
#
# Youngs Moduli (GPa) = 63.76026 76.26367 113.36891
#
# Poissons Ratio (x) = 0.35276 0.36324
# Poissons Ratio (y) = 0.29492 0.30152
# Poissons Ratio (z) = 0.20429 0.20283
#
# Static dielectric constant tensor:
#      x y z
#    x 3.968670 0.000000 -0.076750 
#    y 0.000000 3.884160 0.000000 
#    z -0.076750 0.000000 4.525370 
# 
# 
# High freq. dielectric constant tensor:
#      x y z
#    x 1.891700 0.000000 -0.004960 
#    y 0.000000 1.890980 0.000000 
#    z -0.004960 0.000000 1.925650 
# 
# From -- ./inp_files/79786.got.cif
#   From: 2010.06.25/outbox.cif.g09.slc.cpg/sg15_40_cif.got.tgz:79786.got - 2010.06.28 07:06:18.
