data_PCOD8147798
_publ_section_title
;
Structure prediction by ZEFSAII (Michael W. Deem and Ramdas Pophale) SiO2 
 PCOD8147798
Probable space group: C 2/C
;
_chemical_formula_sum "Si O2"
_cell_formula_units_Z 44
_cell_length_a 25.195384
_cell_length_b 12.997485
_cell_length_c 12.323956
_cell_angle_alpha 90.000000
_cell_angle_beta 31.595207
_cell_angle_gamma 90.000000
_cell_volume 2114.418703
_symmetry_space_group_name_H-M "C 2/C"
_symmetry_group_IT_number 15
_symmetry_cell_setting 'monoclinic'
loop_
_space_group_symop_operation_xyz
x,y,z
-x,y,1/2-z
-x,-y,-z
x,-y,1/2+z
1/2+x,1/2+y,z
1/2-x,1/2+y,1/2-z
1/2-x,1/2-y,-z
1/2+x,1/2-y,1/2+z
loop_
_atom_site_type_symbol
_atom_site_label
_atom_site_fract_x
_atom_site_fract_y
_atom_site_fract_z
Si Si1 0.681206 0.344691 0.508900
Si Si2 0.427341 0.907480 0.593173
Si Si3 0.457276 0.270670 0.210613
Si Si4 0.830022 0.822801 0.726403
Si Si5 0.295528 0.432062 0.576442
Si Si6 0.000000 0.298553 0.250000
O O1 0.784974 0.292349 0.283463
O O2 0.699917 0.362534 0.603660
O O3 0.655709 0.454646 0.501271
O O4 0.588436 0.270338 0.645373
O O5 0.424029 0.820412 0.690737
O O6 0.312406 0.946424 0.792379
O O7 0.459519 0.867348 0.419117
O O8 0.500000 0.000000 0.500000
O O9 0.500000 0.226020 0.250000
O O10 0.366155 0.351348 0.388454
O O11 0.549155 0.329765 0.993057
O O12 0.778442 0.897489 0.729388
#
# Coordination Sequence:
#
# PCOD8147798 Si02
#       6
#     8   8   8   8   8   4
#     4  11  24  44  70  95 137 180 226 289 336 412
#     4  12  26  46  68 102 139 181 232 282 344 411
#     4  10  23  44  67  98 141 176 226 285 340 409
#     4  10  22  45  66  98 135 177 229 280 344 409
#     4  11  25  42  70 102 133 182 229 282 353 400
#     4  12  26  46  72 100 134 184 230 280 340 412
#
# _framework density 20.809501999999998
#
# number of rings (size 3 to 8) (size 9 to 14) (size 15 to 20)
#    0.000    1.091    3.636    1.636    7.636    2.182 
#    6.545    0.000    0.000    0.000    0.000    0.000 
#    0.000    0.000    0.000    0.000    0.000    0.000 
#
# Total GULP energy -272778.486016 kJ/mol
# GULP energy per Si atom -12399.022092 kJ/mol
# Density = 2.076214 g / cm^3
# Si number density = 20.809502 Si / 1000 Ang^3
#
#
#
# Elastic Constant Matrix: (Units=GPa)
#
#
# Indices 1 2 3 4 5 6 
#
# 1 86.8050 47.1025 40.1486 0.0000 -7.4544 0.0000
# 2 47.1025 129.7263 47.5711 0.0000 11.2426 0.0000
# 3 40.1486 47.5711 108.9916 0.0000 -8.5021 0.0000
# 4 0.0000 0.0000 0.0000 30.5072 0.0000 -7.7183
# 5 -7.4544 11.2426 -8.5021 0.0000 43.5999 0.0000
# 6 0.0000 0.0000 0.0000 -7.7183 0.0000 27.9830
#
#
#
# Elastic Compliance Matrix: (Units=1/GPa)
#
#
# Indices 1 2 3 4 5 6 
#
# 1 0.016060 -0.004811 -0.003559 0.000000 0.003292 0.000000
# 2 -0.004811 0.011080 -0.003402 0.000000 -0.004343 0.000000
# 3 -0.003559 -0.003402 0.012177 0.000000 0.002643 0.000000
# 4 0.000000 0.000000 0.000000 0.035238 0.000000 0.009719
# 5 0.003292 -0.004343 0.002643 0.000000 0.025134 0.000000
# 6 0.000000 0.000000 0.000000 0.009719 0.000000 0.038417
#
#
# Mechanical properties :
#
#
# Convention : Reuss Voigt Hill
#
# Bulk Modulus (GPa) = 63.40701 66.12970 64.76835
# Shear Modulus (GPa) = 29.95665 33.13138 31.54401
#
# Velocity S-wave (km/s) = 3.79828 3.99448 3.89761
# Velocity P-wave (km/s) = 7.05494 7.28849 7.17267
#
# Compressibility (1/GPa) = 0.01577113
#
# Stress axis : x y z
#
# Youngs Moduli (GPa) = 62.26782 90.25663 82.12062
#
# Poissons Ratio (x) = 0.43426 0.29227
# Poissons Ratio (y) = 0.29959 0.27940
# Poissons Ratio (z) = 0.22161 0.30708
#
# Static dielectric constant tensor:
#      x y z
#    x 3.998690 0.000000 0.025430 
#    y 0.000000 3.675280 0.000000 
#    z 0.025430 0.000000 3.953080 
# 
# 
# High freq. dielectric constant tensor:
#      x y z
#    x 1.828880 0.000000 -0.004040 
#    y 0.000000 1.807560 0.000000 
#    z -0.004040 0.000000 1.828070 
# 
# From -- ./inp_files/117888.got.cif
#   From: 2010.06.25/outbox.cif.g09.slc.cpg/sg15_59_cif.got.tgz:117888.got - 2010.06.28 07:06:18.
