data_PCOD8147236
_publ_section_title
;
Structure prediction by ZEFSAII (Michael W. Deem and Ramdas Pophale) SiO2 
 PCOD8147236
Probable space group: C 2/C
;
_chemical_formula_sum "Si O2"
_cell_formula_units_Z 64
_cell_length_a 20.731689
_cell_length_b 6.371486
_cell_length_c 23.055422
_cell_angle_alpha 90.000000
_cell_angle_beta 67.842105
_cell_angle_gamma 90.000000
_cell_volume 2820.518074
_symmetry_space_group_name_H-M "C 2/C"
_symmetry_group_IT_number 15
_symmetry_cell_setting 'monoclinic'
loop_
_space_group_symop_operation_xyz
x,y,z
-x,y,1/2-z
-x,-y,-z
x,-y,1/2+z
1/2+x,1/2+y,z
1/2-x,1/2+y,1/2-z
1/2-x,1/2-y,-z
1/2+x,1/2-y,1/2+z
loop_
_atom_site_type_symbol
_atom_site_label
_atom_site_fract_x
_atom_site_fract_y
_atom_site_fract_z
Si Si1 0.503056 0.018478 0.086752
Si Si2 0.253912 0.733309 0.172166
Si Si3 0.515542 0.702577 0.309582
Si Si4 0.348067 0.564859 0.711389
Si Si5 0.357303 0.898891 0.610105
Si Si6 0.140182 0.716588 0.514876
Si Si7 0.415930 0.402220 0.407579
Si Si8 0.208958 0.627261 0.063727
O O1 0.433078 0.996154 0.072110
O O2 0.524720 0.263598 0.081641
O O3 0.484220 0.921267 0.156020
O O4 0.563741 0.883458 0.037725
O O5 0.284707 0.571836 0.207965
O O6 0.249199 0.617188 0.111215
O O7 0.179619 0.811435 0.222397
O O8 0.303401 0.932556 0.150826
O O9 0.500000 0.770162 0.250000
O O10 0.588142 0.581584 0.291814
O O11 0.451020 0.556944 0.350131
O O12 0.372101 0.724266 0.653529
O O13 0.327229 0.803098 0.560373
O O14 0.190769 0.604829 0.545077
O O15 0.131092 0.962758 0.531317
O O16 0.363084 0.242042 0.395170
O O17 0.250000 0.750000 0.000000
#
# Coordination Sequence:
#
# PCOD8147236 Si02
#       8
#     8   8   8   8   8   8   8   8
#     4  10  22  43  65 101 136 170 226 281 349 407
#     4  12  26  46  66 101 140 179 238 282 339 419
#     4  11  23  44  70  97 131 177 230 285 347 410
#     4  12  26  45  69  98 135 187 227 283 347 410
#     4  12  23  43  69  97 140 180 226 283 338 422
#     4  10  24  42  70 102 133 182 226 281 346 410
#     4  10  23  44  64 104 135 170 231 277 346 410
#     4  11  24  44  69  99 140 181 228 285 341 407
#
# _framework density 22.690867000000001
#
# number of rings (size 3 to 8) (size 9 to 14) (size 15 to 20)
#    0.000    1.000    5.000    1.125    1.750    2.500 
#   13.500    0.000    0.000    0.000    0.000    0.000 
#    0.000    0.000    0.000    0.000    0.000    0.000 
#
# Total GULP energy -396800.403096 kJ/mol
# GULP energy per Si atom -12400.012597 kJ/mol
# Density = 2.263922 g / cm^3
# Si number density = 22.690867 Si / 1000 Ang^3
#
#
#
# Elastic Constant Matrix: (Units=GPa)
#
#
# Indices 1 2 3 4 5 6 
#
# 1 81.5972 24.4137 26.8591 0.0097 10.9166 0.0036
# 2 24.4137 101.0734 21.7215 0.0115 9.6934 -0.0116
# 3 26.8591 21.7215 91.9191 0.0009 27.8312 -0.0086
# 4 0.0097 0.0115 0.0009 31.4790 0.0084 -11.8245
# 5 10.9166 9.6934 27.8312 0.0084 35.7778 0.0009
# 6 0.0036 -0.0116 -0.0086 -11.8245 0.0009 15.0916
#
#
#
# Elastic Compliance Matrix: (Units=1/GPa)
#
#
# Indices 1 2 3 4 5 6 
#
# 1 0.014251 -0.002646 -0.003191 -0.000008 -0.001149 -0.000013
# 2 -0.002646 0.010953 -0.001519 0.000000 -0.000979 0.000008
# 3 -0.003191 -0.001519 0.015371 0.000010 -0.010572 0.000017
# 4 -0.000008 0.000000 0.000010 0.045016 -0.000017 0.035271
# 5 -0.001149 -0.000979 -0.010572 -0.000017 0.036790 -0.000022
# 6 -0.000013 0.000008 0.000017 0.035271 -0.000022 0.093898
#
#
# Mechanical properties :
#
#
# Convention : Reuss Voigt Hill
#
# Bulk Modulus (GPa) = 38.66402 46.73091 42.69746
# Shear Modulus (GPa) = 20.86694 29.90935 25.38814
#
# Velocity S-wave (km/s) = 3.03581 3.63453 3.34858
# Velocity P-wave (km/s) = 5.41892 6.18485 5.81451
#
# Compressibility (1/GPa) = 0.02586384
#
# Stress axis : x y z
#
# Youngs Moduli (GPa) = 70.16959 91.29694 65.05547
#
# Poissons Ratio (x) = 0.24160 0.20759
# Poissons Ratio (y) = 0.18569 0.09881
# Poissons Ratio (z) = 0.22391 0.13866
#
# Static dielectric constant tensor:
#      x y z
#    x 4.122940 -0.000010 -0.136430 
#    y -0.000010 4.160690 -0.000040 
#    z -0.136430 -0.000040 4.017810 
# 
# 
# High freq. dielectric constant tensor:
#      x y z
#    x 1.902430 0.000000 -0.013190 
#    y 0.000000 1.896140 0.000000 
#    z -0.013190 0.000000 1.895560 
# 
# From -- ./inp_files/281193.got.cif
#   From: 2010.06.25/outbox.cif.g09.slc.cpg/sg15_141_cif.got.tgz:281193.got - 2010.06.28 07:06:18.
