data_PCOD8147683
_publ_section_title
;
Structure prediction by ZEFSAII (Michael W. Deem and Ramdas Pophale) SiO2 
 PCOD8147683
Probable space group: C 2/C
;
_chemical_formula_sum "Si O2"
_cell_formula_units_Z 52
_cell_length_a 9.305053
_cell_length_b 28.921475
_cell_length_c 10.548683
_cell_angle_alpha 90.000000
_cell_angle_beta 120.376614
_cell_angle_gamma 90.000000
_cell_volume 2449.105357
_symmetry_space_group_name_H-M "C 2/C"
_symmetry_group_IT_number 15
_symmetry_cell_setting 'monoclinic'
loop_
_space_group_symop_operation_xyz
x,y,z
-x,y,1/2-z
-x,-y,-z
x,-y,1/2+z
1/2+x,1/2+y,z
1/2-x,1/2+y,1/2-z
1/2-x,1/2-y,-z
1/2+x,1/2-y,1/2+z
loop_
_atom_site_type_symbol
_atom_site_label
_atom_site_fract_x
_atom_site_fract_y
_atom_site_fract_z
Si Si1 0.623223 0.168848 0.586825
Si Si2 0.876647 0.383017 0.801312
Si Si3 0.123136 0.831925 0.512147
Si Si4 0.500000 0.477324 0.250000
Si Si5 0.838305 0.065564 0.113242
Si Si6 0.159359 0.099827 0.662375
Si Si7 0.553275 0.741956 0.406276
O O1 0.470007 0.150852 0.437383
O O2 0.766503 0.186870 0.555123
O O3 0.690218 0.128574 0.709051
O O4 0.554288 0.211119 0.637607
O O5 0.734239 0.351721 0.675035
O O6 0.809126 0.426532 0.851087
O O7 0.000000 0.403770 0.750000
O O8 0.013667 0.873063 0.406310
O O9 0.000168 0.791479 0.503180
O O10 0.378297 0.510798 0.112046
O O11 0.375178 0.447948 0.280809
O O12 0.000000 0.090028 0.250000
O O13 0.790373 0.089441 0.959970
O O14 0.500000 0.718288 0.250000
O O15 0.750000 0.750000 0.500000
#
# Coordination Sequence:
#
# PCOD8147683 Si02
#       7
#     8   8   8   4   8   8   8
#     4  11  25  42  66  99 139 173 225 281 331 397
#     4  10  23  42  66  95 135 185 220 271 342 406
#     4  11  22  44  68  90 133 188 224 264 338 411
#     4  10  22  44  70 106 132 174 234 276 342 398
#     4  10  23  39  73  97 136 177 227 273 333 415
#     4  12  22  41  74 102 131 177 232 280 331 399
#     4  12  27  41  65 101 136 174 225 285 330 397
#
# _framework density 21.232243
#
# number of rings (size 3 to 8) (size 9 to 14) (size 15 to 20)
#    0.462    0.615    3.077    2.769    6.462    0.000 
#    0.000    5.385    0.000    0.000    0.000    0.000 
#    0.000    0.000    0.000    0.000    0.000    0.000 
#
# Total GULP energy -322395.102819 kJ/mol
# GULP energy per Si atom -12399.811647 kJ/mol
# Density = 2.118392 g / cm^3
# Si number density = 21.232243 Si / 1000 Ang^3
#
#
#
# Elastic Constant Matrix: (Units=GPa)
#
#
# Indices 1 2 3 4 5 6 
#
# 1 126.9790 51.0187 23.3329 0.0000 -7.0820 0.0000
# 2 51.0187 93.2671 14.9172 0.0000 -3.0729 0.0000
# 3 23.3329 14.9172 92.9949 0.0000 0.9850 0.0000
# 4 0.0000 0.0000 0.0000 20.9138 0.0000 0.3129
# 5 -7.0820 -3.0729 0.9850 0.0000 37.9842 0.0000
# 6 0.0000 0.0000 0.0000 0.3129 0.0000 43.3941
#
#
#
# Elastic Compliance Matrix: (Units=1/GPa)
#
#
# Indices 1 2 3 4 5 6 
#
# 1 0.010451 -0.005381 -0.001775 0.000000 0.001559 0.000000
# 2 -0.005381 0.013809 -0.000866 0.000000 0.000136 0.000000
# 3 -0.001775 -0.000866 0.011345 0.000000 -0.000695 0.000000
# 4 0.000000 0.000000 0.000000 0.047821 0.000000 -0.000345
# 5 0.001559 0.000136 -0.000695 0.000000 0.026646 0.000000
# 6 0.000000 0.000000 0.000000 -0.000345 0.000000 0.023047
#
#
# Mechanical properties :
#
#
# Convention : Reuss Voigt Hill
#
# Bulk Modulus (GPa) = 51.12926 54.64208 52.88567
# Shear Modulus (GPa) = 32.11631 35.38989 33.75310
#
# Velocity S-wave (km/s) = 3.89346 4.08707 3.99144
# Velocity P-wave (km/s) = 6.65922 6.93279 6.79738
#
# Compressibility (1/GPa) = 0.01955827
#
# Stress axis : x y z
#
# Youngs Moduli (GPa) = 95.68738 72.41842 88.14407
#
# Poissons Ratio (x) = 0.38971 0.15649
# Poissons Ratio (y) = 0.51493 0.07636
# Poissons Ratio (z) = 0.16989 0.06273
#
# Static dielectric constant tensor:
#      x y z
#    x 3.931890 0.000000 -0.082040 
#    y 0.000000 3.583750 0.000000 
#    z -0.082040 0.000000 3.901540 
# 
# 
# High freq. dielectric constant tensor:
#      x y z
#    x 1.843690 0.000000 -0.008160 
#    y 0.000000 1.816420 0.000000 
#    z -0.008160 0.000000 1.840470 
# 
# From -- ./inp_files/82309.got.cif
#   From: 2010.06.25/outbox.cif.g09.slc.cpg/sg15_42_cif.got.tgz:82309.got - 2010.06.28 07:06:18.
