data_PCOD8147556
_publ_section_title
;
Structure prediction by ZEFSAII (Michael W. Deem and Ramdas Pophale) SiO2 
 PCOD8147556
Probable space group: C 2/C
;
_chemical_formula_sum "Si O2"
_cell_formula_units_Z 48
_cell_length_a 11.100844
_cell_length_b 12.571289
_cell_length_c 19.386923
_cell_angle_alpha 90.000000
_cell_angle_beta 125.052048
_cell_angle_gamma 90.000000
_cell_volume 2214.790765
_symmetry_space_group_name_H-M "C 2/C"
_symmetry_group_IT_number 15
_symmetry_cell_setting 'monoclinic'
loop_
_space_group_symop_operation_xyz
x,y,z
-x,y,1/2-z
-x,-y,-z
x,-y,1/2+z
1/2+x,1/2+y,z
1/2-x,1/2+y,1/2-z
1/2-x,1/2-y,-z
1/2+x,1/2-y,1/2+z
loop_
_atom_site_type_symbol
_atom_site_label
_atom_site_fract_x
_atom_site_fract_y
_atom_site_fract_z
Si Si1 0.251988 0.941308 0.760172
Si Si2 0.000000 0.810087 0.750000
Si Si3 0.848004 0.000656 0.412401
Si Si4 0.565548 0.076984 0.578354
Si Si5 0.169505 0.320031 0.416386
Si Si6 0.500000 0.179868 0.250000
Si Si7 0.752217 0.767582 0.920233
O O1 0.145759 0.996492 0.668658
O O2 0.390681 0.887957 0.764956
O O3 0.145366 0.868041 0.770125
O O4 0.307049 0.025832 0.833977
O O5 0.943740 0.744814 0.666728
O O6 0.768490 0.106698 0.412767
O O7 0.780171 0.885914 0.405906
O O8 0.000000 0.000000 0.500000
O O9 0.423463 0.090448 0.577440
O O10 0.620809 0.191343 0.568124
O O11 0.500000 0.000000 0.500000
O O12 0.250000 0.250000 0.500000
O O13 0.403399 0.257129 0.168640
O O14 0.750000 0.750000 0.000000
#
# Coordination Sequence:
#
# PCOD8147556 Si02
#       7
#     8   4   8   8   8   4   8
#     4  11  24  44  67  98 134 175 223 277 337 403
#     4  12  26  44  68 102 136 176 224 280 340 406
#     4  11  24  42  65  93 130 172 218 272 329 395
#     4  12  24  42  67  97 132 177 225 280 339 405
#     4  12  24  43  68  98 134 178 226 280 340 405
#     4  10  22  44  66  92 130 174 220 274 334 402
#     4  11  24  41  64  94 129 170 218 270 330 395
#
# _framework density 21.672476
#
# number of rings (size 3 to 8) (size 9 to 14) (size 15 to 20)
#    0.000    0.667    0.000   10.000    0.000    5.333 
#    0.000    0.000    0.000    0.000    0.000    0.000 
#    0.000    0.000    0.000    0.000    0.000    0.000 
#
# Total GULP energy -297361.080378 kJ/mol
# GULP energy per Si atom -12390.045016 kJ/mol
# Density = 2.162315 g / cm^3
# Si number density = 21.672476 Si / 1000 Ang^3
#
#
#
# Elastic Constant Matrix: (Units=GPa)
#
#
# Indices 1 2 3 4 5 6 
#
# 1 96.4375 17.8541 14.1443 0.0000 -1.5455 0.0000
# 2 17.8541 88.1849 35.7213 0.0000 -3.4490 0.0000
# 3 14.1443 35.7213 191.9292 0.0000 -6.6210 0.0000
# 4 0.0000 0.0000 0.0000 52.5067 0.0000 2.5433
# 5 -1.5455 -3.4490 -6.6210 0.0000 40.5844 0.0000
# 6 0.0000 0.0000 0.0000 2.5433 0.0000 42.1756
#
#
#
# Elastic Compliance Matrix: (Units=1/GPa)
#
#
# Indices 1 2 3 4 5 6 
#
# 1 0.010806 -0.002013 -0.000416 0.000000 0.000173 0.000000
# 2 -0.002013 0.012658 -0.002185 0.000000 0.000643 0.000000
# 3 -0.000416 -0.002185 0.005673 0.000000 0.000724 0.000000
# 4 0.000000 0.000000 0.000000 0.019101 0.000000 -0.001152
# 5 0.000173 0.000643 0.000724 0.000000 0.024819 0.000000
# 6 0.000000 0.000000 0.000000 -0.001152 0.000000 0.023780
#
#
# Mechanical properties :
#
#
# Convention : Reuss Voigt Hill
#
# Bulk Modulus (GPa) = 50.22955 56.88787 53.55871
# Shear Modulus (GPa) = 44.36570 47.64214 46.00392
#
# Velocity S-wave (km/s) = 4.52940 4.69367 4.61226
# Velocity P-wave (km/s) = 7.11202 7.46190 7.28906
#
# Compressibility (1/GPa) = 0.01990860
#
# Stress axis : x y z
#
# Youngs Moduli (GPa) = 92.54318 79.00373 176.28620
#
# Poissons Ratio (x) = 0.15900 0.07330
# Poissons Ratio (y) = 0.18625 0.38524
# Poissons Ratio (z) = 0.03848 0.17265
#
# Static dielectric constant tensor:
#      x y z
#    x 3.933430 0.000000 -0.023390 
#    y 0.000000 3.783060 0.000000 
#    z -0.023390 0.000000 4.578950 
# 
# 
# High freq. dielectric constant tensor:
#      x y z
#    x 1.854410 0.000000 -0.002340 
#    y 0.000000 1.849350 0.000000 
#    z -0.002340 0.000000 1.888570 
# 
# From -- ./inp_files/237453.got.cif
#   From: 2010.06.25/outbox.cif.g09.slc.cpg/sg15_119_cif.got.tgz:237453.got - 2010.06.28 07:06:18.
