data_PCOD8147019
_publ_section_title
;
Structure prediction by ZEFSAII (Michael W. Deem and Ramdas Pophale) SiO2 
 PCOD8147019
Probable space group: C 2/C
;
_chemical_formula_sum "Si O2"
_cell_formula_units_Z 44
_cell_length_a 12.296335
_cell_length_b 12.316734
_cell_length_c 16.533679
_cell_angle_alpha 90.000000
_cell_angle_beta 60.311818
_cell_angle_gamma 90.000000
_cell_volume 2175.341348
_symmetry_space_group_name_H-M "C 2/C"
_symmetry_group_IT_number 15
_symmetry_cell_setting 'monoclinic'
loop_
_space_group_symop_operation_xyz
x,y,z
-x,y,1/2-z
-x,-y,-z
x,-y,1/2+z
1/2+x,1/2+y,z
1/2-x,1/2+y,1/2-z
1/2-x,1/2-y,-z
1/2+x,1/2-y,1/2+z
loop_
_atom_site_type_symbol
_atom_site_label
_atom_site_fract_x
_atom_site_fract_y
_atom_site_fract_z
Si Si1 0.500000 0.094702 0.250000
Si Si2 0.638270 0.042121 0.931109
Si Si3 0.125823 0.211998 0.381596
Si Si4 0.266600 0.031226 0.427786
Si Si5 0.818803 0.658187 0.184812
Si Si6 0.848533 0.194221 0.522796
O O1 0.402899 0.020555 0.335814
O O2 0.425082 0.170017 0.214587
O O3 0.641477 0.163604 0.898951
O O4 0.696972 0.965579 0.840087
O O5 0.722508 0.036271 0.979937
O O6 0.500000 0.000000 0.000000
O O7 0.193033 0.136771 0.423657
O O8 0.185863 0.193543 0.271022
O O9 0.980001 0.183159 0.428270
O O10 0.192305 0.923466 0.431611
O O11 0.865674 0.733023 0.095360
O O12 0.750000 0.250000 0.500000
#
# Coordination Sequence:
#
# PCOD8147019 Si02
#       6
#     4   8   8   8   8   8
#     4  10  22  42  68  98 130 184 226 276 334 430
#     4  12  21  45  71  96 133 182 233 275 344 426
#     4  11  26  42  68  99 139 176 228 288 344 413
#     4  11  23  41  69  99 137 177 226 285 350 406
#     4  11  25  42  69 102 132 176 234 274 347 409
#     4  12  24  44  68  99 137 178 223 291 342 409
#
# _framework density 20.226710000000001
#
# number of rings (size 3 to 8) (size 9 to 14) (size 15 to 20)
#    0.000    0.727    5.455    1.091    5.091    2.182 
#    0.000    0.000    0.000    0.000    0.000    0.000 
#    0.000    0.000    0.000    0.000    0.000    0.000 
#
# Total GULP energy -272893.466368 kJ/mol
# GULP energy per Si atom -12404.248471 kJ/mol
# Density = 2.018067 g / cm^3
# Si number density = 20.226710 Si / 1000 Ang^3
#
#
#
# Elastic Constant Matrix: (Units=GPa)
#
#
# Indices 1 2 3 4 5 6 
#
# 1 100.6043 37.5675 58.7741 0.0000 -7.4425 0.0000
# 2 37.5675 161.7443 51.8679 0.0000 -9.6610 0.0000
# 3 58.7741 51.8679 129.6722 0.0000 -16.5219 0.0000
# 4 0.0000 0.0000 0.0000 40.5621 0.0000 -1.5664
# 5 -7.4425 -9.6610 -16.5219 0.0000 44.4205 0.0000
# 6 0.0000 0.0000 0.0000 -1.5664 0.0000 28.8716
#
#
#
# Elastic Compliance Matrix: (Units=1/GPa)
#
#
# Indices 1 2 3 4 5 6 
#
# 1 0.013782 -0.001377 -0.005711 0.000000 -0.000114 0.000000
# 2 -0.001377 0.007241 -0.002206 0.000000 0.000524 0.000000
# 3 -0.005711 -0.002206 0.011546 0.000000 0.002858 0.000000
# 4 0.000000 0.000000 0.000000 0.024705 0.000000 0.001340
# 5 -0.000114 0.000524 0.002858 0.000000 0.023670 0.000000
# 6 0.000000 0.000000 0.000000 0.001340 0.000000 0.034709
#
#
# Mechanical properties :
#
#
# Convention : Reuss Voigt Hill
#
# Bulk Modulus (GPa) = 71.51240 76.49332 74.00286
# Shear Modulus (GPa) = 35.99719 39.02493 37.51106
#
# Velocity S-wave (km/s) = 4.22321 4.39723 4.31110
# Velocity P-wave (km/s) = 7.69499 7.98003 7.83881
#
# Compressibility (1/GPa) = 0.01398359
#
# Stress axis : x y z
#
# Youngs Moduli (GPa) = 72.56021 138.10404 86.60668
#
# Poissons Ratio (x) = 0.19011 0.49457
# Poissons Ratio (y) = 0.09989 0.19102
# Poissons Ratio (z) = 0.41436 0.30461
#
# Static dielectric constant tensor:
#      x y z
#    x 3.768010 0.000000 -0.019150 
#    y 0.000000 4.108430 0.000000 
#    z -0.019150 0.000000 4.035150 
# 
# 
# High freq. dielectric constant tensor:
#      x y z
#    x 1.792670 0.000000 0.001890 
#    y 0.000000 1.795480 0.000000 
#    z 0.001890 0.000000 1.800690 
# 
# From -- ./inp_files/142219.got.cif
#   From: 2010.06.25/outbox.cif.g09.slc.cpg/sg15_72_cif.got.tgz:142219.got - 2010.06.28 07:06:18.
