data_PCOD8147801
_publ_section_title
;
Structure prediction by ZEFSAII (Michael W. Deem and Ramdas Pophale) SiO2 
 PCOD8147801
Probable space group: C 2/C
;
_chemical_formula_sum "Si O2"
_cell_formula_units_Z 60
_cell_length_a 21.045518
_cell_length_b 8.277224
_cell_length_c 24.608627
_cell_angle_alpha 90.000000
_cell_angle_beta 37.554496
_cell_angle_gamma 90.000000
_cell_volume 2612.862984
_symmetry_space_group_name_H-M "C 2/C"
_symmetry_group_IT_number 15
_symmetry_cell_setting 'monoclinic'
loop_
_space_group_symop_operation_xyz
x,y,z
-x,y,1/2-z
-x,-y,-z
x,-y,1/2+z
1/2+x,1/2+y,z
1/2-x,1/2+y,1/2-z
1/2-x,1/2-y,-z
1/2+x,1/2-y,1/2+z
loop_
_atom_site_type_symbol
_atom_site_label
_atom_site_fract_x
_atom_site_fract_y
_atom_site_fract_z
Si Si1 0.615003 0.732434 0.369631
Si Si2 0.000000 0.059553 0.750000
Si Si3 0.402868 0.272438 0.961341
Si Si4 0.064440 0.089519 0.504998
Si Si5 0.537388 0.240557 0.328187
Si Si6 0.967994 0.608506 0.711804
Si Si7 0.285597 0.544261 0.765562
Si Si8 0.302873 0.347723 0.852988
O O1 0.495750 0.786349 0.438831
O O2 0.639975 0.702044 0.416910
O O3 0.636367 0.563148 0.323714
O O4 0.687217 0.880794 0.299895
O O5 0.896875 0.949028 0.815812
O O6 0.018917 0.169649 0.684046
O O7 0.380910 0.460075 0.991750
O O8 0.448647 0.239724 0.869542
O O9 0.291259 0.183881 0.041119
O O10 0.007344 0.215877 0.582522
O O11 0.000000 0.000000 0.500000
O O12 0.656100 0.299585 0.249507
O O13 0.531975 0.048584 0.325850
O O14 0.852976 0.685995 0.792838
O O15 0.000000 0.556378 0.750000
O O16 0.245298 0.437595 0.842776
#
# Coordination Sequence:
#
# PCOD8147801 Si02
#       8
#     8   4   8   8   8   8   8   8
#     4  11  25  44  70 105 144 195 242 289 366 439
#     4  10  22  50  74 102 140 200 240 306 360 428
#     4  11  25  47  71 106 143 188 240 301 363 438
#     4  10  22  45  67 102 148 189 233 298 362 434
#     4  11  23  46  71 102 148 188 244 300 363 427
#     4  12  26  48  73 108 139 193 252 301 363 431
#     4  11  25  42  70 105 147 197 232 294 365 434
#     4  11  25  46  75 103 145 189 241 306 368 425
#
# _framework density 22.963317
#
# number of rings (size 3 to 8) (size 9 to 14) (size 15 to 20)
#    0.000    1.067    5.333    0.800    7.467    1.067 
#    0.000    0.667    0.000    0.000    0.000    0.000 
#    0.000    0.000    0.000    0.000    0.000    0.000 
#
# Total GULP energy -371657.637810 kJ/mol
# GULP energy per Si atom -12388.587927 kJ/mol
# Density = 2.291105 g / cm^3
# Si number density = 22.963317 Si / 1000 Ang^3
#
#
#
# Elastic Constant Matrix: (Units=GPa)
#
#
# Indices 1 2 3 4 5 6 
#
# 1 76.1459 42.2269 44.6036 0.0014 2.7335 -0.0011
# 2 42.2269 96.6067 32.9312 0.0037 -2.4281 -0.0039
# 3 44.6036 32.9312 134.5830 0.0007 1.3744 -0.0009
# 4 0.0014 0.0037 0.0007 34.9373 -0.0001 6.0501
# 5 2.7335 -2.4281 1.3744 -0.0001 47.4220 0.0010
# 6 -0.0011 -0.0039 -0.0009 6.0501 0.0010 35.9961
#
#
#
# Elastic Compliance Matrix: (Units=1/GPa)
#
#
# Indices 1 2 3 4 5 6 
#
# 1 0.019973 -0.007106 -0.004867 0.000000 -0.001374 0.000000
# 2 -0.007106 0.013842 -0.001044 -0.000001 0.001149 0.000001
# 3 -0.004867 -0.001044 0.009299 0.000000 -0.000042 0.000000
# 4 0.000000 -0.000001 0.000000 0.029481 0.000000 -0.004955
# 5 -0.001374 0.001149 -0.000042 0.000000 0.021227 -0.000001
# 6 0.000000 0.000001 0.000000 -0.004955 -0.000001 0.028614
#
#
# Mechanical properties :
#
#
# Convention : Reuss Voigt Hill
#
# Bulk Modulus (GPa) = 58.54247 60.76211 59.65229
# Shear Modulus (GPa) = 32.43338 36.17599 34.30468
#
# Velocity S-wave (km/s) = 3.76227 3.97341 3.86928
# Velocity P-wave (km/s) = 6.66499 6.89700 6.78199
#
# Compressibility (1/GPa) = 0.01708162
#
# Stress axis : x y z
#
# Youngs Moduli (GPa) = 50.06640 72.24437 107.53688
#
# Poissons Ratio (x) = 0.51337 0.52336
# Poissons Ratio (y) = 0.35577 0.11223
# Poissons Ratio (z) = 0.24366 0.07540
#
# Static dielectric constant tensor:
#      x y z
#    x 4.012990 0.000000 0.332490 
#    y 0.000000 4.333390 0.000000 
#    z 0.332490 0.000000 4.281030 
# 
# 
# High freq. dielectric constant tensor:
#      x y z
#    x 1.895940 0.000000 0.017500 
#    y 0.000000 1.908940 0.000000 
#    z 0.017500 0.000000 1.906950 
# 
# From -- ./inp_files/279686.got.cif
#   From: 2010.06.25/outbox.cif.g09.slc.cpg/sg15_140_cif.got.tgz:279686.got - 2010.06.28 07:06:18.
