data_PCOD8147393
_publ_section_title
;
Structure prediction by ZEFSAII (Michael W. Deem and Ramdas Pophale) SiO2 
 PCOD8147393
Probable space group: C 2/C
;
_chemical_formula_sum "Si O2"
_cell_formula_units_Z 48
_cell_length_a 25.297805
_cell_length_b 9.216286
_cell_length_c 14.025821
_cell_angle_alpha 90.000000
_cell_angle_beta 40.175777
_cell_angle_gamma 90.000000
_cell_volume 2109.684397
_symmetry_space_group_name_H-M "C 2/C"
_symmetry_group_IT_number 15
_symmetry_cell_setting 'monoclinic'
loop_
_space_group_symop_operation_xyz
x,y,z
-x,y,1/2-z
-x,-y,-z
x,-y,1/2+z
1/2+x,1/2+y,z
1/2-x,1/2+y,1/2-z
1/2-x,1/2-y,-z
1/2+x,1/2-y,1/2+z
loop_
_atom_site_type_symbol
_atom_site_label
_atom_site_fract_x
_atom_site_fract_y
_atom_site_fract_z
Si Si1 0.307594 0.148353 0.983273
Si Si2 0.111392 0.498237 0.293658
Si Si3 0.990494 0.743842 0.009760
Si Si4 0.122762 0.128359 0.982228
Si Si5 0.709936 0.917724 0.343726
Si Si6 0.077185 0.185327 0.574659
O O1 0.340137 0.023862 0.869818
O O2 0.250000 0.250000 0.000000
O O3 0.377504 0.250155 0.934186
O O4 0.263919 0.054512 0.126273
O O5 0.081374 0.664204 0.331791
O O6 0.164408 0.478305 0.314591
O O7 0.037702 0.383342 0.389680
O O8 0.954997 0.853093 0.979990
O O9 0.047881 0.827154 0.005130
O O10 0.205939 0.153959 0.807269
O O11 0.116267 0.972096 0.043117
O O12 0.649450 0.805469 0.482478
O O13 0.000000 0.221726 0.750000
#
# Coordination Sequence:
#
# PCOD8147393 Si02
#       6
#     8   8   8   8   8   8
#     4  12  25  42  74 104 135 183 247 289 350 429
#     4  10  22  43  70 101 134 184 240 288 352 427
#     4  10  23  44  69  97 142 185 226 294 365 420
#     4  12  25  43  73 104 144 185 238 303 360 417
#     4  11  24  47  71  99 148 189 235 294 360 431
#     4  11  26  45  68 106 145 186 237 294 364 435
#
# _framework density 22.752219
#
# number of rings (size 3 to 8) (size 9 to 14) (size 15 to 20)
#    0.000    1.000    3.333    2.500    4.667    1.333 
#    0.000    2.500    0.000    0.000    0.000    0.000 
#    0.000    0.000    0.000    0.000    0.000    0.000 
#
# Total GULP energy -297534.610764 kJ/mol
# GULP energy per Si atom -12397.275449 kJ/mol
# Density = 2.270043 g / cm^3
# Si number density = 22.752219 Si / 1000 Ang^3
#
#
#
# Elastic Constant Matrix: (Units=GPa)
#
#
# Indices 1 2 3 4 5 6 
#
# 1 94.2335 24.0419 11.7292 -0.0001 4.0985 0.0000
# 2 24.0419 82.8591 9.9422 -0.0024 14.3599 0.0011
# 3 11.7292 9.9422 73.7039 -0.0006 4.3834 0.0004
# 4 -0.0001 -0.0024 -0.0006 15.9194 0.0003 3.3087
# 5 4.0985 14.3599 4.3834 0.0003 28.5552 -0.0001
# 6 0.0000 0.0011 0.0004 3.3087 -0.0001 46.3694
#
#
#
# Elastic Compliance Matrix: (Units=1/GPa)
#
#
# Indices 1 2 3 4 5 6 
#
# 1 0.011605 -0.003227 -0.001422 0.000000 0.000175 0.000000
# 2 -0.003227 0.014263 -0.001021 0.000002 -0.006553 -0.000001
# 3 -0.001422 -0.001021 0.014017 0.000000 -0.001434 0.000000
# 4 0.000000 0.000002 0.000000 0.063762 -0.000002 -0.004550
# 5 0.000175 -0.006553 -0.001434 -0.000002 0.038510 0.000000
# 6 0.000000 -0.000001 0.000000 -0.004550 0.000000 0.021891
#
#
# Mechanical properties :
#
#
# Convention : Reuss Voigt Hill
#
# Bulk Modulus (GPa) = 35.03165 38.02482 36.52823
# Shear Modulus (GPa) = 27.04139 31.84103 29.44121
#
# Velocity S-wave (km/s) = 3.45123 3.74501 3.60111
# Velocity P-wave (km/s) = 5.59569 5.95390 5.77757
#
# Compressibility (1/GPa) = 0.02854562
#
# Stress axis : x y z
#
# Youngs Moduli (GPa) = 86.17295 70.11103 71.34154
#
# Poissons Ratio (x) = 0.22624 0.10144
# Poissons Ratio (y) = 0.27807 0.07282
# Poissons Ratio (z) = 0.12253 0.07157
#
# Static dielectric constant tensor:
#      x y z
#    x 3.965990 -0.000010 -0.166900 
#    y -0.000010 3.781870 -0.000010 
#    z -0.166900 -0.000010 3.982550 
# 
# 
# High freq. dielectric constant tensor:
#      x y z
#    x 1.897160 0.000000 0.005410 
#    y 0.000000 1.905410 0.000000 
#    z 0.005410 0.000000 1.887090 
# 
# From -- ./inp_files/180715.got.cif
#   From: 2010.06.25/outbox.cif.g09.slc.cpg/sg15_91_cif.got.tgz:180715.got - 2010.06.28 07:06:18.
