data_PCOD8147708
_publ_section_title
;
Structure prediction by ZEFSAII (Michael W. Deem and Ramdas Pophale) SiO2 
 PCOD8147708
Probable space group: C 2/C
;
_chemical_formula_sum "Si O2"
_cell_formula_units_Z 40
_cell_length_a 12.348231
_cell_length_b 10.151234
_cell_length_c 20.838013
_cell_angle_alpha 90.000000
_cell_angle_beta 142.028989
_cell_angle_gamma 90.000000
_cell_volume 1607.091025
_symmetry_space_group_name_H-M "C 2/C"
_symmetry_group_IT_number 15
_symmetry_cell_setting 'monoclinic'
loop_
_space_group_symop_operation_xyz
x,y,z
-x,y,1/2-z
-x,-y,-z
x,-y,1/2+z
1/2+x,1/2+y,z
1/2-x,1/2+y,1/2-z
1/2-x,1/2-y,-z
1/2+x,1/2-y,1/2+z
loop_
_atom_site_type_symbol
_atom_site_label
_atom_site_fract_x
_atom_site_fract_y
_atom_site_fract_z
Si Si1 0.641106 0.996344 0.361485
Si Si2 0.503206 0.076795 0.933523
Si Si3 0.405171 0.661681 0.543293
Si Si4 0.223525 0.274176 0.621928
Si Si5 0.382686 0.538129 0.750222
O O1 0.500000 0.070566 0.250000
O O2 0.574334 0.996984 0.403905
O O3 0.664476 0.856179 0.337155
O O4 0.822195 0.078689 0.445381
O O5 0.300406 0.118320 0.825100
O O6 0.642735 0.192240 0.013589
O O7 0.500000 0.000000 0.000000
O O8 0.250000 0.750000 0.500000
O O9 0.558008 0.758149 0.591913
O O10 0.493173 0.550538 0.629937
O O11 0.344445 0.385804 0.712278
O O12 0.500000 0.606487 0.750000
#
# Coordination Sequence:
#
# PCOD8147708 Si02
#       5
#     8   8   8   8   8
#     4  12  26  45  69 104 142 185 241 300 362 431
#     4  10  22  44  71 101 140 186 236 297 366 433
#     4  12  26  45  70 104 146 192 240 297 366 435
#     4  11  24  43  70 104 139 187 245 302 359 430
#     4  11  23  43  69 101 140 188 238 294 363 431
#
# _framework density 24.889690999999999
#
# number of rings (size 3 to 8) (size 9 to 14) (size 15 to 20)
#    0.000    0.800    0.000    9.000    0.000    5.600 
#    0.000    2.000    0.000    0.000    0.000    0.000 
#    0.000    0.000    0.000    0.000    0.000    0.000 
#
# Total GULP energy -247787.672748 kJ/mol
# GULP energy per Si atom -12389.383637 kJ/mol
# Density = 2.483304 g / cm^3
# Si number density = 24.889691 Si / 1000 Ang^3
#
#
#
# Elastic Constant Matrix: (Units=GPa)
#
#
# Indices 1 2 3 4 5 6 
#
# 1 116.5794 8.2608 26.8473 0.0000 2.9096 0.0000
# 2 8.2608 75.6352 61.2716 0.0000 0.1757 0.0000
# 3 26.8473 61.2716 208.0510 0.0000 2.6110 0.0000
# 4 0.0000 0.0000 0.0000 26.2098 0.0000 -8.1859
# 5 2.9096 0.1757 2.6110 0.0000 44.2675 0.0000
# 6 0.0000 0.0000 0.0000 -8.1859 0.0000 24.5377
#
#
#
# Elastic Compliance Matrix: (Units=1/GPa)
#
#
# Indices 1 2 3 4 5 6 
#
# 1 0.008852 -0.000060 -0.001118 0.000000 -0.000516 0.000000
# 2 -0.000060 0.017367 -0.005110 0.000000 0.000236 0.000000
# 3 -0.001118 -0.005110 0.006459 0.000000 -0.000287 0.000000
# 4 0.000000 0.000000 0.000000 0.042591 0.000000 0.014209
# 5 -0.000516 0.000236 -0.000287 0.000000 0.022640 0.000000
# 6 0.000000 0.000000 0.000000 0.014209 0.000000 0.045494
#
#
# Mechanical properties :
#
#
# Convention : Reuss Voigt Hill
#
# Bulk Modulus (GPa) = 49.74425 65.89167 57.81796
# Shear Modulus (GPa) = 30.73521 39.26207 34.99864
#
# Velocity S-wave (km/s) = 3.51787 3.97601 3.75393
# Velocity P-wave (km/s) = 6.04399 6.89994 6.48610
#
# Compressibility (1/GPa) = 0.02010283
#
# Stress axis : x y z
#
# Youngs Moduli (GPa) = 112.96268 57.58124 154.81606
#
# Poissons Ratio (x) = 0.00344 0.17313
# Poissons Ratio (y) = 0.00675 0.79108
# Poissons Ratio (z) = 0.12632 0.29423
#
# Static dielectric constant tensor:
#      x y z
#    x 4.530180 0.000000 0.268290 
#    y 0.000000 4.434420 0.000000 
#    z 0.268290 0.000000 5.340240 
# 
# 
# High freq. dielectric constant tensor:
#      x y z
#    x 1.994890 0.000000 0.017940 
#    y 0.000000 1.966430 0.000000 
#    z 0.017940 0.000000 2.020800 
# 
# From -- ./inp_files/237803.got.cif
#   From: 2010.06.25/outbox.cif.g09.slc.cpg/sg15_119_cif.got.tgz:237803.got - 2010.06.28 07:06:18.
