data_PCOD8147048
_publ_section_title
;
Structure prediction by ZEFSAII (Michael W. Deem and Ramdas Pophale) SiO2 
 PCOD8147048
Probable space group: C 2/C
;
_chemical_formula_sum "Si O2"
_cell_formula_units_Z 56
_cell_length_a 22.233869
_cell_length_b 13.248938
_cell_length_c 8.526845
_cell_angle_alpha 90.000000
_cell_angle_beta 91.299532
_cell_angle_gamma 90.000000
_cell_volume 2511.150613
_symmetry_space_group_name_H-M "C 2/C"
_symmetry_group_IT_number 15
_symmetry_cell_setting 'monoclinic'
loop_
_space_group_symop_operation_xyz
x,y,z
-x,y,1/2-z
-x,-y,-z
x,-y,1/2+z
1/2+x,1/2+y,z
1/2-x,1/2+y,1/2-z
1/2-x,1/2-y,-z
1/2+x,1/2-y,1/2+z
loop_
_atom_site_type_symbol
_atom_site_label
_atom_site_fract_x
_atom_site_fract_y
_atom_site_fract_z
Si Si1 0.355837 0.417755 0.209598
Si Si2 0.687825 0.873418 0.357426
Si Si3 0.500000 0.298859 0.750000
Si Si4 0.063424 0.961059 0.569776
Si Si5 0.000000 0.541643 0.250000
Si Si6 0.055468 0.629610 0.956266
Si Si7 0.768827 0.260181 0.680553
Si Si8 0.235658 0.537066 0.165972
O O1 0.400565 0.444655 0.354608
O O2 0.326638 0.307510 0.228425
O O3 0.304076 0.501851 0.193518
O O4 0.396079 0.410885 0.058642
O O5 0.625280 0.848755 0.435323
O O6 0.715024 0.768306 0.297666
O O7 0.730495 0.927862 0.486705
O O8 0.688549 0.946796 0.204268
O O9 0.553809 0.372106 0.697040
O O10 0.519365 0.227369 0.895067
O O11 0.000000 0.000000 0.500000
O O12 0.042541 0.471811 0.357926
O O13 0.959938 0.612463 0.361550
O O14 0.750000 0.250000 0.500000
O O15 0.782921 0.375997 0.713229
#
# Coordination Sequence:
#
# PCOD8147048 Si02
#       8
#     8   8   4   8   4   8   8   8
#     4  11  24  43  70  94 137 180 216 293 346 395
#     4  11  23  40  65  97 133 176 218 275 342 409
#     4  11  26  44  65  98 128 176 239 282 334 429
#     4  12  24  47  67  95 130 180 235 282 343 408
#     4   9  20  44  65  96 136 174 219 282 348 407
#     4  10  22  42  69  96 135 177 223 283 346 403
#     4  11  24  41  65 102 132 176 228 274 345 425
#     4  11  23  43  65 100 134 170 227 272 347 424
#
# _framework density 22.300535
#
# number of rings (size 3 to 8) (size 9 to 14) (size 15 to 20)
#    0.000    1.143    1.429    5.571    4.000    1.143 
#   10.286    0.000    0.000    0.000    0.000    0.000 
#    0.000    0.000    0.000    0.000    0.000    0.000 
#
# Total GULP energy -347230.138159 kJ/mol
# GULP energy per Si atom -12401.076363 kJ/mol
# Density = 2.224978 g / cm^3
# Si number density = 22.300535 Si / 1000 Ang^3
#
#
#
# Elastic Constant Matrix: (Units=GPa)
#
#
# Indices 1 2 3 4 5 6 
#
# 1 128.8650 30.6854 33.2257 0.0000 -19.9299 0.0000
# 2 30.6854 82.0842 3.8351 0.0000 -5.1420 0.0000
# 3 33.2257 3.8351 92.0210 0.0000 -16.4798 0.0000
# 4 0.0000 0.0000 0.0000 39.2844 0.0000 -3.6190
# 5 -19.9299 -5.1420 -16.4798 0.0000 46.4366 0.0000
# 6 0.0000 0.0000 0.0000 -3.6190 0.0000 28.4282
#
#
#
# Elastic Compliance Matrix: (Units=1/GPa)
#
#
# Indices 1 2 3 4 5 6 
#
# 1 0.009724 -0.003326 -0.002873 0.000000 0.002785 0.000000
# 2 -0.003326 0.013413 0.000697 0.000000 0.000305 0.000000
# 3 -0.002873 0.000697 0.012460 0.000000 0.003266 0.000000
# 4 0.000000 0.000000 0.000000 0.025757 0.000000 0.003279
# 5 0.002785 0.000305 0.003266 0.000000 0.023923 0.000000
# 6 0.000000 0.000000 0.000000 0.003279 0.000000 0.035594
#
#
# Mechanical properties :
#
#
# Convention : Reuss Voigt Hill
#
# Bulk Modulus (GPa) = 40.66613 48.71807 44.69210
# Shear Modulus (GPa) = 35.69538 38.51144 37.10341
#
# Velocity S-wave (km/s) = 4.00515 4.16014 4.08338
# Velocity P-wave (km/s) = 6.29789 6.70591 6.50510
#
# Compressibility (1/GPa) = 0.02459049
#
# Stress axis : x y z
#
# Youngs Moduli (GPa) = 102.84102 74.55664 80.25385
#
# Poissons Ratio (x) = 0.24800 0.23061
# Poissons Ratio (y) = 0.34208 -0.05591
# Poissons Ratio (z) = 0.29551 -0.05194
#
# Static dielectric constant tensor:
#      x y z
#    x -16.247480 0.000000 -4.510900 
#    y 0.000000 4.080080 0.000000 
#    z -4.510900 0.000000 3.205710 
# 
# 
# High freq. dielectric constant tensor:
#      x y z
#    x 1.871840 0.000000 -0.015270 
#    y 0.000000 1.880850 0.000000 
#    z -0.015270 0.000000 1.891140 
# 
# From -- ./inp_files/55690.got.cif
#   From: 2010.06.25/outbox.cif.g09.slc.cpg/sg15_28_cif.got.tgz:55690.got - 2010.06.28 07:06:18.
