data_PCOD8147575
_publ_section_title
;
Structure prediction by ZEFSAII (Michael W. Deem and Ramdas Pophale) SiO2 
 PCOD8147575
Probable space group: C 2/C
;
_chemical_formula_sum "Si O2"
_cell_formula_units_Z 44
_cell_length_a 5.183617
_cell_length_b 25.997150
_cell_length_c 14.381071
_cell_angle_alpha 90.000000
_cell_angle_beta 96.363132
_cell_angle_gamma 90.000000
_cell_volume 1926.043553
_symmetry_space_group_name_H-M "C 2/C"
_symmetry_group_IT_number 15
_symmetry_cell_setting 'monoclinic'
loop_
_space_group_symop_operation_xyz
x,y,z
-x,y,1/2-z
-x,-y,-z
x,-y,1/2+z
1/2+x,1/2+y,z
1/2-x,1/2+y,1/2-z
1/2-x,1/2-y,-z
1/2+x,1/2-y,1/2+z
loop_
_atom_site_type_symbol
_atom_site_label
_atom_site_fract_x
_atom_site_fract_y
_atom_site_fract_z
Si Si1 0.000000 0.023089 0.750000
Si Si2 0.000000 0.415254 0.750000
Si Si3 0.296757 0.979327 0.595229
Si Si4 0.457103 0.294364 0.927350
Si Si5 0.351892 0.070394 0.912347
Si Si6 0.001468 0.681668 0.971606
Si Si7 0.000000 0.149737 0.250000
O O1 0.790217 0.060257 0.691671
O O2 0.907597 0.985354 0.828779
O O3 0.967488 0.448749 0.844084
O O4 0.256185 0.382619 0.772165
O O5 0.190345 0.947555 0.499996
O O6 0.388193 0.036041 0.568579
O O7 0.406158 0.233208 0.915455
O O8 0.574977 0.313440 0.836458
O O9 0.180698 0.320657 0.943022
O O10 0.688444 0.311395 0.006525
O O11 0.438963 0.129647 0.912989
#
# Coordination Sequence:
#
# PCOD8147575 Si02
#       7
#     4   4   8   8   8   8   4
#     4  12  23  44  61  98 140 175 228 285 318 418
#     4  12  24  42  66  98 135 173 224 286 322 400
#     4  11  24  42  63  95 135 177 228 273 333 403
#     4  10  22  44  66  98 128 166 225 280 323 405
#     4  11  24  42  66  94 133 185 218 275 345 404
#     4  10  23  44  68  92 132 174 218 270 340 396
#     4  12  23  38  67  98 125 168 224 277 342 378
#
# _framework density 22.844757999999999
#
# number of rings (size 3 to 8) (size 9 to 14) (size 15 to 20)
#    0.000    1.091    1.818    4.364    2.545    0.000 
#    3.273    0.909    0.000    0.000    0.000    0.000 
#    0.000    0.000    0.000    0.000    0.000    0.000 
#
# Total GULP energy -272571.393437 kJ/mol
# GULP energy per Si atom -12389.608793 kJ/mol
# Density = 2.279276 g / cm^3
# Si number density = 22.844758 Si / 1000 Ang^3
#
#
#
# Elastic Constant Matrix: (Units=GPa)
#
#
# Indices 1 2 3 4 5 6 
#
# 1 96.0241 31.8169 14.0588 0.0000 -6.1614 0.0000
# 2 31.8169 145.0495 36.8123 0.0000 1.7125 0.0000
# 3 14.0588 36.8123 97.6775 0.0000 -0.5126 0.0000
# 4 0.0000 0.0000 0.0000 26.3539 0.0000 -1.8223
# 5 -6.1614 1.7125 -0.5126 0.0000 33.8932 0.0000
# 6 0.0000 0.0000 0.0000 -1.8223 0.0000 8.9078
#
#
#
# Elastic Compliance Matrix: (Units=1/GPa)
#
#
# Indices 1 2 3 4 5 6 
#
# 1 0.011441 -0.002345 -0.000752 0.000000 0.002187 0.000000
# 2 -0.002345 0.008110 -0.002724 0.000000 -0.000877 0.000000
# 3 -0.000752 -0.002724 0.011373 0.000000 0.000173 0.000000
# 4 0.000000 0.000000 0.000000 0.038489 0.000000 0.007874
# 5 0.002187 -0.000877 0.000173 0.000000 0.029949 0.000000
# 6 0.000000 0.000000 0.000000 0.007874 0.000000 0.113872
#
#
# Mechanical properties :
#
#
# Convention : Reuss Voigt Hill
#
# Bulk Modulus (GPa) = 51.85429 56.01413 53.93421
# Shear Modulus (GPa) = 21.61665 30.90185 26.25925
#
# Velocity S-wave (km/s) = 3.07944 3.68188 3.39405
# Velocity P-wave (km/s) = 5.94910 6.53052 6.24658
#
# Compressibility (1/GPa) = 0.01928481
#
# Stress axis : x y z
#
# Youngs Moduli (GPa) = 87.40238 123.30284 87.92499
#
# Poissons Ratio (x) = 0.28911 0.06609
# Poissons Ratio (y) = 0.20494 0.23948
# Poissons Ratio (z) = 0.06569 0.33583
#
# Static dielectric constant tensor:
#      x y z
#    x 4.145540 0.000000 -0.110080 
#    y 0.000000 4.251970 0.000000 
#    z -0.110080 0.000000 4.220420 
# 
# 
# High freq. dielectric constant tensor:
#      x y z
#    x 1.898860 0.000000 -0.004780 
#    y 0.000000 1.909460 0.000000 
#    z -0.004780 0.000000 1.889330 
# 
# From -- ./inp_files/129423.got.cif
#   From: 2010.06.25/outbox.cif.g09.slc.cpg/sg15_65_cif.got.tgz:129423.got - 2010.06.28 07:06:18.
