data_PCOD8147446
_publ_section_title
;
Structure prediction by ZEFSAII (Michael W. Deem and Ramdas Pophale) SiO2 
 PCOD8147446
Probable space group: C 2/C
;
_chemical_formula_sum "Si O2"
_cell_formula_units_Z 52
_cell_length_a 19.045584
_cell_length_b 27.214203
_cell_length_c 5.339422
_cell_angle_alpha 90.000000
_cell_angle_beta 53.142898
_cell_angle_gamma 90.000000
_cell_volume 2214.353091
_symmetry_space_group_name_H-M "C 2/C"
_symmetry_group_IT_number 15
_symmetry_cell_setting 'monoclinic'
loop_
_space_group_symop_operation_xyz
x,y,z
-x,y,1/2-z
-x,-y,-z
x,-y,1/2+z
1/2+x,1/2+y,z
1/2-x,1/2+y,1/2-z
1/2-x,1/2-y,-z
1/2+x,1/2-y,1/2+z
loop_
_atom_site_type_symbol
_atom_site_label
_atom_site_fract_x
_atom_site_fract_y
_atom_site_fract_z
Si Si1 0.155836 0.626510 0.258086
Si Si2 0.500000 0.349849 0.750000
Si Si3 0.402164 0.020294 0.174947
Si Si4 0.330060 0.184491 0.753127
Si Si5 0.636853 0.704166 0.275384
Si Si6 0.602706 0.524165 0.502172
Si Si7 0.851137 0.120607 0.891848
O O1 0.094937 0.578483 0.385405
O O2 0.146892 0.654477 0.543114
O O3 0.127159 0.659966 0.084021
O O4 0.255162 0.608843 0.991973
O O5 0.452218 0.314412 0.657302
O O6 0.572551 0.386237 0.477087
O O7 0.354213 0.006730 0.541083
O O8 0.500000 0.000000 0.000000
O O9 0.373270 0.237884 0.675387
O O10 0.225074 0.189987 0.932586
O O11 0.645607 0.677256 0.524495
O O12 0.500000 0.515410 0.750000
O O13 0.644437 0.497947 0.169788
O O14 0.627020 0.582079 0.432586
#
# Coordination Sequence:
#
# PCOD8147446 Si02
#       7
#     8   4   8   8   8   8   8
#     4  11  23  43  69 100 132 175 228 276 353 404
#     4  12  22  40  62  94 128 182 228 274 332 406
#     4  10  22  43  73 102 134 176 221 282 347 420
#     4  10  23  42  67  98 132 178 224 294 334 420
#     4  10  23  40  66  92 135 178 236 274 354 403
#     4  10  23  38  56  83 121 165 214 267 323 372
#     4  11  25  39  65  93 133 180 226 279 333 418
#
# _framework density 23.483156999999999
#
# number of rings (size 3 to 8) (size 9 to 14) (size 15 to 20)
#    0.000    1.538    1.538    2.308    7.538    3.077 
#    0.000    4.615    0.000    0.000    0.000    0.000 
#    0.000    0.000    0.000    0.000    0.000    0.000 
#
# Total GULP energy -322347.927764 kJ/mol
# GULP energy per Si atom -12397.997222 kJ/mol
# Density = 2.342971 g / cm^3
# Si number density = 23.483157 Si / 1000 Ang^3
#
#
#
# Elastic Constant Matrix: (Units=GPa)
#
#
# Indices 1 2 3 4 5 6 
#
# 1 82.8656 44.8159 43.4275 0.0000 22.2631 0.0000
# 2 44.8159 165.5836 47.1334 0.0000 20.8254 0.0000
# 3 43.4275 47.1334 83.1839 0.0000 31.7289 0.0000
# 4 0.0000 0.0000 0.0000 37.0026 0.0000 3.9548
# 5 22.2631 20.8254 31.7289 0.0000 49.6498 0.0000
# 6 0.0000 0.0000 0.0000 3.9548 0.0000 33.1977
#
#
#
# Elastic Compliance Matrix: (Units=1/GPa)
#
#
# Indices 1 2 3 4 5 6 
#
# 1 0.017697 -0.002524 -0.006857 0.000000 -0.002494 0.000000
# 2 -0.002524 0.007572 -0.002900 0.000000 -0.000191 0.000000
# 3 -0.006857 -0.002900 0.020638 0.000000 -0.008898 0.000000
# 4 0.000000 0.000000 0.000000 0.027374 0.000000 -0.003261
# 5 -0.002494 -0.000191 -0.008898 0.000000 0.027026 0.000000
# 6 0.000000 0.000000 0.000000 -0.003261 0.000000 0.030511
#
#
# Mechanical properties :
#
#
# Convention : Reuss Voigt Hill
#
# Bulk Modulus (GPa) = 46.84938 66.93187 56.89062
# Shear Modulus (GPa) = 30.77025 37.05377 33.91201
#
# Velocity S-wave (km/s) = 3.62375 3.97657 3.80425
# Velocity P-wave (km/s) = 6.12391 7.04614 6.60115
#
# Compressibility (1/GPa) = 0.02134500
#
# Stress axis : x y z
#
# Youngs Moduli (GPa) = 56.50795 132.06850 48.45316
#
# Poissons Ratio (x) = 0.33335 0.33225
# Poissons Ratio (y) = 0.14263 0.14050
# Poissons Ratio (z) = 0.38749 0.38296
#
# Static dielectric constant tensor:
#      x y z
#    x 3.692480 0.000000 -0.521570 
#    y 0.000000 4.178820 0.000000 
#    z -0.521570 0.000000 2.983360 
# 
# 
# High freq. dielectric constant tensor:
#      x y z
#    x 1.922010 0.000000 0.016110 
#    y 0.000000 1.933800 0.000000 
#    z 0.016110 0.000000 1.921340 
# 
# From -- ./inp_files/11458.got.cif
#   From: 2010.06.25/outbox.cif.g09.slc.cpg/sg15_6_cif.got.tgz:11458.got - 2010.06.28 07:06:18.
