data_PCOD8147919
_publ_section_title
;
Structure prediction by ZEFSAII (Michael W. Deem and Ramdas Pophale) SiO2 
 PCOD8147919
Probable space group: C 2/C
;
_chemical_formula_sum "Si O2"
_cell_formula_units_Z 44
_cell_length_a 11.845253
_cell_length_b 8.361059
_cell_length_c 23.724931
_cell_angle_alpha 90.000000
_cell_angle_beta 52.380036
_cell_angle_gamma 90.000000
_cell_volume 1861.135481
_symmetry_space_group_name_H-M "C 2/C"
_symmetry_group_IT_number 15
_symmetry_cell_setting 'monoclinic'
loop_
_space_group_symop_operation_xyz
x,y,z
-x,y,1/2-z
-x,-y,-z
x,-y,1/2+z
1/2+x,1/2+y,z
1/2-x,1/2+y,1/2-z
1/2-x,1/2-y,-z
1/2+x,1/2-y,1/2+z
loop_
_atom_site_type_symbol
_atom_site_label
_atom_site_fract_x
_atom_site_fract_y
_atom_site_fract_z
Si Si1 0.182962 0.839283 0.166862
Si Si2 0.000000 0.874664 0.750000
Si Si3 0.084295 0.297775 0.807806
Si Si4 0.551767 0.870577 0.142842
Si Si5 0.643737 0.381375 0.400467
Si Si6 0.019092 0.775606 0.946409
O O1 0.068323 0.786580 0.155209
O O2 0.337609 0.830749 0.091548
O O3 0.180068 0.722415 0.222454
O O4 0.143043 0.018445 0.199497
O O5 0.976379 0.766505 0.702448
O O6 0.060928 0.485086 0.826064
O O7 0.160170 0.214948 0.837627
O O8 0.699947 0.928439 0.124651
O O9 0.579496 0.800758 0.072116
O O10 0.564587 0.266059 0.469340
O O11 0.553676 0.541830 0.419519
#
# Coordination Sequence:
#
# PCOD8147919 Si02
#       6
#     8   4   8   8   8   8
#     4  10  22  46  69 105 132 182 225 289 339 407
#     4  10  24  42  68 102 138 174 236 280 346 396
#     4  10  23  44  71  97 141 174 232 282 345 397
#     4  12  25  43  70 104 132 183 229 286 333 418
#     4  11  26  48  68 101 138 188 220 284 342 419
#     4  11  25  45  71  99 143 177 230 280 347 407
#
# _framework density 23.641482
#
# number of rings (size 3 to 8) (size 9 to 14) (size 15 to 20)
#    0.000    1.455    1.818    3.818    5.091    1.455 
#    3.273    0.000    0.000    0.000    0.000    0.000 
#    0.000    0.000    0.000    0.000    0.000    0.000 
#
# Total GULP energy -272925.784961 kJ/mol
# GULP energy per Si atom -12405.717498 kJ/mol
# Density = 2.358767 g / cm^3
# Si number density = 23.641482 Si / 1000 Ang^3
#
#
#
# Elastic Constant Matrix: (Units=GPa)
#
#
# Indices 1 2 3 4 5 6 
#
# 1 75.7634 -0.1212 2.2563 0.0000 17.0831 0.0000
# 2 -0.1212 93.9583 1.7078 0.0000 11.3893 0.0000
# 3 2.2563 1.7078 42.9375 0.0000 6.2003 0.0000
# 4 0.0000 0.0000 0.0000 30.4323 0.0000 3.8709
# 5 17.0831 11.3893 6.2003 0.0000 36.4492 0.0000
# 6 0.0000 0.0000 0.0000 3.8709 0.0000 32.7922
#
#
#
# Elastic Compliance Matrix: (Units=1/GPa)
#
#
# Indices 1 2 3 4 5 6 
#
# 1 0.014833 0.000896 0.000235 0.000000 -0.007272 0.000000
# 2 0.000896 0.011116 0.000075 0.000000 -0.003906 0.000000
# 3 0.000235 0.000075 0.023880 0.000000 -0.004196 0.000000
# 4 0.000000 0.000000 0.000000 0.033361 0.000000 -0.003938
# 5 -0.007272 -0.003906 -0.004196 0.000000 0.032778 0.000000
# 6 0.000000 0.000000 0.000000 -0.003938 0.000000 0.030960
#
#
# Mechanical properties :
#
#
# Convention : Reuss Voigt Hill
#
# Bulk Modulus (GPa) = 19.14167 24.48280 21.81223
# Shear Modulus (GPa) = 30.87753 33.85582 32.36667
#
# Velocity S-wave (km/s) = 3.61789 3.78835 3.70410
# Velocity P-wave (km/s) = 5.05632 5.43266 5.24786
#
# Compressibility (1/GPa) = 0.05224204
#
# Stress axis : x y z
#
# Youngs Moduli (GPa) = 67.41667 89.95772 41.87569
#
# Poissons Ratio (x) = -0.08063 -0.00984
# Poissons Ratio (y) = -0.06043 -0.00313
# Poissons Ratio (z) = -0.01584 -0.00673
#
# Static dielectric constant tensor:
#      x y z
#    x 4.059880 0.000000 0.074500 
#    y 0.000000 4.248380 0.000000 
#    z 0.074500 0.000000 4.137720 
# 
# 
# High freq. dielectric constant tensor:
#      x y z
#    x 1.938770 0.000000 0.003080 
#    y 0.000000 1.942760 0.000000 
#    z 0.003080 0.000000 1.925210 
# 
# From -- ./inp_files/267974.got.cif
#   From: 2010.06.25/outbox.cif.g09.slc.cpg/sg15_134_cif.got.tgz:267974.got - 2010.06.28 07:06:18.
