data_PCOD8147060
_publ_section_title
;
Structure prediction by ZEFSAII (Michael W. Deem and Ramdas Pophale) SiO2 
 PCOD8147060
Probable space group: C 2/C
;
_chemical_formula_sum "Si O2"
_cell_formula_units_Z 48
_cell_length_a 18.201639
_cell_length_b 7.409087
_cell_length_c 21.966980
_cell_angle_alpha 90.000000
_cell_angle_beta 128.517216
_cell_angle_gamma 90.000000
_cell_volume 2317.854036
_symmetry_space_group_name_H-M "C 2/C"
_symmetry_group_IT_number 15
_symmetry_cell_setting 'monoclinic'
loop_
_space_group_symop_operation_xyz
x,y,z
-x,y,1/2-z
-x,-y,-z
x,-y,1/2+z
1/2+x,1/2+y,z
1/2-x,1/2+y,1/2-z
1/2-x,1/2-y,-z
1/2+x,1/2-y,1/2+z
loop_
_atom_site_type_symbol
_atom_site_label
_atom_site_fract_x
_atom_site_fract_y
_atom_site_fract_z
Si Si1 0.374213 0.993586 0.330179
Si Si2 0.712085 0.364615 0.663579
Si Si3 0.434897 0.322011 0.427403
Si Si4 0.927516 0.928142 0.553862
Si Si5 0.234764 0.402252 0.941134
Si Si6 0.540211 0.878531 0.337669
O O1 0.349238 0.797934 0.342091
O O2 0.462270 0.992962 0.331289
O O3 0.291519 0.093608 0.252836
O O4 0.401590 0.118720 0.400849
O O5 0.650875 0.542512 0.625960
O O6 0.755317 0.310379 0.620281
O O7 0.467907 0.323663 0.514914
O O8 0.518763 0.377839 0.423273
O O9 0.949960 0.818664 0.626488
O O10 0.815729 0.950129 0.493218
O O11 0.136171 0.507816 0.891934
O O12 0.250000 0.250000 0.000000
O O13 0.500000 0.842659 0.250000
#
# Coordination Sequence:
#
# PCOD8147060 Si02
#       6
#     8   8   8   8   8   8
#     4  12  23  42  71 100 135 181 225 288 346 400
#     4  11  23  42  68 100 136 175 226 283 334 407
#     4  10  22  42  69  99 131 168 233 283 327 404
#     4  10  23  45  66  98 135 174 228 285 338 413
#     4  11  25  46  65  99 139 181 228 282 343 420
#     4  12  25  44  68 101 141 181 226 285 353 416
#
# _framework density 20.70881
#
# number of rings (size 3 to 8) (size 9 to 14) (size 15 to 20)
#    0.000    1.000    5.000    1.500    2.333    0.667 
#    6.000    0.000    0.000    0.000    0.000    0.000 
#    0.000    0.000    0.000    0.000    0.000    0.000 
#
# Total GULP energy -297540.558132 kJ/mol
# GULP energy per Si atom -12397.523256 kJ/mol
# Density = 2.066168 g / cm^3
# Si number density = 20.708810 Si / 1000 Ang^3
#
#
#
# Elastic Constant Matrix: (Units=GPa)
#
#
# Indices 1 2 3 4 5 6 
#
# 1 121.8552 40.4207 37.3684 0.0000 4.8068 0.0000
# 2 40.4207 84.5274 39.0492 0.0000 -4.5207 0.0000
# 3 37.3684 39.0492 99.3359 0.0000 -6.1435 0.0000
# 4 0.0000 0.0000 0.0000 37.2199 0.0000 3.9349
# 5 4.8068 -4.5207 -6.1435 0.0000 39.6379 0.0000
# 6 0.0000 0.0000 0.0000 3.9349 0.0000 26.1916
#
#
#
# Elastic Compliance Matrix: (Units=1/GPa)
#
#
# Indices 1 2 3 4 5 6 
#
# 1 0.010348 -0.003913 -0.002484 0.000000 -0.002086 0.000000
# 2 -0.003913 0.015959 -0.004705 0.000000 0.001565 0.000000
# 3 -0.002484 -0.004705 0.012960 0.000000 0.001773 0.000000
# 4 0.000000 0.000000 0.000000 0.027301 0.000000 -0.004102
# 5 -0.002086 0.001565 0.001773 0.000000 0.025935 0.000000
# 6 0.000000 0.000000 0.000000 -0.004102 0.000000 0.038796
#
#
# Mechanical properties :
#
#
# Convention : Reuss Voigt Hill
#
# Bulk Modulus (GPa) = 58.59952 59.93276 59.26614
# Shear Modulus (GPa) = 31.40901 33.20190 32.30545
#
# Velocity S-wave (km/s) = 3.89871 4.00843 3.95395
# Velocity P-wave (km/s) = 6.97315 7.10119 7.03746
#
# Compressibility (1/GPa) = 0.01706499
#
# Stress axis : x y z
#
# Youngs Moduli (GPa) = 96.63414 62.66191 77.15860
#
# Poissons Ratio (x) = 0.24517 0.19165
# Poissons Ratio (y) = 0.37810 0.36301
# Poissons Ratio (z) = 0.24002 0.29481
#
# Static dielectric constant tensor:
#      x y z
#    x 4.067300 0.000000 0.004540 
#    y 0.000000 3.543910 0.000000 
#    z 0.004540 0.000000 4.067260 
# 
# 
# High freq. dielectric constant tensor:
#      x y z
#    x 1.822280 0.000000 0.010790 
#    y 0.000000 1.800130 0.000000 
#    z 0.010790 0.000000 1.826500 
# 
# From -- ./inp_files/279028.got.cif
#   From: 2010.06.25/outbox.cif.g09.slc.cpg/sg15_140_cif.got.tgz:279028.got - 2010.06.28 07:06:18.
