data_PCOD8147403
_publ_section_title
;
Structure prediction by ZEFSAII (Michael W. Deem and Ramdas Pophale) SiO2 
 PCOD8147403
Probable space group: C 2/C
;
_chemical_formula_sum "Si O2"
_cell_formula_units_Z 56
_cell_length_a 15.403472
_cell_length_b 11.082202
_cell_length_c 14.896171
_cell_angle_alpha 90.000000
_cell_angle_beta 95.903032
_cell_angle_gamma 90.000000
_cell_volume 2529.358024
_symmetry_space_group_name_H-M "C 2/C"
_symmetry_group_IT_number 15
_symmetry_cell_setting 'monoclinic'
loop_
_space_group_symop_operation_xyz
x,y,z
-x,y,1/2-z
-x,-y,-z
x,-y,1/2+z
1/2+x,1/2+y,z
1/2-x,1/2+y,1/2-z
1/2-x,1/2-y,-z
1/2+x,1/2-y,1/2+z
loop_
_atom_site_type_symbol
_atom_site_label
_atom_site_fract_x
_atom_site_fract_y
_atom_site_fract_z
Si Si1 0.682914 0.873952 0.428823
Si Si2 0.716973 0.096774 0.316259
Si Si3 0.595557 0.637165 0.079816
Si Si4 0.069927 0.008497 0.888866
Si Si5 0.742380 0.623099 0.379835
Si Si6 0.550374 0.235371 0.337699
Si Si7 0.503025 0.143523 0.986196
O O1 0.744048 0.765303 0.402720
O O2 0.712085 0.935830 0.527017
O O3 0.585257 0.824549 0.432865
O O4 0.687516 0.966999 0.348067
O O5 0.815311 0.127755 0.355380
O O6 0.705836 0.099481 0.207060
O O7 0.649934 0.189647 0.355436
O O8 0.515744 0.574369 0.122788
O O9 0.578262 0.782303 0.066495
O O10 0.601315 0.563476 0.987540
O O11 0.053062 0.121403 0.822567
O O12 0.146069 0.927608 0.855990
O O13 0.500000 0.173659 0.250000
O O14 0.489098 0.202504 0.415185
O O15 0.500000 0.000000 0.000000
#
# Coordination Sequence:
#
# PCOD8147403 Si02
#       7
#     8   8   8   8   8   8   8
#     4  11  24  48  71 101 144 182 235 283 359 424
#     4  12  26  44  71 109 140 180 240 300 345 418
#     4  10  23  43  70 102 137 180 241 287 342 417
#     4  10  22  43  70  98 137 187 230 285 352 416
#     4  11  25  43  74 102 139 188 230 291 354 415
#     4  11  26  43  68 102 140 182 239 289 355 420
#     4  11  22  45  71  94 141 192 220 285 361 415
#
# _framework density 22.140004000000001
#
# number of rings (size 3 to 8) (size 9 to 14) (size 15 to 20)
#    0.000    1.143    4.286    0.857    4.000    3.429 
#    2.571    0.000    0.000    0.000    0.000    0.000 
#    0.000    0.000    0.000    0.000    0.000    0.000 
#
# Total GULP energy -347040.229424 kJ/mol
# GULP energy per Si atom -12394.293908 kJ/mol
# Density = 2.208961 g / cm^3
# Si number density = 22.140004 Si / 1000 Ang^3
#
#
#
# Elastic Constant Matrix: (Units=GPa)
#
#
# Indices 1 2 3 4 5 6 
#
# 1 81.1529 27.9358 34.2493 0.0000 -7.7099 0.0000
# 2 27.9358 119.9129 33.0543 0.0000 -8.1317 0.0000
# 3 34.2493 33.0543 117.2901 0.0000 -10.3808 0.0000
# 4 0.0000 0.0000 0.0000 26.6299 0.0000 -3.9372
# 5 -7.7099 -8.1317 -10.3808 0.0000 35.8286 0.0000
# 6 0.0000 0.0000 0.0000 -3.9372 0.0000 23.6674
#
#
#
# Elastic Compliance Matrix: (Units=1/GPa)
#
#
# Indices 1 2 3 4 5 6 
#
# 1 0.014769 -0.002365 -0.003502 0.000000 0.001627 0.000000
# 2 -0.002365 0.009484 -0.001885 0.000000 0.001097 0.000000
# 3 -0.003502 -0.001885 0.010238 0.000000 0.001785 0.000000
# 4 0.000000 0.000000 0.000000 0.038499 0.000000 0.006404
# 5 0.001627 0.001097 0.001785 0.000000 0.029027 0.000000
# 6 0.000000 0.000000 0.000000 0.006404 0.000000 0.043318
#
#
# Mechanical properties :
#
#
# Convention : Reuss Voigt Hill
#
# Bulk Modulus (GPa) = 52.66872 56.53720 54.60296
# Shear Modulus (GPa) = 29.91001 32.09962 31.00482
#
# Velocity S-wave (km/s) = 3.67951 3.81182 3.74625
# Velocity P-wave (km/s) = 6.47243 6.70559 6.59004
#
# Compressibility (1/GPa) = 0.01898660
#
# Stress axis : x y z
#
# Youngs Moduli (GPa) = 67.70876 105.43604 97.67775
#
# Poissons Ratio (x) = 0.24936 0.34209
# Poissons Ratio (y) = 0.16013 0.18414
# Poissons Ratio (z) = 0.23713 0.19876
#
# Static dielectric constant tensor:
#      x y z
#    x 4.092430 0.000000 -0.084890 
#    y 0.000000 4.029930 0.000000 
#    z -0.084890 0.000000 3.958000 
# 
# 
# High freq. dielectric constant tensor:
#      x y z
#    x 1.872750 0.000000 -0.010890 
#    y 0.000000 1.872210 0.000000 
#    z -0.010890 0.000000 1.867900 
# 
# From -- ./inp_files/152627.got.cif
#   From: 2010.06.25/outbox.cif.g09.slc.cpg/sg15_77_cif.got.tgz:152627.got - 2010.06.28 07:06:18.
