data_PCOD8147589
_publ_section_title
;
Structure prediction by ZEFSAII (Michael W. Deem and Ramdas Pophale) SiO2 
 PCOD8147589
Probable space group: C 2/C
;
_chemical_formula_sum "Si O2"
_cell_formula_units_Z 48
_cell_length_a 10.468476
_cell_length_b 26.415799
_cell_length_c 10.527414
_cell_angle_alpha 90.000000
_cell_angle_beta 128.469193
_cell_angle_gamma 90.000000
_cell_volume 2279.286549
_symmetry_space_group_name_H-M "C 2/C"
_symmetry_group_IT_number 15
_symmetry_cell_setting 'monoclinic'
loop_
_space_group_symop_operation_xyz
x,y,z
-x,y,1/2-z
-x,-y,-z
x,-y,1/2+z
1/2+x,1/2+y,z
1/2-x,1/2+y,1/2-z
1/2-x,1/2-y,-z
1/2+x,1/2-y,1/2+z
loop_
_atom_site_type_symbol
_atom_site_label
_atom_site_fract_x
_atom_site_fract_y
_atom_site_fract_z
Si Si1 0.952322 0.197897 0.972612
Si Si2 0.000000 0.982842 0.750000
Si Si3 0.780227 0.072830 0.576423
Si Si4 0.921279 0.701210 0.831463
Si Si5 0.609518 0.599138 0.131885
Si Si6 0.000000 0.842818 0.250000
Si Si7 0.527708 0.128064 0.122756
O O1 0.768588 0.205480 0.813687
O O2 0.053199 0.192513 0.901893
O O3 0.011800 0.243082 0.097277
O O4 0.987504 0.146682 0.073326
O O5 0.016288 0.947252 0.638740
O O6 0.163733 0.017158 0.847090
O O7 0.866114 0.082327 0.495766
O O8 0.584109 0.077010 0.455156
O O9 0.851455 0.119752 0.704510
O O10 0.000000 0.680009 0.750000
O O11 0.965747 0.667893 0.981008
O O12 0.787762 0.613380 0.298332
O O13 0.500000 0.149841 0.250000
#
# Coordination Sequence:
#
# PCOD8147589 Si02
#       7
#     8   4   8   8   8   4   8
#     4  11  24  41  64  93 134 171 218 262 318 382
#     4  11  22  36  70  92 128 168 210 262 341 386
#     4   9  19  41  62  92 123 163 214 269 315 369
#     4  12  26  41  65  96 134 174 212 264 327 384
#     4  10  23  39  64  95 129 168 215 266 320 383
#     4   9  18  38  64  90 120 166 212 266 305 370
#     4  10  22  44  67  92 130 171 218 268 310 381
#
# _framework density 21.05922
#
# number of rings (size 3 to 8) (size 9 to 14) (size 15 to 20)
#    0.000    1.667    1.667    2.000    4.667    1.333 
#    0.000    0.000    0.000    0.000    0.000    0.000 
#    0.000    0.000    0.000    0.000    0.000    0.000 
#
# Total GULP energy -297365.257211 kJ/mol
# GULP energy per Si atom -12390.219050 kJ/mol
# Density = 2.101129 g / cm^3
# Si number density = 21.059220 Si / 1000 Ang^3
#
#
#
# Elastic Constant Matrix: (Units=GPa)
#
#
# Indices 1 2 3 4 5 6 
#
# 1 56.9567 32.7464 39.3758 0.0000 -2.6269 0.0000
# 2 32.7464 108.0822 59.3735 0.0000 -6.0018 0.0000
# 3 39.3758 59.3735 122.0763 0.0000 16.1927 0.0000
# 4 0.0000 0.0000 0.0000 26.1575 0.0000 -8.8068
# 5 -2.6269 -6.0018 16.1927 0.0000 33.5829 0.0000
# 6 0.0000 0.0000 0.0000 -8.8068 0.0000 19.8428
#
#
#
# Elastic Compliance Matrix: (Units=1/GPa)
#
#
# Indices 1 2 3 4 5 6 
#
# 1 0.024455 -0.003390 -0.006851 0.000000 0.004610 0.000000
# 2 -0.003390 0.014154 -0.006507 0.000000 0.005402 0.000000
# 3 -0.006851 -0.006507 0.014734 0.000000 -0.008803 0.000000
# 4 0.000000 0.000000 0.000000 0.044946 0.000000 0.019948
# 5 0.004610 0.005402 -0.008803 0.000000 0.035348 0.000000
# 6 0.000000 0.000000 0.000000 0.019948 0.000000 0.059250
#
#
# Mechanical properties :
#
#
# Convention : Reuss Voigt Hill
#
# Bulk Modulus (GPa) = 50.38509 61.12297 55.75403
# Shear Modulus (GPa) = 21.45951 26.29127 23.87539
#
# Velocity S-wave (km/s) = 3.19565 3.53717 3.37074
# Velocity P-wave (km/s) = 6.13136 6.76531 6.45612
#
# Compressibility (1/GPa) = 0.01984714
#
# Stress axis : x y z
#
# Youngs Moduli (GPa) = 40.89153 70.65264 67.87153
#
# Poissons Ratio (x) = 0.23951 0.46497
# Poissons Ratio (y) = 0.13862 0.44164
# Poissons Ratio (z) = 0.28014 0.45973
#
# Static dielectric constant tensor:
#      x y z
#    x 3.774410 0.000000 0.025040 
#    y 0.000000 3.771580 0.000000 
#    z 0.025040 0.000000 4.236270 
# 
# 
# High freq. dielectric constant tensor:
#      x y z
#    x 1.810930 0.000000 0.003440 
#    y 0.000000 1.813860 0.000000 
#    z 0.003440 0.000000 1.844440 
# 
# From -- ./inp_files/91010.got.cif
#   From: 2010.06.25/outbox.cif.g09.slc.cpg/sg15_46_cif.got.tgz:91010.got - 2010.06.28 07:06:18.
