data_PCOD8147130
_publ_section_title
;
Structure prediction by ZEFSAII (Michael W. Deem and Ramdas Pophale) SiO2 
 PCOD8147130
Probable space group: C 2/C
;
_chemical_formula_sum "Si O2"
_cell_formula_units_Z 52
_cell_length_a 17.137972
_cell_length_b 9.493434
_cell_length_c 18.597998
_cell_angle_alpha 90.000000
_cell_angle_beta 126.610451
_cell_angle_gamma 90.000000
_cell_volume 2428.884902
_symmetry_space_group_name_H-M "C 2/C"
_symmetry_group_IT_number 15
_symmetry_cell_setting 'monoclinic'
loop_
_space_group_symop_operation_xyz
x,y,z
-x,y,1/2-z
-x,-y,-z
x,-y,1/2+z
1/2+x,1/2+y,z
1/2-x,1/2+y,1/2-z
1/2-x,1/2-y,-z
1/2+x,1/2-y,1/2+z
loop_
_atom_site_type_symbol
_atom_site_label
_atom_site_fract_x
_atom_site_fract_y
_atom_site_fract_z
Si Si1 0.500000 0.504674 0.750000
Si Si2 0.306932 0.388278 0.706333
Si Si3 0.302955 0.881486 0.993896
Si Si4 0.590010 0.720574 0.905641
Si Si5 0.754526 0.396279 0.576221
Si Si6 0.499982 0.002749 0.085360
Si Si7 0.206854 0.427773 0.260327
O O1 0.411144 0.403466 0.724927
O O2 0.527680 0.597188 0.834772
O O3 0.219086 0.390631 0.602009
O O4 0.290288 0.516118 0.752713
O O5 0.293170 0.240453 0.739251
O O6 0.250000 0.750000 0.000000
O O7 0.259415 0.020989 0.004056
O O8 0.420093 0.887103 0.068735
O O9 0.662962 0.775590 0.882430
O O10 0.520296 0.842465 0.895195
O O11 0.646725 0.670376 0.009900
O O12 0.770572 0.503004 0.650228
O O13 0.601845 0.967255 0.175202
O O14 0.500000 0.000000 0.000000
#
# Coordination Sequence:
#
# PCOD8147130 Si02
#       7
#     4   8   8   8   8   8   8
#     4  12  26  46  72 102 142 188 242 290 352 442
#     4  12  29  45  73 105 146 188 237 299 364 424
#     4  11  22  46  69  98 139 185 234 293 350 427
#     4  10  23  40  72 103 139 188 235 290 357 427
#     4  10  22  42  72 101 140 183 235 290 359 422
#     4  11  25  43  70 103 143 190 241 292 359 429
#     4  12  28  46  71 106 146 187 239 303 363 421
#
# _framework density 21.409002000000001
#
# number of rings (size 3 to 8) (size 9 to 14) (size 15 to 20)
#    0.000    0.923    4.615    0.923    8.615    1.846 
#    0.000    0.769    0.000    0.000    0.000    0.000 
#    0.000    0.000    0.000    0.000    0.000    0.000 
#
# Total GULP energy -322327.672068 kJ/mol
# GULP energy per Si atom -12397.218156 kJ/mol
# Density = 2.136027 g / cm^3
# Si number density = 21.409002 Si / 1000 Ang^3
#
#
#
# Elastic Constant Matrix: (Units=GPa)
#
#
# Indices 1 2 3 4 5 6 
#
# 1 97.6839 48.2952 32.1546 0.0000 4.5323 0.0000
# 2 48.2952 108.5560 36.5862 0.0000 -1.0897 0.0000
# 3 32.1546 36.5862 107.7903 0.0000 2.9238 0.0000
# 4 0.0000 0.0000 0.0000 36.8972 0.0000 -5.3685
# 5 4.5323 -1.0897 2.9238 0.0000 33.3315 0.0000
# 6 0.0000 0.0000 0.0000 -5.3685 0.0000 39.7990
#
#
#
# Elastic Compliance Matrix: (Units=1/GPa)
#
#
# Indices 1 2 3 4 5 6 
#
# 1 0.013707 -0.005370 -0.002216 0.000000 -0.001845 0.000000
# 2 -0.005370 0.012519 -0.002685 0.000000 0.001375 0.000000
# 3 -0.002216 -0.002685 0.010870 0.000000 -0.000740 0.000000
# 4 0.000000 0.000000 0.000000 0.027645 0.000000 0.003729
# 5 -0.001845 0.001375 -0.000740 0.000000 0.030362 0.000000
# 6 0.000000 0.000000 0.000000 0.003729 0.000000 0.025629
#
#
# Mechanical properties :
#
#
# Convention : Reuss Voigt Hill
#
# Bulk Modulus (GPa) = 60.40603 60.90024 60.65313
# Shear Modulus (GPa) = 34.06169 35.13848 34.60009
#
# Velocity S-wave (km/s) = 3.99306 4.05568 4.02449
# Velocity P-wave (km/s) = 7.03817 7.10206 7.07019
#
# Compressibility (1/GPa) = 0.01655464
#
# Stress axis : x y z
#
# Youngs Moduli (GPa) = 72.95536 79.87610 91.99840
#
# Poissons Ratio (x) = 0.42891 0.20389
# Poissons Ratio (y) = 0.39175 0.24700
# Poissons Ratio (z) = 0.16169 0.21445
#
# Static dielectric constant tensor:
#      x y z
#    x 3.981830 0.000000 0.115620 
#    y 0.000000 4.043670 0.000000 
#    z 0.115620 0.000000 4.126580 
# 
# 
# High freq. dielectric constant tensor:
#      x y z
#    x 1.833530 0.000000 0.005570 
#    y 0.000000 1.847590 0.000000 
#    z 0.005570 0.000000 1.852470 
# 
# From -- ./inp_files/247883.got.cif
#   From: 2010.06.25/outbox.cif.g09.slc.cpg/sg15_124_cif.got.tgz:247883.got - 2010.06.28 07:06:18.
