data_PCOD8147482
_publ_section_title
;
Structure prediction by ZEFSAII (Michael W. Deem and Ramdas Pophale) SiO2 
 PCOD8147482
Probable space group: C 2/C
;
_chemical_formula_sum "Si O2"
_cell_formula_units_Z 48
_cell_length_a 20.796491
_cell_length_b 5.449957
_cell_length_c 19.087127
_cell_angle_alpha 90.000000
_cell_angle_beta 106.824439
_cell_angle_gamma 90.000000
_cell_volume 2070.735523
_symmetry_space_group_name_H-M "C 2/C"
_symmetry_group_IT_number 15
_symmetry_cell_setting 'monoclinic'
loop_
_space_group_symop_operation_xyz
x,y,z
-x,y,1/2-z
-x,-y,-z
x,-y,1/2+z
1/2+x,1/2+y,z
1/2-x,1/2+y,1/2-z
1/2-x,1/2-y,-z
1/2+x,1/2-y,1/2+z
loop_
_atom_site_type_symbol
_atom_site_label
_atom_site_fract_x
_atom_site_fract_y
_atom_site_fract_z
Si Si1 0.713507 0.859473 0.157632
Si Si2 0.439101 0.439545 0.031371
Si Si3 0.359032 0.938238 0.985606
Si Si4 0.805971 0.509273 0.113216
Si Si5 0.062248 0.182233 0.812481
Si Si6 0.337786 0.376226 0.731079
O O1 0.678970 0.073527 0.100985
O O2 0.738060 0.654397 0.110172
O O3 0.656201 0.773861 0.194766
O O4 0.779454 0.920464 0.225296
O O5 0.461524 0.425194 0.120050
O O6 0.500000 0.500000 0.000000
O O7 0.408730 0.174792 0.999932
O O8 0.390863 0.672518 0.007617
O O9 0.304291 0.971223 0.029630
O O10 0.805274 0.256253 0.153928
O O11 0.876680 0.632620 0.157584
O O12 0.089051 0.971290 0.767923
O O13 0.000000 0.303667 0.750000
#
# Coordination Sequence:
#
# PCOD8147482 Si02
#       6
#     8   8   8   8   8   8
#     4  11  24  38  68  99 130 176 219 278 338 402
#     4  11  25  46  66 100 134 174 232 276 324 408
#     4  11  25  44  69  98 135 179 220 278 343 393
#     4  10  22  44  62  97 134 172 222 277 329 411
#     4  10  24  43  67  93 131 181 219 276 338 392
#     4  11  22  41  65  95 136 164 228 276 332 403
#
# _framework density 23.180171000000001
#
# number of rings (size 3 to 8) (size 9 to 14) (size 15 to 20)
#    0.000    1.333    3.333    1.000    4.667    2.667 
#    0.000    0.000    0.000    0.000    0.000    0.000 
#    0.000    0.000    0.000    0.000    0.000    0.000 
#
# Total GULP energy -297410.513386 kJ/mol
# GULP energy per Si atom -12392.104724 kJ/mol
# Density = 2.312741 g / cm^3
# Si number density = 23.180171 Si / 1000 Ang^3
#
#
#
# Elastic Constant Matrix: (Units=GPa)
#
#
# Indices 1 2 3 4 5 6 
#
# 1 71.5991 -0.2530 40.8810 0.0000 -22.8455 0.0000
# 2 -0.2530 63.1308 -1.9589 0.0000 4.3353 0.0000
# 3 40.8810 -1.9589 122.3625 0.0000 -10.7802 0.0000
# 4 0.0000 0.0000 0.0000 29.6089 0.0000 -0.7433
# 5 -22.8455 4.3353 -10.7802 0.0000 45.4926 0.0000
# 6 0.0000 0.0000 0.0000 -0.7433 0.0000 31.5823
#
#
#
# Elastic Compliance Matrix: (Units=1/GPa)
#
#
# Indices 1 2 3 4 5 6 
#
# 1 0.020182 -0.000708 -0.005980 0.000000 0.008785 0.000000
# 2 -0.000708 0.015971 0.000334 0.000000 -0.001798 0.000000
# 3 -0.005980 0.000334 0.010120 0.000000 -0.000637 0.000000
# 4 0.000000 0.000000 0.000000 0.033794 0.000000 0.000795
# 5 0.008785 -0.001798 -0.000637 0.000000 0.026414 0.000000
# 6 0.000000 0.000000 0.000000 0.000795 0.000000 0.031682
#
#
# Mechanical properties :
#
#
# Convention : Reuss Voigt Hill
#
# Bulk Modulus (GPa) = 29.79381 37.15897 33.47639
# Shear Modulus (GPa) = 30.85307 35.89830 33.37569
#
# Velocity S-wave (km/s) = 3.65226 3.93958 3.79864
# Velocity P-wave (km/s) = 5.53772 6.06292 5.80626
#
# Compressibility (1/GPa) = 0.03356402
#
# Stress axis : x y z
#
# Youngs Moduli (GPa) = 49.54981 62.61289 98.81837
#
# Poissons Ratio (x) = 0.04433 0.59093
# Poissons Ratio (y) = 0.03508 -0.03298
# Poissons Ratio (z) = 0.29631 -0.02090
#
# Static dielectric constant tensor:
#      x y z
#    x 4.198900 0.000000 -0.293410 
#    y 0.000000 4.338130 0.000000 
#    z -0.293410 0.000000 4.189830 
# 
# 
# High freq. dielectric constant tensor:
#      x y z
#    x 1.911810 0.000000 -0.022030 
#    y 0.000000 1.913250 0.000000 
#    z -0.022030 0.000000 1.923240 
# 
# From -- ./inp_files/217792.got.cif
#   From: 2010.06.25/outbox.cif.g09.slc.cpg/sg15_109_cif.got.tgz:217792.got - 2010.06.28 07:06:18.
