data_PCOD8147238
_publ_section_title
;
Structure prediction by ZEFSAII (Michael W. Deem and Ramdas Pophale) SiO2 
 PCOD8147238
Probable space group: C 2/C
;
_chemical_formula_sum "Si O2"
_cell_formula_units_Z 56
_cell_length_a 21.767635
_cell_length_b 11.207564
_cell_length_c 11.310835
_cell_angle_alpha 90.000000
_cell_angle_beta 71.251067
_cell_angle_gamma 90.000000
_cell_volume 2612.990445
_symmetry_space_group_name_H-M "C 2/C"
_symmetry_group_IT_number 15
_symmetry_cell_setting 'monoclinic'
loop_
_space_group_symop_operation_xyz
x,y,z
-x,y,1/2-z
-x,-y,-z
x,-y,1/2+z
1/2+x,1/2+y,z
1/2-x,1/2+y,1/2-z
1/2-x,1/2-y,-z
1/2+x,1/2-y,1/2+z
loop_
_atom_site_type_symbol
_atom_site_label
_atom_site_fract_x
_atom_site_fract_y
_atom_site_fract_z
Si Si1 0.780605 0.746597 0.797419
Si Si2 0.763895 0.863286 0.411471
Si Si3 0.435849 0.950231 0.986146
Si Si4 0.000000 0.707637 0.250000
Si Si5 0.911060 0.897551 0.359031
Si Si6 0.312907 0.908043 0.502769
Si Si7 0.410568 0.714010 0.114322
Si Si8 0.500000 0.609453 0.250000
O O1 0.753053 0.659811 0.714045
O O2 0.808622 0.667646 0.886521
O O3 0.841297 0.825544 0.712376
O O4 0.722452 0.834929 0.870806
O O5 0.750000 0.750000 0.500000
O O6 0.836725 0.907840 0.373241
O O7 0.720561 0.965421 0.495999
O O8 0.460663 0.876886 0.859642
O O9 0.387873 0.060893 0.987151
O O10 0.402694 0.856518 0.096570
O O11 0.500000 0.000000 0.000000
O O12 0.055818 0.803988 0.255522
O O13 0.923666 0.855071 0.485099
O O14 0.940776 0.029118 0.332630
O O15 0.471518 0.691736 0.163073
#
# Coordination Sequence:
#
# PCOD8147238 Si02
#       8
#     8   8   8   4   8   8   8   4
#     4  11  26  46  71 101 141 181 237 295 352 421
#     4  12  23  42  74  98 135 187 228 296 349 417
#     4  11  25  41  67  96 132 181 226 285 346 412
#     4   9  22  41  60  96 134 173 228 271 340 412
#     4  10  22  43  65 102 136 182 227 276 352 415
#     4  11  27  46  65 106 137 181 238 290 360 416
#     4  11  23  46  65 102 135 177 237 282 345 415
#     4  11  24  39  72  98 146 179 220 287 340 422
#
# _framework density 21.431383
#
# number of rings (size 3 to 8) (size 9 to 14) (size 15 to 20)
#    0.000    1.143    2.857    2.143    8.000    1.143 
#    0.000    0.000    0.000    0.000    0.000    0.000 
#    0.000    0.000    0.000    0.000    0.000    0.000 
#
# Total GULP energy -347048.742522 kJ/mol
# GULP energy per Si atom -12394.597947 kJ/mol
# Density = 2.138260 g / cm^3
# Si number density = 21.431383 Si / 1000 Ang^3
#
#
#
# Elastic Constant Matrix: (Units=GPa)
#
#
# Indices 1 2 3 4 5 6 
#
# 1 155.6760 33.1399 43.9512 0.0000 -2.1494 0.0000
# 2 33.1399 91.5329 34.5887 0.0000 0.0506 0.0000
# 3 43.9512 34.5887 88.8132 0.0000 -12.0818 0.0000
# 4 0.0000 0.0000 0.0000 20.5865 0.0000 -5.1859
# 5 -2.1494 0.0506 -12.0818 0.0000 32.2281 0.0000
# 6 0.0000 0.0000 0.0000 -5.1859 0.0000 40.6992
#
#
#
# Elastic Compliance Matrix: (Units=1/GPa)
#
#
# Indices 1 2 3 4 5 6 
#
# 1 0.007671 -0.001530 -0.003298 0.000000 -0.000722 0.000000
# 2 -0.001530 0.013238 -0.004652 0.000000 -0.001867 0.000000
# 3 -0.003298 -0.004652 0.015463 0.000000 0.005584 0.000000
# 4 0.000000 0.000000 0.000000 0.050186 0.000000 0.006395
# 5 -0.000722 -0.001867 0.005584 0.000000 0.033077 0.000000
# 6 0.000000 0.000000 0.000000 0.006395 0.000000 0.025385
#
#
# Mechanical properties :
#
#
# Convention : Reuss Voigt Hill
#
# Bulk Modulus (GPa) = 57.43746 62.15352 59.79549
# Shear Modulus (GPa) = 29.44883 33.65891 31.55387
#
# Velocity S-wave (km/s) = 3.71090 3.96731 3.84125
# Velocity P-wave (km/s) = 6.72457 7.07461 6.90181
#
# Compressibility (1/GPa) = 0.01741024
#
# Stress axis : x y z
#
# Youngs Moduli (GPa) = 130.36808 75.53917 64.66926
#
# Poissons Ratio (x) = 0.11561 0.21329
# Poissons Ratio (y) = 0.19952 0.30086
# Poissons Ratio (z) = 0.42998 0.35143
#
# Static dielectric constant tensor:
#      x y z
#    x 3.433430 0.000000 -1.472000 
#    y 0.000000 4.038610 0.000000 
#    z -1.472000 0.000000 1.350700 
# 
# 
# High freq. dielectric constant tensor:
#      x y z
#    x 1.852370 0.000000 -0.017690 
#    y 0.000000 1.846710 0.000000 
#    z -0.017690 0.000000 1.842050 
# 
# From -- ./inp_files/111616.got.cif
#   From: 2010.06.25/outbox.cif.g09.slc.cpg/sg15_56_cif.got.tgz:111616.got - 2010.06.28 07:06:18.
