data_PCOD8147220
_publ_section_title
;
Structure prediction by ZEFSAII (Michael W. Deem and Ramdas Pophale) SiO2 
 PCOD8147220
Probable space group: C 2/C
;
_chemical_formula_sum "Si O2"
_cell_formula_units_Z 36
_cell_length_a 17.011385
_cell_length_b 6.627657
_cell_length_c 22.519339
_cell_angle_alpha 90.000000
_cell_angle_beta 140.916036
_cell_angle_gamma 90.000000
_cell_volume 1600.707197
_symmetry_space_group_name_H-M "C 2/C"
_symmetry_group_IT_number 15
_symmetry_cell_setting 'monoclinic'
loop_
_space_group_symop_operation_xyz
x,y,z
-x,y,1/2-z
-x,-y,-z
x,-y,1/2+z
1/2+x,1/2+y,z
1/2-x,1/2+y,1/2-z
1/2-x,1/2-y,-z
1/2+x,1/2-y,1/2+z
loop_
_atom_site_type_symbol
_atom_site_label
_atom_site_fract_x
_atom_site_fract_y
_atom_site_fract_z
Si Si1 0.117756 0.151846 0.929967
Si Si2 0.497857 0.375228 0.558347
Si Si3 0.425455 0.953454 0.874866
Si Si4 0.000000 0.035630 0.250000
Si Si5 0.673604 0.285561 0.758488
O O1 0.028798 0.300417 0.914220
O O2 0.067375 0.111523 0.835212
O O3 0.250000 0.250000 0.000000
O O4 0.123049 0.945624 0.973285
O O5 0.500000 0.500000 0.500000
O O6 0.504033 0.134968 0.547038
O O7 0.614713 0.427342 0.671290
O O8 0.353758 0.053294 0.776051
O O9 0.320363 0.837026 0.852336
O O10 0.104330 0.174863 0.280102
#
# Coordination Sequence:
#
# PCOD8147220 Si02
#       5
#     8   8   8   4   8
#     4  11  25  43  64  98 134 174 220 269 332 391
#     4   9  22  41  63  95 126 167 219 267 324 384
#     4  10  22  43  64  94 128 173 219 265 323 395
#     4  10  22  44  62  98 132 170 218 276 324 388
#     4   9  20  40  66  91 124 168 222 255 331 380
#
# _framework density 22.490058999999999
#
# number of rings (size 3 to 8) (size 9 to 14) (size 15 to 20)
#    1.333    0.889    0.000    2.667    3.111    2.667 
#    4.000    0.000    0.000    0.000    0.000    0.000 
#    0.000    0.000    0.000    0.000    0.000    0.000 
#
# Total GULP energy -222986.407535 kJ/mol
# GULP energy per Si atom -12388.133752 kJ/mol
# Density = 2.243887 g / cm^3
# Si number density = 22.490059 Si / 1000 Ang^3
#
#
#
# Elastic Constant Matrix: (Units=GPa)
#
#
# Indices 1 2 3 4 5 6 
#
# 1 141.6371 29.9814 40.5538 0.0000 27.9562 0.0000
# 2 29.9814 77.9914 5.2615 0.0000 20.1726 -0.0001
# 3 40.5538 5.2615 47.8854 0.0000 25.3302 0.0000
# 4 0.0000 0.0000 0.0000 22.8761 0.0000 6.6535
# 5 27.9562 20.1726 25.3302 0.0000 53.8734 0.0000
# 6 0.0000 -0.0001 0.0000 6.6535 0.0000 41.6810
#
#
#
# Elastic Compliance Matrix: (Units=1/GPa)
#
#
# Indices 1 2 3 4 5 6 
#
# 1 0.010115 -0.003287 -0.008093 0.000000 -0.000213 0.000000
# 2 -0.003287 0.015366 0.004309 0.000000 -0.006074 0.000000
# 3 -0.008093 0.004309 0.034468 0.000000 -0.013620 0.000000
# 4 0.000000 0.000000 0.000000 0.045842 0.000000 -0.007318
# 5 -0.000213 -0.006074 -0.013620 0.000000 0.027351 0.000000
# 6 0.000000 0.000000 0.000000 -0.007318 0.000000 0.025160
#
#
# Mechanical properties :
#
#
# Convention : Reuss Voigt Hill
#
# Bulk Modulus (GPa) = 21.83108 46.56747 34.19927
# Shear Modulus (GPa) = 26.63623 36.46723 31.55173
#
# Velocity S-wave (km/s) = 3.44518 4.03113 3.74962
# Velocity P-wave (km/s) = 5.05507 6.51287 5.82972
#
# Compressibility (1/GPa) = 0.04580626
#
# Stress axis : x y z
#
# Youngs Moduli (GPa) = 98.85958 65.07884 29.01228
#
# Poissons Ratio (x) = 0.21394 0.23479
# Poissons Ratio (y) = 0.32500 -0.12500
# Poissons Ratio (z) = 0.80004 -0.28040
#
# Static dielectric constant tensor:
#      x y z
#    x 4.153650 0.000000 0.079380 
#    y 0.000000 4.318270 0.000000 
#    z 0.079380 0.000000 4.133880 
# 
# 
# High freq. dielectric constant tensor:
#      x y z
#    x 1.888270 0.000000 -0.002810 
#    y 0.000000 1.887580 0.000000 
#    z -0.002810 0.000000 1.875710 
# 
# From -- ./inp_files/298247.got.cif
#   From: 2010.06.25/outbox.cif.g09.slc.cpg/sg15_150_cif.got.tgz:298247.got - 2010.06.28 07:06:18.
