data_PCOD8147824
_publ_section_title
;
Structure prediction by ZEFSAII (Michael W. Deem and Ramdas Pophale) SiO2 
 PCOD8147824
Probable space group: C 2/C
;
_chemical_formula_sum "Si O2"
_cell_formula_units_Z 56
_cell_length_a 26.694361
_cell_length_b 11.177766
_cell_length_c 9.108759
_cell_angle_alpha 90.000000
_cell_angle_beta 117.965572
_cell_angle_gamma 90.000000
_cell_volume 2400.531094
_symmetry_space_group_name_H-M "C 2/C"
_symmetry_group_IT_number 15
_symmetry_cell_setting 'monoclinic'
loop_
_space_group_symop_operation_xyz
x,y,z
-x,y,1/2-z
-x,-y,-z
x,-y,1/2+z
1/2+x,1/2+y,z
1/2-x,1/2+y,1/2-z
1/2-x,1/2-y,-z
1/2+x,1/2-y,1/2+z
loop_
_atom_site_type_symbol
_atom_site_label
_atom_site_fract_x
_atom_site_fract_y
_atom_site_fract_z
Si Si1 0.621039 0.770496 0.710461
Si Si2 0.284230 0.511766 0.822083
Si Si3 0.539492 0.028028 0.186106
Si Si4 0.645618 0.617020 0.321964
Si Si5 0.457586 0.545421 0.819689
Si Si6 0.788727 0.587090 0.033803
Si Si7 0.368575 0.139686 0.592509
O O1 0.587954 0.890318 0.693926
O O2 0.584943 0.652426 0.692302
O O3 0.674905 0.789407 0.896051
O O4 0.637793 0.780746 0.563710
O O5 0.331385 0.434435 0.800518
O O6 0.255521 0.600814 0.661651
O O7 0.239376 0.428236 0.844118
O O8 0.312429 0.591288 0.986080
O O9 0.500000 0.094735 0.250000
O O10 0.567684 0.910358 0.298529
O O11 0.500000 0.000000 0.000000
O O12 0.583619 0.564193 0.277848
O O13 0.641894 0.760705 0.295266
O O14 0.500000 0.587692 0.750000
O O15 0.500000 0.500000 0.000000
O O16 0.823855 0.467248 0.042008
#
# Coordination Sequence:
#
# PCOD8147824 Si02
#       7
#     8   8   8   8   8   8   8
#     4  11  23  43  69 106 140 176 238 283 347 422
#     4  10  22  45  71  99 140 182 224 292 345 421
#     4  11  23  41  66 102 133 177 231 289 352 408
#     4  11  25  47  67 104 137 182 245 273 348 430
#     4  12  27  49  73 100 144 194 236 295 346 411
#     4  10  22  45  69 104 139 177 227 287 361 409
#     4  11  23  41  70  98 140 180 226 292 343 427
#
# _framework density 23.328173
#
# number of rings (size 3 to 8) (size 9 to 14) (size 15 to 20)
#    0.000    1.143    2.857    3.000    2.000    2.857 
#   12.857    2.143    0.000    0.000    0.000    0.000 
#    0.000    0.000    0.000    0.000    0.000    0.000 
#
# Total GULP energy -346977.832492 kJ/mol
# GULP energy per Si atom -12392.065446 kJ/mol
# Density = 2.327508 g / cm^3
# Si number density = 23.328173 Si / 1000 Ang^3
#
#
#
# Elastic Constant Matrix: (Units=GPa)
#
#
# Indices 1 2 3 4 5 6 
#
# 1 103.5864 17.2812 12.2694 0.0000 -15.3435 0.0000
# 2 17.2812 92.4383 4.7540 0.0000 2.0162 0.0000
# 3 12.2694 4.7540 92.1932 0.0000 2.8212 0.0000
# 4 0.0000 0.0000 0.0000 6.6949 0.0000 1.9082
# 5 -15.3435 2.0162 2.8212 0.0000 44.8954 0.0000
# 6 0.0000 0.0000 0.0000 1.9082 0.0000 33.0977
#
#
#
# Elastic Compliance Matrix: (Units=1/GPa)
#
#
# Indices 1 2 3 4 5 6 
#
# 1 0.010731 -0.002016 -0.001442 0.000000 0.003849 0.000000
# 2 -0.002016 0.011235 -0.000275 0.000000 -0.001176 0.000000
# 3 -0.001442 -0.000275 0.011089 0.000000 -0.001177 0.000000
# 4 0.000000 0.000000 0.000000 0.151863 0.000000 -0.008755
# 5 0.003849 -0.001176 -0.001177 0.000000 0.023716 0.000000
# 6 0.000000 0.000000 0.000000 -0.008755 0.000000 0.030718
#
#
# Mechanical properties :
#
#
# Convention : Reuss Voigt Hill
#
# Bulk Modulus (GPa) = 39.07968 39.64745 39.36357
# Shear Modulus (GPa) = 19.58114 33.86514 26.72314
#
# Velocity S-wave (km/s) = 2.90034 3.81423 3.38824
# Velocity P-wave (km/s) = 5.29193 6.03575 5.67603
#
# Compressibility (1/GPa) = 0.02558875
#
# Stress axis : x y z
#
# Youngs Moduli (GPa) = 93.18848 89.00996 90.18035
#
# Poissons Ratio (x) = 0.17944 0.13003
# Poissons Ratio (y) = 0.18786 0.02480
# Poissons Ratio (z) = 0.13437 0.02448
#
# Static dielectric constant tensor:
#      x y z
#    x 4.530300 0.000000 0.097020 
#    y 0.000000 4.093720 0.000000 
#    z 0.097020 0.000000 4.265910 
# 
# 
# High freq. dielectric constant tensor:
#      x y z
#    x 1.942280 0.000000 0.005230 
#    y 0.000000 1.913170 0.000000 
#    z 0.005230 0.000000 1.933320 
# 
# From -- ./inp_files/69444.got.cif
#   From: 2010.06.25/outbox.cif.g09.slc.cpg/sg15_35_cif.got.tgz:69444.got - 2010.06.28 07:06:18.
