data_PCOD8147251
_publ_section_title
;
Structure prediction by ZEFSAII (Michael W. Deem and Ramdas Pophale) SiO2 
 PCOD8147251
Probable space group: C 2/C
;
_chemical_formula_sum "Si O2"
_cell_formula_units_Z 56
_cell_length_a 22.677150
_cell_length_b 18.703623
_cell_length_c 19.232680
_cell_angle_alpha 90.000000
_cell_angle_beta 161.903141
_cell_angle_gamma 90.000000
_cell_volume 2533.900023
_symmetry_space_group_name_H-M "C 2/C"
_symmetry_group_IT_number 15
_symmetry_cell_setting 'monoclinic'
loop_
_space_group_symop_operation_xyz
x,y,z
-x,y,1/2-z
-x,-y,-z
x,-y,1/2+z
1/2+x,1/2+y,z
1/2-x,1/2+y,1/2-z
1/2-x,1/2-y,-z
1/2+x,1/2-y,1/2+z
loop_
_atom_site_type_symbol
_atom_site_label
_atom_site_fract_x
_atom_site_fract_y
_atom_site_fract_z
Si Si1 0.430809 0.165496 0.056971
Si Si2 0.237840 0.665096 0.777527
Si Si3 0.808194 0.963321 0.579379
Si Si4 0.621649 0.821169 0.534264
Si Si5 0.176684 0.796968 0.481538
Si Si6 0.931805 0.940585 0.866708
Si Si7 0.000000 0.348448 0.250000
Si Si8 0.500000 0.932212 0.750000
O O1 0.658729 0.152903 0.303900
O O2 0.371105 0.115182 0.053756
O O3 0.324789 0.142371 0.869565
O O4 0.391002 0.248047 0.029976
O O5 0.306079 0.747089 0.852595
O O6 0.068591 0.653351 0.641243
O O7 0.400901 0.608591 0.977319
O O8 0.850114 0.980730 0.707620
O O9 0.688561 0.890694 0.437535
O O10 0.000000 0.961147 0.750000
O O11 0.657335 0.022537 0.384080
O O12 0.772805 0.885034 0.717246
O O13 0.570395 0.803817 0.396045
O O14 0.250000 0.750000 0.500000
O O15 0.000000 0.841729 0.250000
O O16 0.000000 0.000000 0.000000
#
# Coordination Sequence:
#
# PCOD8147251 Si02
#       8
#     8   8   8   8   8   8   4   4
#     4  11  21  37  55  88 129 172 209 276 315 386
#     4  12  24  42  66 102 143 173 224 279 342 409
#     4  10  22  43  65  94 123 169 224 275 330 402
#     4  11  24  44  68 105 135 178 225 283 350 405
#     4   9  17  33  52  75 116 162 213 252 315 367
#     4  11  25  46  69  98 139 181 224 277 343 414
#     4   9  22  44  70  92 134 161 218 290 336 405
#     4  11  22  38  60  92 126 167 230 270 320 387
#
# _framework density 22.100321000000001
#
# number of rings (size 3 to 8) (size 9 to 14) (size 15 to 20)
#    0.000    1.429    3.571    2.571    0.000    2.857 
#    1.286    0.000    0.000    0.000    0.000    0.000 
#    0.000    0.000    0.000    0.000    0.000    0.000 
#
# Total GULP energy -346931.504025 kJ/mol
# GULP energy per Si atom -12390.410858 kJ/mol
# Density = 2.205002 g / cm^3
# Si number density = 22.100321 Si / 1000 Ang^3
#
#
#
# Elastic Constant Matrix: (Units=GPa)
#
#
# Indices 1 2 3 4 5 6 
#
# 1 83.6873 25.6758 29.4175 -0.0624 3.6601 -0.0192
# 2 25.6758 78.8503 28.6801 -0.0464 4.7498 -0.0013
# 3 29.4175 28.6801 107.4606 -0.0852 15.4665 -0.1131
# 4 -0.0624 -0.0464 -0.0852 27.5656 -0.1098 -1.2953
# 5 3.6601 4.7498 15.4665 -0.1098 60.7095 -0.0455
# 6 -0.0192 -0.0013 -0.1131 -1.2953 -0.0455 22.7171
#
#
#
# Elastic Compliance Matrix: (Units=1/GPa)
#
#
# Indices 1 2 3 4 5 6 
#
# 1 0.014052 -0.003520 -0.002933 0.000017 0.000175 -0.000002
# 2 -0.003520 0.014929 -0.002993 0.000006 -0.000193 -0.000017
# 3 -0.002933 -0.002993 0.011261 0.000016 -0.002458 0.000049
# 4 0.000017 0.000006 0.000016 0.036375 0.000062 0.002074
# 5 0.000175 -0.000193 -0.002458 0.000062 0.017103 0.000026
# 6 -0.000002 -0.000017 0.000049 0.002074 0.000026 0.044138
#
#
# Mechanical properties :
#
#
# Convention : Reuss Voigt Hill
#
# Bulk Modulus (GPa) = 46.83522 48.61612 47.72567
# Shear Modulus (GPa) = 30.51274 34.61342 32.56308
#
# Velocity S-wave (km/s) = 3.71974 3.96181 3.84268
# Velocity P-wave (km/s) = 6.29974 6.55543 6.42885
#
# Compressibility (1/GPa) = 0.02135145
#
# Stress axis : x y z
#
# Youngs Moduli (GPa) = 71.16247 66.98538 88.80058
#
# Poissons Ratio (x) = 0.23577 0.26043
# Poissons Ratio (y) = 0.25047 0.26578
# Poissons Ratio (z) = 0.20870 0.20048
#
# Static dielectric constant tensor:
#      x y z
#    x 3.850600 0.000010 0.073860 
#    y 0.000010 3.743580 0.000100 
#    z 0.073860 0.000100 4.764620 
# 
# 
# High freq. dielectric constant tensor:
#      x y z
#    x 1.860020 0.000000 0.002680 
#    y 0.000000 1.845590 0.000000 
#    z 0.002680 0.000000 1.896990 
# 
# From -- ./inp_files/216692.got.cif
#   From: 2010.06.25/outbox.cif.g09.slc.cpg/sg15_109_cif.got.tgz:216692.got - 2010.06.28 07:06:18.
