data_PCOD8147776
_publ_section_title
;
Structure prediction by ZEFSAII (Michael W. Deem and Ramdas Pophale) SiO2 
 PCOD8147776
Probable space group: C 2/C
;
_chemical_formula_sum "Si O2"
_cell_formula_units_Z 52
_cell_length_a 30.095710
_cell_length_b 8.706230
_cell_length_c 15.350067
_cell_angle_alpha 90.000000
_cell_angle_beta 141.669876
_cell_angle_gamma 90.000000
_cell_volume 2494.427303
_symmetry_space_group_name_H-M "C 2/C"
_symmetry_group_IT_number 15
_symmetry_cell_setting 'monoclinic'
loop_
_space_group_symop_operation_xyz
x,y,z
-x,y,1/2-z
-x,-y,-z
x,-y,1/2+z
1/2+x,1/2+y,z
1/2-x,1/2+y,1/2-z
1/2-x,1/2-y,-z
1/2+x,1/2-y,1/2+z
loop_
_atom_site_type_symbol
_atom_site_label
_atom_site_fract_x
_atom_site_fract_y
_atom_site_fract_z
Si Si1 0.722028 0.175498 0.866766
Si Si2 0.041587 0.656548 0.971601
Si Si3 0.766574 0.827808 0.935848
Si Si4 0.000000 0.172776 0.250000
Si Si5 0.190204 0.183841 0.663992
Si Si6 0.610294 0.577120 0.975040
Si Si7 0.566136 0.808912 0.048170
O O1 0.772083 0.242863 0.866868
O O2 0.638551 0.210653 0.716738
O O3 0.727417 0.991445 0.876528
O O4 0.750000 0.250000 0.000000
O O5 0.988352 0.713191 0.813401
O O6 0.004251 0.720598 0.001748
O O7 0.118515 0.726957 0.075584
O O8 0.054872 0.475808 0.989947
O O9 0.742355 0.710048 0.824203
O O10 0.852121 0.840226 0.049616
O O11 0.750000 0.750000 0.000000
O O12 0.067338 0.063191 0.367459
O O13 0.173391 0.001199 0.630498
O O14 0.563837 0.690049 0.963751
#
# Coordination Sequence:
#
# PCOD8147776 Si02
#       7
#     8   8   8   4   8   8   8
#     4  11  25  40  67  98 130 173 224 270 326 392
#     4  10  24  42  66  92 132 174 212 276 322 392
#     4  11  24  40  64  98 129 171 221 266 332 390
#     4  10  24  46  64  94 130 170 230 262 332 386
#     4  10  22  45  63  94 135 172 215 270 331 381
#     4  10  24  41  68  94 129 177 214 276 322 389
#     4  11  23  43  65  97 130 174 218 263 340 385
#
# _framework density 20.846468999999999
#
# number of rings (size 3 to 8) (size 9 to 14) (size 15 to 20)
#    0.000    1.538    3.077    0.000    8.615    5.538 
#    0.000    0.000    0.000    0.000    0.000    0.000 
#    0.000    0.000    0.000    0.000    0.000    0.000 
#
# Total GULP energy -322213.005871 kJ/mol
# GULP energy per Si atom -12392.807918 kJ/mol
# Density = 2.079902 g / cm^3
# Si number density = 20.846469 Si / 1000 Ang^3
#
#
#
# Elastic Constant Matrix: (Units=GPa)
#
#
# Indices 1 2 3 4 5 6 
#
# 1 172.0773 60.0419 53.8140 0.0000 -11.7059 0.0000
# 2 60.0419 82.3903 41.5504 0.0000 -9.4583 0.0000
# 3 53.8140 41.5504 91.0259 0.0000 -9.2633 0.0000
# 4 0.0000 0.0000 0.0000 28.4169 0.0000 -1.6660
# 5 -11.7059 -9.4583 -9.2633 0.0000 34.6224 0.0000
# 6 0.0000 0.0000 0.0000 -1.6660 0.0000 37.5328
#
#
#
# Elastic Compliance Matrix: (Units=1/GPa)
#
#
# Indices 1 2 3 4 5 6 
#
# 1 0.008327 -0.004590 -0.002744 0.000000 0.000828 0.000000
# 2 -0.004590 0.018501 -0.005526 0.000000 0.002024 0.000000
# 3 -0.002744 -0.005526 0.015299 0.000000 0.001656 0.000000
# 4 0.000000 0.000000 0.000000 0.035282 0.000000 0.001566
# 5 0.000828 0.002024 0.001656 0.000000 0.030159 0.000000
# 6 0.000000 0.000000 0.000000 0.001566 0.000000 0.026713
#
#
# Mechanical properties :
#
#
# Convention : Reuss Voigt Hill
#
# Bulk Modulus (GPa) = 60.94327 72.92292 66.93310
# Shear Modulus (GPa) = 30.21716 32.78692 31.50204
#
# Velocity S-wave (km/s) = 3.81137 3.97013 3.89156
# Velocity P-wave (km/s) = 6.97614 7.48818 7.23669
#
# Compressibility (1/GPa) = 0.01640870
#
# Stress axis : x y z
#
# Youngs Moduli (GPa) = 120.08937 54.05058 65.36456
#
# Poissons Ratio (x) = 0.24808 0.17934
# Poissons Ratio (y) = 0.55118 0.36119
# Poissons Ratio (z) = 0.32949 0.29867
#
# Static dielectric constant tensor:
#      x y z
#    x 4.029010 0.000000 -0.099840 
#    y 0.000000 3.946960 0.000000 
#    z -0.099840 0.000000 3.975880 
# 
# 
# High freq. dielectric constant tensor:
#      x y z
#    x 1.833530 0.000000 0.004800 
#    y 0.000000 1.820240 0.000000 
#    z 0.004800 0.000000 1.806170 
# 
# From -- ./inp_files/181202.got.cif
#   From: 2010.06.25/outbox.cif.g09.slc.cpg/sg15_91_cif.got.tgz:181202.got - 2010.06.28 07:06:18.
