data_PCOD8147906
_publ_section_title
;
Structure prediction by ZEFSAII (Michael W. Deem and Ramdas Pophale) SiO2 
 PCOD8147906
Probable space group: C 2/C
;
_chemical_formula_sum "Si O2"
_cell_formula_units_Z 52
_cell_length_a 20.208246
_cell_length_b 11.470722
_cell_length_c 19.578858
_cell_angle_alpha 90.000000
_cell_angle_beta 148.079571
_cell_angle_gamma 90.000000
_cell_volume 2399.660060
_symmetry_space_group_name_H-M "C 2/C"
_symmetry_group_IT_number 15
_symmetry_cell_setting 'monoclinic'
loop_
_space_group_symop_operation_xyz
x,y,z
-x,y,1/2-z
-x,-y,-z
x,-y,1/2+z
1/2+x,1/2+y,z
1/2-x,1/2+y,1/2-z
1/2-x,1/2-y,-z
1/2+x,1/2-y,1/2+z
loop_
_atom_site_type_symbol
_atom_site_label
_atom_site_fract_x
_atom_site_fract_y
_atom_site_fract_z
Si Si1 0.230460 0.841547 0.875706
Si Si2 0.188080 0.307059 0.012003
Si Si3 0.691693 0.440143 0.262287
Si Si4 0.000000 0.942626 0.750000
Si Si5 0.711380 0.909308 0.297443
Si Si6 0.084415 0.930198 0.455396
Si Si7 0.044882 0.540313 0.863684
O O1 0.241006 0.710410 0.860849
O O2 0.099219 0.860734 0.799080
O O3 0.241630 0.929819 0.821563
O O4 0.347400 0.865523 0.027334
O O5 0.289702 0.359139 0.154195
O O6 0.250000 0.250000 0.000000
O O7 0.109937 0.207120 0.980832
O O8 0.094491 0.408678 0.907580
O O9 0.767492 0.391017 0.264600
O O10 0.544610 0.448663 0.116860
O O11 0.925928 0.024160 0.631539
O O12 0.568354 0.948457 0.181873
O O13 0.803311 0.006451 0.407547
O O14 0.000000 0.574086 0.750000
#
# Coordination Sequence:
#
# PCOD8147906 Si02
#       7
#     8   8   8   4   8   8   8
#     4  10  25  45  68  98 139 177 225 281 341 406
#     4  11  24  44  72 103 138 176 231 292 351 408
#     4  10  26  46  67 100 138 185 225 285 351 412
#     4  10  22  46  68 102 134 180 222 280 340 406
#     4  12  27  43  70 102 137 183 232 278 350 421
#     4  11  24  41  71  99 133 180 232 279 347 415
#     4  11  26  43  70 106 135 179 232 287 348 407
#
# _framework density 21.669736
#
# number of rings (size 3 to 8) (size 9 to 14) (size 15 to 20)
#    0.000    1.231    0.000    5.077   12.923    4.923 
#    0.000    0.000    0.000    0.000    0.000    0.000 
#    0.000    0.000    0.000    0.000    0.000    0.000 
#
# Total GULP energy -322538.519896 kJ/mol
# GULP energy per Si atom -12405.327688 kJ/mol
# Density = 2.162041 g / cm^3
# Si number density = 21.669736 Si / 1000 Ang^3
#
#
#
# Elastic Constant Matrix: (Units=GPa)
#
#
# Indices 1 2 3 4 5 6 
#
# 1 127.9699 44.2565 40.8765 0.0000 3.8269 0.0000
# 2 44.2565 124.5598 42.8826 0.0000 2.1983 0.0000
# 3 40.8765 42.8826 119.4892 0.0000 8.2636 0.0000
# 4 0.0000 0.0000 0.0000 23.8090 0.0000 -0.1709
# 5 3.8269 2.1983 8.2636 0.0000 26.3183 0.0000
# 6 0.0000 0.0000 0.0000 -0.1709 0.0000 19.2616
#
#
#
# Elastic Compliance Matrix: (Units=1/GPa)
#
#
# Indices 1 2 3 4 5 6 
#
# 1 0.009442 -0.002562 -0.002280 0.000000 -0.000443 0.000000
# 2 -0.002562 0.009857 -0.002688 0.000000 0.000393 0.000000
# 3 -0.002280 -0.002688 0.010299 0.000000 -0.002678 0.000000
# 4 0.000000 0.000000 0.000000 0.042004 0.000000 0.000373
# 5 -0.000443 0.000393 -0.002678 0.000000 0.038869 0.000000
# 6 0.000000 0.000000 0.000000 0.000373 0.000000 0.051920
#
#
# Mechanical properties :
#
#
# Convention : Reuss Voigt Hill
#
# Bulk Modulus (GPa) = 68.78791 69.78335 69.28563
# Shear Modulus (GPa) = 27.42783 30.14465 28.78624
#
# Velocity S-wave (km/s) = 3.56156 3.73378 3.64869
# Velocity P-wave (km/s) = 6.98037 7.13171 7.05645
#
# Compressibility (1/GPa) = 0.01453744
#
# Stress axis : x y z
#
# Youngs Moduli (GPa) = 105.91121 101.44944 97.09809
#
# Poissons Ratio (x) = 0.25991 0.22137
# Poissons Ratio (y) = 0.27134 0.26103
# Poissons Ratio (z) = 0.24147 0.27273
#
# Static dielectric constant tensor:
#      x y z
#    x 3.915450 0.000000 0.080710 
#    y 0.000000 3.991530 0.000000 
#    z 0.080710 0.000000 4.054450 
# 
# 
# High freq. dielectric constant tensor:
#      x y z
#    x 1.849760 0.000000 0.005970 
#    y 0.000000 1.860780 0.000000 
#    z 0.005970 0.000000 1.862360 
# 
# From -- ./inp_files/252742.got.cif
#   From: 2010.06.25/outbox.cif.g09.slc.cpg/sg15_127_cif.got.tgz:252742.got - 2010.06.28 07:06:18.
