data_PCOD8147956
_publ_section_title
;
Structure prediction by ZEFSAII (Michael W. Deem and Ramdas Pophale) SiO2 
 PCOD8147956
Probable space group: C 2/C
;
_chemical_formula_sum "Si O2"
_cell_formula_units_Z 40
_cell_length_a 8.810301
_cell_length_b 23.024659
_cell_length_c 16.861495
_cell_angle_alpha 90.000000
_cell_angle_beta 149.589805
_cell_angle_gamma 90.000000
_cell_volume 1731.375288
_symmetry_space_group_name_H-M "C 2/C"
_symmetry_group_IT_number 15
_symmetry_cell_setting 'monoclinic'
loop_
_space_group_symop_operation_xyz
x,y,z
-x,y,1/2-z
-x,-y,-z
x,-y,1/2+z
1/2+x,1/2+y,z
1/2-x,1/2+y,1/2-z
1/2-x,1/2-y,-z
1/2+x,1/2-y,1/2+z
loop_
_atom_site_type_symbol
_atom_site_label
_atom_site_fract_x
_atom_site_fract_y
_atom_site_fract_z
Si Si1 0.106962 0.247893 0.653147
Si Si2 0.175710 0.428346 0.467112
Si Si3 0.052416 0.630713 0.072474
Si Si4 0.164864 0.532206 0.241324
Si Si5 0.000000 0.187104 0.750000
Si Si6 0.000000 0.341633 0.250000
O O1 0.227727 0.310867 0.679967
O O2 0.216128 0.199149 0.641113
O O3 0.750000 0.250000 0.500000
O O4 0.210663 0.227843 0.788431
O O5 0.218301 0.399198 0.572686
O O6 0.480961 0.462329 0.584289
O O7 0.906166 0.475333 0.344275
O O8 0.102729 0.379286 0.370557
O O9 0.037135 0.588635 0.140355
O O10 0.711063 0.645328 0.896243
O O11 0.000000 0.524150 0.250000
#
# Coordination Sequence:
#
# PCOD8147956 Si02
#       6
#     8   8   8   8   4   4
#     4  10  25  44  71 109 146 195 242 307 379 444
#     4  12  28  50  75 111 150 201 254 317 372 454
#     4  11  26  45  75 107 148 197 250 304 380 441
#     4  12  29  46  76 107 152 196 256 308 379 443
#     4  10  22  46  73 105 150 190 244 310 374 448
#     4  12  26  48  81 109 156 196 260 312 382 450
#
# _framework density 23.103020000000001
#
# number of rings (size 3 to 8) (size 9 to 14) (size 15 to 20)
#    0.000    0.800    3.000    1.800   12.600    2.400 
#    0.000    0.000    0.000    0.000    0.000    0.000 
#    0.000    0.000    0.000    0.000    0.000    0.000 
#
# Total GULP energy -247994.423475 kJ/mol
# GULP energy per Si atom -12399.721174 kJ/mol
# Density = 2.305044 g / cm^3
# Si number density = 23.103020 Si / 1000 Ang^3
#
#
#
# Elastic Constant Matrix: (Units=GPa)
#
#
# Indices 1 2 3 4 5 6 
#
# 1 76.0658 42.7568 20.2497 -0.0062 5.5640 -0.0001
# 2 42.7568 170.1067 44.6590 -0.0015 -1.6407 0.0003
# 3 20.2497 44.6590 81.6022 0.0642 6.1939 0.0075
# 4 -0.0062 -0.0015 0.0642 40.6744 0.0053 -3.7473
# 5 5.5640 -1.6407 6.1939 0.0053 39.1417 -0.0043
# 6 -0.0001 0.0003 0.0075 -3.7473 -0.0043 48.7559
#
#
#
# Elastic Compliance Matrix: (Units=1/GPa)
#
#
# Indices 1 2 3 4 5 6 
#
# 1 0.015755 -0.003498 -0.001836 0.000006 -0.002096 0.000001
# 2 -0.003498 0.007673 -0.003434 0.000005 0.001362 0.000001
# 3 -0.001836 -0.003434 0.014758 -0.000024 -0.002218 -0.000004
# 4 0.000006 0.000005 -0.000024 0.024761 0.000000 0.001903
# 5 -0.002096 0.001362 -0.002218 0.000000 0.026254 0.000003
# 6 0.000001 0.000001 -0.000004 0.001903 0.000003 0.020657
#
#
# Mechanical properties :
#
#
# Convention : Reuss Voigt Hill
#
# Bulk Modulus (GPa) = 48.42982 60.34509 54.38746
# Shear Modulus (GPa) = 37.23620 40.38833 38.81227
#
# Velocity S-wave (km/s) = 4.01901 4.18567 4.10318
# Velocity P-wave (km/s) = 6.52263 7.03821 6.78532
#
# Compressibility (1/GPa) = 0.02064844
#
# Stress axis : x y z
#
# Youngs Moduli (GPa) = 63.47211 130.33122 67.75905
#
# Poissons Ratio (x) = 0.45593 0.12441
# Poissons Ratio (y) = 0.22204 0.23271
# Poissons Ratio (z) = 0.11654 0.44762
#
# Static dielectric constant tensor:
#      x y z
#    x 4.705130 0.000080 -0.459250 
#    y 0.000080 4.632580 -0.000280 
#    z -0.459250 -0.000280 4.219150 
# 
# 
# High freq. dielectric constant tensor:
#      x y z
#    x 1.920700 0.000000 -0.010870 
#    y 0.000000 1.931100 -0.000010 
#    z -0.010870 -0.000010 1.909040 
# 
# From -- ./inp_files/193467.got.cif
#   From: 2010.06.25/outbox.cif.g09.slc.cpg/sg15_97_cif.got.tgz:193467.got - 2010.06.28 07:06:18.
