data_PCOD8147314
_publ_section_title
;
Structure prediction by ZEFSAII (Michael W. Deem and Ramdas Pophale) SiO2 
 PCOD8147314
Probable space group: C 2/C
;
_chemical_formula_sum "Si O2"
_cell_formula_units_Z 56
_cell_length_a 25.867025
_cell_length_b 8.451909
_cell_length_c 12.122169
_cell_angle_alpha 90.000000
_cell_angle_beta 78.467899
_cell_angle_gamma 90.000000
_cell_volume 2596.717836
_symmetry_space_group_name_H-M "C 2/C"
_symmetry_group_IT_number 15
_symmetry_cell_setting 'monoclinic'
loop_
_space_group_symop_operation_xyz
x,y,z
-x,y,1/2-z
-x,-y,-z
x,-y,1/2+z
1/2+x,1/2+y,z
1/2-x,1/2+y,1/2-z
1/2-x,1/2-y,-z
1/2+x,1/2-y,1/2+z
loop_
_atom_site_type_symbol
_atom_site_label
_atom_site_fract_x
_atom_site_fract_y
_atom_site_fract_z
Si Si1 0.500000 0.831039 0.250000
Si Si2 0.221858 0.698051 0.900166
Si Si3 0.135977 0.239134 0.951505
Si Si4 0.335038 0.998185 0.915210
Si Si5 0.460735 0.570331 0.427858
Si Si6 0.500000 0.665212 0.750000
Si Si7 0.270859 0.531005 0.680729
Si Si8 0.420303 0.908775 0.712845
O O1 0.479365 0.732601 0.363107
O O2 0.547163 0.929324 0.287767
O O3 0.258662 0.581673 0.811604
O O4 0.204449 0.852610 0.835815
O O5 0.250000 0.750000 0.000000
O O6 0.172851 0.595434 0.965385
O O7 0.189231 0.161847 0.882516
O O8 0.113116 0.379657 0.883415
O O9 0.147045 0.324135 0.063113
O O10 0.095393 0.096259 0.990170
O O11 0.282910 0.021890 0.864947
O O12 0.379371 0.900354 0.831312
O O13 0.500000 0.500000 0.500000
O O14 0.457462 0.438818 0.334363
O O15 0.463354 0.770144 0.688184
#
# Coordination Sequence:
#
# PCOD8147314 Si02
#       8
#     4   8   8   8   8   4   8   8
#     4  10  24  46  70 102 134 180 228 288 346 406
#     4  10  22  43  67  93 137 179 226 285 335 401
#     4  12  24  42  68 100 133 185 223 280 346 407
#     4  11  23  43  67 100 137 180 232 277 344 406
#     4  11  23  46  66 101 134 175 222 282 347 409
#     4  10  24  42  68  94 138 164 224 286 336 416
#     4  11  24  44  65 101 140 181 232 280 336 414
#     4  11  23  43  70 100 132 179 230 281 341 417
#
# _framework density 21.565684999999998
#
# number of rings (size 3 to 8) (size 9 to 14) (size 15 to 20)
#    0.000    1.143    2.857    3.857    2.000    2.857 
#    5.143    0.000    0.000    0.000    0.000    0.000 
#    0.000    0.000    0.000    0.000    0.000    0.000 
#
# Total GULP energy -346996.014184 kJ/mol
# GULP energy per Si atom -12392.714792 kJ/mol
# Density = 2.151660 g / cm^3
# Si number density = 21.565685 Si / 1000 Ang^3
#
#
#
# Elastic Constant Matrix: (Units=GPa)
#
#
# Indices 1 2 3 4 5 6 
#
# 1 87.7083 41.7015 27.6804 0.0000 -14.6558 0.0000
# 2 41.7015 110.4354 43.2678 0.0000 0.6091 0.0000
# 3 27.6804 43.2678 112.3065 0.0000 -16.9828 0.0000
# 4 0.0000 0.0000 0.0000 35.8678 0.0000 -0.9252
# 5 -14.6558 0.6091 -16.9828 0.0000 32.6487 0.0000
# 6 0.0000 0.0000 0.0000 -0.9252 0.0000 30.1693
#
#
#
# Elastic Compliance Matrix: (Units=1/GPa)
#
#
# Indices 1 2 3 4 5 6 
#
# 1 0.015377 -0.005600 -0.000622 0.000000 0.006684 0.000000
# 2 -0.005600 0.012901 -0.004349 0.000000 -0.005016 0.000000
# 3 -0.000622 -0.004349 0.011617 0.000000 0.005845 0.000000
# 4 0.000000 0.000000 0.000000 0.027902 0.000000 0.000856
# 5 0.006684 -0.005016 0.005845 0.000000 0.036763 0.000000
# 6 0.000000 0.000000 0.000000 0.000856 0.000000 0.033173
#
#
# Mechanical properties :
#
#
# Convention : Reuss Voigt Hill
#
# Bulk Modulus (GPa) = 53.32202 59.52773 56.42488
# Shear Modulus (GPa) = 30.28020 32.92387 31.60203
#
# Velocity S-wave (km/s) = 3.75119 3.91151 3.83219
# Velocity P-wave (km/s) = 6.59856 6.93273 6.76771
#
# Compressibility (1/GPa) = 0.01875398
#
# Stress axis : x y z
#
# Youngs Moduli (GPa) = 65.03256 77.51326 86.08281
#
# Poissons Ratio (x) = 0.43405 0.05354
# Poissons Ratio (y) = 0.36416 0.37435
# Poissons Ratio (z) = 0.04045 0.33708
#
# Static dielectric constant tensor:
#      x y z
#    x 3.925920 0.000000 -0.261080 
#    y 0.000000 4.367280 0.000000 
#    z -0.261080 0.000000 4.194820 
# 
# 
# High freq. dielectric constant tensor:
#      x y z
#    x 1.837430 0.000000 -0.009130 
#    y 0.000000 1.858130 0.000000 
#    z -0.009130 0.000000 1.856100 
# 
# From -- ./inp_files/121927.got.cif
#   From: 2010.06.25/outbox.cif.g09.slc.cpg/sg15_61_cif.got.tgz:121927.got - 2010.06.28 07:06:18.
