data_PCOD8147571
_publ_section_title
;
Structure prediction by ZEFSAII (Michael W. Deem and Ramdas Pophale) SiO2 
 PCOD8147571
Probable space group: C 2/C
;
_chemical_formula_sum "Si O2"
_cell_formula_units_Z 60
_cell_length_a 11.466825
_cell_length_b 18.147686
_cell_length_c 18.439952
_cell_angle_alpha 90.000000
_cell_angle_beta 42.959906
_cell_angle_gamma 90.000000
_cell_volume 2615.058617
_symmetry_space_group_name_H-M "C 2/C"
_symmetry_group_IT_number 15
_symmetry_cell_setting 'monoclinic'
loop_
_space_group_symop_operation_xyz
x,y,z
-x,y,1/2-z
-x,-y,-z
x,-y,1/2+z
1/2+x,1/2+y,z
1/2-x,1/2+y,1/2-z
1/2-x,1/2-y,-z
1/2+x,1/2-y,1/2+z
loop_
_atom_site_type_symbol
_atom_site_label
_atom_site_fract_x
_atom_site_fract_y
_atom_site_fract_z
Si Si1 0.679258 0.486207 0.042469
Si Si2 0.760902 0.849007 0.963413
Si Si3 0.000000 0.780584 0.750000
Si Si4 0.996571 0.302082 0.963064
Si Si5 0.213228 0.039429 0.797706
Si Si6 0.499259 0.912163 0.831444
Si Si7 0.687450 0.622997 0.664976
Si Si8 0.286595 0.677110 0.614346
O O1 0.757812 0.566046 0.010690
O O2 0.480709 0.490579 0.108191
O O3 0.688925 0.451443 0.117544
O O4 0.806182 0.442384 0.930847
O O5 0.608601 0.830207 0.978887
O O6 0.940688 0.833079 0.842369
O O7 0.756157 0.806334 0.042548
O O8 0.145547 0.727839 0.717821
O O9 0.041221 0.347624 0.869759
O O10 0.033537 0.213647 0.938661
O O11 0.802340 0.313943 0.076129
O O12 0.244496 0.097348 0.718567
O O13 0.234017 0.090625 0.859947
O O14 0.354065 0.975429 0.729650
O O15 0.500000 0.879220 0.750000
O O16 0.500000 0.658846 0.750000
#
# Coordination Sequence:
#
# PCOD8147571 Si02
#       8
#     8   8   4   8   8   8   8   8
#     4  10  23  42  64 102 131 168 230 279 321 394
#     4  11  23  40  68  95 133 165 213 284 323 399
#     4  10  24  38  62  92 128 164 208 264 338 386
#     4  10  22  44  66  97 131 177 218 275 335 385
#     4  11  24  40  68  98 133 181 215 275 347 380
#     4  11  24  42  68  97 134 177 226 273 327 401
#     4   9  20  39  67  94 131 170 226 272 323 402
#     4  11  26  41  64 101 134 168 221 272 329 403
#
# _framework density 22.944037000000002
#
# number of rings (size 3 to 8) (size 9 to 14) (size 15 to 20)
#    0.000    1.600    0.000    4.000   13.067    4.267 
#    0.000    8.000    0.000    0.000    0.000    0.000 
#    0.000    0.000    0.000    0.000    0.000    0.000 
#
# Total GULP energy -371861.404066 kJ/mol
# GULP energy per Si atom -12395.380136 kJ/mol
# Density = 2.289182 g / cm^3
# Si number density = 22.944037 Si / 1000 Ang^3
#
#
#
# Elastic Constant Matrix: (Units=GPa)
#
#
# Indices 1 2 3 4 5 6 
#
# 1 93.4874 20.9768 51.0926 -0.0012 6.4662 0.0013
# 2 20.9768 67.9260 24.0077 0.0014 0.7075 -0.0004
# 3 51.0926 24.0077 124.2302 0.0123 -4.5356 -0.0031
# 4 -0.0012 0.0014 0.0123 14.9888 -0.0005 3.4815
# 5 6.4662 0.7075 -4.5356 -0.0005 36.2768 -0.0006
# 6 0.0013 -0.0004 -0.0031 3.4815 -0.0006 25.7685
#
#
#
# Elastic Compliance Matrix: (Units=1/GPa)
#
#
# Indices 1 2 3 4 5 6 
#
# 1 0.014550 -0.002471 -0.005625 0.000006 -0.003249 -0.000002
# 2 -0.002471 0.016238 -0.002127 0.000000 -0.000142 0.000000
# 3 -0.005625 -0.002127 0.010862 -0.000010 0.002402 0.000003
# 4 0.000006 0.000000 -0.000010 0.068878 -0.000002 -0.009306
# 5 -0.003249 -0.000142 0.002402 -0.000002 0.028448 0.000001
# 6 -0.000002 0.000000 0.000003 -0.009306 0.000001 0.040064
#
#
# Mechanical properties :
#
#
# Convention : Reuss Voigt Hill
#
# Bulk Modulus (GPa) = 47.16204 53.08866 50.12535
# Shear Modulus (GPa) = 24.20663 28.04459 26.12561
#
# Velocity S-wave (km/s) = 3.25165 3.49994 3.37807
# Velocity P-wave (km/s) = 5.89046 6.28660 6.09175
#
# Compressibility (1/GPa) = 0.02120349
#
# Stress axis : x y z
#
# Youngs Moduli (GPa) = 68.72835 61.58282 92.06638
#
# Poissons Ratio (x) = 0.15219 0.51788
# Poissons Ratio (y) = 0.16985 0.19581
# Poissons Ratio (z) = 0.38660 0.13098
#
# Static dielectric constant tensor:
#      x y z
#    x 4.123890 0.000000 -0.100970 
#    y 0.000000 4.045900 0.000010 
#    z -0.100970 0.000010 4.639830 
# 
# 
# High freq. dielectric constant tensor:
#      x y z
#    x 1.900050 0.000000 0.002350 
#    y 0.000000 1.898910 0.000000 
#    z 0.002350 0.000000 1.924190 
# 
# From -- ./inp_files/200492.got.cif
#   From: 2010.06.25/outbox.cif.g09.slc.cpg/sg15_101_cif.got.tgz:200492.got - 2010.06.28 07:06:18.
