data_PCOD8147869
_publ_section_title
;
Structure prediction by ZEFSAII (Michael W. Deem and Ramdas Pophale) SiO2 
 PCOD8147869
Probable space group: C 2/C
;
_chemical_formula_sum "Si O2"
_cell_formula_units_Z 48
_cell_length_a 12.738142
_cell_length_b 26.243948
_cell_length_c 8.935261
_cell_angle_alpha 90.000000
_cell_angle_beta 131.005928
_cell_angle_gamma 90.000000
_cell_volume 2254.152511
_symmetry_space_group_name_H-M "C 2/C"
_symmetry_group_IT_number 15
_symmetry_cell_setting 'monoclinic'
loop_
_space_group_symop_operation_xyz
x,y,z
-x,y,1/2-z
-x,-y,-z
x,-y,1/2+z
1/2+x,1/2+y,z
1/2-x,1/2+y,1/2-z
1/2-x,1/2-y,-z
1/2+x,1/2-y,1/2+z
loop_
_atom_site_type_symbol
_atom_site_label
_atom_site_fract_x
_atom_site_fract_y
_atom_site_fract_z
Si Si1 0.463573 0.345859 0.375747
Si Si2 0.643193 0.486138 0.924960
Si Si3 0.763861 0.937735 0.193383
Si Si4 0.204410 0.111204 0.306472
Si Si5 0.651931 0.703763 0.453093
Si Si6 0.013988 0.444138 0.441413
O O1 0.500000 0.319498 0.250000
O O2 0.366110 0.393099 0.244969
O O3 0.606297 0.366163 0.584930
O O4 0.374729 0.306324 0.394616
O O5 0.500000 0.515684 0.750000
O O6 0.763044 0.524170 0.973549
O O7 0.627373 0.433590 0.820352
O O8 0.668842 0.476240 0.121727
O O9 0.620036 0.913907 0.119707
O O10 0.226803 0.154801 0.451353
O O11 0.351208 0.088753 0.382743
O O12 0.500000 0.715293 0.250000
O O13 0.750000 0.750000 0.500000
O O14 0.000000 0.447201 0.250000
O O15 0.000000 0.500000 0.500000
#
# Coordination Sequence:
#
# PCOD8147869 Si02
#       6
#     8   8   8   8   8   8
#     4  11  24  42  65  97 129 165 217 273 323 389
#     4  12  21  35  56  86 126 169 225 259 314 376
#     4  12  23  35  56  88 126 176 218 262 310 382
#     4  11  22  42  62  89 131 167 215 273 320 399
#     4  10  22  45  73  98 122 165 218 274 338 402
#     4  12  23  37  55  84 128 175 221 270 319 383
#
# _framework density 21.294034
#
# number of rings (size 3 to 8) (size 9 to 14) (size 15 to 20)
#    0.000    0.667    6.667    1.500    2.333    3.333 
#    0.000    3.333    0.000    1.000    0.000    0.000 
#    0.000    0.000    0.000    0.000    0.000    0.000 
#
# Total GULP energy -297399.898759 kJ/mol
# GULP energy per Si atom -12391.662448 kJ/mol
# Density = 2.124557 g / cm^3
# Si number density = 21.294034 Si / 1000 Ang^3
#
#
#
# Elastic Constant Matrix: (Units=GPa)
#
#
# Indices 1 2 3 4 5 6 
#
# 1 136.5506 69.5568 34.4856 0.0000 -0.2193 0.0000
# 2 69.5568 93.1738 29.1844 0.0000 -8.8542 0.0000
# 3 34.4856 29.1844 53.4065 0.0000 -6.8262 0.0000
# 4 0.0000 0.0000 0.0000 17.5744 0.0000 1.4889
# 5 -0.2193 -8.8542 -6.8262 0.0000 47.3360 0.0000
# 6 0.0000 0.0000 0.0000 1.4889 0.0000 45.2333
#
#
#
# Elastic Compliance Matrix: (Units=1/GPa)
#
#
# Indices 1 2 3 4 5 6 
#
# 1 0.012540 -0.008371 -0.003785 0.000000 -0.002054 0.000000
# 2 -0.008371 0.018632 -0.004417 0.000000 0.002809 0.000000
# 3 -0.003785 -0.004417 0.023916 0.000000 0.002605 0.000000
# 4 0.000000 0.000000 0.000000 0.057060 0.000000 -0.001878
# 5 -0.002054 0.002809 0.002605 0.000000 0.022017 0.000000
# 6 0.000000 0.000000 0.000000 -0.001878 0.000000 0.022169
#
#
# Mechanical properties :
#
#
# Convention : Reuss Voigt Hill
#
# Bulk Modulus (GPa) = 45.57829 61.06495 53.32162
# Shear Modulus (GPa) = 25.40704 32.02235 28.71469
#
# Velocity S-wave (km/s) = 3.45795 3.88212 3.67616
# Velocity P-wave (km/s) = 6.11506 6.98811 6.56611
#
# Compressibility (1/GPa) = 0.02194027
#
# Stress axis : x y z
#
# Youngs Moduli (GPa) = 79.74472 53.66994 41.81380
#
# Poissons Ratio (x) = 0.44927 0.15828
# Poissons Ratio (y) = 0.66754 0.18471
# Poissons Ratio (z) = 0.30187 0.23709
#
# Static dielectric constant tensor:
#      x y z
#    x 4.599020 0.000000 0.156690 
#    y 0.000000 3.533230 0.000000 
#    z 0.156690 0.000000 3.937070 
# 
# 
# High freq. dielectric constant tensor:
#      x y z
#    x 1.861840 0.000000 -0.000240 
#    y 0.000000 1.794140 0.000000 
#    z -0.000240 0.000000 1.828190 
# 
# From -- ./inp_files/33787.got.cif
#   From: 2010.06.25/outbox.cif.g09.slc.cpg/sg15_17_cif.got.tgz:33787.got - 2010.06.28 07:06:18.
