data_PCOD8147835
_publ_section_title
;
Structure prediction by ZEFSAII (Michael W. Deem and Ramdas Pophale) SiO2 
 PCOD8147835
Probable space group: C 2/C
;
_chemical_formula_sum "Si O2"
_cell_formula_units_Z 40
_cell_length_a 11.130617
_cell_length_b 11.129795
_cell_length_c 13.445213
_cell_angle_alpha 90.000000
_cell_angle_beta 109.343132
_cell_angle_gamma 90.000000
_cell_volume 1571.592229
_symmetry_space_group_name_H-M "C 2/C"
_symmetry_group_IT_number 15
_symmetry_cell_setting 'monoclinic'
loop_
_space_group_symop_operation_xyz
x,y,z
-x,y,1/2-z
-x,-y,-z
x,-y,1/2+z
1/2+x,1/2+y,z
1/2-x,1/2+y,1/2-z
1/2-x,1/2-y,-z
1/2+x,1/2-y,1/2+z
loop_
_atom_site_type_symbol
_atom_site_label
_atom_site_fract_x
_atom_site_fract_y
_atom_site_fract_z
Si Si1 0.779106 0.084120 0.931341
Si Si2 0.477584 0.736960 0.881209
Si Si3 0.154249 0.471026 0.725071
Si Si4 0.388656 0.513383 0.652458
Si Si5 0.014821 0.618088 0.937655
O O1 0.714295 0.973564 0.851926
O O2 0.849929 0.158953 0.865236
O O3 0.661798 0.153029 0.952605
O O4 0.883680 0.038622 0.039342
O O5 0.432425 0.852366 0.806030
O O6 0.580916 0.657205 0.848726
O O7 0.535329 0.773855 0.005502
O O8 0.256005 0.479985 0.664891
O O9 0.065997 0.591103 0.684241
O O10 0.500000 0.452690 0.750000
O O11 0.000000 0.500000 0.000000
#
# Coordination Sequence:
#
# PCOD8147835 Si02
#       5
#     8   8   8   8   8
#     4  12  24  49  75 103 151 197 245 312 371 447
#     4  11  25  45  76 107 146 200 245 302 381 444
#     4  11  26  49  72 111 153 187 252 313 364 452
#     4  12  26  48  72 108 152 189 255 308 368 453
#     4  10  22  45  70 103 144 187 243 302 365 440
#
# _framework density 25.451895
#
# number of rings (size 3 to 8) (size 9 to 14) (size 15 to 20)
#    0.000    0.800    6.000    1.800    0.000    5.600 
#    0.000    0.000    0.000    0.000    0.000    0.000 
#    0.000    0.000    0.000    0.000    0.000    0.000 
#
# Total GULP energy -247836.127674 kJ/mol
# GULP energy per Si atom -12391.806384 kJ/mol
# Density = 2.539396 g / cm^3
# Si number density = 25.451895 Si / 1000 Ang^3
#
#
#
# Elastic Constant Matrix: (Units=GPa)
#
#
# Indices 1 2 3 4 5 6 
#
# 1 107.0356 11.8175 6.0600 0.0000 -7.0098 0.0000
# 2 11.8175 40.8724 21.4174 0.0000 5.2736 0.0000
# 3 6.0600 21.4174 172.7153 0.0000 24.7071 0.0000
# 4 0.0000 0.0000 0.0000 30.9695 0.0000 0.9547
# 5 -7.0098 5.2736 24.7071 0.0000 43.6273 0.0000
# 6 0.0000 0.0000 0.0000 0.9547 0.0000 38.9244
#
#
#
# Elastic Compliance Matrix: (Units=1/GPa)
#
#
# Indices 1 2 3 4 5 6 
#
# 1 0.009823 -0.002965 -0.000276 0.000000 0.002093 0.000000
# 2 -0.002965 0.027145 -0.002965 0.000000 -0.002079 0.000000
# 3 -0.000276 -0.002965 0.006662 0.000000 -0.003459 0.000000
# 4 0.000000 0.000000 0.000000 0.032314 0.000000 -0.000793
# 5 0.002093 -0.002079 -0.003459 0.000000 0.025468 0.000000
# 6 0.000000 0.000000 0.000000 -0.000793 0.000000 0.025710
#
#
# Mechanical properties :
#
#
# Convention : Reuss Voigt Hill
#
# Bulk Modulus (GPa) = 32.03340 44.35699 38.19519
# Shear Modulus (GPa) = 33.34634 41.45946 37.40290
#
# Velocity S-wave (km/s) = 3.62356 4.04038 3.83763
# Velocity P-wave (km/s) = 5.48817 6.26354 5.88863
#
# Compressibility (1/GPa) = 0.03121742
#
# Stress axis : x y z
#
# Youngs Moduli (GPa) = 101.80379 36.83854 150.10491
#
# Poissons Ratio (x) = 0.10924 0.04149
# Poissons Ratio (y) = 0.30188 0.44502
# Poissons Ratio (z) = 0.02814 0.10922
#
# Static dielectric constant tensor:
#      x y z
#    x 4.649830 0.000000 0.174310 
#    y 0.000000 4.432960 0.000000 
#    z 0.174310 0.000000 5.288770 
# 
# 
# High freq. dielectric constant tensor:
#      x y z
#    x 2.020310 0.000000 -0.015750 
#    y 0.000000 1.981880 0.000000 
#    z -0.015750 0.000000 2.041010 
# 
# From -- ./inp_files/142372.got.cif
#   From: 2010.06.25/outbox.cif.g09.slc.cpg/sg15_72_cif.got.tgz:142372.got - 2010.06.28 07:06:18.
