data_PCOD8147618
_publ_section_title
;
Structure prediction by ZEFSAII (Michael W. Deem and Ramdas Pophale) SiO2 
 PCOD8147618
Probable space group: C 2/C
;
_chemical_formula_sum "Si O2"
_cell_formula_units_Z 40
_cell_length_a 18.032359
_cell_length_b 13.278555
_cell_length_c 10.288023
_cell_angle_alpha 90.000000
_cell_angle_beta 134.114955
_cell_angle_gamma 90.000000
_cell_volume 1768.586232
_symmetry_space_group_name_H-M "C 2/C"
_symmetry_group_IT_number 15
_symmetry_cell_setting 'monoclinic'
loop_
_space_group_symop_operation_xyz
x,y,z
-x,y,1/2-z
-x,-y,-z
x,-y,1/2+z
1/2+x,1/2+y,z
1/2-x,1/2+y,1/2-z
1/2-x,1/2-y,-z
1/2+x,1/2-y,1/2+z
loop_
_atom_site_type_symbol
_atom_site_label
_atom_site_fract_x
_atom_site_fract_y
_atom_site_fract_z
Si Si1 0.354888 0.725332 0.919665
Si Si2 0.227350 0.586974 0.050750
Si Si3 0.005499 0.712033 0.408167
Si Si4 0.676256 0.072245 0.702741
Si Si5 0.542063 0.395274 0.605376
O O1 0.321712 0.801563 0.993537
O O2 0.390968 0.785179 0.833098
O O3 0.259002 0.656433 0.763827
O O4 0.452035 0.655531 0.085275
O O5 0.193978 0.523540 0.134147
O O6 0.351440 0.591562 0.186762
O O7 0.185664 0.540171 0.865459
O O8 0.063038 0.616828 0.541576
O O9 0.063563 0.818263 0.510839
O O10 0.000000 0.694910 0.250000
O O11 0.500000 0.500000 0.500000
#
# Coordination Sequence:
#
# PCOD8147618 Si02
#       5
#     8   8   8   8   8
#     4  10  23  46  72  98 141 184 223 294 333 420
#     4  12  26  45  72 105 140 182 237 279 352 416
#     4  10  25  45  68 105 139 181 234 284 351 407
#     4  12  27  46  72 102 140 187 229 291 346 416
#     4  10  22  44  68 106 137 181 229 281 347 407
#
# _framework density 22.616935000000002
#
# number of rings (size 3 to 8) (size 9 to 14) (size 15 to 20)
#    1.200    0.000    4.000    0.600    2.800    8.000 
#    0.000    0.000    0.000    0.000    0.000    0.000 
#    0.000    0.000    0.000    0.000    0.000    0.000 
#
# Total GULP energy -247902.143487 kJ/mol
# GULP energy per Si atom -12395.107174 kJ/mol
# Density = 2.256546 g / cm^3
# Si number density = 22.616935 Si / 1000 Ang^3
#
#
#
# Elastic Constant Matrix: (Units=GPa)
#
#
# Indices 1 2 3 4 5 6 
#
# 1 78.1598 32.4019 12.1796 0.0000 -17.8295 0.0000
# 2 32.4019 107.5918 32.4930 0.0000 -1.0251 0.0000
# 3 12.1796 32.4930 116.6032 0.0000 -25.7747 0.0000
# 4 0.0000 0.0000 0.0000 22.4360 0.0000 6.8987
# 5 -17.8295 -1.0251 -25.7747 0.0000 28.9024 0.0000
# 6 0.0000 0.0000 0.0000 6.8987 0.0000 54.5957
#
#
#
# Elastic Compliance Matrix: (Units=1/GPa)
#
#
# Indices 1 2 3 4 5 6 
#
# 1 0.017934 -0.006112 0.002774 0.000000 0.013321 0.000000
# 2 -0.006112 0.012403 -0.004426 0.000000 -0.007278 0.000000
# 3 0.002774 -0.004426 0.012285 0.000000 0.012510 0.000000
# 4 0.000000 0.000000 0.000000 0.046373 0.000000 -0.005860
# 5 0.013321 -0.007278 0.012510 0.000000 0.053715 0.000000
# 6 0.000000 0.000000 0.000000 -0.005860 0.000000 0.019057
#
#
# Mechanical properties :
#
#
# Convention : Reuss Voigt Hill
#
# Bulk Modulus (GPa) = 36.90854 50.72264 43.81559
# Shear Modulus (GPa) = 26.83459 36.20551 31.52005
#
# Velocity S-wave (km/s) = 3.44827 4.00536 3.73721
# Velocity P-wave (km/s) = 5.67525 6.62315 6.16744
#
# Compressibility (1/GPa) = 0.02709400
#
# Stress axis : x y z
#
# Youngs Moduli (GPa) = 55.75850 80.62874 81.39910
#
# Poissons Ratio (x) = 0.49281 -0.22584
# Poissons Ratio (y) = 0.34080 0.36031
# Poissons Ratio (z) = -0.15470 0.35690
#
# Static dielectric constant tensor:
#      x y z
#    x 4.150810 0.000000 0.154440 
#    y 0.000000 4.067210 0.000000 
#    z 0.154440 0.000000 3.784440 
# 
# 
# High freq. dielectric constant tensor:
#      x y z
#    x 1.901720 0.000000 0.004440 
#    y 0.000000 1.895920 0.000000 
#    z 0.004440 0.000000 1.875380 
# 
# From -- ./inp_files/47274.got.cif
#   From: 2010.06.25/outbox.cif.g09.slc.cpg/sg15_24_cif.got.tgz:47274.got - 2010.06.28 07:06:18.
