data_PCOD8147448
_publ_section_title
;
Structure prediction by ZEFSAII (Michael W. Deem and Ramdas Pophale) SiO2 
 PCOD8147448
Probable space group: C 2/C
;
_chemical_formula_sum "Si O2"
_cell_formula_units_Z 40
_cell_length_a 7.477236
_cell_length_b 23.025932
_cell_length_c 9.038634
_cell_angle_alpha 90.000000
_cell_angle_beta 97.085191
_cell_angle_gamma 90.000000
_cell_volume 1544.301321
_symmetry_space_group_name_H-M "C 2/C"
_symmetry_group_IT_number 15
_symmetry_cell_setting 'monoclinic'
loop_
_space_group_symop_operation_xyz
x,y,z
-x,y,1/2-z
-x,-y,-z
x,-y,1/2+z
1/2+x,1/2+y,z
1/2-x,1/2+y,1/2-z
1/2-x,1/2-y,-z
1/2+x,1/2-y,1/2+z
loop_
_atom_site_type_symbol
_atom_site_label
_atom_site_fract_x
_atom_site_fract_y
_atom_site_fract_z
Si Si1 0.409695 0.226666 0.918626
Si Si2 0.154620 0.204027 0.643237
Si Si3 0.333833 0.084746 0.633869
Si Si4 0.563097 0.108689 0.415407
Si Si5 0.626964 0.473852 0.634412
O O1 0.343997 0.229457 0.736853
O O2 0.250000 0.250000 0.000000
O O3 0.592697 0.261227 0.987706
O O4 0.430335 0.160049 0.965669
O O5 0.186968 0.136601 0.605902
O O6 0.000000 0.208727 0.750000
O O7 0.500000 0.105046 0.750000
O O8 0.407814 0.068208 0.474736
O O9 0.251824 0.027157 0.701556
O O10 0.500000 0.131578 0.250000
O O11 0.755707 0.078227 0.420909
O O12 0.500000 0.448540 0.750000
O O13 0.500000 0.500000 0.500000
#
# Coordination Sequence:
#
# PCOD8147448 Si02
#       5
#     8   8   8   8   8
#     4  10  22  43  73 107 150 191 246 305 367 438
#     4  10  22  43  74 109 148 197 248 304 367 446
#     4  12  24  45  74 106 146 196 245 305 373 446
#     4  12  25  46  68 105 150 192 238 306 377 429
#     4  12  27  46  74 107 139 193 251 309 369 442
#
# _framework density 25.901679000000001
#
# number of rings (size 3 to 8) (size 9 to 14) (size 15 to 20)
#    0.000    0.800    2.000    6.000    5.600    0.800 
#    0.000    0.000    0.000    0.000    0.000    0.000 
#    0.000    0.000    0.000    0.000    0.000    0.000 
#
# Total GULP energy -247914.421986 kJ/mol
# GULP energy per Si atom -12395.721099 kJ/mol
# Density = 2.584273 g / cm^3
# Si number density = 25.901679 Si / 1000 Ang^3
#
#
#
# Elastic Constant Matrix: (Units=GPa)
#
#
# Indices 1 2 3 4 5 6 
#
# 1 133.4988 20.2161 28.7478 0.0000 12.0241 0.0000
# 2 20.2161 89.3436 7.7908 0.0000 7.1429 0.0000
# 3 28.7478 7.7908 142.6998 0.0000 4.9758 0.0000
# 4 0.0000 0.0000 0.0000 -45.1101 0.0000 40.5584
# 5 12.0241 7.1429 4.9758 0.0000 41.5627 0.0000
# 6 0.0000 0.0000 0.0000 40.5584 0.0000 23.6947
#
#
#
# Elastic Compliance Matrix: (Units=1/GPa)
#
#
# Indices 1 2 3 4 5 6 
#
# 1 0.008227 -0.001576 -0.001504 0.000000 -0.001929 0.000000
# 2 -0.001576 0.011694 -0.000268 0.000000 -0.001522 0.000000
# 3 -0.001504 -0.000268 0.007339 0.000000 -0.000397 0.000000
# 4 0.000000 0.000000 0.000000 -0.008731 0.000000 0.014945
# 5 -0.001929 -0.001522 -0.000397 0.000000 0.024927 0.000000
# 6 0.000000 0.000000 0.000000 0.014945 0.000000 0.016622
#
#
# Mechanical properties :
#
#
# Convention : Reuss Voigt Hill
#
# Bulk Modulus (GPa) = 48.62770 53.22796 50.92783
# Shear Modulus (GPa) = 67.90706 24.61530 46.26118
#
# Velocity S-wave (km/s) = 5.12583 3.08610 4.23073
# Velocity P-wave (km/s) = 7.33805 5.77003 6.60076
#
# Compressibility (1/GPa) = 0.02056441
#
# Stress axis : x y z
#
# Youngs Moduli (GPa) = 121.55049 85.51097 136.25453
#
# Poissons Ratio (x) = 0.13478 0.20494
# Poissons Ratio (y) = 0.19158 0.03650
# Poissons Ratio (z) = 0.18282 0.02291
#
# Static dielectric constant tensor:
#      x y z
#    x 5.526080 0.000000 0.148840 
#    y 0.000000 4.664100 0.000000 
#    z 0.148840 0.000000 5.187660 
# 
# 
# High freq. dielectric constant tensor:
#      x y z
#    x 2.076350 0.000000 -0.013880 
#    y 0.000000 2.018810 0.000000 
#    z -0.013880 0.000000 2.060400 
# 
# From -- ./inp_files/23737.got.cif
#   From: 2010.06.25/outbox.cif.g09.slc.cpg/sg15_12_cif.got.tgz:23737.got - 2010.06.28 07:06:18.
