data_PCOD8147622
_publ_section_title
;
Structure prediction by ZEFSAII (Michael W. Deem and Ramdas Pophale) SiO2 
 PCOD8147622
Probable space group: C 2/C
;
_chemical_formula_sum "Si O2"
_cell_formula_units_Z 52
_cell_length_a 9.261231
_cell_length_b 25.797717
_cell_length_c 18.604125
_cell_angle_alpha 90.000000
_cell_angle_beta 35.345187
_cell_angle_gamma 90.000000
_cell_volume 2571.363234
_symmetry_space_group_name_H-M "C 2/C"
_symmetry_group_IT_number 15
_symmetry_cell_setting 'monoclinic'
loop_
_space_group_symop_operation_xyz
x,y,z
-x,y,1/2-z
-x,-y,-z
x,-y,1/2+z
1/2+x,1/2+y,z
1/2-x,1/2+y,1/2-z
1/2-x,1/2-y,-z
1/2+x,1/2-y,1/2+z
loop_
_atom_site_type_symbol
_atom_site_label
_atom_site_fract_x
_atom_site_fract_y
_atom_site_fract_z
Si Si1 0.376746 0.627001 0.020216
Si Si2 0.825484 0.312406 0.382989
Si Si3 0.576027 0.103566 0.546742
Si Si4 0.376162 0.436591 0.658173
Si Si5 0.772392 0.554675 0.788161
Si Si6 0.905012 0.631291 0.121375
Si Si7 0.000000 0.786269 0.750000
O O1 0.536513 0.676717 0.981089
O O2 0.540545 0.589799 0.904076
O O3 0.277763 0.594667 0.128729
O O4 0.144493 0.648839 0.069593
O O5 0.894680 0.339354 0.429916
O O6 0.000000 0.338315 0.250000
O O7 0.880801 0.250363 0.361403
O O8 0.358075 0.070556 0.673099
O O9 0.505786 0.112968 0.492981
O O10 0.829255 0.071243 0.452293
O O11 0.322588 0.496469 0.670216
O O12 0.232678 0.417266 0.786869
O O13 0.000000 0.562645 0.750000
O O14 0.714382 0.679219 0.198090
#
# Coordination Sequence:
#
# PCOD8147622 Si02
#       7
#     8   8   8   8   8   8   4
#     4  11  22  42  68  94 127 163 219 274 300 382
#     4   9  19  44  69  90 116 166 220 253 314 380
#     4  11  22  43  66  90 136 168 204 271 318 380
#     4  11  24  41  64  92 128 176 219 252 310 386
#     4  12  21  40  68  94 121 177 226 252 314 372
#     4  12  25  42  60  97 137 165 203 269 330 371
#     4  10  22  44  68  88 130 168 214 256 334 384
#
# _framework density 20.222736999999999
#
# number of rings (size 3 to 8) (size 9 to 14) (size 15 to 20)
#    0.462    0.615    6.154    1.846    2.154    2.462 
#    2.769    0.000    3.385    0.000    0.000    0.000 
#    0.000    0.000    0.000    0.000    0.000    0.000 
#
# Total GULP energy -322420.838159 kJ/mol
# GULP energy per Si atom -12400.801468 kJ/mol
# Density = 2.017671 g / cm^3
# Si number density = 20.222737 Si / 1000 Ang^3
#
#
#
# Elastic Constant Matrix: (Units=GPa)
#
#
# Indices 1 2 3 4 5 6 
#
# 1 106.9545 37.2574 36.8837 0.0003 3.2083 -0.0019
# 2 37.2574 91.8909 25.1705 0.0005 -11.1593 -0.0002
# 3 36.8837 25.1705 87.3977 -0.0023 12.4210 -0.0008
# 4 0.0003 0.0005 -0.0023 31.7686 0.0000 -2.8635
# 5 3.2083 -11.1593 12.4210 0.0000 36.6262 0.0006
# 6 -0.0019 -0.0002 -0.0008 -2.8635 0.0006 2.7121
#
#
#
# Elastic Compliance Matrix: (Units=1/GPa)
#
#
# Indices 1 2 3 4 5 6 
#
# 1 0.012078 -0.003970 -0.003815 0.000000 -0.000974 0.000007
# 2 -0.003970 0.014058 -0.003185 -0.000001 0.005711 -0.000005
# 3 -0.003815 -0.003185 0.014772 0.000002 -0.005646 0.000005
# 4 0.000000 -0.000001 0.000002 0.034788 -0.000002 0.036730
# 5 -0.000974 0.005711 -0.005646 -0.000002 0.031043 -0.000011
# 6 0.000007 -0.000005 0.000005 0.036730 -0.000011 0.407493
#
#
# Mechanical properties :
#
#
# Convention : Reuss Voigt Hill
#
# Bulk Modulus (GPa) = 52.72342 53.87402 53.29872
# Shear Modulus (GPa) = 9.21669 26.68349 17.95009
#
# Velocity S-wave (km/s) = 2.13717 3.63641 2.98253
# Velocity P-wave (km/s) = 5.67608 6.65803 6.18657
#
# Compressibility (1/GPa) = 0.01896690
#
# Stress axis : x y z
#
# Youngs Moduli (GPa) = 82.79748 71.13318 67.69697
#
# Poissons Ratio (x) = 0.28241 0.25828
# Poissons Ratio (y) = 0.32871 0.21561
# Poissons Ratio (z) = 0.31589 0.22656
#
# Static dielectric constant tensor:
#      x y z
#    x 3.539450 0.000000 0.062140 
#    y 0.000000 3.579870 0.000000 
#    z 0.062140 0.000000 3.997780 
# 
# 
# High freq. dielectric constant tensor:
#      x y z
#    x 1.775650 0.000000 0.002970 
#    y 0.000000 1.784150 0.000000 
#    z 0.002970 0.000000 1.806510 
# 
# From -- ./inp_files/193674.got.cif
#   From: 2010.06.25/outbox.cif.g09.slc.cpg/sg15_97_cif.got.tgz:193674.got - 2010.06.28 07:06:18.
