data_PCOD8147161
_publ_section_title
;
Structure prediction by ZEFSAII (Michael W. Deem and Ramdas Pophale) SiO2 
 PCOD8147161
Probable space group: C 2/C
;
_chemical_formula_sum "Si O2"
_cell_formula_units_Z 40
_cell_length_a 24.005707
_cell_length_b 8.536140
_cell_length_c 16.053852
_cell_angle_alpha 90.000000
_cell_angle_beta 146.803314
_cell_angle_gamma 90.000000
_cell_volume 1801.155329
_symmetry_space_group_name_H-M "C 2/C"
_symmetry_group_IT_number 15
_symmetry_cell_setting 'monoclinic'
loop_
_space_group_symop_operation_xyz
x,y,z
-x,y,1/2-z
-x,-y,-z
x,-y,1/2+z
1/2+x,1/2+y,z
1/2-x,1/2+y,1/2-z
1/2-x,1/2-y,-z
1/2+x,1/2-y,1/2+z
loop_
_atom_site_type_symbol
_atom_site_label
_atom_site_fract_x
_atom_site_fract_y
_atom_site_fract_z
Si Si1 0.676486 0.413424 0.008714
Si Si2 0.388762 0.102333 0.140532
Si Si3 0.051990 0.859950 0.014023
Si Si4 0.627990 0.771157 0.294531
Si Si5 0.715471 0.755726 0.843514
O O1 0.590463 0.403217 0.970443
O O2 0.766961 0.283097 0.126521
O O3 0.726474 0.580576 0.086116
O O4 0.628275 0.382183 0.855896
O O5 0.500000 0.150261 0.250000
O O6 0.362078 0.234285 0.175999
O O7 0.388217 0.925059 0.170261
O O8 0.301035 0.119689 0.959781
O O9 0.147611 0.780109 0.178380
O O10 0.961721 0.736325 0.885544
O O11 0.000000 0.000000 0.000000
#
# Coordination Sequence:
#
# PCOD8147161 Si02
#       5
#     8   8   8   8   8
#     4  10  24  45  73  92 139 173 230 277 333 405
#     4  10  22  42  73  93 133 176 227 269 332 401
#     4  12  28  40  68 105 139 176 221 281 346 394
#     4  10  24  46  71  97 126 184 226 272 337 403
#     4  10  26  42  64 105 130 175 224 278 334 396
#
# _framework density 22.207967
#
# number of rings (size 3 to 8) (size 9 to 14) (size 15 to 20)
#    0.000    1.600    0.000    1.800   16.800    4.800 
#    0.000    0.000    0.000    0.000    0.000    0.000 
#    0.000    0.000    0.000    0.000    0.000    0.000 
#
# Total GULP energy -247828.731426 kJ/mol
# GULP energy per Si atom -12391.436571 kJ/mol
# Density = 2.215742 g / cm^3
# Si number density = 22.207967 Si / 1000 Ang^3
#
#
#
# Elastic Constant Matrix: (Units=GPa)
#
#
# Indices 1 2 3 4 5 6 
#
# 1 111.7249 17.1106 24.9213 0.0000 29.8859 0.0000
# 2 17.1106 103.6780 55.0993 0.0000 -2.1285 0.0000
# 3 24.9213 55.0993 182.8990 0.0000 2.2724 0.0000
# 4 0.0000 0.0000 0.0000 34.0109 0.0000 2.8676
# 5 29.8859 -2.1285 2.2724 0.0000 35.5948 0.0000
# 6 0.0000 0.0000 0.0000 2.8676 0.0000 19.4226
#
#
#
# Elastic Compliance Matrix: (Units=1/GPa)
#
#
# Indices 1 2 3 4 5 6 
#
# 1 0.012181 -0.001675 -0.001028 0.000000 -0.010262 0.000000
# 2 -0.001675 0.011744 -0.003338 0.000000 0.002322 0.000000
# 3 -0.001028 -0.003338 0.006610 0.000000 0.000241 0.000000
# 4 0.000000 0.000000 0.000000 0.029773 0.000000 -0.004396
# 5 -0.010262 0.002322 0.000241 0.000000 0.036834 0.000000
# 6 0.000000 0.000000 0.000000 -0.004396 0.000000 0.052136
#
#
# Mechanical properties :
#
#
# Convention : Reuss Voigt Hill
#
# Bulk Modulus (GPa) = 54.19141 65.84047 60.01594
# Shear Modulus (GPa) = 29.84890 37.88371 33.86631
#
# Velocity S-wave (km/s) = 3.67012 4.13469 3.90931
# Velocity P-wave (km/s) = 6.51264 7.24609 6.88913
#
# Compressibility (1/GPa) = 0.01845311
#
# Stress axis : x y z
#
# Youngs Moduli (GPa) = 82.09239 85.15339 151.28004
#
# Poissons Ratio (x) = 0.14262 0.15548
# Poissons Ratio (y) = 0.13749 0.50504
# Poissons Ratio (z) = 0.08437 0.28428
#
# Static dielectric constant tensor:
#      x y z
#    x 4.183160 0.000000 0.245080 
#    y 0.000000 3.817290 0.000000 
#    z 0.245080 0.000000 4.304090 
# 
# 
# High freq. dielectric constant tensor:
#      x y z
#    x 1.869170 0.000000 0.021160 
#    y 0.000000 1.866370 0.000000 
#    z 0.021160 0.000000 1.890240 
# 
# From -- ./inp_files/221974.got.cif
#   From: 2010.06.25/outbox.cif.g09.slc.cpg/sg15_111_cif.got.tgz:221974.got - 2010.06.28 07:06:18.
