data_PCOD8147152
_publ_section_title
;
Structure prediction by ZEFSAII (Michael W. Deem and Ramdas Pophale) SiO2 
 PCOD8147152
Probable space group: C 2/C
;
_chemical_formula_sum "Si O2"
_cell_formula_units_Z 60
_cell_length_a 20.642120
_cell_length_b 24.038082
_cell_length_c 8.471776
_cell_angle_alpha 90.000000
_cell_angle_beta 139.905184
_cell_angle_gamma 90.000000
_cell_volume 2707.391986
_symmetry_space_group_name_H-M "C 2/C"
_symmetry_group_IT_number 15
_symmetry_cell_setting 'monoclinic'
loop_
_space_group_symop_operation_xyz
x,y,z
-x,y,1/2-z
-x,-y,-z
x,-y,1/2+z
1/2+x,1/2+y,z
1/2-x,1/2+y,1/2-z
1/2-x,1/2-y,-z
1/2+x,1/2-y,1/2+z
loop_
_atom_site_type_symbol
_atom_site_label
_atom_site_fract_x
_atom_site_fract_y
_atom_site_fract_z
Si Si1 0.500000 0.120279 0.750000
Si Si2 0.358543 0.087669 0.740342
Si Si3 0.682226 0.657587 0.266506
Si Si4 0.601659 0.450992 0.525137
Si Si5 0.232014 0.981205 0.490464
Si Si6 0.827118 0.695424 0.294197
Si Si7 0.791926 0.626694 0.927757
Si Si8 0.384341 0.310354 0.535809
O O1 0.462243 0.084529 0.831680
O O2 0.408493 0.157961 0.529315
O O3 0.276892 0.121011 0.490445
O O4 0.372893 0.119749 0.935633
O O5 0.317498 0.025784 0.692124
O O6 0.717504 0.691001 0.175548
O O7 0.647630 0.700444 0.339946
O O8 0.591953 0.613496 0.063230
O O9 0.500000 0.470556 0.250000
O O10 0.696730 0.453117 0.585804
O O11 0.631612 0.493101 0.721682
O O12 0.287054 0.932854 0.499077
O O13 0.864409 0.758477 0.383306
O O14 0.820983 0.677435 0.099010
O O15 0.681116 0.637981 0.648864
O O16 0.500000 0.328049 0.750000
#
# Coordination Sequence:
#
# PCOD8147152 Si02
#       8
#     4   8   8   8   8   8   8   8
#     4  10  22  42  72  96 130 170 226 282 322 402
#     4   9  21  41  62  96 127 173 214 264 334 389
#     4   9  21  38  63  89 129 169 213 263 331 393
#     4  11  22  36  61  97 130 177 221 265 324 403
#     4  11  21  40  61  90 137 176 213 270 334 399
#     4  11  21  43  67  91 127 174 217 277 339 387
#     4  11  23  40  66  92 134 171 217 272 331 396
#     4  11  24  41  64  97 129 171 224 268 329 399
#
# _framework density 22.161549000000001
#
# number of rings (size 3 to 8) (size 9 to 14) (size 15 to 20)
#    0.000    1.600    3.333    1.200    1.867    1.067 
#    0.000    2.667    2.933    0.000    0.000    0.000 
#    0.000    0.000    0.000    0.000    0.000    0.000 
#
# Total GULP energy -371842.147793 kJ/mol
# GULP energy per Si atom -12394.738260 kJ/mol
# Density = 2.211111 g / cm^3
# Si number density = 22.161549 Si / 1000 Ang^3
#
#
#
# Elastic Constant Matrix: (Units=GPa)
#
#
# Indices 1 2 3 4 5 6 
#
# 1 156.0246 43.1640 34.6700 0.0000 -15.7467 0.0000
# 2 43.1640 70.5348 21.6318 0.0000 -6.7781 0.0000
# 3 34.6700 21.6318 59.6401 0.0000 -11.9320 0.0000
# 4 0.0000 0.0000 0.0000 30.3954 0.0000 -9.9259
# 5 -15.7467 -6.7781 -11.9320 0.0000 32.9730 0.0000
# 6 0.0000 0.0000 0.0000 -9.9259 0.0000 36.4322
#
#
#
# Elastic Compliance Matrix: (Units=1/GPa)
#
#
# Indices 1 2 3 4 5 6 
#
# 1 0.008400 -0.004017 -0.003007 0.000000 0.002098 0.000000
# 2 -0.004017 0.017923 -0.004110 0.000000 0.000279 0.000000
# 3 -0.003007 -0.004110 0.021075 0.000000 0.005346 0.000000
# 4 0.000000 0.000000 0.000000 0.036113 0.000000 0.009839
# 5 0.002098 0.000279 0.005346 0.000000 0.033322 0.000000
# 6 0.000000 0.000000 0.000000 0.009839 0.000000 0.030129
#
#
# Mechanical properties :
#
#
# Convention : Reuss Voigt Hill
#
# Bulk Modulus (GPa) = 39.79046 53.90347 46.84696
# Shear Modulus (GPa) = 28.15232 32.40904 30.28068
#
# Velocity S-wave (km/s) = 3.56803 3.82828 3.70044
# Velocity P-wave (km/s) = 5.91338 6.62697 6.28032
#
# Compressibility (1/GPa) = 0.02513165
#
# Stress axis : x y z
#
# Youngs Moduli (GPa) = 119.04257 55.79491 47.44910
#
# Poissons Ratio (x) = 0.22413 0.14266
# Poissons Ratio (y) = 0.47819 0.19501
# Poissons Ratio (z) = 0.35791 0.22931
#
# Static dielectric constant tensor:
#      x y z
#    x 4.325130 0.000000 -0.254240 
#    y 0.000000 3.874750 0.000000 
#    z -0.254240 0.000000 3.948200 
# 
# 
# High freq. dielectric constant tensor:
#      x y z
#    x 1.880180 0.000000 -0.017850 
#    y 0.000000 1.859870 0.000000 
#    z -0.017850 0.000000 1.855990 
# 
# From -- ./inp_files/58756.got.cif
#   From: 2010.06.25/outbox.cif.g09.slc.cpg/sg15_30_cif.got.tgz:58756.got - 2010.06.28 07:06:18.
