data_PCOD8147847
_publ_section_title
;
Structure prediction by ZEFSAII (Michael W. Deem and Ramdas Pophale) SiO2 
 PCOD8147847
Probable space group: C 2/C
;
_chemical_formula_sum "Si O2"
_cell_formula_units_Z 60
_cell_length_a 7.663100
_cell_length_b 23.648285
_cell_length_c 19.027074
_cell_angle_alpha 90.000000
_cell_angle_beta 134.530910
_cell_angle_gamma 90.000000
_cell_volume 2458.033744
_symmetry_space_group_name_H-M "C 2/C"
_symmetry_group_IT_number 15
_symmetry_cell_setting 'monoclinic'
loop_
_space_group_symop_operation_xyz
x,y,z
-x,y,1/2-z
-x,-y,-z
x,-y,1/2+z
1/2+x,1/2+y,z
1/2-x,1/2+y,1/2-z
1/2-x,1/2-y,-z
1/2+x,1/2-y,1/2+z
loop_
_atom_site_type_symbol
_atom_site_label
_atom_site_fract_x
_atom_site_fract_y
_atom_site_fract_z
Si Si1 0.330541 0.074709 0.454662
Si Si2 0.004119 0.979300 0.421874
Si Si3 0.018504 0.385181 0.652929
Si Si4 0.743163 0.635331 0.856967
Si Si5 0.418516 0.653345 0.544316
Si Si6 0.021834 0.833513 0.672390
Si Si7 0.000000 0.478919 0.750000
Si Si8 0.917734 0.707731 0.647418
O O1 0.221008 0.012961 0.441908
O O2 0.355843 0.086210 0.379365
O O3 0.585989 0.083486 0.568345
O O4 0.134918 0.123673 0.420604
O O5 0.745077 0.984668 0.306949
O O6 0.047448 0.913103 0.432832
O O7 0.000000 0.000000 0.500000
O O8 0.810576 0.339827 0.573097
O O9 0.195026 0.351491 0.757521
O O10 0.915339 0.440597 0.660995
O O11 0.500000 0.611204 0.750000
O O12 0.342274 0.675354 0.600984
O O13 0.902879 0.670770 0.848137
O O14 0.638562 0.685815 0.568617
O O15 0.000000 0.838516 0.750000
O O16 0.938832 0.771440 0.624021
O O17 0.000000 0.703599 0.750000
#
# Coordination Sequence:
#
# PCOD8147847 Si02
#       8
#     8   8   8   8   8   8   4   8
#     4  10  23  45  69  97 144 180 240 297 354 428
#     4  12  25  43  70 106 139 186 236 293 364 426
#     4  10  22  45  71 105 139 184 241 298 352 429
#     4  11  24  44  64 100 139 188 239 286 361 439
#     4  11  25  46  70 104 148 186 239 301 357 438
#     4   9  20  44  71 101 135 187 236 302 358 415
#     4  12  24  42  70 106 142 180 240 288 354 438
#     4  11  23  45  70  98 145 190 240 300 362 423
#
# _framework density 24.409756000000002
#
# number of rings (size 3 to 8) (size 9 to 14) (size 15 to 20)
#    0.000    1.333    4.000    0.800    0.933    3.733 
#    8.400    2.667    0.000    0.000    0.000    0.000 
#    0.000    0.000    0.000    0.000    0.000    0.000 
#
# Total GULP energy -371749.339197 kJ/mol
# GULP energy per Si atom -12391.644640 kJ/mol
# Density = 2.435420 g / cm^3
# Si number density = 24.409756 Si / 1000 Ang^3
#
#
#
# Elastic Constant Matrix: (Units=GPa)
#
#
# Indices 1 2 3 4 5 6 
#
# 1 92.6690 34.4929 32.9215 0.0000 22.7950 0.0000
# 2 34.4929 111.6897 18.6364 0.0000 11.0036 0.0000
# 3 32.9215 18.6364 124.3815 0.0000 32.7312 0.0000
# 4 0.0000 0.0000 0.0000 22.0979 0.0000 5.7121
# 5 22.7950 11.0036 32.7312 0.0000 41.5865 0.0000
# 6 0.0000 0.0000 0.0000 5.7121 0.0000 12.8212
#
#
#
# Elastic Compliance Matrix: (Units=1/GPa)
#
#
# Indices 1 2 3 4 5 6 
#
# 1 0.014053 -0.003514 -0.001779 0.000000 -0.005373 0.000000
# 2 -0.003514 0.010158 -0.000494 0.000000 -0.000373 0.000000
# 3 -0.001779 -0.000494 0.010460 0.000000 -0.007127 0.000000
# 4 0.000000 0.000000 0.000000 0.051143 0.000000 -0.022785
# 5 -0.005373 -0.000373 -0.007127 0.000000 0.032699 0.000000
# 6 0.000000 0.000000 0.000000 -0.022785 0.000000 0.088147
#
#
# Mechanical properties :
#
#
# Convention : Reuss Voigt Hill
#
# Bulk Modulus (GPa) = 43.29532 55.64907 49.47220
# Shear Modulus (GPa) = 22.13058 31.48043 26.80551
#
# Velocity S-wave (km/s) = 3.01429 3.59509 3.31743
# Velocity P-wave (km/s) = 5.46718 6.33090 5.91482
#
# Compressibility (1/GPa) = 0.02309718
#
# Stress axis : x y z
#
# Youngs Moduli (GPa) = 71.16121 98.44807 95.60115
#
# Poissons Ratio (x) = 0.34591 0.17009
# Poissons Ratio (y) = 0.25004 0.04721
# Poissons Ratio (z) = 0.12661 0.04861
#
# Static dielectric constant tensor:
#      x y z
#    x 5.160300 0.000000 0.319280 
#    y 0.000000 4.314440 0.000000 
#    z 0.319280 0.000000 4.890500 
# 
# 
# High freq. dielectric constant tensor:
#      x y z
#    x 1.985230 0.000000 0.007870 
#    y 0.000000 1.943570 0.000000 
#    z 0.007870 0.000000 1.986010 
# 
# From -- ./inp_files/234602.got.cif
#   From: 2010.06.25/outbox.cif.g09.slc.cpg/sg15_118_cif.got.tgz:234602.got - 2010.06.28 07:06:18.
