data_PCOD8147487
_publ_section_title
;
Structure prediction by ZEFSAII (Michael W. Deem and Ramdas Pophale) SiO2 
 PCOD8147487
Probable space group: C 2/C
;
_chemical_formula_sum "Si O2"
_cell_formula_units_Z 60
_cell_length_a 21.105052
_cell_length_b 12.050064
_cell_length_c 24.637119
_cell_angle_alpha 90.000000
_cell_angle_beta 152.224249
_cell_angle_gamma 90.000000
_cell_volume 2919.866586
_symmetry_space_group_name_H-M "C 2/C"
_symmetry_group_IT_number 15
_symmetry_cell_setting 'monoclinic'
loop_
_space_group_symop_operation_xyz
x,y,z
-x,y,1/2-z
-x,-y,-z
x,-y,1/2+z
1/2+x,1/2+y,z
1/2-x,1/2+y,1/2-z
1/2-x,1/2-y,-z
1/2+x,1/2-y,1/2+z
loop_
_atom_site_type_symbol
_atom_site_label
_atom_site_fract_x
_atom_site_fract_y
_atom_site_fract_z
Si Si1 0.093385 0.103501 0.076034
Si Si2 0.279562 0.920202 0.408511
Si Si3 0.958274 0.218863 0.156906
Si Si4 0.500000 0.939206 0.750000
Si Si5 0.706161 0.931832 0.474767
Si Si6 0.955840 0.689533 0.419739
Si Si7 0.846469 0.306116 0.720248
Si Si8 0.311956 0.610789 0.232809
O O1 0.233251 0.099203 0.147561
O O2 0.114649 0.102911 0.155371
O O3 0.020518 0.213493 0.002685
O O4 0.000000 0.000000 0.000000
O O5 0.436149 0.909271 0.508307
O O6 0.212540 0.797672 0.358626
O O7 0.275503 0.977709 0.464135
O O8 0.192460 0.992806 0.300632
O O9 0.886456 0.327523 0.076431
O O10 0.000000 0.242119 0.250000
O O11 0.101266 0.198262 0.236042
O O12 0.855942 0.113753 0.072421
O O13 0.463273 0.862901 0.773490
O O14 0.368265 0.011633 0.633258
O O15 0.903447 0.734461 0.321718
O O16 0.840960 0.649680 0.373790
#
# Coordination Sequence:
#
# PCOD8147487 Si02
#       8
#     8   8   8   4   8   8   8   8
#     4  10  23  41  61  93 128 165 209 267 316 377
#     4  11  22  44  66  94 130 171 212 269 322 385
#     4  11  24  44  64  99 131 164 221 269 319 395
#     4  12  24  44  68  94 128 178 216 264 336 384
#     4  11  25  42  68  94 132 170 214 274 327 382
#     4  10  22  44  63  95 131 166 217 264 317 390
#     4  10  24  41  63  95 128 165 220 263 314 396
#     4  11  24  39  68  94 124 173 211 263 327 382
#
# _framework density 20.548883
#
# number of rings (size 3 to 8) (size 9 to 14) (size 15 to 20)
#    0.000    1.333    3.333    1.200    3.733    2.667 
#    2.400    0.000    0.000    0.000    0.000    0.000 
#    0.000    0.000    0.000    0.000    0.000    0.000 
#
# Total GULP energy -371919.735620 kJ/mol
# GULP energy per Si atom -12397.324521 kJ/mol
# Density = 2.050211 g / cm^3
# Si number density = 20.548883 Si / 1000 Ang^3
#
#
#
# Elastic Constant Matrix: (Units=GPa)
#
#
# Indices 1 2 3 4 5 6 
#
# 1 83.2235 32.5749 23.6104 -0.0047 1.0747 0.0004
# 2 32.5749 55.1617 30.6404 -0.0022 -6.7871 0.0012
# 3 23.6104 30.6404 97.4790 -0.0154 -8.7360 -0.0054
# 4 -0.0047 -0.0022 -0.0154 40.5277 -0.0054 1.4118
# 5 1.0747 -6.7871 -8.7360 -0.0054 32.9950 -0.0012
# 6 0.0004 0.0012 -0.0054 1.4118 -0.0012 28.3508
#
#
#
# Elastic Compliance Matrix: (Units=1/GPa)
#
#
# Indices 1 2 3 4 5 6 
#
# 1 0.015953 -0.009054 -0.001261 0.000000 -0.002716 0.000000
# 2 -0.009054 0.027349 -0.006016 -0.000001 0.004328 -0.000002
# 3 -0.001261 -0.006016 0.012648 0.000005 0.002152 0.000003
# 4 0.000000 -0.000001 0.000005 0.024717 0.000005 -0.001231
# 5 -0.002716 0.004328 0.002152 0.000005 0.031856 0.000001
# 6 0.000000 -0.000002 0.000003 -0.001231 0.000001 0.035334
#
#
# Mechanical properties :
#
#
# Convention : Reuss Voigt Hill
#
# Bulk Modulus (GPa) = 42.94164 45.50174 44.22169
# Shear Modulus (GPa) = 26.55584 30.31058 28.43321
#
# Velocity S-wave (km/s) = 3.59879 3.84480 3.72383
# Velocity P-wave (km/s) = 6.18151 6.47312 6.32899
#
# Compressibility (1/GPa) = 0.02328742
#
# Stress axis : x y z
#
# Youngs Moduli (GPa) = 62.68542 36.56386 79.06409
#
# Poissons Ratio (x) = 0.33106 0.09972
# Poissons Ratio (y) = 0.56756 0.47564
# Poissons Ratio (z) = 0.07907 0.21996
#
# Static dielectric constant tensor:
#      x y z
#    x 3.828000 0.000000 0.114510 
#    y 0.000000 3.633820 -0.000010 
#    z 0.114510 -0.000010 3.750210 
# 
# 
# High freq. dielectric constant tensor:
#      x y z
#    x 1.799820 0.000000 -0.001200 
#    y 0.000000 1.798790 0.000000 
#    z -0.001200 0.000000 1.825820 
# 
# From -- ./inp_files/111628.got.cif
#   From: 2010.06.25/outbox.cif.g09.slc.cpg/sg15_56_cif.got.tgz:111628.got - 2010.06.28 07:06:18.
