data_PCOD8147123
_publ_section_title
;
Structure prediction by ZEFSAII (Michael W. Deem and Ramdas Pophale) SiO2 
 PCOD8147123
Probable space group: C 2/C
;
_chemical_formula_sum "Si O2"
_cell_formula_units_Z 52
_cell_length_a 19.397862
_cell_length_b 8.462755
_cell_length_c 18.248543
_cell_angle_alpha 90.000000
_cell_angle_beta 53.008865
_cell_angle_gamma 90.000000
_cell_volume 2392.726571
_symmetry_space_group_name_H-M "C 2/C"
_symmetry_group_IT_number 15
_symmetry_cell_setting 'monoclinic'
loop_
_space_group_symop_operation_xyz
x,y,z
-x,y,1/2-z
-x,-y,-z
x,-y,1/2+z
1/2+x,1/2+y,z
1/2-x,1/2+y,1/2-z
1/2-x,1/2-y,-z
1/2+x,1/2-y,1/2+z
loop_
_atom_site_type_symbol
_atom_site_label
_atom_site_fract_x
_atom_site_fract_y
_atom_site_fract_z
Si Si1 0.000000 0.147188 0.750000
Si Si2 0.156596 0.663254 0.075053
Si Si3 0.401334 0.006370 0.537799
Si Si4 0.946438 0.973767 0.644707
Si Si5 0.095537 0.846476 0.466478
Si Si6 0.697204 0.766489 0.293178
Si Si7 0.241774 0.515236 0.147469
O O1 0.078558 0.238601 0.660656
O O2 0.045386 0.036954 0.779595
O O3 0.175758 0.524174 0.121993
O O4 0.250000 0.750000 0.000000
O O5 0.116011 0.590516 0.028187
O O6 0.353106 0.100990 0.630946
O O7 0.500000 0.000000 0.500000
O O8 0.363902 0.828775 0.558467
O O9 0.857815 0.879262 0.700795
O O10 0.022212 0.851998 0.575471
O O11 0.945328 0.118597 0.587472
O O12 0.161509 0.988748 0.445898
O O13 0.767833 0.680220 0.300644
O O14 0.735231 0.855256 0.199080
#
# Coordination Sequence:
#
# PCOD8147123 Si02
#       7
#     4   8   8   8   8   8   8
#     4  12  28  42  74 102 146 190 234 302 372 422
#     4  12  28  47  70 108 149 191 241 306 367 442
#     4  12  24  44  73 103 141 189 244 295 370 432
#     4  10  23  43  67 100 136 179 241 286 363 425
#     4  10  22  42  71  97 134 187 228 294 352 434
#     4  11  24  42  71 100 138 186 237 292 349 445
#     4  11  25  43  69 103 143 182 239 288 367 428
#
# _framework density 21.732530000000001
#
# number of rings (size 3 to 8) (size 9 to 14) (size 15 to 20)
#    0.000    0.923    3.077    2.769   10.769    3.077 
#    0.000    0.000    0.000    0.000    0.000    0.000 
#    0.000    0.000    0.000    0.000    0.000    0.000 
#
# Total GULP energy -322242.326326 kJ/mol
# GULP energy per Si atom -12393.935628 kJ/mol
# Density = 2.168307 g / cm^3
# Si number density = 21.732530 Si / 1000 Ang^3
#
#
#
# Elastic Constant Matrix: (Units=GPa)
#
#
# Indices 1 2 3 4 5 6 
#
# 1 124.0275 34.1802 42.5099 0.0001 16.4709 -0.0002
# 2 34.1802 101.5599 29.9966 0.0002 6.0013 -0.0004
# 3 42.5099 29.9966 82.3640 0.0001 2.2091 -0.0001
# 4 0.0001 0.0002 0.0001 43.3673 0.0000 2.6059
# 5 16.4709 6.0013 2.2091 0.0000 32.7722 0.0000
# 6 -0.0002 -0.0004 -0.0001 2.6059 0.0000 36.8662
#
#
#
# Elastic Compliance Matrix: (Units=1/GPa)
#
#
# Indices 1 2 3 4 5 6 
#
# 1 0.010875 -0.001969 -0.004767 0.000000 -0.004783 0.000000
# 2 -0.001969 0.011491 -0.003145 0.000000 -0.000903 0.000000
# 3 -0.004767 -0.003145 0.015696 0.000000 0.001914 0.000000
# 4 0.000000 0.000000 0.000000 0.023157 0.000000 -0.001637
# 5 -0.004783 -0.000903 0.001914 0.000000 0.032954 0.000000
# 6 0.000000 0.000000 0.000000 -0.001637 0.000000 0.027241
#
#
# Mechanical properties :
#
#
# Convention : Reuss Voigt Hill
#
# Bulk Modulus (GPa) = 54.64576 57.92498 56.28537
# Shear Modulus (GPa) = 33.95008 36.01878 34.98443
#
# Velocity S-wave (km/s) = 3.95673 4.07549 4.01655
# Velocity P-wave (km/s) = 6.78775 6.98982 6.88953
#
# Compressibility (1/GPa) = 0.01829968
#
# Stress axis : x y z
#
# Youngs Moduli (GPa) = 91.95762 87.02287 63.71230
#
# Poissons Ratio (x) = 0.17136 0.30373
# Poissons Ratio (y) = 0.18108 0.20034
# Poissons Ratio (z) = 0.43838 0.27364
#
# Static dielectric constant tensor:
#      x y z
#    x 4.203150 0.000000 -0.058040 
#    y 0.000000 4.006970 0.000000 
#    z -0.058040 0.000000 4.106130 
# 
# 
# High freq. dielectric constant tensor:
#      x y z
#    x 1.855070 0.000000 -0.003740 
#    y 0.000000 1.858300 0.000000 
#    z -0.003740 0.000000 1.861750 
# 
# From -- ./inp_files/209447.got.cif
#   From: 2010.06.25/outbox.cif.g09.slc.cpg/sg15_105_cif.got.tgz:209447.got - 2010.06.28 07:06:18.
