data_PCOD8147528
_publ_section_title
;
Structure prediction by ZEFSAII (Michael W. Deem and Ramdas Pophale) SiO2 
 PCOD8147528
Probable space group: C 2/C
;
_chemical_formula_sum "Si O2"
_cell_formula_units_Z 36
_cell_length_a 9.921796
_cell_length_b 8.464281
_cell_length_c 20.754649
_cell_angle_alpha 90.000000
_cell_angle_beta 114.492318
_cell_angle_gamma 90.000000
_cell_volume 1586.153447
_symmetry_space_group_name_H-M "C 2/C"
_symmetry_group_IT_number 15
_symmetry_cell_setting 'monoclinic'
loop_
_space_group_symop_operation_xyz
x,y,z
-x,y,1/2-z
-x,-y,-z
x,-y,1/2+z
1/2+x,1/2+y,z
1/2-x,1/2+y,1/2-z
1/2-x,1/2-y,-z
1/2+x,1/2-y,1/2+z
loop_
_atom_site_type_symbol
_atom_site_label
_atom_site_fract_x
_atom_site_fract_y
_atom_site_fract_z
Si Si1 0.342709 0.343325 0.732401
Si Si2 0.255145 0.665689 0.904072
Si Si3 0.516525 0.834809 0.466901
Si Si4 0.500000 0.648066 0.750000
Si Si5 0.257966 0.817637 0.647929
O O1 0.500000 0.256180 0.750000
O O2 0.247954 0.305019 0.649741
O O3 0.367322 0.531858 0.747333
O O4 0.269783 0.278599 0.782366
O O5 0.109039 0.654873 0.919340
O O6 0.267163 0.499540 0.871108
O O7 0.402573 0.701934 0.974016
O O8 0.349396 0.780488 0.419696
O O9 0.500000 0.000000 0.500000
O O10 0.429576 0.755682 0.677418
#
# Coordination Sequence:
#
# PCOD8147528 Si02
#       5
#     8   8   8   4   8
#     4  10  22  44  65  92 134 166 210 269 327 378
#     4  11  25  43  68  96 130 173 218 265 327 385
#     4  11  25  45  66  92 134 176 216 267 322 385
#     4  10  24  36  62  98 128 160 210 260 320 382
#     4  12  24  42  68  99 128 169 219 269 322 387
#
# _framework density 22.696417
#
# number of rings (size 3 to 8) (size 9 to 14) (size 15 to 20)
#    0.667    0.444    2.222    3.333    1.556    6.222 
#    0.000    0.000    0.000    0.000    0.000    0.000 
#    0.000    0.000    0.000    0.000    0.000    0.000 
#
# Total GULP energy -223024.986254 kJ/mol
# GULP energy per Si atom -12390.277014 kJ/mol
# Density = 2.264476 g / cm^3
# Si number density = 22.696417 Si / 1000 Ang^3
#
#
#
# Elastic Constant Matrix: (Units=GPa)
#
#
# Indices 1 2 3 4 5 6 
#
# 1 55.4680 42.5520 54.8574 0.0000 10.9005 0.0000
# 2 42.5520 142.6134 71.1586 0.0000 15.3583 0.0000
# 3 54.8574 71.1586 159.4479 0.0000 18.4882 0.0000
# 4 0.0000 0.0000 0.0000 42.1586 0.0000 10.0679
# 5 10.9005 15.3583 18.4882 0.0000 52.7542 0.0000
# 6 0.0000 0.0000 0.0000 10.0679 0.0000 29.7197
#
#
#
# Elastic Compliance Matrix: (Units=1/GPa)
#
#
# Indices 1 2 3 4 5 6 
#
# 1 0.029921 -0.004748 -0.007941 0.000000 -0.002017 0.000000
# 2 -0.004748 0.009856 -0.002654 0.000000 -0.000958 0.000000
# 3 -0.007941 -0.002654 0.010328 0.000000 -0.001206 0.000000
# 4 0.000000 0.000000 0.000000 0.025808 0.000000 -0.008743
# 5 -0.002017 -0.000958 -0.001206 0.000000 0.020074 0.000000
# 6 0.000000 0.000000 0.000000 -0.008743 0.000000 0.036609
#
#
# Mechanical properties :
#
#
# Convention : Reuss Voigt Hill
#
# Bulk Modulus (GPa) = 51.49692 77.18505 64.34099
# Shear Modulus (GPa) = 29.45395 37.52392 33.48894
#
# Velocity S-wave (km/s) = 3.60632 4.07049 3.84541
# Velocity P-wave (km/s) = 6.33083 7.49488 6.93731
#
# Compressibility (1/GPa) = 0.01941864
#
# Stress axis : x y z
#
# Youngs Moduli (GPa) = 33.42107 101.46072 96.82308
#
# Poissons Ratio (x) = 0.48173 0.76892
# Poissons Ratio (y) = 0.15868 0.25696
# Poissons Ratio (z) = 0.26541 0.26927
#
# Static dielectric constant tensor:
#      x y z
#    x 3.973470 0.000000 0.245850 
#    y 0.000000 3.908630 0.000000 
#    z 0.245850 0.000000 4.234860 
# 
# 
# High freq. dielectric constant tensor:
#      x y z
#    x 1.883800 0.000000 0.015560 
#    y 0.000000 1.902060 0.000000 
#    z 0.015560 0.000000 1.905060 
# 
# From -- ./inp_files/235957.got.cif
#   From: 2010.06.25/outbox.cif.g09.slc.cpg/sg15_118_cif.got.tgz:235957.got - 2010.06.28 07:06:18.
