data_PCOD8147475
_publ_section_title
;
Structure prediction by ZEFSAII (Michael W. Deem and Ramdas Pophale) SiO2 
 PCOD8147475
Probable space group: C 2/C
;
_chemical_formula_sum "Si O2"
_cell_formula_units_Z 44
_cell_length_a 9.243453
_cell_length_b 22.566082
_cell_length_c 11.753898
_cell_angle_alpha 90.000000
_cell_angle_beta 123.537585
_cell_angle_gamma 90.000000
_cell_volume 2043.573245
_symmetry_space_group_name_H-M "C 2/C"
_symmetry_group_IT_number 15
_symmetry_cell_setting 'monoclinic'
loop_
_space_group_symop_operation_xyz
x,y,z
-x,y,1/2-z
-x,-y,-z
x,-y,1/2+z
1/2+x,1/2+y,z
1/2-x,1/2+y,1/2-z
1/2-x,1/2-y,-z
1/2+x,1/2-y,1/2+z
loop_
_atom_site_type_symbol
_atom_site_label
_atom_site_fract_x
_atom_site_fract_y
_atom_site_fract_z
Si Si1 0.140865 0.619183 0.957599
Si Si2 0.797326 0.267266 0.648782
Si Si3 0.643668 0.640543 0.237605
Si Si4 0.232206 0.652601 0.761004
Si Si5 0.500000 0.574767 0.750000
Si Si6 0.915851 0.027561 0.071437
O O1 0.222637 0.661681 0.893687
O O2 0.934505 0.616276 0.856702
O O3 0.187235 0.637407 0.106947
O O4 0.227987 0.555886 0.966806
O O5 0.750000 0.250000 0.500000
O O6 0.694215 0.326603 0.642295
O O7 0.734679 0.216789 0.706651
O O8 0.000000 0.278978 0.750000
O O9 0.500000 0.676605 0.250000
O O10 0.558065 0.575994 0.177450
O O11 0.401805 0.616064 0.798009
O O12 0.628754 0.528525 0.867464
O O13 0.000000 0.000000 0.000000
#
# Coordination Sequence:
#
# PCOD8147475 Si02
#       6
#     8   8   8   8   4   8
#     4  10  22  44  62 100 130 175 230 269 341 405
#     4  12  28  46  66 101 137 181 228 288 352 407
#     4  10  24  44  69  95 134 180 227 279 338 408
#     4  11  25  40  69  97 134 176 225 283 335 416
#     4  12  22  42  68 100 132 178 220 282 346 394
#     4  11  22  42  68  96 137 178 222 281 342 403
#
# _framework density 21.530915
#
# number of rings (size 3 to 8) (size 9 to 14) (size 15 to 20)
#    0.000    1.091    5.455    1.091   10.182    1.455 
#    0.000    0.000    0.000    0.000    0.000    0.000 
#    0.000    0.000    0.000    0.000    0.000    0.000 
#
# Total GULP energy -272546.402535 kJ/mol
# GULP energy per Si atom -12388.472843 kJ/mol
# Density = 2.148191 g / cm^3
# Si number density = 21.530915 Si / 1000 Ang^3
#
#
#
# Elastic Constant Matrix: (Units=GPa)
#
#
# Indices 1 2 3 4 5 6 
#
# 1 101.2734 32.6004 24.7827 0.0000 -1.3861 0.0000
# 2 32.6004 92.3542 26.9308 0.0000 -10.3540 0.0000
# 3 24.7827 26.9308 92.5126 0.0000 -13.8279 0.0000
# 4 0.0000 0.0000 0.0000 33.6032 0.0000 -13.3968
# 5 -1.3861 -10.3540 -13.8279 0.0000 43.2500 0.0000
# 6 0.0000 0.0000 0.0000 -13.3968 0.0000 35.2346
#
#
#
# Elastic Compliance Matrix: (Units=1/GPa)
#
#
# Indices 1 2 3 4 5 6 
#
# 1 0.011551 -0.003559 -0.002237 0.000000 -0.001197 0.000000
# 2 -0.003559 0.013067 -0.002520 0.000000 0.002208 0.000000
# 3 -0.002237 -0.002520 0.012646 0.000000 0.003368 0.000000
# 4 0.000000 0.000000 0.000000 0.035076 0.000000 0.013337
# 5 -0.001197 0.002208 0.003368 0.000000 0.024689 0.000000
# 6 0.000000 0.000000 0.000000 0.013337 0.000000 0.033452
#
#
# Mechanical properties :
#
#
# Convention : Reuss Voigt Hill
#
# Bulk Modulus (GPa) = 48.47270 50.52978 49.50124
# Shear Modulus (GPa) = 32.46959 35.87265 34.17112
#
# Velocity S-wave (km/s) = 3.88757 4.08622 3.98813
# Velocity P-wave (km/s) = 6.53551 6.76626 6.65189
#
# Compressibility (1/GPa) = 0.02063017
#
# Stress axis : x y z
#
# Youngs Moduli (GPa) = 86.57181 76.53000 79.07811
#
# Poissons Ratio (x) = 0.27239 0.17691
# Poissons Ratio (y) = 0.30814 0.19929
# Poissons Ratio (z) = 0.19368 0.19287
#
# Static dielectric constant tensor:
#      x y z
#    x 3.917720 0.000000 -0.339350 
#    y 0.000000 4.360980 0.000000 
#    z -0.339350 0.000000 4.473020 
# 
# 
# High freq. dielectric constant tensor:
#      x y z
#    x 1.844660 0.000000 -0.015310 
#    y 0.000000 1.833950 0.000000 
#    z -0.015310 0.000000 1.858770 
# 
# From -- ./inp_files/79461.got.cif
#   From: 2010.06.25/outbox.cif.g09.slc.cpg/sg15_40_cif.got.tgz:79461.got - 2010.06.28 07:06:18.
