data_PCOD8147305
_publ_section_title
;
Structure prediction by ZEFSAII (Michael W. Deem and Ramdas Pophale) SiO2 
 PCOD8147305
Probable space group: C 2/C
;
_chemical_formula_sum "Si O2"
_cell_formula_units_Z 56
_cell_length_a 18.472995
_cell_length_b 21.704649
_cell_length_c 9.234594
_cell_angle_alpha 90.000000
_cell_angle_beta 130.704329
_cell_angle_gamma 90.000000
_cell_volume 2806.892800
_symmetry_space_group_name_H-M "C 2/C"
_symmetry_group_IT_number 15
_symmetry_cell_setting 'monoclinic'
loop_
_space_group_symop_operation_xyz
x,y,z
-x,y,1/2-z
-x,-y,-z
x,-y,1/2+z
1/2+x,1/2+y,z
1/2-x,1/2+y,1/2-z
1/2-x,1/2-y,-z
1/2+x,1/2-y,1/2+z
loop_
_atom_site_type_symbol
_atom_site_label
_atom_site_fract_x
_atom_site_fract_y
_atom_site_fract_z
Si Si1 0.553480 0.451134 0.468519
Si Si2 0.138740 0.750628 0.895389
Si Si3 0.000000 0.637876 0.250000
Si Si4 0.518801 0.183102 0.970087
Si Si5 0.731265 0.488331 0.070928
Si Si6 0.352870 0.965980 0.494727
Si Si7 0.000000 0.570199 0.750000
Si Si8 0.091115 0.112135 0.287290
O O1 0.500000 0.434771 0.250000
O O2 0.500000 0.500000 0.500000
O O3 0.658054 0.475846 0.575293
O O4 0.568146 0.389322 0.584805
O O5 0.110381 0.713901 0.006700
O O6 0.106867 0.820668 0.872251
O O7 0.077537 0.721471 0.685600
O O8 0.250000 0.750000 0.000000
O O9 0.964969 0.681242 0.336508
O O10 0.911822 0.596364 0.085830
O O11 0.500852 0.113217 0.893127
O O12 0.821719 0.469922 0.287489
O O13 0.762503 0.535497 0.984864
O O14 0.685262 0.427360 0.942350
O O15 0.408012 0.027084 0.618541
O O16 0.000000 0.081646 0.250000
#
# Coordination Sequence:
#
# PCOD8147305 Si02
#       8
#     8   8   4   8   8   8   4   8
#     4  12  21  38  58  90 130 168 196 250 315 379
#     4  10  24  44  68  91 114 166 231 267 314 382
#     4  11  24  42  64  90 140 160 199 278 336 372
#     4  10  22  43  67  91 123 169 216 268 327 371
#     4  12  22  34  60  92 129 163 210 242 305 390
#     4  11  23  36  59  99 127 166 205 249 321 390
#     4   9  20  40  62  86 128 168 203 254 314 382
#     4  12  23  41  64  86 128 167 207 263 313 373
#
# _framework density 19.950887000000002
#
# number of rings (size 3 to 8) (size 9 to 14) (size 15 to 20)
#    0.000    1.143    5.714    1.714    6.000    3.429 
#    1.286    0.714    0.000    0.000    0.000    0.000 
#    0.000    0.000    0.000    0.000    0.000    0.000 
#
# Total GULP energy -347128.770624 kJ/mol
# GULP energy per Si atom -12397.456094 kJ/mol
# Density = 1.990548 g / cm^3
# Si number density = 19.950887 Si / 1000 Ang^3
#
#
#
# Elastic Constant Matrix: (Units=GPa)
#
#
# Indices 1 2 3 4 5 6 
#
# 1 114.1015 38.4086 56.4065 0.0000 -3.7798 0.0000
# 2 38.4086 74.9217 31.6151 0.0000 -7.8224 0.0000
# 3 56.4065 31.6151 122.7426 0.0000 -20.9420 0.0000
# 4 0.0000 0.0000 0.0000 14.9567 0.0000 2.0113
# 5 -3.7798 -7.8224 -20.9420 0.0000 44.1866 0.0000
# 6 0.0000 0.0000 0.0000 2.0113 0.0000 24.7634
#
#
#
# Elastic Compliance Matrix: (Units=1/GPa)
#
#
# Indices 1 2 3 4 5 6 
#
# 1 0.012734 -0.004630 -0.005019 0.000000 -0.002109 0.000000
# 2 -0.004630 0.016691 -0.001887 0.000000 0.001664 0.000000
# 3 -0.005019 -0.001887 0.011761 0.000000 0.004810 0.000000
# 4 0.000000 0.000000 0.000000 0.067598 0.000000 -0.005490
# 5 -0.002109 0.001664 0.004810 0.000000 0.025025 0.000000
# 6 0.000000 0.000000 0.000000 -0.005490 0.000000 0.040828
#
#
# Mechanical properties :
#
#
# Convention : Reuss Voigt Hill
#
# Bulk Modulus (GPa) = 55.21183 62.73626 58.97405
# Shear Modulus (GPa) = 24.54001 29.13706 26.83854
#
# Velocity S-wave (km/s) = 3.51097 3.82572 3.67172
# Velocity P-wave (km/s) = 6.64604 7.14342 6.89921
#
# Compressibility (1/GPa) = 0.01811206
#
# Stress axis : x y z
#
# Youngs Moduli (GPa) = 78.52869 59.91173 85.02990
#
# Poissons Ratio (x) = 0.27742 0.42678
# Poissons Ratio (y) = 0.36362 0.16048
# Poissons Ratio (z) = 0.39415 0.11307
#
# Static dielectric constant tensor:
#      x y z
#    x 3.783960 0.000000 -0.004210 
#    y 0.000000 3.490160 0.000000 
#    z -0.004210 0.000000 3.720950 
# 
# 
# High freq. dielectric constant tensor:
#      x y z
#    x 1.793460 0.000000 -0.001200 
#    y 0.000000 1.758970 0.000000 
#    z -0.001200 0.000000 1.777950 
# 
# From -- ./inp_files/51607.got.cif
#   From: 2010.06.25/outbox.cif.g09.slc.cpg/sg15_26_cif.got.tgz:51607.got - 2010.06.28 07:06:18.
