data_PCOD8147044
_publ_section_title
;
Structure prediction by ZEFSAII (Michael W. Deem and Ramdas Pophale) SiO2 
 PCOD8147044
Probable space group: C 2/C
;
_chemical_formula_sum "Si O2"
_cell_formula_units_Z 64
_cell_length_a 31.619230
_cell_length_b 14.667215
_cell_length_c 9.066330
_cell_angle_alpha 90.000000
_cell_angle_beta 132.848413
_cell_angle_gamma 90.000000
_cell_volume 3082.666664
_symmetry_space_group_name_H-M "C 2/C"
_symmetry_group_IT_number 15
_symmetry_cell_setting 'monoclinic'
loop_
_space_group_symop_operation_xyz
x,y,z
-x,y,1/2-z
-x,-y,-z
x,-y,1/2+z
1/2+x,1/2+y,z
1/2-x,1/2+y,1/2-z
1/2-x,1/2-y,-z
1/2+x,1/2-y,1/2+z
loop_
_atom_site_type_symbol
_atom_site_label
_atom_site_fract_x
_atom_site_fract_y
_atom_site_fract_z
Si Si1 0.110538 0.761159 0.283503
Si Si2 0.331504 0.995901 0.263902
Si Si3 0.585581 0.408813 0.736091
Si Si4 0.707930 0.124209 0.577199
Si Si5 0.435982 0.418636 0.132330
Si Si6 0.511399 0.762475 0.111550
Si Si7 0.382323 0.117584 0.624416
Si Si8 0.669326 0.296723 0.113968
O O1 0.151044 0.686392 0.455866
O O2 0.103249 0.846900 0.372973
O O3 0.136538 0.794934 0.191212
O O4 0.048370 0.713929 0.110979
O O5 0.377695 0.049294 0.474792
O O6 0.289030 0.940178 0.271648
O O7 0.365731 0.928618 0.238363
O O8 0.293456 0.065749 0.076962
O O9 0.598768 0.441304 0.600692
O O10 0.555499 0.489951 0.753270
O O11 0.541982 0.324303 0.611272
O O12 0.644189 0.379221 0.956757
O O13 0.763132 0.189115 0.701030
O O14 0.500000 0.380789 0.250000
O O15 0.500000 0.731496 0.250000
O O16 0.551603 0.851532 0.202697
O O17 0.339638 0.202408 0.494400
#
# Coordination Sequence:
#
# PCOD8147044 Si02
#       8
#     8   8   8   8   8   8   8   8
#     4  12  24  41  67  96 132 173 217 262 328 387
#     4  10  23  45  67  97 129 168 218 275 318 380
#     4  11  24  41  63  95 133 172 216 261 326 381
#     4  11  25  45  69  94 129 173 219 268 323 374
#     4  12  25  39  65  98 136 171 212 265 323 395
#     4  11  20  40  67  91 129 175 212 263 327 389
#     4  10  22  42  69  94 134 168 214 267 331 376
#     4  11  24  45  69  94 130 175 216 268 318 390
#
# _framework density 20.761244999999999
#
# number of rings (size 3 to 8) (size 9 to 14) (size 15 to 20)
#    0.000    1.000    5.000    1.875    3.500    2.500 
#    2.250    6.875    0.000    0.000    0.000    0.000 
#    0.000    0.000    0.000    0.000    0.000    0.000 
#
# Total GULP energy -396893.755068 kJ/mol
# GULP energy per Si atom -12402.929846 kJ/mol
# Density = 2.071399 g / cm^3
# Si number density = 20.761245 Si / 1000 Ang^3
#
#
#
# Elastic Constant Matrix: (Units=GPa)
#
#
# Indices 1 2 3 4 5 6 
#
# 1 92.3515 56.4220 70.5015 0.0000 -0.7803 0.0000
# 2 56.4220 102.0670 52.3843 0.0000 0.4332 0.0000
# 3 70.5015 52.3843 122.5051 0.0000 3.1028 0.0000
# 4 0.0000 0.0000 0.0000 27.6375 0.0000 -6.5932
# 5 -0.7803 0.4332 3.1028 0.0000 49.1034 0.0000
# 6 0.0000 0.0000 0.0000 -6.5932 0.0000 28.1483
#
#
#
# Elastic Compliance Matrix: (Units=1/GPa)
#
#
# Indices 1 2 3 4 5 6 
#
# 1 0.023252 -0.007657 -0.010135 0.000000 0.001077 0.000000
# 2 -0.007657 0.015076 -0.002037 0.000000 -0.000126 0.000000
# 3 -0.010135 -0.002037 0.014894 0.000000 -0.001084 0.000000
# 4 0.000000 0.000000 0.000000 0.038324 0.000000 0.008977
# 5 0.001077 -0.000126 -0.001084 0.000000 0.020452 0.000000
# 6 0.000000 0.000000 0.000000 0.008977 0.000000 0.037629
#
#
# Mechanical properties :
#
#
# Convention : Reuss Voigt Hill
#
# Bulk Modulus (GPa) = 73.71840 75.05991 74.38915
# Shear Modulus (GPa) = 25.79903 30.15220 27.97561
#
# Velocity S-wave (km/s) = 3.52895 3.81508 3.67480
# Velocity P-wave (km/s) = 7.22423 7.45914 7.34262
#
# Compressibility (1/GPa) = 0.01356513
#
# Stress axis : x y z
#
# Youngs Moduli (GPa) = 43.00702 66.33024 67.14123
#
# Poissons Ratio (x) = 0.50787 0.68046
# Poissons Ratio (y) = 0.32929 0.13677
# Poissons Ratio (z) = 0.43586 0.13512
#
# Static dielectric constant tensor:
#      x y z
#    x 3.723410 0.000000 -0.170420 
#    y 0.000000 3.783860 0.000000 
#    z -0.170420 0.000000 3.922420 
# 
# 
# High freq. dielectric constant tensor:
#      x y z
#    x 1.803800 0.000000 -0.016550 
#    y 0.000000 1.814010 0.000000 
#    z -0.016550 0.000000 1.822980 
# 
# From -- ./inp_files/70154.got.cif
#   From: 2010.06.25/outbox.cif.g09.slc.cpg/sg15_36_cif.got.tgz:70154.got - 2010.06.28 07:06:18.
