data_PCOD8147103
_publ_section_title
;
Structure prediction by ZEFSAII (Michael W. Deem and Ramdas Pophale) SiO2 
 PCOD8147103
Probable space group: C 2/C
;
_chemical_formula_sum "Si O2"
_cell_formula_units_Z 40
_cell_length_a 22.157866
_cell_length_b 16.019419
_cell_length_c 8.215216
_cell_angle_alpha 90.000000
_cell_angle_beta 31.430159
_cell_angle_gamma 90.000000
_cell_volume 1520.595562
_symmetry_space_group_name_H-M "C 2/C"
_symmetry_group_IT_number 15
_symmetry_cell_setting 'monoclinic'
loop_
_space_group_symop_operation_xyz
x,y,z
-x,y,1/2-z
-x,-y,-z
x,-y,1/2+z
1/2+x,1/2+y,z
1/2-x,1/2+y,1/2-z
1/2-x,1/2-y,-z
1/2+x,1/2-y,1/2+z
loop_
_atom_site_type_symbol
_atom_site_label
_atom_site_fract_x
_atom_site_fract_y
_atom_site_fract_z
Si Si1 0.235427 0.230992 0.723285
Si Si2 0.000000 0.865738 0.750000
Si Si3 0.366952 0.083801 0.358839
Si Si4 0.857088 0.978749 0.298280
Si Si5 0.500000 0.955190 0.250000
Si Si6 0.128744 0.874798 0.933540
O O1 0.250000 0.250000 0.500000
O O2 0.340102 0.166814 0.523392
O O3 0.267296 0.310527 0.764239
O O4 0.106689 0.196086 0.055929
O O5 0.030739 0.928034 0.529460
O O6 0.251357 0.063682 0.532246
O O7 0.397645 0.014405 0.420973
O O8 0.460847 0.098722 0.996889
O O9 0.858278 0.958899 0.486540
O O10 0.855046 0.080300 0.279369
O O11 0.000000 0.834399 0.250000
#
# Coordination Sequence:
#
# PCOD8147103 Si02
#       6
#     8   4   8   8   4   8
#     4  11  24  46  68 102 140 185 230 293 354 416
#     4  10  22  45  75  90 142 184 236 278 361 412
#     4  10  22  42  70  97 143 179 238 279 361 417
#     4  11  23  45  72 101 136 185 243 285 348 423
#     4  10  22  43  69 104 136 188 224 298 343 430
#     4  12  25  44  74 106 141 184 241 299 348 420
#
# _framework density 26.305482999999999
#
# number of rings (size 3 to 8) (size 9 to 14) (size 15 to 20)
#    0.000    1.200    5.000    1.800    1.400    0.800 
#    3.600    1.000    0.000    0.000    0.000    0.000 
#    0.000    0.000    0.000    0.000    0.000    0.000 
#
# Total GULP energy -247794.232140 kJ/mol
# GULP energy per Si atom -12389.711607 kJ/mol
# Density = 2.624561 g / cm^3
# Si number density = 26.305483 Si / 1000 Ang^3
#
#
#
# Elastic Constant Matrix: (Units=GPa)
#
#
# Indices 1 2 3 4 5 6 
#
# 1 73.0778 27.3801 14.7609 0.0000 -10.3762 0.0000
# 2 27.3801 135.0316 64.2802 0.0000 -10.3683 0.0000
# 3 14.7609 64.2802 90.0190 0.0000 -7.2647 0.0000
# 4 0.0000 0.0000 0.0000 -17.2566 0.0000 -5.6225
# 5 -10.3762 -10.3683 -7.2647 0.0000 29.1260 0.0000
# 6 0.0000 0.0000 0.0000 -5.6225 0.0000 36.6333
#
#
#
# Elastic Compliance Matrix: (Units=1/GPa)
#
#
# Indices 1 2 3 4 5 6 
#
# 1 0.015363 -0.002643 -0.000272 0.000000 0.004465 0.000000
# 2 -0.002643 0.011794 -0.007884 0.000000 0.001290 0.000000
# 3 -0.000272 -0.007884 0.016889 0.000000 0.001309 0.000000
# 4 0.000000 0.000000 0.000000 -0.055189 0.000000 -0.008470
# 5 0.004465 0.001290 0.001309 0.000000 0.036710 0.000000
# 6 0.000000 0.000000 0.000000 -0.008470 0.000000 0.025997
#
#
# Mechanical properties :
#
#
# Convention : Reuss Voigt Hill
#
# Bulk Modulus (GPa) = 44.54693 56.77452 50.66073
# Shear Modulus (GPa) = 62.00081 22.48105 42.24093
#
# Velocity S-wave (km/s) = 4.86011 2.92655 4.01157
# Velocity P-wave (km/s) = 6.96172 5.74885 6.38415
#
# Compressibility (1/GPa) = 0.02244823
#
# Stress axis : x y z
#
# Youngs Moduli (GPa) = 65.09108 84.79010 59.21090
#
# Poissons Ratio (x) = 0.22411 0.01608
# Poissons Ratio (y) = 0.17204 0.46683
# Poissons Ratio (z) = 0.01767 0.66850
#
# Static dielectric constant tensor:
#      x y z
#    x 5.131550 0.000000 0.095820 
#    y 0.000000 5.118600 0.000000 
#    z 0.095820 0.000000 5.349800 
# 
# 
# High freq. dielectric constant tensor:
#      x y z
#    x 2.070420 0.000000 -0.013610 
#    y 0.000000 2.041820 0.000000 
#    z -0.013610 0.000000 2.054400 
# 
# From -- ./inp_files/62869.got.cif
#   From: 2010.06.25/outbox.cif.g09.slc.cpg/sg15_32_cif.got.tgz:62869.got - 2010.06.28 07:06:18.
