data_PCOD8147759
_publ_section_title
;
Structure prediction by ZEFSAII (Michael W. Deem and Ramdas Pophale) SiO2 
 PCOD8147759
Probable space group: C 2/C
;
_chemical_formula_sum "Si O2"
_cell_formula_units_Z 44
_cell_length_a 21.219201
_cell_length_b 9.427741
_cell_length_c 26.693147
_cell_angle_alpha 90.000000
_cell_angle_beta 20.982062
_cell_angle_gamma 90.000000
_cell_volume 1912.102793
_symmetry_space_group_name_H-M "C 2/C"
_symmetry_group_IT_number 15
_symmetry_cell_setting 'monoclinic'
loop_
_space_group_symop_operation_xyz
x,y,z
-x,y,1/2-z
-x,-y,-z
x,-y,1/2+z
1/2+x,1/2+y,z
1/2-x,1/2+y,1/2-z
1/2-x,1/2-y,-z
1/2+x,1/2-y,1/2+z
loop_
_atom_site_type_symbol
_atom_site_label
_atom_site_fract_x
_atom_site_fract_y
_atom_site_fract_z
Si Si1 0.691442 0.471617 0.132052
Si Si2 0.297473 0.472324 0.662754
Si Si3 0.786084 0.155048 0.070480
Si Si4 0.500000 0.946296 0.250000
Si Si5 0.089911 0.037232 0.316330
Si Si6 0.987239 0.665221 0.866312
O O1 0.500000 0.489085 0.250000
O O2 0.762737 0.314128 0.068602
O O3 0.698404 0.503043 0.185998
O O4 0.823073 0.579553 0.008816
O O5 0.500000 0.500000 0.500000
O O6 0.236361 0.355320 0.666858
O O7 0.279886 0.422494 0.733725
O O8 0.175057 0.610162 0.747173
O O9 0.666229 0.050206 0.127186
O O10 0.983314 0.102882 0.912114
O O11 0.512673 0.841517 0.193659
O O12 0.963074 0.171985 0.400851
#
# Coordination Sequence:
#
# PCOD8147759 Si02
#       6
#     8   8   8   4   8   8
#     4  12  28  44  73 107 139 189 242 287 359 422
#     4   9  23  46  73  98 141 186 232 285 358 413
#     4  10  23  45  71 100 139 189 234 291 346 421
#     4  10  22  44  74  92 144 184 232 290 348 404
#     4  11  27  45  71 104 146 185 236 296 350 420
#     4  11  27  45  73 107 140 187 237 295 355 421
#
# _framework density 23.011313999999999
#
# number of rings (size 3 to 8) (size 9 to 14) (size 15 to 20)
#    0.000    1.455    0.909    1.091   16.545    5.091 
#    0.000    0.000    0.000    0.000    0.000    0.000 
#    0.000    0.000    0.000    0.000    0.000    0.000 
#
# Total GULP energy -272790.943207 kJ/mol
# GULP energy per Si atom -12399.588328 kJ/mol
# Density = 2.295894 g / cm^3
# Si number density = 23.011314 Si / 1000 Ang^3
#
#
#
# Elastic Constant Matrix: (Units=GPa)
#
#
# Indices 1 2 3 4 5 6 
#
# 1 163.2238 44.2492 38.9797 -0.0500 16.8986 0.0094
# 2 44.2492 116.1151 41.8687 -0.0215 4.5937 0.0003
# 3 38.9797 41.8687 104.5076 0.1325 2.9899 -0.0923
# 4 -0.0500 -0.0215 0.1325 30.1027 0.0198 9.7866
# 5 16.8986 4.5937 2.9899 0.0198 38.9309 -0.0019
# 6 0.0094 0.0003 -0.0923 9.7866 -0.0019 16.9922
#
#
#
# Elastic Compliance Matrix: (Units=1/GPa)
#
#
# Indices 1 2 3 4 5 6 
#
# 1 0.007420 -0.002042 -0.001868 0.000032 -0.002836 -0.000033
# 2 -0.002042 0.010658 -0.003506 0.000032 -0.000102 -0.000036
# 3 -0.001868 -0.003506 0.011661 -0.000096 0.000329 0.000120
# 4 0.000032 0.000032 -0.000096 0.040874 -0.000032 -0.023542
# 5 -0.002836 -0.000102 0.000329 -0.000032 0.026904 0.000025
# 6 -0.000033 -0.000036 0.000120 -0.023542 0.000025 0.072410
#
#
# Mechanical properties :
#
#
# Convention : Reuss Voigt Hill
#
# Bulk Modulus (GPa) = 67.08034 70.44908 68.76471
# Shear Modulus (GPa) = 26.35347 34.45509 30.40428
#
# Velocity S-wave (km/s) = 3.38781 3.87371 3.63888
# Velocity P-wave (km/s) = 6.67213 7.11962 6.89950
#
# Compressibility (1/GPa) = 0.01490750
#
# Stress axis : x y z
#
# Youngs Moduli (GPa) = 134.77256 93.82371 85.75681
#
# Poissons Ratio (x) = 0.19155 0.16024
# Poissons Ratio (y) = 0.27515 0.30064
# Poissons Ratio (z) = 0.25182 0.32891
#
# Static dielectric constant tensor:
#      x y z
#    x 4.804810 -0.000060 0.025420 
#    y -0.000060 4.016280 0.000300 
#    z 0.025420 0.000300 3.942740 
# 
# 
# High freq. dielectric constant tensor:
#      x y z
#    x 1.932530 0.000000 0.002050 
#    y 0.000000 1.902200 0.000010 
#    z 0.002050 0.000010 1.899780 
# 
# From -- ./inp_files/318559.got.cif
#   From: 2010.06.25/outbox.cif.g09.slc.cpg/sg15_160_cif.got.tgz:318559.got - 2010.06.28 07:06:18.
