data_PCOD8147304
_publ_section_title
;
Structure prediction by ZEFSAII (Michael W. Deem and Ramdas Pophale) SiO2 
 PCOD8147304
Probable space group: C 2/C
;
_chemical_formula_sum "Si O2"
_cell_formula_units_Z 56
_cell_length_a 8.699444
_cell_length_b 21.205925
_cell_length_c 14.981295
_cell_angle_alpha 90.000000
_cell_angle_beta 66.878982
_cell_angle_gamma 90.000000
_cell_volume 2541.754737
_symmetry_space_group_name_H-M "C 2/C"
_symmetry_group_IT_number 15
_symmetry_cell_setting 'monoclinic'
loop_
_space_group_symop_operation_xyz
x,y,z
-x,y,1/2-z
-x,-y,-z
x,-y,1/2+z
1/2+x,1/2+y,z
1/2-x,1/2+y,1/2-z
1/2-x,1/2-y,-z
1/2+x,1/2-y,1/2+z
loop_
_atom_site_type_symbol
_atom_site_label
_atom_site_fract_x
_atom_site_fract_y
_atom_site_fract_z
Si Si1 0.585288 0.191330 0.490692
Si Si2 0.565352 0.129887 0.141780
Si Si3 0.525772 0.000266 0.889878
Si Si4 0.737595 0.413953 0.430908
Si Si5 0.844646 0.045098 0.729435
Si Si6 0.581933 0.586716 0.380074
Si Si7 0.554231 0.716804 0.144931
O O1 0.456980 0.171689 0.442264
O O2 0.650166 0.137857 0.544955
O O3 0.491134 0.244011 0.572396
O O4 0.745110 0.219145 0.403422
O O5 0.500000 0.161777 0.250000
O O6 0.444023 0.069480 0.155953
O O7 0.757639 0.109300 0.100343
O O8 0.352474 0.024741 0.888418
O O9 0.681862 0.044056 0.829546
O O10 0.500000 0.000000 0.000000
O O11 0.681921 0.401564 0.341381
O O12 0.570746 0.432120 0.521129
O O13 0.000000 0.070648 0.750000
O O14 0.882477 0.973880 0.688065
O O15 0.522345 0.646715 0.335825
O O16 0.500000 0.749885 0.250000
#
# Coordination Sequence:
#
# PCOD8147304 Si02
#       7
#     8   8   8   8   8   8   8
#     4  10  24  42  65  94 127 169 220 267 324 388
#     4  12  22  39  64  96 129 168 216 272 324 387
#     4  12  23  39  60  92 133 171 209 256 319 398
#     4  11  23  42  62  91 135 169 209 264 323 394
#     4  12  25  37  61  97 132 172 214 263 327 390
#     4  11  23  39  65  92 127 168 217 269 319 380
#     4  10  22  43  67  90 122 170 219 269 322 386
#
# _framework density 22.032024
#
# number of rings (size 3 to 8) (size 9 to 14) (size 15 to 20)
#    0.000    0.857    4.286    3.000    4.000    1.714 
#    0.000    0.000    0.000    6.000    0.000    0.000 
#    0.000    0.000    0.000    0.000    0.000    0.000 
#
# Total GULP energy -347051.686490 kJ/mol
# GULP energy per Si atom -12394.703089 kJ/mol
# Density = 2.198188 g / cm^3
# Si number density = 22.032024 Si / 1000 Ang^3
#
#
#
# Elastic Constant Matrix: (Units=GPa)
#
#
# Indices 1 2 3 4 5 6 
#
# 1 119.0690 7.1060 54.7246 0.0000 11.1585 0.0000
# 2 7.1060 44.9887 28.2597 0.0000 8.9375 0.0000
# 3 54.7246 28.2597 154.2521 0.0000 8.4634 0.0000
# 4 0.0000 0.0000 0.0000 24.7174 0.0000 5.2869
# 5 11.1585 8.9375 8.4634 0.0000 45.0172 0.0000
# 6 0.0000 0.0000 0.0000 5.2869 0.0000 27.5753
#
#
#
# Elastic Compliance Matrix: (Units=1/GPa)
#
#
# Indices 1 2 3 4 5 6 
#
# 1 0.010237 0.001133 -0.003726 0.000000 -0.002062 0.000000
# 2 0.001133 0.026041 -0.004925 0.000000 -0.004525 0.000000
# 3 -0.003726 -0.004925 0.008692 0.000000 0.000267 0.000000
# 4 0.000000 0.000000 0.000000 0.042187 0.000000 -0.008088
# 5 -0.002062 -0.004525 0.000267 0.000000 0.023573 0.000000
# 6 0.000000 0.000000 0.000000 -0.008088 0.000000 0.037815
#
#
# Mechanical properties :
#
#
# Convention : Reuss Voigt Hill
#
# Bulk Modulus (GPa) = 33.40546 55.38781 44.39664
# Shear Modulus (GPa) = 28.80863 34.67662 31.74263
#
# Velocity S-wave (km/s) = 3.61997 3.97157 3.79984
# Velocity P-wave (km/s) = 5.71554 6.79893 6.28064
#
# Compressibility (1/GPa) = 0.02993522
#
# Stress axis : x y z
#
# Youngs Moduli (GPa) = 97.68812 38.40070 115.04289
#
# Poissons Ratio (x) = -0.04352 0.42867
# Poissons Ratio (y) = -0.11071 0.56655
# Poissons Ratio (z) = 0.36401 0.18911
#
# Static dielectric constant tensor:
#      x y z
#    x 3.760280 0.000000 0.147100 
#    y 0.000000 4.561660 0.000000 
#    z 0.147100 0.000000 4.089970 
# 
# 
# High freq. dielectric constant tensor:
#      x y z
#    x 1.872680 0.000000 0.003590 
#    y 0.000000 1.832170 0.000000 
#    z 0.003590 0.000000 1.882610 
# 
# From -- ./inp_files/137285.got.cif
#   From: 2010.06.25/outbox.cif.g09.slc.cpg/sg15_69_cif.got.tgz:137285.got - 2010.06.28 07:06:18.
