data_PCOD8147894
_publ_section_title
;
Structure prediction by ZEFSAII (Michael W. Deem and Ramdas Pophale) SiO2 
 PCOD8147894
Probable space group: C 2/C
;
_chemical_formula_sum "Si O2"
_cell_formula_units_Z 44
_cell_length_a 9.582036
_cell_length_b 22.173113
_cell_length_c 12.207157
_cell_angle_alpha 90.000000
_cell_angle_beta 128.253284
_cell_angle_gamma 90.000000
_cell_volume 2036.687203
_symmetry_space_group_name_H-M "C 2/C"
_symmetry_group_IT_number 15
_symmetry_cell_setting 'monoclinic'
loop_
_space_group_symop_operation_xyz
x,y,z
-x,y,1/2-z
-x,-y,-z
x,-y,1/2+z
1/2+x,1/2+y,z
1/2-x,1/2+y,1/2-z
1/2-x,1/2-y,-z
1/2+x,1/2-y,1/2+z
loop_
_atom_site_type_symbol
_atom_site_label
_atom_site_fract_x
_atom_site_fract_y
_atom_site_fract_z
Si Si1 0.500000 0.584963 0.250000
Si Si2 0.500000 0.057342 0.750000
Si Si3 0.500000 0.702427 0.750000
Si Si4 0.815858 0.620627 0.866322
Si Si5 0.814425 0.501427 0.972837
Si Si6 0.079291 0.200974 0.179537
Si Si7 0.475500 0.224325 0.428399
O O1 0.327224 0.545214 0.143502
O O2 0.542624 0.628360 0.166236
O O3 0.399705 0.097693 0.792518
O O4 0.353338 0.014613 0.619034
O O5 0.648075 0.662624 0.759980
O O6 0.408395 0.744152 0.611751
O O7 0.744944 0.568805 0.915334
O O8 0.962119 0.658586 0.003836
O O9 0.000000 0.500000 0.000000
O O10 0.286261 0.216132 0.277344
O O11 0.000000 0.231949 0.250000
O O12 0.972392 0.229575 0.027665
#
# Coordination Sequence:
#
# PCOD8147894 Si02
#       7
#     4   4   4   8   8   8   8
#     4  10  23  41  70 104 143 179 242 298 358 420
#     4  10  24  44  76 100 130 194 244 306 358 416
#     4  12  27  45  62 108 147 197 230 294 370 442
#     4  11  25  44  73  98 147 184 246 294 360 433
#     4  10  22  46  66 101 140 182 237 298 364 417
#     4  10  24  39  71 105 140 177 245 297 351 428
#     4  12  24  45  66 102 146 192 233 288 370 424
#
# _framework density 21.60371
#
# number of rings (size 3 to 8) (size 9 to 14) (size 15 to 20)
#    0.545    0.727    1.818    3.818    3.818    0.727 
#    6.545    4.545    0.000    0.000    0.000    0.000 
#    0.000    0.000    0.000    0.000    0.000    0.000 
#
# Total GULP energy -272593.901543 kJ/mol
# GULP energy per Si atom -12390.631888 kJ/mol
# Density = 2.155454 g / cm^3
# Si number density = 21.603710 Si / 1000 Ang^3
#
#
#
# Elastic Constant Matrix: (Units=GPa)
#
#
# Indices 1 2 3 4 5 6 
#
# 1 76.9383 54.0025 58.1008 0.0000 -6.0015 0.0000
# 2 54.0025 160.4875 64.4770 0.0000 -13.7844 0.0000
# 3 58.1008 64.4770 96.9644 0.0000 -16.5723 0.0000
# 4 0.0000 0.0000 0.0000 41.8214 0.0000 -17.8026
# 5 -6.0015 -13.7844 -16.5723 0.0000 45.7496 0.0000
# 6 0.0000 0.0000 0.0000 -17.8026 0.0000 33.3178
#
#
#
# Elastic Compliance Matrix: (Units=1/GPa)
#
#
# Indices 1 2 3 4 5 6 
#
# 1 0.025197 -0.003352 -0.013300 0.000000 -0.002522 0.000000
# 2 -0.003352 0.008961 -0.003799 0.000000 0.000884 0.000000
# 3 -0.013300 -0.003799 0.021656 0.000000 0.004955 0.000000
# 4 0.000000 0.000000 0.000000 0.030951 0.000000 0.016538
# 5 -0.002522 0.000884 0.004955 0.000000 0.023588 0.000000
# 6 0.000000 0.000000 0.000000 0.016538 0.000000 0.038851
#
#
# Mechanical properties :
#
#
# Convention : Reuss Voigt Hill
#
# Bulk Modulus (GPa) = 67.06335 76.39454 71.72894
# Shear Modulus (GPa) = 25.63076 34.69843 30.16460
#
# Velocity S-wave (km/s) = 3.44816 4.01201 3.74072
# Velocity P-wave (km/s) = 6.85295 7.54322 7.20636
#
# Compressibility (1/GPa) = 0.01491127
#
# Stress axis : x y z
#
# Youngs Moduli (GPa) = 39.68691 111.59238 46.17670
#
# Poissons Ratio (x) = 0.37403 0.61417
# Poissons Ratio (y) = 0.13302 0.17544
# Poissons Ratio (z) = 0.52785 0.42398
#
# Static dielectric constant tensor:
#      x y z
#    x 3.814390 0.000000 -0.153300 
#    y 0.000000 4.479190 0.000000 
#    z -0.153300 0.000000 4.180760 
# 
# 
# High freq. dielectric constant tensor:
#      x y z
#    x 1.840680 0.000000 0.007430 
#    y 0.000000 1.861090 0.000000 
#    z 0.007430 0.000000 1.853440 
# 
# From -- ./inp_files/89234.got.cif
#   From: 2010.06.25/outbox.cif.g09.slc.cpg/sg15_45_cif.got.tgz:89234.got - 2010.06.28 07:06:18.
