data_PCOD8147197
_publ_section_title
;
Structure prediction by ZEFSAII (Michael W. Deem and Ramdas Pophale) SiO2 
 PCOD8147197
Probable space group: C 2/C
;
_chemical_formula_sum "Si O2"
_cell_formula_units_Z 40
_cell_length_a 19.356277
_cell_length_b 8.409886
_cell_length_c 25.680816
_cell_angle_alpha 90.000000
_cell_angle_beta 25.905723
_cell_angle_gamma 90.000000
_cell_volume 1826.394075
_symmetry_space_group_name_H-M "C 2/C"
_symmetry_group_IT_number 15
_symmetry_cell_setting 'monoclinic'
loop_
_space_group_symop_operation_xyz
x,y,z
-x,y,1/2-z
-x,-y,-z
x,-y,1/2+z
1/2+x,1/2+y,z
1/2-x,1/2+y,1/2-z
1/2-x,1/2-y,-z
1/2+x,1/2-y,1/2+z
loop_
_atom_site_type_symbol
_atom_site_label
_atom_site_fract_x
_atom_site_fract_y
_atom_site_fract_z
Si Si1 0.016468 0.813329 0.151317
Si Si2 0.746979 0.046349 0.353732
Si Si3 0.441806 0.954637 0.622151
Si Si4 0.398741 0.877512 0.251446
Si Si5 0.810451 0.540742 0.409840
O O1 0.101289 0.708014 0.138009
O O2 0.972788 0.710775 0.130179
O O3 0.860459 0.893891 0.280543
O O4 0.134308 0.954243 0.052420
O O5 0.681653 0.070839 0.340072
O O6 0.844211 0.202322 0.303437
O O7 0.607029 0.023411 0.489441
O O8 0.363861 0.080902 0.714974
O O9 0.307390 0.007745 0.349774
O O10 0.587728 0.897332 0.133263
#
# Coordination Sequence:
#
# PCOD8147197 Si02
#       5
#     8   8   8   8   8
#     4  10  22  44  69  90 131 171 212 263 319 380
#     4  11  24  42  67  94 129 171 212 267 316 372
#     4  10  24  43  64  97 127 167 222 256 316 387
#     4  10  22  43  63  93 133 159 213 268 315 375
#     4   9  22  44  63  95 123 167 214 259 321 381
#
# _framework density 21.901078999999999
#
# number of rings (size 3 to 8) (size 9 to 14) (size 15 to 20)
#    0.000    2.000    0.000    1.200   11.200    0.800 
#   18.000    2.000    0.000    0.000    0.000    0.000 
#    0.000    0.000    0.000    0.000    0.000    0.000 
#
# Total GULP energy -247976.250509 kJ/mol
# GULP energy per Si atom -12398.812525 kJ/mol
# Density = 2.185123 g / cm^3
# Si number density = 21.901079 Si / 1000 Ang^3
#
#
#
# Elastic Constant Matrix: (Units=GPa)
#
#
# Indices 1 2 3 4 5 6 
#
# 1 78.3795 35.6819 36.4112 -0.0009 19.6896 -0.0018
# 2 35.6819 115.5649 46.0700 -0.0027 1.3937 -0.0036
# 3 36.4112 46.0700 83.2929 -0.0180 3.7649 0.0015
# 4 -0.0009 -0.0027 -0.0180 31.5466 0.0012 -3.7983
# 5 19.6896 1.3937 3.7649 0.0012 37.3079 0.0012
# 6 -0.0018 -0.0036 0.0015 -3.7983 0.0012 30.0217
#
#
#
# Elastic Compliance Matrix: (Units=1/GPa)
#
#
# Indices 1 2 3 4 5 6 
#
# 1 0.019648 -0.003463 -0.006239 -0.000003 -0.009610 0.000001
# 2 -0.003463 0.011713 -0.005050 -0.000002 0.001900 0.000001
# 3 -0.006239 -0.005050 0.017449 0.000009 0.001720 -0.000001
# 4 -0.000003 -0.000002 0.000009 0.032189 -0.000001 0.004073
# 5 -0.009610 0.001900 0.001720 -0.000001 0.031631 -0.000002
# 6 0.000001 0.000001 -0.000001 0.004073 -0.000002 0.033824
#
#
# Mechanical properties :
#
#
# Convention : Reuss Voigt Hill
#
# Bulk Modulus (GPa) = 51.80273 57.06262 54.43268
# Shear Modulus (GPa) = 27.41314 30.38021 28.89667
#
# Velocity S-wave (km/s) = 3.54175 3.72849 3.63632
# Velocity P-wave (km/s) = 6.35844 6.68183 6.52214
#
# Compressibility (1/GPa) = 0.01930400
#
# Stress axis : x y z
#
# Youngs Moduli (GPa) = 50.89696 85.37576 57.31064
#
# Poissons Ratio (x) = 0.29569 0.35755
# Poissons Ratio (y) = 0.17628 0.28944
# Poissons Ratio (z) = 0.31754 0.43118
#
# Static dielectric constant tensor:
#      x y z
#    x 3.961450 0.000000 0.119890 
#    y 0.000000 3.751700 0.000010 
#    z 0.119890 0.000010 4.109860 
# 
# 
# High freq. dielectric constant tensor:
#      x y z
#    x 1.861540 0.000000 0.013950 
#    y 0.000000 1.850290 0.000000 
#    z 0.013950 0.000000 1.865930 
# 
# From -- ./inp_files/276711.got.cif
#   From: 2010.06.25/outbox.cif.g09.slc.cpg/sg15_139_cif.got.tgz:276711.got - 2010.06.28 07:06:18.
