data_PCOD8147782
_publ_section_title
;
Structure prediction by ZEFSAII (Michael W. Deem and Ramdas Pophale) SiO2 
 PCOD8147782
Probable space group: C 2/C
;
_chemical_formula_sum "Si O2"
_cell_formula_units_Z 44
_cell_length_a 6.535184
_cell_length_b 13.969103
_cell_length_c 21.444583
_cell_angle_alpha 90.000000
_cell_angle_beta 99.388079
_cell_angle_gamma 90.000000
_cell_volume 1931.469039
_symmetry_space_group_name_H-M "C 2/C"
_symmetry_group_IT_number 15
_symmetry_cell_setting 'monoclinic'
loop_
_space_group_symop_operation_xyz
x,y,z
-x,y,1/2-z
-x,-y,-z
x,-y,1/2+z
1/2+x,1/2+y,z
1/2-x,1/2+y,1/2-z
1/2-x,1/2-y,-z
1/2+x,1/2-y,1/2+z
loop_
_atom_site_type_symbol
_atom_site_label
_atom_site_fract_x
_atom_site_fract_y
_atom_site_fract_z
Si Si1 0.988337 0.517544 0.584403
Si Si2 0.500000 0.403513 0.250000
Si Si3 0.134026 0.145871 0.888521
Si Si4 0.282504 0.648777 0.412010
Si Si5 0.164126 0.147751 0.515343
Si Si6 0.320638 0.969189 0.699632
O O1 0.929653 0.403751 0.572079
O O2 0.855651 0.573360 0.524783
O O3 0.913888 0.541469 0.651491
O O4 0.229275 0.549588 0.592092
O O5 0.429980 0.340781 0.186982
O O6 0.313455 0.471223 0.259510
O O7 0.268380 0.237313 0.916568
O O8 0.926910 0.144412 0.919141
O O9 0.484467 0.613549 0.459383
O O10 0.310974 0.614796 0.341410
O O11 0.250000 0.250000 0.500000
O O12 0.500000 0.920282 0.750000
#
# Coordination Sequence:
#
# PCOD8147782 Si02
#       6
#     8   4   8   8   8   8
#     4  10  23  43  66  93 136 176 221 286 347 403
#     4  12  22  42  72  92 136 176 224 280 360 404
#     4  12  24  43  69  99 134 186 225 296 347 419
#     4  10  24  43  66  98 134 176 234 279 350 424
#     4  12  24  45  67  99 142 178 232 286 355 422
#     4  10  22  45  64  98 133 174 228 284 343 423
#
# _framework density 22.780587000000001
#
# number of rings (size 3 to 8) (size 9 to 14) (size 15 to 20)
#    1.091    0.000    5.455    1.091    1.273    0.727 
#    9.818    1.818    0.000    0.000    0.000    0.000 
#    0.000    0.000    0.000    0.000    0.000    0.000 
#
# Total GULP energy -272557.930829 kJ/mol
# GULP energy per Si atom -12388.996856 kJ/mol
# Density = 2.272874 g / cm^3
# Si number density = 22.780587 Si / 1000 Ang^3
#
#
#
# Elastic Constant Matrix: (Units=GPa)
#
#
# Indices 1 2 3 4 5 6 
#
# 1 70.9874 13.0150 24.3461 0.0000 4.6745 0.0000
# 2 13.0150 64.6903 1.7636 0.0000 9.3112 0.0000
# 3 24.3461 1.7636 127.3668 0.0000 22.6492 0.0000
# 4 0.0000 0.0000 0.0000 21.1105 0.0000 12.5049
# 5 4.6745 9.3112 22.6492 0.0000 44.7475 0.0000
# 6 0.0000 0.0000 0.0000 12.5049 0.0000 29.8009
#
#
#
# Elastic Compliance Matrix: (Units=1/GPa)
#
#
# Indices 1 2 3 4 5 6 
#
# 1 0.015675 -0.003151 -0.003053 0.000000 0.000564 0.000000
# 2 -0.003151 0.016588 0.001020 0.000000 -0.003639 0.000000
# 3 -0.003053 0.001020 0.009233 0.000000 -0.004567 0.000000
# 4 0.000000 0.000000 0.000000 0.063039 0.000000 -0.026452
# 5 0.000564 -0.003639 -0.004567 0.000000 0.025357 0.000000
# 6 0.000000 0.000000 0.000000 -0.026452 0.000000 0.044656
#
#
# Mechanical properties :
#
#
# Convention : Reuss Voigt Hill
#
# Bulk Modulus (GPa) = 32.12669 37.92154 35.02412
# Shear Modulus (GPa) = 25.60267 34.05978 29.83122
#
# Velocity S-wave (km/s) = 3.35607 3.87088 3.62263
# Velocity P-wave (km/s) = 5.39916 6.05482 5.73636
#
# Compressibility (1/GPa) = 0.03112677
#
# Stress axis : x y z
#
# Youngs Moduli (GPa) = 63.79714 60.28367 108.30939
#
# Poissons Ratio (x) = 0.18998 0.33064
# Poissons Ratio (y) = 0.20105 -0.11045
# Poissons Ratio (z) = 0.19476 -0.06147
#
# Static dielectric constant tensor:
#      x y z
#    x 3.958720 0.000000 0.082240 
#    y 0.000000 3.727640 0.000000 
#    z 0.082240 0.000000 4.352790 
# 
# 
# High freq. dielectric constant tensor:
#      x y z
#    x 1.892950 0.000000 0.008870 
#    y 0.000000 1.872140 0.000000 
#    z 0.008870 0.000000 1.921240 
# 
# From -- ./inp_files/227027.got.cif
#   From: 2010.06.25/outbox.cif.g09.slc.cpg/sg15_114_cif.got.tgz:227027.got - 2010.06.28 07:06:18.
