data_PCOD8147344
_publ_section_title
;
Structure prediction by ZEFSAII (Michael W. Deem and Ramdas Pophale) SiO2 
 PCOD8147344
Probable space group: C 2/C
;
_chemical_formula_sum "Si O2"
_cell_formula_units_Z 48
_cell_length_a 13.166359
_cell_length_b 19.434247
_cell_length_c 8.778070
_cell_angle_alpha 90.000000
_cell_angle_beta 84.077065
_cell_angle_gamma 90.000000
_cell_volume 2234.126696
_symmetry_space_group_name_H-M "C 2/C"
_symmetry_group_IT_number 15
_symmetry_cell_setting 'monoclinic'
loop_
_space_group_symop_operation_xyz
x,y,z
-x,y,1/2-z
-x,-y,-z
x,-y,1/2+z
1/2+x,1/2+y,z
1/2-x,1/2+y,1/2-z
1/2-x,1/2-y,-z
1/2+x,1/2-y,1/2+z
loop_
_atom_site_type_symbol
_atom_site_label
_atom_site_fract_x
_atom_site_fract_y
_atom_site_fract_z
Si Si1 0.613916 0.301989 0.501080
Si Si2 0.229857 0.576023 0.519757
Si Si3 0.385272 0.175326 0.798674
Si Si4 0.712450 0.560029 0.316036
Si Si5 0.500000 0.769666 0.750000
Si Si6 0.500000 0.387514 0.750000
Si Si7 0.185495 0.318666 0.522972
O O1 0.699563 0.358228 0.453896
O O2 0.660600 0.240478 0.599100
O O3 0.570925 0.275941 0.347527
O O4 0.521530 0.339336 0.602531
O O5 0.122220 0.603739 0.603260
O O6 0.215938 0.560211 0.344264
O O7 0.273688 0.509859 0.596025
O O8 0.500000 0.195577 0.750000
O O9 0.332268 0.159703 0.647216
O O10 0.595734 0.564352 0.277307
O O11 0.741882 0.624543 0.413935
O O12 0.578396 0.813758 0.633077
O O13 0.250000 0.250000 0.500000
#
# Coordination Sequence:
#
# PCOD8147344 Si02
#       7
#     8   8   8   8   4   4   8
#     4  11  21  40  67  99 134 171 228 279 339 393
#     4  11  25  43  65  96 137 182 225 279 340 403
#     4  12  23  44  68  99 134 181 230 277 339 399
#     4  11  25  44  67  99 139 179 229 275 347 402
#     4  12  22  37  66 105 134 176 228 282 348 401
#     4  10  22  43  68  95 134 180 224 288 332 411
#     4  12  24  42  69 101 140 178 233 287 339 409
#
# _framework density 21.484902999999999
#
# number of rings (size 3 to 8) (size 9 to 14) (size 15 to 20)
#    0.000    0.667    2.500    6.500    0.000    4.667 
#    1.500    1.667    0.000    0.000    0.000    0.000 
#    0.000    0.000    0.000    0.000    0.000    0.000 
#
# Total GULP energy -297572.193096 kJ/mol
# GULP energy per Si atom -12398.841379 kJ/mol
# Density = 2.143600 g / cm^3
# Si number density = 21.484903 Si / 1000 Ang^3
#
#
#
# Elastic Constant Matrix: (Units=GPa)
#
#
# Indices 1 2 3 4 5 6 
#
# 1 56.4863 41.3159 22.9383 0.0000 -0.8769 0.0000
# 2 41.3159 151.2426 63.9068 0.0000 5.7624 0.0000
# 3 22.9383 63.9068 152.5751 0.0000 10.5461 0.0000
# 4 0.0000 0.0000 0.0000 35.5698 0.0000 -1.9631
# 5 -0.8769 5.7624 10.5461 0.0000 38.1688 0.0000
# 6 0.0000 0.0000 0.0000 -1.9631 0.0000 5.3169
#
#
#
# Elastic Compliance Matrix: (Units=1/GPa)
#
#
# Indices 1 2 3 4 5 6 
#
# 1 0.022346 -0.005710 -0.001083 0.000000 0.001675 0.000000
# 2 -0.005710 0.009496 -0.003069 0.000000 -0.000717 0.000000
# 3 -0.001083 -0.003069 0.008128 0.000000 -0.001807 0.000000
# 4 0.000000 0.000000 0.000000 0.028699 0.000000 0.010596
# 5 0.001675 -0.000717 -0.001807 0.000000 0.026845 0.000000
# 6 0.000000 0.000000 0.000000 0.010596 0.000000 0.191993
#
#
# Mechanical properties :
#
#
# Convention : Reuss Voigt Hill
#
# Bulk Modulus (GPa) = 49.39929 68.51400 58.95665
# Shear Modulus (GPa) = 15.92449 31.28729 23.60589
#
# Velocity S-wave (km/s) = 2.72544 3.82022 3.31829
# Velocity P-wave (km/s) = 5.73991 7.17059 6.49476
#
# Compressibility (1/GPa) = 0.02024320
#
# Stress axis : x y z
#
# Youngs Moduli (GPa) = 44.75034 105.30598 123.03749
#
# Poissons Ratio (x) = 0.60134 0.13331
# Poissons Ratio (y) = 0.25554 0.37766
# Poissons Ratio (z) = 0.04849 0.32323
#
# Static dielectric constant tensor:
#      x y z
#    x 3.901300 0.000000 -0.424990 
#    y 0.000000 3.834210 0.000000 
#    z -0.424990 0.000000 4.137670 
# 
# 
# High freq. dielectric constant tensor:
#      x y z
#    x 1.839720 0.000000 -0.012020 
#    y 0.000000 1.836870 0.000000 
#    z -0.012020 0.000000 1.870020 
# 
# From -- ./inp_files/39685.got.cif
#   From: 2010.06.25/outbox.cif.g09.slc.cpg/sg15_20_cif.got.tgz:39685.got - 2010.06.28 07:06:18.
