data_PCOD8147400
_publ_section_title
;
Structure prediction by ZEFSAII (Michael W. Deem and Ramdas Pophale) SiO2 
 PCOD8147400
Probable space group: C 2/C
;
_chemical_formula_sum "Si O2"
_cell_formula_units_Z 40
_cell_length_a 13.035324
_cell_length_b 23.994912
_cell_length_c 8.642297
_cell_angle_alpha 90.000000
_cell_angle_beta 42.451614
_cell_angle_gamma 90.000000
_cell_volume 1824.538104
_symmetry_space_group_name_H-M "C 2/C"
_symmetry_group_IT_number 15
_symmetry_cell_setting 'monoclinic'
loop_
_space_group_symop_operation_xyz
x,y,z
-x,y,1/2-z
-x,-y,-z
x,-y,1/2+z
1/2+x,1/2+y,z
1/2-x,1/2+y,1/2-z
1/2-x,1/2-y,-z
1/2+x,1/2-y,1/2+z
loop_
_atom_site_type_symbol
_atom_site_label
_atom_site_fract_x
_atom_site_fract_y
_atom_site_fract_z
Si Si1 0.410315 0.846854 0.628462
Si Si2 0.653345 0.461195 0.170415
Si Si3 0.238393 0.653248 0.890264
Si Si4 0.343619 0.033818 0.171967
Si Si5 0.369322 0.736861 0.496235
O O1 0.575241 0.863555 0.507196
O O2 0.358574 0.902606 0.592777
O O3 0.429715 0.795672 0.491949
O O4 0.289441 0.829552 0.898716
O O5 0.500000 0.477436 0.250000
O O6 0.644988 0.398979 0.251726
O O7 0.696891 0.506265 0.252123
O O8 0.801098 0.461245 0.898157
O O9 0.313604 0.701976 0.705625
O O10 0.500000 0.000000 0.000000
O O11 0.250000 0.750000 0.500000
O O12 0.500000 0.705957 0.250000
#
# Coordination Sequence:
#
# PCOD8147400 Si02
#       5
#     8   8   8   8   8
#     4  10  22  43  70  97 130 181 229 264 324 415
#     4  11  24  42  67 102 139 169 221 284 334 388
#     4  10  22  44  68  94 134 181 227 267 329 405
#     4  11  22  42  72  99 129 179 225 268 328 410
#     4  12  25  42  65 100 138 169 220 284 337 390
#
# _framework density 21.923355999999998
#
# number of rings (size 3 to 8) (size 9 to 14) (size 15 to 20)
#    0.000    1.200    4.000    1.800    0.000    6.400 
#    3.600    2.000    0.000    0.000    0.000    0.000 
#    0.000    0.000    0.000    0.000    0.000    0.000 
#
# Total GULP energy -247855.598060 kJ/mol
# GULP energy per Si atom -12392.779903 kJ/mol
# Density = 2.187346 g / cm^3
# Si number density = 21.923356 Si / 1000 Ang^3
#
#
#
# Elastic Constant Matrix: (Units=GPa)
#
#
# Indices 1 2 3 4 5 6 
#
# 1 113.9606 43.4545 15.8391 0.0000 -7.4273 0.0000
# 2 43.4545 128.3971 43.8246 0.0000 6.5252 0.0000
# 3 15.8391 43.8246 100.6220 0.0000 -4.2398 0.0000
# 4 0.0000 0.0000 0.0000 32.3683 0.0000 3.8829
# 5 -7.4273 6.5252 -4.2398 0.0000 27.6325 0.0000
# 6 0.0000 0.0000 0.0000 3.8829 0.0000 37.3646
#
#
#
# Elastic Compliance Matrix: (Units=1/GPa)
#
#
# Indices 1 2 3 4 5 6 
#
# 1 0.010435 -0.003775 0.000158 0.000000 0.003720 0.000000
# 2 -0.003775 0.010732 -0.004257 0.000000 -0.004202 0.000000
# 3 0.000158 -0.004257 0.011889 0.000000 0.002872 0.000000
# 4 0.000000 0.000000 0.000000 0.031284 0.000000 -0.003251
# 5 0.003720 -0.004202 0.002872 0.000000 0.038622 0.000000
# 6 0.000000 0.000000 0.000000 -0.003251 0.000000 0.027101
#
#
# Mechanical properties :
#
#
# Convention : Reuss Voigt Hill
#
# Bulk Modulus (GPa) = 57.77562 61.02400 59.39981
# Shear Modulus (GPa) = 32.98580 35.46383 34.22482
#
# Velocity S-wave (km/s) = 3.88312 4.02634 3.95538
# Velocity P-wave (km/s) = 6.82023 7.03639 6.92915
#
# Compressibility (1/GPa) = 0.01730834
#
# Stress axis : x y z
#
# Youngs Moduli (GPa) = 95.83371 93.17530 84.11487
#
# Poissons Ratio (x) = 0.35170 -0.01331
# Poissons Ratio (y) = 0.36173 0.35810
# Poissons Ratio (z) = -0.01516 0.39667
#
# Static dielectric constant tensor:
#      x y z
#    x 3.794450 0.000000 0.122820 
#    y 0.000000 4.241490 0.000000 
#    z 0.122820 0.000000 3.886890 
# 
# 
# High freq. dielectric constant tensor:
#      x y z
#    x 1.859380 0.000000 -0.000080 
#    y 0.000000 1.860700 0.000000 
#    z -0.000080 0.000000 1.868560 
# 
# From -- ./inp_files/41920.got.cif
#   From: 2010.06.25/outbox.cif.g09.slc.cpg/sg15_21_cif.got.tgz:41920.got - 2010.06.28 07:06:18.
