data_PCOD8147080
_publ_section_title
;
Structure prediction by ZEFSAII (Michael W. Deem and Ramdas Pophale) SiO2 
 PCOD8147080
Probable space group: C 2/C
;
_chemical_formula_sum "Si O2"
_cell_formula_units_Z 60
_cell_length_a 20.605034
_cell_length_b 13.270051
_cell_length_c 27.325249
_cell_angle_alpha 90.000000
_cell_angle_beta 156.881647
_cell_angle_gamma 90.000000
_cell_volume 2933.563231
_symmetry_space_group_name_H-M "C 2/C"
_symmetry_group_IT_number 15
_symmetry_cell_setting 'monoclinic'
loop_
_space_group_symop_operation_xyz
x,y,z
-x,y,1/2-z
-x,-y,-z
x,-y,1/2+z
1/2+x,1/2+y,z
1/2-x,1/2+y,1/2-z
1/2-x,1/2-y,-z
1/2+x,1/2-y,1/2+z
loop_
_atom_site_type_symbol
_atom_site_label
_atom_site_fract_x
_atom_site_fract_y
_atom_site_fract_z
Si Si1 0.642544 0.921197 0.598103
Si Si2 0.023288 0.788962 0.974234
Si Si3 0.000000 0.542489 0.250000
Si Si4 0.886971 0.700125 0.561563
Si Si5 0.851705 0.653035 0.053614
Si Si6 0.817363 0.383758 0.763708
Si Si7 0.181520 0.576278 0.801574
Si Si8 0.690681 0.518895 0.379190
O O1 0.570047 0.816486 0.529630
O O2 0.714422 0.902167 0.701396
O O3 0.777286 0.975109 0.656777
O O4 0.500000 0.000000 0.500000
O O5 0.050387 0.781015 0.934711
O O6 0.837450 0.817451 0.861642
O O7 0.136894 0.877701 0.073957
O O8 0.913347 0.604668 0.146920
O O9 0.852832 0.474991 0.169953
O O10 0.750000 0.750000 0.500000
O O11 0.806991 0.602049 0.483085
O O12 0.048191 0.665818 0.703218
O O13 0.014737 0.677568 0.133684
O O14 0.750000 0.750000 0.000000
O O15 0.733058 0.584868 0.936922
O O16 0.830219 0.494376 0.749346
O O17 0.500000 0.544990 0.250000
#
# Coordination Sequence:
#
# PCOD8147080 Si02
#       8
#     8   8   4   8   8   8   8   8
#     4  11  23  45  68  93 140 181 216 284 336 392
#     4  11  25  37  68 100 127 174 224 268 336 400
#     4  10  22  42  70  90 138 172 212 286 336 382
#     4  11  23  40  66  97 134 169 216 274 337 401
#     4  11  25  45  69  98 135 180 228 274 334 405
#     4  11  23  44  67  96 136 177 228 278 334 404
#     4  11  22  44  63  98 135 173 219 280 337 401
#     4  11  25  43  67 103 131 174 229 276 335 404
#
# _framework density 20.452942
#
# number of rings (size 3 to 8) (size 9 to 14) (size 15 to 20)
#    0.000    1.067    4.000    2.800    6.533    3.200 
#    0.000    1.333    0.000    0.000    0.000    0.000 
#    0.000    0.000    0.000    0.000    0.000    0.000 
#
# Total GULP energy -371905.407239 kJ/mol
# GULP energy per Si atom -12396.846908 kJ/mol
# Density = 2.040639 g / cm^3
# Si number density = 20.452942 Si / 1000 Ang^3
#
#
#
# Elastic Constant Matrix: (Units=GPa)
#
#
# Indices 1 2 3 4 5 6 
#
# 1 135.9247 40.4116 39.3387 -0.0021 2.5510 0.0072
# 2 40.4116 92.2031 28.0582 -0.0641 7.8478 0.0005
# 3 39.3387 28.0582 89.5219 -0.2603 15.7558 -0.0110
# 4 -0.0021 -0.0641 -0.2603 16.7547 -0.0175 9.9349
# 5 2.5510 7.8478 15.7558 -0.0175 41.0085 0.0049
# 6 0.0072 0.0005 -0.0110 9.9349 0.0049 32.4057
#
#
#
# Elastic Compliance Matrix: (Units=1/GPa)
#
#
# Indices 1 2 3 4 5 6 
#
# 1 0.009222 -0.003150 -0.003293 -0.000072 0.001294 0.000019
# 2 -0.003150 0.013097 -0.002482 0.000012 -0.001357 -0.000004
# 3 -0.003293 -0.002482 0.014239 0.000248 -0.004791 -0.000070
# 4 -0.000072 0.000012 0.000248 0.072950 -0.000059 -0.022365
# 5 0.001294 -0.001357 -0.004791 -0.000059 0.026405 0.000012
# 6 0.000019 -0.000004 -0.000070 -0.022365 0.000012 0.037715
#
#
# Mechanical properties :
#
#
# Convention : Reuss Voigt Hill
#
# Bulk Modulus (GPa) = 53.45203 59.25184 56.35193
# Shear Modulus (GPa) = 25.28881 32.02319 28.65600
#
# Velocity S-wave (km/s) = 3.52012 3.96119 3.74715
# Velocity P-wave (km/s) = 6.53548 7.06782 6.80686
#
# Compressibility (1/GPa) = 0.01870836
#
# Stress axis : x y z
#
# Youngs Moduli (GPa) = 108.43146 76.35328 70.22764
#
# Poissons Ratio (x) = 0.24052 0.23128
# Poissons Ratio (y) = 0.34157 0.17429
# Poissons Ratio (z) = 0.35710 0.18949
#
# Static dielectric constant tensor:
#      x y z
#    x 3.844230 0.000100 -0.011500 
#    y 0.000100 3.714490 0.000100 
#    z -0.011500 0.000100 3.678180 
# 
# 
# High freq. dielectric constant tensor:
#      x y z
#    x 1.816390 0.000000 0.002890 
#    y 0.000000 1.797480 -0.000010 
#    z 0.002890 -0.000010 1.803150 
# 
# From -- ./inp_files/301199.got.cif
#   From: 2010.06.25/outbox.cif.g09.slc.cpg/sg15_151_cif.got.tgz:301199.got - 2010.06.28 07:06:18.
