data_PCOD8147454
_publ_section_title
;
Structure prediction by ZEFSAII (Michael W. Deem and Ramdas Pophale) SiO2 
 PCOD8147454
Probable space group: C 2/C
;
_chemical_formula_sum "Si O2"
_cell_formula_units_Z 52
_cell_length_a 14.434881
_cell_length_b 30.718391
_cell_length_c 5.307766
_cell_angle_alpha 90.000000
_cell_angle_beta 70.957136
_cell_angle_gamma 90.000000
_cell_volume 2224.751439
_symmetry_space_group_name_H-M "C 2/C"
_symmetry_group_IT_number 15
_symmetry_cell_setting 'monoclinic'
loop_
_space_group_symop_operation_xyz
x,y,z
-x,y,1/2-z
-x,-y,-z
x,-y,1/2+z
1/2+x,1/2+y,z
1/2-x,1/2+y,1/2-z
1/2-x,1/2-y,-z
1/2+x,1/2-y,1/2+z
loop_
_atom_site_type_symbol
_atom_site_label
_atom_site_fract_x
_atom_site_fract_y
_atom_site_fract_z
Si Si1 0.500000 0.617015 0.250000
Si Si2 0.440851 0.228971 0.067037
Si Si3 0.314846 0.159914 0.953859
Si Si4 0.362662 0.676927 0.703696
Si Si5 0.500000 0.942390 0.750000
Si Si6 0.214269 0.474520 0.510891
Si Si7 0.000000 0.610154 0.750000
Si Si8 0.177665 0.105055 0.383672
O O1 0.432727 0.647774 0.474632
O O2 0.576493 0.587181 0.344210
O O3 0.500000 0.208640 0.250000
O O4 0.407133 0.275731 0.199228
O O5 0.500000 0.232633 0.750000
O O6 0.347118 0.197368 0.121061
O O7 0.245457 0.182719 0.813869
O O8 0.411732 0.140809 0.735728
O O9 0.262864 0.116991 0.112971
O O10 0.352536 0.651883 0.975516
O O11 0.596432 0.970341 0.600828
O O12 0.470305 0.916452 0.524584
O O13 0.247317 0.498849 0.228308
O O14 0.275451 0.429202 0.461123
#
# Coordination Sequence:
#
# PCOD8147454 Si02
#       8
#     4   8   8   8   4   8   4   8
#     4  10  22  43  74 102 133 186 241 292 354 423
#     4  12  27  44  69 103 146 190 240 296 349 413
#     4  11  26  42  71 101 148 188 240 290 356 412
#     4  11  24  46  72 102 137 193 241 296 351 426
#     4  12  24  45  74 102 147 190 239 278 350 427
#     4  12  27  46  71 107 144 183 233 293 355 427
#     4  12  24  42  72 108 144 194 234 282 344 426
#     4  11  25  45  75 103 139 188 239 294 358 432
#
# _framework density 23.373396
#
# number of rings (size 3 to 8) (size 9 to 14) (size 15 to 20)
#    0.000    0.615    3.077    4.154    9.692    0.615 
#    0.000    0.769    0.000    0.000    0.000    0.000 
#    0.000    0.000    0.000    0.000    0.000    0.000 
#
# Total GULP energy -322314.395079 kJ/mol
# GULP energy per Si atom -12396.707503 kJ/mol
# Density = 2.332020 g / cm^3
# Si number density = 23.373396 Si / 1000 Ang^3
#
#
#
# Elastic Constant Matrix: (Units=GPa)
#
#
# Indices 1 2 3 4 5 6 
#
# 1 167.7963 26.5071 26.1610 0.0000 10.0567 0.0000
# 2 26.5071 73.3885 10.3054 0.0000 7.6919 0.0000
# 3 26.1610 10.3054 77.4045 0.0000 14.3092 0.0000
# 4 0.0000 0.0000 0.0000 -18.8620 0.0000 -24.1896
# 5 10.0567 7.6919 14.3092 0.0000 36.3454 0.0000
# 6 0.0000 0.0000 0.0000 -24.1896 0.0000 21.6098
#
#
#
# Elastic Compliance Matrix: (Units=1/GPa)
#
#
# Indices 1 2 3 4 5 6 
#
# 1 0.006611 -0.002060 -0.001836 0.000000 -0.000670 0.000000
# 2 -0.002060 0.014722 -0.000855 0.000000 -0.002209 0.000000
# 3 -0.001836 -0.000855 0.014588 0.000000 -0.005054 0.000000
# 4 0.000000 0.000000 0.000000 -0.021768 0.000000 -0.024366
# 5 -0.000670 -0.002209 -0.005054 0.000000 0.030157 0.000000
# 6 0.000000 0.000000 0.000000 -0.024366 0.000000 0.019000
#
#
# Mechanical properties :
#
#
# Convention : Reuss Voigt Hill
#
# Bulk Modulus (GPa) = 37.85317 49.39294 43.62305
# Shear Modulus (GPa) = 61.26000 24.85970 43.05985
#
# Velocity S-wave (km/s) = 5.12505 3.26481 4.29681
# Velocity P-wave (km/s) = 7.15903 5.94895 6.58186
#
# Compressibility (1/GPa) = 0.02641787
#
# Stress axis : x y z
#
# Youngs Moduli (GPa) = 151.25174 67.92670 68.54941
#
# Poissons Ratio (x) = 0.13992 0.12588
# Poissons Ratio (y) = 0.31156 0.05864
# Poissons Ratio (z) = 0.27775 0.05811
#
# Static dielectric constant tensor:
#      x y z
#    x 4.609880 0.000000 0.062310 
#    y 0.000000 4.067330 0.000000 
#    z 0.062310 0.000000 4.096480 
# 
# 
# High freq. dielectric constant tensor:
#      x y z
#    x 1.948510 0.000000 0.005070 
#    y 0.000000 1.907600 0.000000 
#    z 0.005070 0.000000 1.920190 
# 
# From -- ./inp_files/9049.got.cif
#   From: 2010.06.25/outbox.cif.g09.slc.cpg/sg15_5_cif.got.tgz:9049.got - 2010.06.28 07:06:18.
