data_PCOD8147028
_publ_section_title
;
Structure prediction by ZEFSAII (Michael W. Deem and Ramdas Pophale) SiO2 
 PCOD8147028
Probable space group: C 2/C
;
_chemical_formula_sum "Si O2"
_cell_formula_units_Z 52
_cell_length_a 15.879133
_cell_length_b 15.204823
_cell_length_c 15.262465
_cell_angle_alpha 90.000000
_cell_angle_beta 139.524239
_cell_angle_gamma 90.000000
_cell_volume 2392.004772
_symmetry_space_group_name_H-M "C 2/C"
_symmetry_group_IT_number 15
_symmetry_cell_setting 'monoclinic'
loop_
_space_group_symop_operation_xyz
x,y,z
-x,y,1/2-z
-x,-y,-z
x,-y,1/2+z
1/2+x,1/2+y,z
1/2-x,1/2+y,1/2-z
1/2-x,1/2-y,-z
1/2+x,1/2-y,1/2+z
loop_
_atom_site_type_symbol
_atom_site_label
_atom_site_fract_x
_atom_site_fract_y
_atom_site_fract_z
Si Si1 0.500000 0.946756 0.250000
Si Si2 0.792321 0.847718 0.307942
Si Si3 0.607434 0.993776 0.655245
Si Si4 0.262184 0.649719 0.987869
Si Si5 0.500000 0.752731 0.750000
Si Si6 0.000000 0.955827 0.750000
Si Si7 0.286430 0.171857 0.206750
Si Si8 0.949789 0.888823 0.081981
O O1 0.381402 0.890775 0.115298
O O2 0.444495 0.003955 0.285848
O O3 0.806395 0.850858 0.422711
O O4 0.734443 0.757932 0.217740
O O5 0.936517 0.855386 0.388757
O O6 0.705711 0.928578 0.208524
O O7 0.661762 0.896231 0.680217
O O8 0.500000 0.000000 0.500000
O O9 0.250000 0.750000 0.000000
O O10 0.369204 0.603461 0.137178
O O11 0.601699 0.809742 0.775938
O O12 0.585742 0.687280 0.877020
O O13 0.992926 0.018347 0.658560
O O14 0.178332 0.108234 0.077509
#
# Coordination Sequence:
#
# PCOD8147028 Si02
#       8
#     4   8   8   8   4   4   8   8
#     4  10  24  46  66  96 138 174 245 282 344 436
#     4  10  26  43  66 104 135 179 234 279 347 425
#     4  11  26  43  68 101 134 186 233 285 352 415
#     4  11  25  44  67  96 135 186 228 286 350 420
#     4   9  21  40  67 107 132 178 219 279 356 427
#     4  11  25  42  69  99 134 178 230 291 348 415
#     4  11  23  42  71  98 144 181 221 295 344 423
#     4  10  22  42  69 101 136 173 226 286 356 411
#
# _framework density 21.739087000000001
#
# number of rings (size 3 to 8) (size 9 to 14) (size 15 to 20)
#    0.000    1.538    0.000    3.231    8.615    4.923 
#    2.769    0.000    0.000    0.000    0.000    0.000 
#    0.000    0.000    0.000    0.000    0.000    0.000 
#
# Total GULP energy -322154.638338 kJ/mol
# GULP energy per Si atom -12390.563013 kJ/mol
# Density = 2.168961 g / cm^3
# Si number density = 21.739087 Si / 1000 Ang^3
#
#
#
# Elastic Constant Matrix: (Units=GPa)
#
#
# Indices 1 2 3 4 5 6 
#
# 1 40.1526 40.6774 23.8147 0.0000 8.4387 0.0000
# 2 40.6774 158.3130 51.6957 0.0000 12.8272 0.0000
# 3 23.8147 51.6957 122.2714 0.0000 23.9337 0.0000
# 4 0.0000 0.0000 0.0000 43.5613 0.0000 2.5489
# 5 8.4387 12.8272 23.9337 0.0000 29.4949 0.0000
# 6 0.0000 0.0000 0.0000 2.5489 0.0000 20.6968
#
#
#
# Elastic Compliance Matrix: (Units=1/GPa)
#
#
# Indices 1 2 3 4 5 6 
#
# 1 0.035408 -0.007852 -0.002689 0.000000 -0.004533 0.000000
# 2 -0.007852 0.009086 -0.002352 0.000000 0.000204 0.000000
# 3 -0.002689 -0.002352 0.011111 0.000000 -0.007224 0.000000
# 4 0.000000 0.000000 0.000000 0.023123 0.000000 -0.002848
# 5 -0.004533 0.000204 -0.007224 0.000000 0.040974 0.000000
# 6 0.000000 0.000000 0.000000 -0.002848 0.000000 0.048667
#
#
# Mechanical properties :
#
#
# Convention : Reuss Voigt Hill
#
# Bulk Modulus (GPa) = 33.53743 61.45695 47.49719
# Shear Modulus (GPa) = 24.49856 32.38722 28.44289
#
# Velocity S-wave (km/s) = 3.36063 3.86400 3.62107
# Velocity P-wave (km/s) = 5.52442 6.94543 6.27527
#
# Compressibility (1/GPa) = 0.02981743
#
# Stress axis : x y z
#
# Youngs Moduli (GPa) = 28.24255 110.06340 90.00437
#
# Poissons Ratio (x) = 0.86425 0.24202
# Poissons Ratio (y) = 0.22177 0.21168
# Poissons Ratio (z) = 0.07594 0.25885
#
# Static dielectric constant tensor:
#      x y z
#    x 4.518050 0.000000 -0.486130 
#    y 0.000000 4.491370 0.000000 
#    z -0.486130 0.000000 4.314970 
# 
# 
# High freq. dielectric constant tensor:
#      x y z
#    x 1.848470 0.000000 0.000700 
#    y 0.000000 1.871870 0.000000 
#    z 0.000700 0.000000 1.864360 
# 
# From -- ./inp_files/162642.got.cif
#   From: 2010.06.25/outbox.cif.g09.slc.cpg/sg15_82_cif.got.tgz:162642.got - 2010.06.28 07:06:18.
