data_PCOD8147414
_publ_section_title
;
Structure prediction by ZEFSAII (Michael W. Deem and Ramdas Pophale) SiO2 
 PCOD8147414
Probable space group: C 2/C
;
_chemical_formula_sum "Si O2"
_cell_formula_units_Z 32
_cell_length_a 12.293902
_cell_length_b 15.232275
_cell_length_c 7.765627
_cell_angle_alpha 90.000000
_cell_angle_beta 110.890035
_cell_angle_gamma 90.000000
_cell_volume 1358.631952
_symmetry_space_group_name_H-M "C 2/C"
_symmetry_group_IT_number 15
_symmetry_cell_setting 'monoclinic'
loop_
_space_group_symop_operation_xyz
x,y,z
-x,y,1/2-z
-x,-y,-z
x,-y,1/2+z
1/2+x,1/2+y,z
1/2-x,1/2+y,1/2-z
1/2-x,1/2-y,-z
1/2+x,1/2-y,1/2+z
loop_
_atom_site_type_symbol
_atom_site_label
_atom_site_fract_x
_atom_site_fract_y
_atom_site_fract_z
Si Si1 0.500000 0.555211 0.250000
Si Si2 0.362833 0.592463 0.486178
Si Si3 0.382751 0.970657 0.577239
Si Si4 0.022885 0.644920 0.946405
Si Si5 0.000000 0.767321 0.250000
O O1 0.422196 0.614184 0.335318
O O2 0.587493 0.497232 0.410389
O O3 0.226184 0.573198 0.387242
O O4 0.390246 0.673532 0.628917
O O5 0.500000 0.950344 0.750000
O O6 0.405359 0.913481 0.415861
O O7 0.371243 0.073726 0.520372
O O8 0.000000 0.693978 0.750000
O O9 0.049112 0.712019 0.116084
#
# Coordination Sequence:
#
# PCOD8147414 Si02
#       5
#     4   8   8   8   4
#     4   9  22  42  66 101 136 200 240 273 352 440
#     4  10  23  42  72 100 145 184 239 293 349 423
#     4  10  22  43  71 102 139 189 239 289 343 434
#     4  10  23  41  68 104 140 184 239 282 359 414
#     4  11  24  46  68 107 150 180 228 307 350 410
#
# _framework density 23.553106
#
# number of rings (size 3 to 8) (size 9 to 14) (size 15 to 20)
#    0.000    2.000    1.250    0.000   14.000    1.000 
#    0.000    1.250    0.000    0.000    0.000    0.000 
#    0.000    0.000    0.000    0.000    0.000    0.000 
#
# Total GULP energy -198210.666015 kJ/mol
# GULP energy per Si atom -12388.166626 kJ/mol
# Density = 2.349950 g / cm^3
# Si number density = 23.553106 Si / 1000 Ang^3
#
#
#
# Elastic Constant Matrix: (Units=GPa)
#
#
# Indices 1 2 3 4 5 6 
#
# 1 155.0862 56.2134 74.4849 0.0000 -5.4712 0.0000
# 2 56.2134 111.3767 60.3716 0.0000 -8.2637 0.0000
# 3 74.4849 60.3716 158.4284 0.0000 -29.4148 0.0000
# 4 0.0000 0.0000 0.0000 33.3947 0.0000 -10.0195
# 5 -5.4712 -8.2637 -29.4148 0.0000 42.1659 0.0000
# 6 0.0000 0.0000 0.0000 -10.0195 0.0000 16.8528
#
#
#
# Elastic Compliance Matrix: (Units=1/GPa)
#
#
# Indices 1 2 3 4 5 6 
#
# 1 0.009108 -0.002807 -0.003556 0.000000 -0.001849 0.000000
# 2 -0.002807 0.012211 -0.003397 0.000000 -0.000341 0.000000
# 3 -0.003556 -0.003397 0.010418 0.000000 0.006141 0.000000
# 4 0.000000 0.000000 0.000000 0.036446 0.000000 0.021668
# 5 -0.001849 -0.000341 0.006141 0.000000 0.027693 0.000000
# 6 0.000000 0.000000 0.000000 0.021668 0.000000 0.072220
#
#
# Mechanical properties :
#
#
# Convention : Reuss Voigt Hill
#
# Bulk Modulus (GPa) = 81.84283 89.67014 85.75648
# Shear Modulus (GPa) = 26.08403 34.07074 30.07738
#
# Velocity S-wave (km/s) = 3.33146 3.80748 3.57739
# Velocity P-wave (km/s) = 7.04427 7.58178 7.31796
#
# Compressibility (1/GPa) = 0.01221854
#
# Stress axis : x y z
#
# Youngs Moduli (GPa) = 109.79470 81.89247 95.98454
#
# Poissons Ratio (x) = 0.22984 0.34130
# Poissons Ratio (y) = 0.30815 0.32606
# Poissons Ratio (z) = 0.39041 0.27819
#
# Static dielectric constant tensor:
#      x y z
#    x 4.121660 0.000000 -0.577980 
#    y 0.000000 4.214180 0.000000 
#    z -0.577980 0.000000 4.643830 
# 
# 
# High freq. dielectric constant tensor:
#      x y z
#    x 1.900860 0.000000 -0.026550 
#    y 0.000000 1.915770 0.000000 
#    z -0.026550 0.000000 1.952830 
# 
# From -- ./inp_files/28493.got.cif
#   From: 2010.06.25/outbox.cif.g09.slc.cpg/sg15_15_cif.got.tgz:28493.got - 2010.06.28 07:06:18.
