data_PCOD8147190
_publ_section_title
;
Structure prediction by ZEFSAII (Michael W. Deem and Ramdas Pophale) SiO2 
 PCOD8147190
Probable space group: C 2/C
;
_chemical_formula_sum "Si O2"
_cell_formula_units_Z 64
_cell_length_a 15.502236
_cell_length_b 20.941279
_cell_length_c 15.320848
_cell_angle_alpha 90.000000
_cell_angle_beta 34.990423
_cell_angle_gamma 90.000000
_cell_volume 2852.121098
_symmetry_space_group_name_H-M "C 2/C"
_symmetry_group_IT_number 15
_symmetry_cell_setting 'monoclinic'
loop_
_space_group_symop_operation_xyz
x,y,z
-x,y,1/2-z
-x,-y,-z
x,-y,1/2+z
1/2+x,1/2+y,z
1/2-x,1/2+y,1/2-z
1/2-x,1/2-y,-z
1/2+x,1/2-y,1/2+z
loop_
_atom_site_type_symbol
_atom_site_label
_atom_site_fract_x
_atom_site_fract_y
_atom_site_fract_z
Si Si1 0.186125 0.804012 0.172341
Si Si2 0.035673 0.804368 0.874812
Si Si3 0.719612 0.110339 0.398615
Si Si4 0.545236 0.620423 0.545424
Si Si5 0.834905 0.334147 0.867553
Si Si6 0.590867 0.159167 0.860566
Si Si7 0.524405 0.512127 0.330897
Si Si8 0.280680 0.384071 0.042303
O O1 0.158424 0.727822 0.201642
O O2 0.291761 0.834292 0.158922
O O3 0.023415 0.836747 0.318733
O O4 0.262562 0.818150 0.018845
O O5 0.190304 0.825660 0.701775
O O6 0.030522 0.729083 0.888068
O O7 0.891486 0.823385 0.936148
O O8 0.007674 0.842669 0.988264
O O9 0.553889 0.115591 0.492166
O O10 0.816269 0.048804 0.286650
O O11 0.692679 0.106541 0.524830
O O12 0.726444 0.615045 0.409226
O O13 0.473195 0.550028 0.609162
O O14 0.000000 0.362796 0.750000
O O15 0.664333 0.125622 0.716448
O O16 0.500000 0.492781 0.250000
O O17 0.386319 0.555436 0.476226
#
# Coordination Sequence:
#
# PCOD8147190 Si02
#       8
#     8   8   8   8   8   8   8   8
#     4  11  23  40  61  95 135 172 216 268 338 406
#     4  11  23  37  65  94 132 173 219 269 343 412
#     4  10  24  40  64  94 135 173 229 281 331 392
#     4  12  23  43  70  94 131 180 224 269 341 408
#     4  11  24  39  65  96 132 171 222 276 338 403
#     4  12  23  39  64  99 133 170 214 286 338 390
#     4   9  21  45  70  91 127 181 235 275 324 406
#     4  10  22  43  62  95 128 176 226 277 335 399
#
# _framework density 22.439440000000001
#
# number of rings (size 3 to 8) (size 9 to 14) (size 15 to 20)
#    0.000    1.250    2.500    4.875    1.750    5.000 
#    0.000    4.375    0.000    0.000    0.000    0.000 
#    0.000    0.000    0.000    0.000    0.000    0.000 
#
# Total GULP energy -396702.589825 kJ/mol
# GULP energy per Si atom -12396.955932 kJ/mol
# Density = 2.238837 g / cm^3
# Si number density = 22.439440 Si / 1000 Ang^3
#
#
#
# Elastic Constant Matrix: (Units=GPa)
#
#
# Indices 1 2 3 4 5 6 
#
# 1 66.4072 24.2142 35.4035 0.0055 -13.5385 -0.0013
# 2 24.2142 110.4786 48.0952 -0.0160 7.6290 0.0083
# 3 35.4035 48.0952 118.0496 -0.0361 -18.1172 0.0345
# 4 0.0055 -0.0160 -0.0361 29.7984 0.0231 7.3761
# 5 -13.5385 7.6290 -18.1172 0.0231 37.7652 -0.0064
# 6 -0.0013 0.0083 0.0345 7.3761 -0.0064 15.9177
#
#
#
# Elastic Compliance Matrix: (Units=1/GPa)
#
#
# Indices 1 2 3 4 5 6 
#
# 1 0.019295 -0.003032 -0.003666 -0.000020 0.005771 0.000023
# 2 -0.003032 0.012319 -0.005028 0.000006 -0.005988 -0.000001
# 3 -0.003666 -0.005028 0.012493 0.000016 0.005695 -0.000030
# 4 -0.000020 0.000006 0.000016 0.037907 -0.000027 -0.017566
# 5 0.005771 -0.005988 0.005695 -0.000027 0.032490 0.000017
# 6 0.000023 -0.000001 -0.000030 -0.017566 0.000017 0.070963
#
#
# Mechanical properties :
#
#
# Convention : Reuss Voigt Hill
#
# Bulk Modulus (GPa) = 48.41516 56.70679 52.56098
# Shear Modulus (GPa) = 23.16927 29.17776 26.17351
#
# Velocity S-wave (km/s) = 3.21678 3.60986 3.41897
# Velocity P-wave (km/s) = 5.95144 6.53458 6.24981
#
# Compressibility (1/GPa) = 0.02065469
#
# Stress axis : x y z
#
# Youngs Moduli (GPa) = 51.82712 81.17859 80.04400
#
# Poissons Ratio (x) = 0.24610 0.29343
# Poissons Ratio (y) = 0.15712 0.40250
# Poissons Ratio (z) = 0.18999 0.40821
#
# Static dielectric constant tensor:
#      x y z
#    x 4.170660 -0.000020 -0.078880 
#    y -0.000020 3.898450 0.000040 
#    z -0.078880 0.000040 4.225550 
# 
# 
# High freq. dielectric constant tensor:
#      x y z
#    x 1.886960 0.000000 0.001060 
#    y 0.000000 1.856040 0.000000 
#    z 0.001060 0.000000 1.896460 
# 
# From -- ./inp_files/211955.got.cif
#   From: 2010.06.25/outbox.cif.g09.slc.cpg/sg15_106_cif.got.tgz:211955.got - 2010.06.28 07:06:18.
