data_PCOD8147329
_publ_section_title
;
Structure prediction by ZEFSAII (Michael W. Deem and Ramdas Pophale) SiO2 
 PCOD8147329
Probable space group: C 2/C
;
_chemical_formula_sum "Si O2"
_cell_formula_units_Z 56
_cell_length_a 16.314788
_cell_length_b 12.053801
_cell_length_c 13.483326
_cell_angle_alpha 90.000000
_cell_angle_beta 70.124273
_cell_angle_gamma 90.000000
_cell_volume 2493.618420
_symmetry_space_group_name_H-M "C 2/C"
_symmetry_group_IT_number 15
_symmetry_cell_setting 'monoclinic'
loop_
_space_group_symop_operation_xyz
x,y,z
-x,y,1/2-z
-x,-y,-z
x,-y,1/2+z
1/2+x,1/2+y,z
1/2-x,1/2+y,1/2-z
1/2-x,1/2-y,-z
1/2+x,1/2-y,1/2+z
loop_
_atom_site_type_symbol
_atom_site_label
_atom_site_fract_x
_atom_site_fract_y
_atom_site_fract_z
Si Si1 0.576981 0.158308 0.779960
Si Si2 0.698680 0.322540 0.640523
Si Si3 0.202039 0.037298 0.733169
Si Si4 0.113504 0.567774 0.317128
Si Si5 0.900988 0.229655 0.818532
Si Si6 0.519905 0.793602 0.518839
Si Si7 0.150044 0.175609 0.936470
O O1 0.500000 0.216787 0.750000
O O2 0.664283 0.204748 0.693919
O O3 0.570789 0.026656 0.765351
O O4 0.572308 0.187363 0.897408
O O5 0.657384 0.418701 0.726337
O O6 0.803605 0.296633 0.608449
O O7 0.676038 0.353875 0.537349
O O8 0.166480 0.128366 0.669529
O O9 0.180993 0.074649 0.853534
O O10 0.303135 0.002064 0.672993
O O11 0.134401 0.672312 0.237587
O O12 0.040132 0.600352 0.428562
O O13 0.000000 0.195389 0.750000
O O14 0.904818 0.266755 0.931453
O O15 0.453305 0.689401 0.534659
#
# Coordination Sequence:
#
# PCOD8147329 Si02
#       7
#     8   8   8   8   8   8   8
#     4  12  24  41  67 103 136 173 235 295 346 414
#     4  11  25  42  67 103 134 181 236 286 347 422
#     4  12  22  43  73  95 137 187 229 279 349 431
#     4  11  23  42  70 100 136 182 232 287 349 422
#     4  10  22  43  68 100 137 180 234 285 348 412
#     4  11  22  45  69 101 136 181 231 296 356 403
#     4  11  22  46  69  95 141 184 230 287 354 418
#
# _framework density 22.457324
#
# number of rings (size 3 to 8) (size 9 to 14) (size 15 to 20)
#    0.000    0.857    7.143    1.714    0.000    1.714 
#    2.571    2.143    0.000    0.000    0.000    0.000 
#    0.000    0.000    0.000    0.000    0.000    0.000 
#
# Total GULP energy -346899.589661 kJ/mol
# GULP energy per Si atom -12389.271059 kJ/mol
# Density = 2.240621 g / cm^3
# Si number density = 22.457324 Si / 1000 Ang^3
#
#
#
# Elastic Constant Matrix: (Units=GPa)
#
#
# Indices 1 2 3 4 5 6 
#
# 1 114.5016 29.2317 24.1095 0.0000 20.8332 0.0000
# 2 29.2317 112.7525 46.9587 0.0000 4.5129 0.0000
# 3 24.1095 46.9587 94.7750 0.0000 22.6778 0.0000
# 4 0.0000 0.0000 0.0000 26.8124 0.0000 -5.3041
# 5 20.8332 4.5129 22.6778 0.0000 32.8725 0.0000
# 6 0.0000 0.0000 0.0000 -5.3041 0.0000 32.0255
#
#
#
# Elastic Compliance Matrix: (Units=1/GPa)
#
#
# Indices 1 2 3 4 5 6 
#
# 1 0.010516 -0.002511 0.000097 0.000000 -0.006387 0.000000
# 2 -0.002511 0.011984 -0.006331 0.000000 0.004314 0.000000
# 3 0.000097 -0.006331 0.016134 0.000000 -0.010323 0.000000
# 4 0.000000 0.000000 0.000000 0.038560 0.000000 0.006386
# 5 -0.006387 0.004314 -0.010323 0.000000 0.040997 0.000000
# 6 0.000000 0.000000 0.000000 0.006386 0.000000 0.032283
#
#
# Mechanical properties :
#
#
# Convention : Reuss Voigt Hill
#
# Bulk Modulus (GPa) = 47.29569 58.06988 52.68278
# Shear Modulus (GPa) = 28.56945 33.12404 30.84674
#
# Velocity S-wave (km/s) = 3.57061 3.84471 3.71019
# Velocity P-wave (km/s) = 6.17293 6.75449 6.47024
#
# Compressibility (1/GPa) = 0.02114358
#
# Stress axis : x y z
#
# Youngs Moduli (GPa) = 95.09102 83.44292 61.98263
#
# Poissons Ratio (x) = 0.20955 -0.00604
# Poissons Ratio (y) = 0.23880 0.39243
# Poissons Ratio (z) = -0.00927 0.52831
#
# Static dielectric constant tensor:
#      x y z
#    x 4.188600 0.000000 0.259200 
#    y 0.000000 4.225550 0.000000 
#    z 0.259200 0.000000 3.832110 
# 
# 
# High freq. dielectric constant tensor:
#      x y z
#    x 1.900590 0.000000 0.021600 
#    y 0.000000 1.880460 0.000000 
#    z 0.021600 0.000000 1.869410 
# 
# From -- ./inp_files/160836.got.cif
#   From: 2010.06.25/outbox.cif.g09.slc.cpg/sg15_81_cif.got.tgz:160836.got - 2010.06.28 07:06:18.
