data_PCOD8147514
_publ_section_title
;
Structure prediction by ZEFSAII (Michael W. Deem and Ramdas Pophale) SiO2 
 PCOD8147514
Probable space group: C 2/C
;
_chemical_formula_sum "Si O2"
_cell_formula_units_Z 48
_cell_length_a 8.526598
_cell_length_b 31.768187
_cell_length_c 8.148837
_cell_angle_alpha 90.000000
_cell_angle_beta 82.850195
_cell_angle_gamma 90.000000
_cell_volume 2190.148839
_symmetry_space_group_name_H-M "C 2/C"
_symmetry_group_IT_number 15
_symmetry_cell_setting 'monoclinic'
loop_
_space_group_symop_operation_xyz
x,y,z
-x,y,1/2-z
-x,-y,-z
x,-y,1/2+z
1/2+x,1/2+y,z
1/2-x,1/2+y,1/2-z
1/2-x,1/2-y,-z
1/2+x,1/2-y,1/2+z
loop_
_atom_site_type_symbol
_atom_site_label
_atom_site_fract_x
_atom_site_fract_y
_atom_site_fract_z
Si Si1 0.500000 0.831602 0.250000
Si Si2 0.277257 0.201504 0.526839
Si Si3 0.678152 0.030971 0.775174
Si Si4 0.673016 0.054931 0.152029
Si Si5 0.319839 0.636373 0.227645
Si Si6 0.000000 0.160353 0.750000
Si Si7 0.230050 0.887306 0.412209
O O1 0.551547 0.804023 0.403498
O O2 0.354158 0.862506 0.287534
O O3 0.250000 0.250000 0.500000
O O4 0.263802 0.175045 0.358273
O O5 0.139514 0.189478 0.669619
O O6 0.500000 0.023845 0.750000
O O7 0.762792 0.063756 0.640038
O O8 0.753234 0.984349 0.739439
O O9 0.669781 0.044376 0.962101
O O10 0.500000 0.067094 0.250000
O O11 0.796795 0.093563 0.129938
O O12 0.500000 0.647420 0.250000
O O13 0.227403 0.623802 0.406743
O O14 0.944451 0.130553 0.607066
#
# Coordination Sequence:
#
# PCOD8147514 Si02
#       7
#     4   8   8   8   8   4   8
#     4  10  24  42  70 102 128 178 228 274 352 408
#     4  11  26  46  72 100 137 174 229 287 352 421
#     4  11  21  39  65 101 138 182 235 291 333 396
#     4  11  23  40  66  99 138 183 240 287 337 401
#     4  12  26  44  66  99 137 181 227 282 354 413
#     4  10  22  44  64  98 134 180 212 284 350 414
#     4  11  22  41  69  97 139 179 227 280 342 407
#
# _framework density 21.916319999999999
#
# number of rings (size 3 to 8) (size 9 to 14) (size 15 to 20)
#    0.000    1.000    2.500    6.000    3.500    1.333 
#    1.500    5.000    0.000    0.000    0.000    0.000 
#    0.000    0.000    0.000    0.000    0.000    0.000 
#
# Total GULP energy -297388.403436 kJ/mol
# GULP energy per Si atom -12391.183477 kJ/mol
# Density = 2.186644 g / cm^3
# Si number density = 21.916320 Si / 1000 Ang^3
#
#
#
# Elastic Constant Matrix: (Units=GPa)
#
#
# Indices 1 2 3 4 5 6 
#
# 1 65.9928 36.5762 14.3799 0.0000 23.1182 0.0000
# 2 36.5762 168.4892 43.1017 0.0000 18.4177 0.0000
# 3 14.3799 43.1017 131.1375 0.0000 18.4990 0.0000
# 4 0.0000 0.0000 0.0000 38.5207 0.0000 0.5362
# 5 23.1182 18.4177 18.4990 0.0000 38.8250 0.0000
# 6 0.0000 0.0000 0.0000 0.5362 0.0000 25.0394
#
#
#
# Elastic Compliance Matrix: (Units=1/GPa)
#
#
# Indices 1 2 3 4 5 6 
#
# 1 0.020798 -0.003417 0.000387 0.000000 -0.010947 0.000000
# 2 -0.003417 0.007223 -0.001933 0.000000 -0.000471 0.000000
# 3 0.000387 -0.001933 0.008707 0.000000 -0.003462 0.000000
# 4 0.000000 0.000000 0.000000 0.025968 0.000000 -0.000556
# 5 -0.010947 -0.000471 -0.003462 0.000000 0.034148 0.000000
# 6 0.000000 0.000000 0.000000 -0.000556 0.000000 0.039949
#
#
# Mechanical properties :
#
#
# Convention : Reuss Voigt Hill
#
# Bulk Modulus (GPa) = 37.31191 61.52613 49.41902
# Shear Modulus (GPa) = 32.12287 38.58112 35.35200
#
# Velocity S-wave (km/s) = 3.83261 4.20024 4.02063
# Velocity P-wave (km/s) = 6.05366 7.18727 6.64469
#
# Compressibility (1/GPa) = 0.02680109
#
# Stress axis : x y z
#
# Youngs Moduli (GPa) = 48.08191 138.45037 114.85259
#
# Poissons Ratio (x) = 0.47311 -0.04443
# Poissons Ratio (y) = 0.16430 0.22199
# Poissons Ratio (z) = -0.01860 0.26761
#
# Static dielectric constant tensor:
#      x y z
#    x 3.961390 0.000000 0.226140 
#    y 0.000000 4.158690 0.000000 
#    z 0.226140 0.000000 4.142560 
# 
# 
# High freq. dielectric constant tensor:
#      x y z
#    x 1.845430 0.000000 0.011930 
#    y 0.000000 1.862050 0.000000 
#    z 0.011930 0.000000 1.879810 
# 
# From -- ./inp_files/26184.got.cif
#   From: 2010.06.25/outbox.cif.g09.slc.cpg/sg15_14_cif.got.tgz:26184.got - 2010.06.28 07:06:18.
