data_PCOD8147273
_publ_section_title
;
Structure prediction by ZEFSAII (Michael W. Deem and Ramdas Pophale) SiO2 
 PCOD8147273
Probable space group: C 2/C
;
_chemical_formula_sum "Si O2"
_cell_formula_units_Z 52
_cell_length_a 28.989228
_cell_length_b 13.881980
_cell_length_c 8.599042
_cell_angle_alpha 90.000000
_cell_angle_beta 133.196314
_cell_angle_gamma 90.000000
_cell_volume 2522.744150
_symmetry_space_group_name_H-M "C 2/C"
_symmetry_group_IT_number 15
_symmetry_cell_setting 'monoclinic'
loop_
_space_group_symop_operation_xyz
x,y,z
-x,y,1/2-z
-x,-y,-z
x,-y,1/2+z
1/2+x,1/2+y,z
1/2-x,1/2+y,1/2-z
1/2-x,1/2-y,-z
1/2+x,1/2-y,1/2+z
loop_
_atom_site_type_symbol
_atom_site_label
_atom_site_fract_x
_atom_site_fract_y
_atom_site_fract_z
Si Si1 0.360787 0.425933 0.418656
Si Si2 0.500000 0.731187 0.750000
Si Si3 0.247529 0.552196 0.242401
Si Si4 0.559129 0.431155 0.596044
Si Si5 0.346550 0.979410 0.227169
Si Si6 0.102873 0.632106 0.377544
Si Si7 0.811273 0.787350 0.060252
O O1 0.289541 0.456399 0.305440
O O2 0.405206 0.397757 0.665552
O O3 0.391348 0.514428 0.397580
O O4 0.357742 0.334121 0.296735
O O5 0.461107 0.664785 0.541635
O O6 0.458809 0.801158 0.765059
O O7 0.201361 0.542532 0.282283
O O8 0.296810 0.636341 0.391155
O O9 0.200395 0.579684 0.993898
O O10 0.500000 0.500000 0.500000
O O11 0.387534 0.907241 0.425808
O O12 0.397166 0.044564 0.247242
O O13 0.161179 0.697291 0.465296
O O14 0.750000 0.750000 0.000000
#
# Coordination Sequence:
#
# PCOD8147273 Si02
#       7
#     8   4   8   8   8   8   8
#     4  12  22  38  68  97 136 178 203 257 336 396
#     4  12  26  44  68  98 124 168 238 278 300 386
#     4  11  19  38  66  99 132 169 204 255 335 402
#     4  12  23  42  65  94 135 178 213 261 327 386
#     4  10  22  43  66  89 130 174 208 266 341 383
#     4  11  25  44  67  91 127 172 225 278 317 382
#     4  12  22  37  65 102 132 163 217 265 312 394
#
# _framework density 20.612475
#
# number of rings (size 3 to 8) (size 9 to 14) (size 15 to 20)
#    0.000    0.615    6.154    2.769    0.000    2.462 
#    0.000    0.000    0.000    0.000    0.000    0.000 
#    0.000    0.000    0.000    0.000    0.000    0.000 
#
# Total GULP energy -322348.889894 kJ/mol
# GULP energy per Si atom -12398.034227 kJ/mol
# Density = 2.056556 g / cm^3
# Si number density = 20.612475 Si / 1000 Ang^3
#
#
#
# Elastic Constant Matrix: (Units=GPa)
#
#
# Indices 1 2 3 4 5 6 
#
# 1 95.7691 31.1713 42.6046 0.0000 -2.8090 0.0000
# 2 31.1713 94.2736 66.0296 0.0000 -10.2698 0.0000
# 3 42.6046 66.0296 115.4055 0.0000 -25.9304 0.0000
# 4 0.0000 0.0000 0.0000 35.4611 0.0000 7.2866
# 5 -2.8090 -10.2698 -25.9304 0.0000 37.3494 0.0000
# 6 0.0000 0.0000 0.0000 7.2866 0.0000 44.4781
#
#
#
# Elastic Compliance Matrix: (Units=1/GPa)
#
#
# Indices 1 2 3 4 5 6 
#
# 1 0.012823 -0.001336 -0.004545 0.000000 -0.002558 0.000000
# 2 -0.001336 0.018050 -0.010357 0.000000 -0.002328 0.000000
# 3 -0.004545 -0.010357 0.018426 0.000000 0.009603 0.000000
# 4 0.000000 0.000000 0.000000 0.029182 0.000000 -0.004781
# 5 -0.002558 -0.002328 0.009603 0.000000 0.032609 0.000000
# 6 0.000000 0.000000 0.000000 -0.004781 0.000000 0.023266
#
#
# Mechanical properties :
#
#
# Convention : Reuss Voigt Hill
#
# Bulk Modulus (GPa) = 59.43665 65.00657 62.22161
# Shear Modulus (GPa) = 28.99570 34.50058 31.74814
#
# Velocity S-wave (km/s) = 3.75468 4.09561 3.92885
# Velocity P-wave (km/s) = 6.90613 7.34652 7.12973
#
# Compressibility (1/GPa) = 0.01682464
#
# Stress axis : x y z
#
# Youngs Moduli (GPa) = 77.98373 55.40284 54.26982
#
# Poissons Ratio (x) = 0.07399 0.24663
# Poissons Ratio (y) = 0.10415 0.56208
# Poissons Ratio (z) = 0.35440 0.57382
#
# Static dielectric constant tensor:
#      x y z
#    x 3.698320 0.000000 -0.614250 
#    y 0.000000 3.845030 0.000000 
#    z -0.614250 0.000000 4.407750 
# 
# 
# High freq. dielectric constant tensor:
#      x y z
#    x 1.820250 0.000000 -0.008510 
#    y 0.000000 1.796490 0.000000 
#    z -0.008510 0.000000 1.806330 
# 
# From -- ./inp_files/55297.got.cif
#   From: 2010.06.25/outbox.cif.g09.slc.cpg/sg15_28_cif.got.tgz:55297.got - 2010.06.28 07:06:18.
