data_PCOD8147242
_publ_section_title
;
Structure prediction by ZEFSAII (Michael W. Deem and Ramdas Pophale) SiO2 
 PCOD8147242
Probable space group: C 2/C
;
_chemical_formula_sum "Si O2"
_cell_formula_units_Z 28
_cell_length_a 16.265950
_cell_length_b 15.723385
_cell_length_c 11.781920
_cell_angle_alpha 90.000000
_cell_angle_beta 156.197213
_cell_angle_gamma 90.000000
_cell_volume 1216.134852
_symmetry_space_group_name_H-M "C 2/C"
_symmetry_group_IT_number 15
_symmetry_cell_setting 'monoclinic'
loop_
_space_group_symop_operation_xyz
x,y,z
-x,y,1/2-z
-x,-y,-z
x,-y,1/2+z
1/2+x,1/2+y,z
1/2-x,1/2+y,1/2-z
1/2-x,1/2-y,-z
1/2+x,1/2-y,1/2+z
loop_
_atom_site_type_symbol
_atom_site_label
_atom_site_fract_x
_atom_site_fract_y
_atom_site_fract_z
Si Si1 0.980636 0.159729 0.962828
Si Si2 0.560295 0.172769 0.948468
Si Si3 0.500000 0.401742 0.250000
Si Si4 0.808494 0.935266 0.441107
O O1 0.215509 0.133554 0.276879
O O2 0.940858 0.254537 0.957561
O O3 0.838821 0.091128 0.847983
O O4 0.921969 0.156677 0.755104
O O5 0.500000 0.212166 0.750000
O O6 0.407062 0.097140 0.786186
O O7 0.682271 0.462500 0.528932
O O8 0.000000 0.891989 0.750000
#
# Coordination Sequence:
#
# PCOD8147242 Si02
#       4
#     8   8   4   8
#     4  12  23  41  67  94 128 164 212 256 313 372
#     4  12  22  39  71  97 116 164 223 262 296 365
#     4  10  26  44  60  92 140 166 192 262 328 374
#     4  10  22  43  65  91 125 163 213 261 305 362
#
# _framework density 23.023764
#
# number of rings (size 3 to 8) (size 9 to 14) (size 15 to 20)
#    0.857    0.000    5.714    2.571    0.000    2.286 
#    0.000    2.857    0.000    0.000    0.000    0.000 
#    0.000    0.000    0.000    0.000    0.000    0.000 
#
# Total GULP energy -173563.789109 kJ/mol
# GULP energy per Si atom -12397.413508 kJ/mol
# Density = 2.297136 g / cm^3
# Si number density = 23.023764 Si / 1000 Ang^3
#
#
#
# Elastic Constant Matrix: (Units=GPa)
#
#
# Indices 1 2 3 4 5 6 
#
# 1 148.6753 34.1430 27.0150 0.0000 -21.0754 0.0000
# 2 34.1430 77.8372 2.1130 0.0000 -12.7555 0.0000
# 3 27.0150 2.1130 35.2890 0.0000 4.2092 0.0000
# 4 0.0000 0.0000 0.0000 2.4751 0.0000 -6.3192
# 5 -21.0754 -12.7555 4.2092 0.0000 61.8494 0.0000
# 6 0.0000 0.0000 0.0000 -6.3192 0.0000 25.6039
#
#
#
# Elastic Compliance Matrix: (Units=1/GPa)
#
#
# Indices 1 2 3 4 5 6 
#
# 1 0.009227 -0.003370 -0.007213 0.000000 0.002940 0.000000
# 2 -0.003370 0.014572 0.001498 0.000000 0.001755 0.000000
# 3 -0.007213 0.001498 0.034304 0.000000 -0.004483 0.000000
# 4 0.000000 0.000000 0.000000 1.092336 0.000000 0.269594
# 5 0.002940 0.001755 -0.004483 0.000000 0.017837 0.000000
# 6 0.000000 0.000000 0.000000 0.269594 0.000000 0.105594
#
#
# Mechanical properties :
#
#
# Convention : Reuss Voigt Hill
#
# Bulk Modulus (GPa) = 25.04104 43.14926 34.09515
# Shear Modulus (GPa) = 3.83039 31.22102 17.52570
#
# Velocity S-wave (km/s) = 1.29123 3.68643 2.76198
# Velocity P-wave (km/s) = 3.62254 6.07467 5.00122
#
# Compressibility (1/GPa) = 0.03993444
#
# Stress axis : x y z
#
# Youngs Moduli (GPa) = 108.37372 68.62241 29.15098
#
# Poissons Ratio (x) = 0.23125 0.21026
# Poissons Ratio (y) = 0.36521 -0.04367
# Poissons Ratio (z) = 0.78167 -0.10279
#
# Static dielectric constant tensor:
#      x y z
#    x 4.416370 0.000000 -0.102330 
#    y 0.000000 3.672780 0.000000 
#    z -0.102330 0.000000 3.880340 
# 
# 
# High freq. dielectric constant tensor:
#      x y z
#    x 1.927950 0.000000 -0.004710 
#    y 0.000000 1.889850 0.000000 
#    z -0.004710 0.000000 1.881240 
# 
# From -- ./inp_files/30666.got.cif
#   From: 2010.06.25/outbox.cif.g09.slc.cpg/sg15_16_cif.got.tgz:30666.got - 2010.06.28 07:06:18.
