data_PCOD8147640
_publ_section_title
;
Structure prediction by ZEFSAII (Michael W. Deem and Ramdas Pophale) SiO2 
 PCOD8147640
Probable space group: C 2/C
;
_chemical_formula_sum "Si O2"
_cell_formula_units_Z 52
_cell_length_a 11.637362
_cell_length_b 26.099245
_cell_length_c 8.657259
_cell_angle_alpha 90.000000
_cell_angle_beta 111.388344
_cell_angle_gamma 90.000000
_cell_volume 2448.348468
_symmetry_space_group_name_H-M "C 2/C"
_symmetry_group_IT_number 15
_symmetry_cell_setting 'monoclinic'
loop_
_space_group_symop_operation_xyz
x,y,z
-x,y,1/2-z
-x,-y,-z
x,-y,1/2+z
1/2+x,1/2+y,z
1/2-x,1/2+y,1/2-z
1/2-x,1/2-y,-z
1/2+x,1/2-y,1/2+z
loop_
_atom_site_type_symbol
_atom_site_label
_atom_site_fract_x
_atom_site_fract_y
_atom_site_fract_z
Si Si1 0.303302 0.835216 0.619588
Si Si2 0.000000 0.384756 0.250000
Si Si3 0.264267 0.049394 0.705651
Si Si4 0.028312 0.309489 0.526417
Si Si5 0.535857 0.700778 0.944832
Si Si6 0.210239 0.945745 0.536777
Si Si7 0.028983 0.905698 0.944784
O O1 0.400298 0.830510 0.530280
O O2 0.357232 0.812756 0.802649
O O3 0.183104 0.802679 0.520214
O O4 0.274676 0.894705 0.629614
O O5 0.893528 0.420868 0.266066
O O6 0.062331 0.346217 0.402165
O O7 0.212645 0.049577 0.853510
O O8 0.166338 0.074039 0.539772
O O9 0.283968 0.991514 0.656092
O O10 0.009756 0.249447 0.476390
O O11 0.500000 0.709567 0.750000
O O12 0.473637 0.650673 0.983863
O O13 0.066844 0.943886 0.517552
O O14 0.000000 0.903214 0.750000
#
# Coordination Sequence:
#
# PCOD8147640 Si02
#       7
#     8   4   8   8   8   8   8
#     4  10  22  44  68  95 131 179 227 274 338 406
#     4  12  30  42  66 100 146 180 232 274 332 410
#     4  12  26  46  68 101 135 180 227 281 341 406
#     4  11  24  43  66  95 139 183 222 277 332 406
#     4  11  23  40  72 102 131 179 227 278 342 396
#     4  11  24  45  73  97 134 175 226 283 344 398
#     4  11  25  44  71 103 135 170 227 289 342 399
#
# _framework density 21.238807999999999
#
# number of rings (size 3 to 8) (size 9 to 14) (size 15 to 20)
#    0.000    0.923    3.077    4.154    7.538    1.846 
#    0.000    1.538    0.000    0.000    0.000    0.000 
#    0.000    0.000    0.000    0.000    0.000    0.000 
#
# Total GULP energy -322483.646039 kJ/mol
# GULP energy per Si atom -12403.217155 kJ/mol
# Density = 2.119047 g / cm^3
# Si number density = 21.238808 Si / 1000 Ang^3
#
#
#
# Elastic Constant Matrix: (Units=GPa)
#
#
# Indices 1 2 3 4 5 6 
#
# 1 63.7140 31.0093 30.1406 0.0000 11.7256 0.0000
# 2 31.0093 138.4884 44.6103 0.0000 6.9872 0.0000
# 3 30.1406 44.6103 82.1625 0.0000 1.6652 0.0000
# 4 0.0000 0.0000 0.0000 46.3824 0.0000 0.8238
# 5 11.7256 6.9872 1.6652 0.0000 37.1967 0.0000
# 6 0.0000 0.0000 0.0000 0.8238 0.0000 19.7728
#
#
#
# Elastic Compliance Matrix: (Units=1/GPa)
#
#
# Indices 1 2 3 4 5 6 
#
# 1 0.020885 -0.002365 -0.006259 0.000000 -0.005859 0.000000
# 2 -0.002365 0.009096 -0.004055 0.000000 -0.000782 0.000000
# 3 -0.006259 -0.004055 0.016629 0.000000 0.001990 0.000000
# 4 0.000000 0.000000 0.000000 0.021576 0.000000 -0.000899
# 5 -0.005859 -0.000782 0.001990 0.000000 0.028789 0.000000
# 6 0.000000 0.000000 0.000000 -0.000899 0.000000 0.050612
#
#
# Mechanical properties :
#
#
# Convention : Reuss Voigt Hill
#
# Bulk Modulus (GPa) = 47.05477 55.09837 51.07657
# Shear Modulus (GPa) = 27.77339 32.57736 30.17538
#
# Velocity S-wave (km/s) = 3.62010 3.92070 3.77339
# Velocity P-wave (km/s) = 6.29894 6.81869 6.56396
#
# Compressibility (1/GPa) = 0.02125183
#
# Stress axis : x y z
#
# Youngs Moduli (GPa) = 47.88085 109.93735 60.13749
#
# Poissons Ratio (x) = 0.25997 0.37639
# Poissons Ratio (y) = 0.11322 0.24388
# Poissons Ratio (z) = 0.29968 0.44584
#
# Static dielectric constant tensor:
#      x y z
#    x 3.871310 0.000000 -0.029220 
#    y 0.000000 4.108820 0.000000 
#    z -0.029220 0.000000 3.778190 
# 
# 
# High freq. dielectric constant tensor:
#      x y z
#    x 1.828610 0.000000 0.005670 
#    y 0.000000 1.854510 0.000000 
#    z 0.005670 0.000000 1.835260 
# 
# From -- ./inp_files/33737.got.cif
#   From: 2010.06.25/outbox.cif.g09.slc.cpg/sg15_17_cif.got.tgz:33737.got - 2010.06.28 07:06:18.
