data_PCOD8147016
_publ_section_title
;
Structure prediction by ZEFSAII (Michael W. Deem and Ramdas Pophale) SiO2 
 PCOD8147016
Probable space group: C 2/C
;
_chemical_formula_sum "Si O2"
_cell_formula_units_Z 56
_cell_length_a 17.254852
_cell_length_b 8.960125
_cell_length_c 23.707739
_cell_angle_alpha 90.000000
_cell_angle_beta 46.509581
_cell_angle_gamma 90.000000
_cell_volume 2659.172778
_symmetry_space_group_name_H-M "C 2/C"
_symmetry_group_IT_number 15
_symmetry_cell_setting 'monoclinic'
loop_
_space_group_symop_operation_xyz
x,y,z
-x,y,1/2-z
-x,-y,-z
x,-y,1/2+z
1/2+x,1/2+y,z
1/2-x,1/2+y,1/2-z
1/2-x,1/2-y,-z
1/2+x,1/2-y,1/2+z
loop_
_atom_site_type_symbol
_atom_site_label
_atom_site_fract_x
_atom_site_fract_y
_atom_site_fract_z
Si Si1 0.073338 0.708559 0.824946
Si Si2 0.500000 0.221755 0.250000
Si Si3 0.100583 0.598527 0.971718
Si Si4 0.192999 0.138872 0.796878
Si Si5 0.175104 0.959895 0.180766
Si Si6 0.500000 0.302615 0.750000
Si Si7 0.980312 0.385097 0.636835
Si Si8 0.920220 0.093672 0.078478
O O1 0.198567 0.731322 0.747400
O O2 0.998145 0.704284 0.807511
O O3 0.068672 0.545558 0.855382
O O4 0.029530 0.840210 0.888187
O O5 0.608611 0.316940 0.192717
O O6 0.497660 0.121685 0.307489
O O7 0.212436 0.514910 0.907060
O O8 0.119987 0.759164 0.932822
O O9 0.000000 0.500000 0.000000
O O10 0.086767 0.630189 0.045508
O O11 0.193015 0.049765 0.738406
O O12 0.097463 0.256493 0.846093
O O13 0.176354 0.017551 0.855561
O O14 0.107722 0.103860 0.198828
O O15 0.000000 0.000000 0.000000
#
# Coordination Sequence:
#
# PCOD8147016 Si02
#       8
#     8   4   8   8   8   4   8   8
#     4  12  24  42  68 102 136 181 233 292 346 417
#     4   9  23  42  64  96 130 182 230 268 346 420
#     4  12  24  42  69 103 135 178 228 289 346 409
#     4  11  22  41  71  98 132 184 240 290 338 420
#     4  10  22  42  68  97 136 181 227 282 346 420
#     4  11  25  42  72 102 144 182 232 288 358 414
#     4  11  23  42  68  97 137 178 229 290 347 416
#     4  12  24  40  67 106 138 173 237 296 349 413
#
# _framework density 21.059180999999999
#
# number of rings (size 3 to 8) (size 9 to 14) (size 15 to 20)
#    0.000    0.857    5.714    1.286    4.000    0.571 
#    0.000    0.714    0.000    0.000    0.000    0.000 
#    0.000    0.000    0.000    0.000    0.000    0.000 
#
# Total GULP energy -347049.726553 kJ/mol
# GULP energy per Si atom -12394.633091 kJ/mol
# Density = 2.101125 g / cm^3
# Si number density = 21.059181 Si / 1000 Ang^3
#
#
#
# Elastic Constant Matrix: (Units=GPa)
#
#
# Indices 1 2 3 4 5 6 
#
# 1 87.1119 25.8165 51.3017 0.0000 -3.7028 0.0001
# 2 25.8165 106.4009 45.3239 0.0000 0.5062 0.0001
# 3 51.3017 45.3239 152.9566 0.0000 -2.6226 0.0000
# 4 0.0000 0.0000 0.0000 33.3853 0.0000 3.6367
# 5 -3.7028 0.5062 -2.6226 0.0000 37.1615 0.0000
# 6 0.0001 0.0001 0.0000 3.6367 0.0000 28.4700
#
#
#
# Elastic Compliance Matrix: (Units=1/GPa)
#
#
# Indices 1 2 3 4 5 6 
#
# 1 0.014608 -0.001684 -0.004380 0.000000 0.001169 0.000000
# 2 -0.001684 0.010955 -0.002690 0.000000 -0.000507 0.000000
# 3 -0.004380 -0.002690 0.008808 0.000000 0.000222 0.000000
# 4 0.000000 0.000000 0.000000 0.030376 0.000000 -0.003880
# 5 0.001169 -0.000507 0.000222 0.000000 0.027049 0.000000
# 6 0.000000 0.000000 0.000000 -0.003880 0.000000 0.035620
#
#
# Mechanical properties :
#
#
# Convention : Reuss Voigt Hill
#
# Bulk Modulus (GPa) = 59.30472 65.70594 62.50533
# Shear Modulus (GPa) = 33.21239 34.73851 33.97545
#
# Velocity S-wave (km/s) = 3.97558 4.06589 4.02099
# Velocity P-wave (km/s) = 7.02109 7.30139 7.16261
#
# Compressibility (1/GPa) = 0.01686206
#
# Stress axis : x y z
#
# Youngs Moduli (GPa) = 68.45559 91.27951 113.53360
#
# Poissons Ratio (x) = 0.15371 0.49733
# Poissons Ratio (y) = 0.11528 0.30542
# Poissons Ratio (z) = 0.29987 0.24556
#
# Static dielectric constant tensor:
#      x y z
#    x 3.951400 0.000000 0.170180 
#    y 0.000000 3.927760 0.000000 
#    z 0.170180 0.000000 4.064930 
# 
# 
# High freq. dielectric constant tensor:
#      x y z
#    x 1.799210 0.000000 0.012640 
#    y 0.000000 1.841630 0.000000 
#    z 0.012640 0.000000 1.832050 
# 
# From -- ./inp_files/276540.got.cif
#   From: 2010.06.25/outbox.cif.g09.slc.cpg/sg15_139_cif.got.tgz:276540.got - 2010.06.28 07:06:18.
