data_PCOD8147648
_publ_section_title
;
Structure prediction by ZEFSAII (Michael W. Deem and Ramdas Pophale) SiO2 
 PCOD8147648
Probable space group: C 2/C
;
_chemical_formula_sum "Si O2"
_cell_formula_units_Z 56
_cell_length_a 14.340794
_cell_length_b 16.153491
_cell_length_c 10.970903
_cell_angle_alpha 90.000000
_cell_angle_beta 91.059626
_cell_angle_gamma 90.000000
_cell_volume 2541.017712
_symmetry_space_group_name_H-M "C 2/C"
_symmetry_group_IT_number 15
_symmetry_cell_setting 'monoclinic'
loop_
_space_group_symop_operation_xyz
x,y,z
-x,y,1/2-z
-x,-y,-z
x,-y,1/2+z
1/2+x,1/2+y,z
1/2-x,1/2+y,1/2-z
1/2-x,1/2-y,-z
1/2+x,1/2-y,1/2+z
loop_
_atom_site_type_symbol
_atom_site_label
_atom_site_fract_x
_atom_site_fract_y
_atom_site_fract_z
Si Si1 0.890371 0.789908 0.888547
Si Si2 0.761337 0.956421 0.560376
Si Si3 0.446006 0.086077 0.507952
Si Si4 0.500000 0.835497 0.250000
Si Si5 0.958722 0.907960 0.493734
Si Si6 0.904443 0.309498 0.612281
Si Si7 0.500000 0.323436 0.250000
Si Si8 0.750175 0.573304 0.168365
O O1 0.814082 0.846525 0.823573
O O2 0.916040 0.721451 0.791521
O O3 0.850201 0.736536 0.001024
O O4 0.980040 0.844947 0.926264
O O5 0.662427 0.913691 0.532610
O O6 0.852834 0.900335 0.541402
O O7 0.761276 0.981249 0.706567
O O8 0.773280 0.029571 0.461032
O O9 0.452048 0.106546 0.649732
O O10 0.494312 0.158382 0.430418
O O11 0.500000 0.000000 0.500000
O O12 0.960526 0.882487 0.353237
O O13 0.000000 0.000000 0.500000
O O14 0.915566 0.237063 0.710910
O O15 0.854391 0.390671 0.664219
#
# Coordination Sequence:
#
# PCOD8147648 Si02
#       8
#     8   8   8   4   8   8   4   8
#     4  10  22  44  68  98 137 184 231 282 349 413
#     4  12  28  41  71 105 139 178 233 287 349 402
#     4  11  24  44  69 101 138 180 233 285 342 415
#     4  10  24  42  72  96 136 186 224 286 352 408
#     4  11  24  44  69 101 138 180 233 285 342 415
#     4  10  22  44  68  98 137 184 231 282 349 413
#     4  10  24  42  72  96 136 186 224 286 352 408
#     4  12  25  43  69 103 142 184 233 289 339 415
#
# _framework density 22.038412999999998
#
# number of rings (size 3 to 8) (size 9 to 14) (size 15 to 20)
#    0.000    1.143    2.857    2.143    4.000    2.286 
#    0.000    7.857    0.000    0.000    0.000    0.000 
#    0.000    0.000    0.000    0.000    0.000    0.000 
#
# Total GULP energy -346972.562439 kJ/mol
# GULP energy per Si atom -12391.877230 kJ/mol
# Density = 2.198825 g / cm^3
# Si number density = 22.038413 Si / 1000 Ang^3
#
#
#
# Elastic Constant Matrix: (Units=GPa)
#
#
# Indices 1 2 3 4 5 6 
#
# 1 103.3841 9.5466 25.4960 0.0000 -7.3842 0.0000
# 2 9.5466 91.1801 55.8511 0.0000 -5.8723 0.0000
# 3 25.4960 55.8511 155.3462 0.0000 -11.6339 0.0000
# 4 0.0000 0.0000 0.0000 23.7746 0.0000 30.1856
# 5 -7.3842 -5.8723 -11.6339 0.0000 18.1546 0.0000
# 6 0.0000 0.0000 0.0000 30.1856 0.0000 -9.8368
#
#
#
# Elastic Compliance Matrix: (Units=1/GPa)
#
#
# Indices 1 2 3 4 5 6 
#
# 1 0.010260 0.000022 -0.001448 0.000000 0.003252 0.000000
# 2 0.000022 0.014097 -0.004968 0.000000 0.001385 0.000000
# 3 -0.001448 -0.004968 0.008715 0.000000 0.003389 0.000000
# 4 0.000000 0.000000 0.000000 0.008591 0.000000 0.026362
# 5 0.003252 0.001385 0.003389 0.000000 0.059025 0.000000
# 6 0.000000 0.000000 0.000000 0.026362 0.000000 -0.020763
#
#
# Mechanical properties :
#
#
# Convention : Reuss Voigt Hill
#
# Bulk Modulus (GPa) = 49.30034 59.07755 54.18895
# Shear Modulus (GPa) = 50.26386 23.68625 36.97505
#
# Velocity S-wave (km/s) = 4.78089 3.28193 4.10048
# Velocity P-wave (km/s) = 7.27287 6.42076 6.86006
#
# Compressibility (1/GPa) = 0.02028384
#
# Stress axis : x y z
#
# Youngs Moduli (GPa) = 97.46507 70.93471 114.74488
#
# Poissons Ratio (x) = -0.00159 0.16620
# Poissons Ratio (y) = -0.00219 0.57009
# Poissons Ratio (z) = 0.14117 0.35243
#
# Static dielectric constant tensor:
#      x y z
#    x 3.944100 0.000000 0.121840 
#    y 0.000000 3.987170 0.000000 
#    z 0.121840 0.000000 0.401500 
# 
# 
# High freq. dielectric constant tensor:
#      x y z
#    x 1.864870 0.000000 -0.001960 
#    y 0.000000 1.865680 0.000000 
#    z -0.001960 0.000000 1.882570 
# 
# From -- ./inp_files/97091.got.cif
#   From: 2010.06.25/outbox.cif.g09.slc.cpg/sg15_49_cif.got.tgz:97091.got - 2010.06.28 07:06:18.
