data_PCOD8147743
_publ_section_title
;
Structure prediction by ZEFSAII (Michael W. Deem and Ramdas Pophale) SiO2 
 PCOD8147743
Probable space group: C 2/C
;
_chemical_formula_sum "Si O2"
_cell_formula_units_Z 56
_cell_length_a 9.054618
_cell_length_b 28.306164
_cell_length_c 17.358849
_cell_angle_alpha 90.000000
_cell_angle_beta 143.209327
_cell_angle_gamma 90.000000
_cell_volume 2664.535368
_symmetry_space_group_name_H-M "C 2/C"
_symmetry_group_IT_number 15
_symmetry_cell_setting 'monoclinic'
loop_
_space_group_symop_operation_xyz
x,y,z
-x,y,1/2-z
-x,-y,-z
x,-y,1/2+z
1/2+x,1/2+y,z
1/2-x,1/2+y,1/2-z
1/2-x,1/2-y,-z
1/2+x,1/2-y,1/2+z
loop_
_atom_site_type_symbol
_atom_site_label
_atom_site_fract_x
_atom_site_fract_y
_atom_site_fract_z
Si Si1 0.681900 0.811530 0.173390
Si Si2 0.238206 0.059428 0.403951
Si Si3 0.175240 0.145782 0.486538
Si Si4 0.806121 0.047980 0.598604
Si Si5 0.340804 0.286086 0.757307
Si Si6 0.024908 0.125902 0.592318
Si Si7 0.320388 0.801265 0.501564
O O1 0.750339 0.761141 0.238375
O O2 0.797242 0.855671 0.265987
O O3 0.778713 0.811548 0.126006
O O4 0.389999 0.816842 0.059760
O O5 0.213725 0.097021 0.460085
O O6 0.520614 0.065901 0.489864
O O7 0.000000 0.068881 0.250000
O O8 0.209432 0.007303 0.427336
O O9 0.163568 0.128102 0.569379
O O10 0.941818 0.175650 0.359924
O O11 0.000000 0.056636 0.750000
O O12 0.923113 0.074164 0.573063
O O13 0.500000 0.272003 0.750000
O O14 0.108292 0.311287 0.621909
O O15 0.797115 0.161578 0.489073
O O16 0.250000 0.750000 0.500000
#
# Coordination Sequence:
#
# PCOD8147743 Si02
#       7
#     8   8   8   8   8   8   8
#     4  12  25  43  65  92 130 174 220 264 324 388
#     4  10  23  44  70  99 130 171 218 272 336 399
#     4  12  25  41  65  94 132 170 213 264 327 392
#     4  10  22  44  72  98 129 169 221 274 330 396
#     4  12  25  42  65  89 128 173 219 268 315 382
#     4  12  25  40  65  97 131 169 215 268 321 390
#     4  12  25  42  63  92 125 169 218 269 321 374
#
# _framework density 21.016798000000001
#
# number of rings (size 3 to 8) (size 9 to 14) (size 15 to 20)
#    0.000    0.571    2.857    6.000    2.000    2.286 
#    0.000    0.000    0.000    5.143    0.000    0.000 
#    0.000    0.000    0.000    0.000    0.000    0.000 
#
# Total GULP energy -347035.769885 kJ/mol
# GULP energy per Si atom -12394.134639 kJ/mol
# Density = 2.096896 g / cm^3
# Si number density = 21.016798 Si / 1000 Ang^3
#
#
#
# Elastic Constant Matrix: (Units=GPa)
#
#
# Indices 1 2 3 4 5 6 
#
# 1 85.3331 29.3919 22.5025 0.0000 -17.4065 0.0001
# 2 29.3919 92.7431 16.6526 0.0000 -13.1679 0.0001
# 3 22.5025 16.6526 116.2000 -0.0001 9.7710 0.0002
# 4 0.0000 0.0000 -0.0001 23.6929 0.0000 9.2145
# 5 -17.4065 -13.1679 9.7710 0.0000 36.4067 0.0001
# 6 0.0001 0.0001 0.0002 9.2145 0.0001 34.5342
#
#
#
# Elastic Compliance Matrix: (Units=1/GPa)
#
#
# Indices 1 2 3 4 5 6 
#
# 1 0.015025 -0.003252 -0.003017 0.000000 0.006817 0.000000
# 2 -0.003252 0.012553 -0.001453 0.000000 0.003375 0.000000
# 3 -0.003017 -0.001453 0.009785 0.000000 -0.004594 0.000000
# 4 0.000000 0.000000 0.000000 0.047094 0.000000 -0.012566
# 5 0.006817 0.003375 -0.004594 0.000000 0.033181 0.000000
# 6 0.000000 0.000000 0.000000 -0.012566 0.000000 0.032310
#
#
# Mechanical properties :
#
#
# Convention : Reuss Voigt Hill
#
# Bulk Modulus (GPa) = 45.62262 47.93002 46.77632
# Shear Modulus (GPa) = 28.95243 33.97538 31.46390
#
# Velocity S-wave (km/s) = 3.71561 4.02504 3.87341
# Velocity P-wave (km/s) = 6.33739 6.66756 6.50457
#
# Compressibility (1/GPa) = 0.02191895
#
# Stress axis : x y z
#
# Youngs Moduli (GPa) = 66.55553 79.66044 102.20134
#
# Poissons Ratio (x) = 0.25906 0.30832
# Poissons Ratio (y) = 0.21645 0.14850
# Poissons Ratio (z) = 0.20079 0.11575
#
# Static dielectric constant tensor:
#      x y z
#    x 3.751560 0.000000 0.373520 
#    y 0.000000 3.794980 0.000000 
#    z 0.373520 0.000000 3.992600 
# 
# 
# High freq. dielectric constant tensor:
#      x y z
#    x 1.821070 0.000000 0.018670 
#    y 0.000000 1.828590 0.000000 
#    z 0.018670 0.000000 1.841750 
# 
# From -- ./inp_files/82455.got.cif
#   From: 2010.06.25/outbox.cif.g09.slc.cpg/sg15_42_cif.got.tgz:82455.got - 2010.06.28 07:06:18.
