data_PCOD8147472
_publ_section_title
;
Structure prediction by ZEFSAII (Michael W. Deem and Ramdas Pophale) SiO2 
 PCOD8147472
Probable space group: C 2/C
;
_chemical_formula_sum "Si O2"
_cell_formula_units_Z 44
_cell_length_a 11.377881
_cell_length_b 8.931017
_cell_length_c 23.270863
_cell_angle_alpha 90.000000
_cell_angle_beta 129.949494
_cell_angle_gamma 90.000000
_cell_volume 1812.799210
_symmetry_space_group_name_H-M "C 2/C"
_symmetry_group_IT_number 15
_symmetry_cell_setting 'monoclinic'
loop_
_space_group_symop_operation_xyz
x,y,z
-x,y,1/2-z
-x,-y,-z
x,-y,1/2+z
1/2+x,1/2+y,z
1/2-x,1/2+y,1/2-z
1/2-x,1/2-y,-z
1/2+x,1/2-y,1/2+z
loop_
_atom_site_type_symbol
_atom_site_label
_atom_site_fract_x
_atom_site_fract_y
_atom_site_fract_z
Si Si1 0.893666 0.011379 0.788652
Si Si2 0.500000 0.224639 0.250000
Si Si3 0.307989 0.361534 0.599157
Si Si4 0.228559 0.540886 0.951782
Si Si5 0.182517 0.128708 0.121612
Si Si6 0.889472 0.472714 0.378692
O O1 0.732503 0.970659 0.707614
O O2 0.940150 0.177927 0.785295
O O3 0.879625 0.993089 0.852765
O O4 0.039732 0.906744 0.816798
O O5 0.365493 0.122204 0.185232
O O6 0.324831 0.416431 0.538378
O O7 0.288927 0.184217 0.595294
O O8 0.157699 0.443276 0.577599
O O9 0.336545 0.423415 0.950732
O O10 0.059551 0.477865 0.914077
O O11 0.112234 0.292681 0.111834
#
# Coordination Sequence:
#
# PCOD8147472 Si02
#       6
#     8   4   8   8   8   8
#     4  11  21  42  69  91 131 166 212 269 321 373
#     4  10  22  44  60  98 130 166 214 276 312 378
#     4  11  23  46  65  96 134 174 209 268 327 380
#     4  11  26  43  66  96 135 169 218 261 322 395
#     4  11  23  40  66  98 124 169 219 261 319 386
#     4  11  23  45  67  91 132 171 216 269 318 380
#
# _framework density 24.271854000000001
#
# number of rings (size 3 to 8) (size 9 to 14) (size 15 to 20)
#    0.000    1.091    5.455    1.636    0.000    5.818 
#    6.545    0.000    0.000    0.000    0.000    0.000 
#    0.000    0.000    0.000    0.000    0.000    0.000 
#
# Total GULP energy -272714.653303 kJ/mol
# GULP energy per Si atom -12396.120605 kJ/mol
# Density = 2.421661 g / cm^3
# Si number density = 24.271854 Si / 1000 Ang^3
#
#
#
# Elastic Constant Matrix: (Units=GPa)
#
#
# Indices 1 2 3 4 5 6 
#
# 1 77.3724 24.6176 4.4959 0.0000 -26.7030 0.0000
# 2 24.6176 59.5210 16.5877 0.0000 -18.0367 0.0000
# 3 4.4959 16.5877 61.2706 0.0000 5.9985 0.0000
# 4 0.0000 0.0000 0.0000 27.6892 0.0000 -11.3260
# 5 -26.7030 -18.0367 5.9985 0.0000 43.0941 0.0000
# 6 0.0000 0.0000 0.0000 -11.3260 0.0000 33.8328
#
#
#
# Elastic Compliance Matrix: (Units=1/GPa)
#
#
# Indices 1 2 3 4 5 6 
#
# 1 0.017498 -0.004131 -0.001072 0.000000 0.009263 0.000000
# 2 -0.004131 0.022745 -0.006626 0.000000 0.007882 0.000000
# 3 -0.001072 -0.006626 0.018786 0.000000 -0.006053 0.000000
# 4 0.000000 0.000000 0.000000 0.041845 0.000000 0.014008
# 5 0.009263 0.007882 -0.006053 0.000000 0.033086 0.000000
# 6 0.000000 0.000000 0.000000 0.014008 0.000000 0.034247
#
#
# Mechanical properties :
#
#
# Convention : Reuss Voigt Hill
#
# Bulk Modulus (GPa) = 28.27321 32.17406 30.22363
# Shear Modulus (GPa) = 24.55122 31.08741 27.81931
#
# Velocity S-wave (km/s) = 3.18387 3.58271 3.38916
# Velocity P-wave (km/s) = 5.01896 5.51352 5.27204
#
# Compressibility (1/GPa) = 0.03536917
#
# Stress axis : x y z
#
# Youngs Moduli (GPa) = 57.14918 43.96643 53.23062
#
# Poissons Ratio (x) = 0.18164 0.05708
# Poissons Ratio (y) = 0.23611 0.35271
# Poissons Ratio (z) = 0.06128 0.29133
#
# Static dielectric constant tensor:
#      x y z
#    x 4.589040 0.000000 0.056980 
#    y 0.000000 4.019920 0.000000 
#    z 0.056980 0.000000 4.370970 
# 
# 
# High freq. dielectric constant tensor:
#      x y z
#    x 1.984490 0.000000 0.007470 
#    y 0.000000 1.934940 0.000000 
#    z 0.007470 0.000000 1.964290 
# 
# From -- ./inp_files/291730.got.cif
#   From: 2010.06.25/outbox.cif.g09.slc.cpg/sg15_146_cif.got.tgz:291730.got - 2010.06.28 07:06:18.
