data_PCOD8147668
_publ_section_title
;
Structure prediction by ZEFSAII (Michael W. Deem and Ramdas Pophale) SiO2 
 PCOD8147668
Probable space group: C 2/C
;
_chemical_formula_sum "Si O2"
_cell_formula_units_Z 36
_cell_length_a 14.464396
_cell_length_b 8.308734
_cell_length_c 18.359082
_cell_angle_alpha 90.000000
_cell_angle_beta 135.944050
_cell_angle_gamma 90.000000
_cell_volume 1534.249981
_symmetry_space_group_name_H-M "C 2/C"
_symmetry_group_IT_number 15
_symmetry_cell_setting 'monoclinic'
loop_
_space_group_symop_operation_xyz
x,y,z
-x,y,1/2-z
-x,-y,-z
x,-y,1/2+z
1/2+x,1/2+y,z
1/2-x,1/2+y,1/2-z
1/2-x,1/2-y,-z
1/2+x,1/2-y,1/2+z
loop_
_atom_site_type_symbol
_atom_site_label
_atom_site_fract_x
_atom_site_fract_y
_atom_site_fract_z
Si Si1 0.500000 0.075789 0.750000
Si Si2 0.234712 0.834980 0.324959
Si Si3 0.730356 0.707399 0.314835
Si Si4 0.396485 0.783938 0.615180
Si Si5 0.502498 0.321042 0.470142
O O1 0.384073 0.189077 0.713643
O O2 0.440818 0.971713 0.648090
O O3 0.248813 0.751988 0.256391
O O4 0.111775 0.765580 0.303272
O O5 0.374501 0.793315 0.442218
O O6 0.201355 0.021306 0.303350
O O7 0.871768 0.743904 0.432606
O O8 0.250000 0.750000 0.500000
O O9 0.499174 0.683168 0.620863
O O10 0.500000 0.500000 0.500000
#
# Coordination Sequence:
#
# PCOD8147668 Si02
#       5
#     4   8   8   8   8
#     4  12  26  44  68 100 136 176 224 276 334 398
#     4  11  24  43  68  98 133 176 221 275 334 396
#     4  12  25  43  66  98 134 176 224 274 332 400
#     4  10  22  44  69  98 134 175 221 277 334 394
#     4  11  23  43  69  98 133 176 222 275 333 396
#
# _framework density 23.464234000000001
#
# number of rings (size 3 to 8) (size 9 to 14) (size 15 to 20)
#    0.000    0.889    0.000    8.667    0.000    6.222 
#    0.000    6.667    0.000    0.000    0.000    0.000 
#    0.000    0.000    0.000    0.000    0.000    0.000 
#
# Total GULP energy -223064.089757 kJ/mol
# GULP energy per Si atom -12392.449431 kJ/mol
# Density = 2.341083 g / cm^3
# Si number density = 23.464234 Si / 1000 Ang^3
#
#
#
# Elastic Constant Matrix: (Units=GPa)
#
#
# Indices 1 2 3 4 5 6 
#
# 1 214.0782 87.6445 50.5831 0.0000 11.4160 0.0000
# 2 87.6445 182.4629 41.5314 0.0000 -4.9404 0.0000
# 3 50.5831 41.5314 43.7179 0.0000 -2.1299 0.0000
# 4 0.0000 0.0000 0.0000 40.4930 0.0000 6.5133
# 5 11.4160 -4.9404 -2.1299 0.0000 43.2784 0.0000
# 6 0.0000 0.0000 0.0000 6.5133 0.0000 55.9206
#
#
#
# Elastic Compliance Matrix: (Units=1/GPa)
#
#
# Indices 1 2 3 4 5 6 
#
# 1 0.007164 -0.002033 -0.006476 0.000000 -0.002441 0.000000
# 2 -0.002033 0.007579 -0.004791 0.000000 0.001166 0.000000
# 3 -0.006476 -0.004791 0.035059 0.000000 0.002887 0.000000
# 4 0.000000 0.000000 0.000000 0.025167 0.000000 -0.002931
# 5 -0.002441 0.001166 0.002887 0.000000 0.024025 0.000000
# 6 0.000000 0.000000 0.000000 -0.002931 0.000000 0.018224
#
#
# Mechanical properties :
#
#
# Convention : Reuss Voigt Hill
#
# Bulk Modulus (GPa) = 43.10062 88.86412 65.98237
# Shear Modulus (GPa) = 32.99161 45.30508 39.14834
#
# Velocity S-wave (km/s) = 3.75379 4.39887 4.08907
# Velocity P-wave (km/s) = 6.09888 7.98464 7.10461
#
# Compressibility (1/GPa) = 0.02320152
#
# Stress axis : x y z
#
# Youngs Moduli (GPa) = 139.58746 131.93987 28.52300
#
# Poissons Ratio (x) = 0.26825 0.18473
# Poissons Ratio (y) = 0.28379 0.13665
# Poissons Ratio (z) = 0.90403 0.63212
#
# Static dielectric constant tensor:
#      x y z
#    x 4.914380 0.000000 0.192210 
#    y 0.000000 4.108320 0.000000 
#    z 0.192210 0.000000 5.169110 
# 
# 
# High freq. dielectric constant tensor:
#      x y z
#    x 1.965400 0.000000 0.018110 
#    y 0.000000 1.918500 0.000000 
#    z 0.018110 0.000000 1.957200 
# 
# From -- ./inp_files/202883.got.cif
#   From: 2010.06.25/outbox.cif.g09.slc.cpg/sg15_102_cif.got.tgz:202883.got - 2010.06.28 07:06:18.
