data_PCOD8147808
_publ_section_title
;
Structure prediction by ZEFSAII (Michael W. Deem and Ramdas Pophale) SiO2 
 PCOD8147808
Probable space group: C 2/C
;
_chemical_formula_sum "Si O2"
_cell_formula_units_Z 60
_cell_length_a 14.926115
_cell_length_b 10.401711
_cell_length_c 18.845328
_cell_angle_alpha 90.000000
_cell_angle_beta 72.213553
_cell_angle_gamma 90.000000
_cell_volume 2786.019867
_symmetry_space_group_name_H-M "C 2/C"
_symmetry_group_IT_number 15
_symmetry_cell_setting 'monoclinic'
loop_
_space_group_symop_operation_xyz
x,y,z
-x,y,1/2-z
-x,-y,-z
x,-y,1/2+z
1/2+x,1/2+y,z
1/2-x,1/2+y,1/2-z
1/2-x,1/2-y,-z
1/2+x,1/2-y,1/2+z
loop_
_atom_site_type_symbol
_atom_site_label
_atom_site_fract_x
_atom_site_fract_y
_atom_site_fract_z
Si Si1 0.373778 0.255610 0.943974
Si Si2 0.785006 0.656118 0.656347
Si Si3 0.108542 0.513275 0.988514
Si Si4 0.000000 0.702518 0.250000
Si Si5 0.164827 0.372413 0.616019
Si Si6 0.877730 0.094688 0.704583
Si Si7 0.450146 0.690767 0.187862
Si Si8 0.721485 0.374646 0.410714
O O1 0.479371 0.276834 0.893526
O O2 0.302786 0.236089 0.894360
O O3 0.340579 0.373315 0.001607
O O4 0.356580 0.124560 0.992818
O O5 0.840455 0.552005 0.596607
O O6 0.724595 0.744953 0.617659
O O7 0.711887 0.578578 0.722501
O O8 0.854608 0.732681 0.693036
O O9 0.129177 0.622304 0.043246
O O10 0.000000 0.500000 0.000000
O O11 0.074308 0.614111 0.189712
O O12 0.051456 0.794019 0.292324
O O13 0.234728 0.487486 0.615297
O O14 0.848726 0.150106 0.635884
O O15 0.932147 0.960505 0.690557
O O16 0.500000 0.731580 0.250000
#
# Coordination Sequence:
#
# PCOD8147808 Si02
#       8
#     8   8   8   4   8   8   8   8
#     4  10  24  44  68  97 133 171 221 271 330 395
#     4  11  24  44  67  94 132 172 219 270 326 395
#     4  11  23  42  66  98 127 170 219 268 329 388
#     4  10  24  44  64  96 132 174 222 270 320 396
#     4  10  23  44  67  95 130 171 219 266 328 387
#     4  11  24  42  66  97 131 176 216 268 332 388
#     4  12  24  44  67  99 133 174 221 272 331 394
#     4  10  22  45  67  97 130 171 215 268 331 386
#
# _framework density 21.536099
#
# number of rings (size 3 to 8) (size 9 to 14) (size 15 to 20)
#    0.000    1.333    3.333    1.200    1.867    5.867 
#    7.200    0.000    0.000    0.000    0.000    0.000 
#    0.000    0.000    0.000    0.000    0.000    0.000 
#
# Total GULP energy -371954.939670 kJ/mol
# GULP energy per Si atom -12398.497989 kJ/mol
# Density = 2.148708 g / cm^3
# Si number density = 21.536099 Si / 1000 Ang^3
#
#
#
# Elastic Constant Matrix: (Units=GPa)
#
#
# Indices 1 2 3 4 5 6 
#
# 1 113.1432 14.0681 40.4499 0.0000 10.0647 0.0000
# 2 14.0681 63.9236 43.2615 0.0000 -8.8075 0.0000
# 3 40.4499 43.2615 95.3291 0.0000 -2.8707 0.0000
# 4 0.0000 0.0000 0.0000 33.7340 0.0000 -11.9634
# 5 10.0647 -8.8075 -2.8707 0.0000 50.9908 0.0000
# 6 0.0000 0.0000 0.0000 -11.9634 0.0000 19.9224
#
#
#
# Elastic Compliance Matrix: (Units=1/GPa)
#
#
# Indices 1 2 3 4 5 6 
#
# 1 0.010716 0.000651 -0.004911 0.000000 -0.002279 0.000000
# 2 0.000651 0.023196 -0.010704 0.000000 0.003275 0.000000
# 3 -0.004911 -0.010704 0.017435 0.000000 0.000102 0.000000
# 4 0.000000 0.000000 0.000000 0.037665 0.000000 0.022618
# 5 -0.002279 0.003275 0.000102 0.000000 0.020633 0.000000
# 6 0.000000 0.000000 0.000000 0.022618 0.000000 0.063777
#
#
# Mechanical properties :
#
#
# Convention : Reuss Voigt Hill
#
# Bulk Modulus (GPa) = 46.68911 51.99500 49.34206
# Shear Modulus (GPa) = 23.75425 32.57053 28.16239
#
# Velocity S-wave (km/s) = 3.32474 3.89314 3.62011
# Velocity P-wave (km/s) = 6.03863 6.66365 6.35883
#
# Compressibility (1/GPa) = 0.02141827
#
# Stress axis : x y z
#
# Youngs Moduli (GPa) = 93.31913 43.11087 57.35675
#
# Poissons Ratio (x) = -0.02808 0.28169
# Poissons Ratio (y) = -0.06079 0.61397
# Poissons Ratio (z) = 0.45831 0.46148
#
# Static dielectric constant tensor:
#      x y z
#    x 4.281710 0.000000 0.134820 
#    y 0.000000 3.714310 0.000000 
#    z 0.134820 0.000000 3.965400 
# 
# 
# High freq. dielectric constant tensor:
#      x y z
#    x 1.872250 0.000000 0.002610 
#    y 0.000000 1.830820 0.000000 
#    z 0.002610 0.000000 1.847600 
# 
# From -- ./inp_files/204445.got.cif
#   From: 2010.06.25/outbox.cif.g09.slc.cpg/sg15_103_cif.got.tgz:204445.got - 2010.06.28 07:06:18.
