data_PCOD8147173
_publ_section_title
;
Structure prediction by ZEFSAII (Michael W. Deem and Ramdas Pophale) SiO2 
 PCOD8147173
Probable space group: C 2/C
;
_chemical_formula_sum "Si O2"
_cell_formula_units_Z 44
_cell_length_a 17.098750
_cell_length_b 5.251598
_cell_length_c 22.233559
_cell_angle_alpha 90.000000
_cell_angle_beta 99.223231
_cell_angle_gamma 90.000000
_cell_volume 1970.667592
_symmetry_space_group_name_H-M "C 2/C"
_symmetry_group_IT_number 15
_symmetry_cell_setting 'monoclinic'
loop_
_space_group_symop_operation_xyz
x,y,z
-x,y,1/2-z
-x,-y,-z
x,-y,1/2+z
1/2+x,1/2+y,z
1/2-x,1/2+y,1/2-z
1/2-x,1/2-y,-z
1/2+x,1/2-y,1/2+z
loop_
_atom_site_type_symbol
_atom_site_label
_atom_site_fract_x
_atom_site_fract_y
_atom_site_fract_z
Si Si1 0.804587 0.814798 0.562274
Si Si2 0.848598 0.094646 0.287777
Si Si3 0.500000 0.785895 0.250000
Si Si4 0.715714 0.906240 0.670546
Si Si5 0.949775 0.543703 0.621696
Si Si6 0.536253 0.465514 0.439330
O O1 0.750000 0.750000 0.500000
O O2 0.749365 0.923792 0.607703
O O3 0.855825 0.572221 0.593611
O O4 0.867625 0.027033 0.547417
O O5 0.787171 0.092614 0.225825
O O6 0.839108 0.347633 0.326832
O O7 0.935101 0.095833 0.269265
O O8 0.838008 0.845675 0.327867
O O9 0.539119 0.971850 0.304988
O O10 0.996150 0.798089 0.604631
O O11 0.988881 0.300709 0.593954
O O12 0.500000 0.500000 0.500000
#
# Coordination Sequence:
#
# PCOD8147173 Si02
#       6
#     8   8   4   8   8   8
#     4  10  24  43  69  93 134 176 225 274 330 399
#     4  10  23  39  69  87 135 164 217 273 327 396
#     4  12  24  46  70 102 134 180 222 286 340 408
#     4  10  22  43  59  99 124 172 215 270 331 391
#     4  10  25  41  68  99 134 175 223 283 335 405
#     4  10  23  45  67  98 137 175 225 281 336 400
#
# _framework density 22.327458
#
# number of rings (size 3 to 8) (size 9 to 14) (size 15 to 20)
#    1.091    0.727    1.818    0.545    2.545    9.455 
#    0.000    0.000    0.000    0.000    0.000    0.000 
#    0.000    0.000    0.000    0.000    0.000    0.000 
#
# Total GULP energy -272733.615122 kJ/mol
# GULP energy per Si atom -12396.982506 kJ/mol
# Density = 2.227664 g / cm^3
# Si number density = 22.327458 Si / 1000 Ang^3
#
#
#
# Elastic Constant Matrix: (Units=GPa)
#
#
# Indices 1 2 3 4 5 6 
#
# 1 97.6294 51.9441 54.9129 0.0000 -32.9259 0.0000
# 2 51.9441 150.6928 57.5991 0.0000 -6.5808 0.0000
# 3 54.9129 57.5991 170.0373 0.0000 -13.8575 0.0000
# 4 0.0000 0.0000 0.0000 26.6834 0.0000 -10.3900
# 5 -32.9259 -6.5808 -13.8575 0.0000 49.5938 0.0000
# 6 0.0000 0.0000 0.0000 -10.3900 0.0000 19.8923
#
#
#
# Elastic Compliance Matrix: (Units=1/GPa)
#
#
# Indices 1 2 3 4 5 6 
#
# 1 0.018094 -0.004449 -0.003485 0.000000 0.010449 0.000000
# 2 -0.004449 0.008721 -0.001703 0.000000 -0.002272 0.000000
# 3 -0.003485 -0.001703 0.007548 0.000000 -0.000430 0.000000
# 4 0.000000 0.000000 0.000000 0.047044 0.000000 0.024572
# 5 0.010449 -0.002272 -0.000430 0.000000 0.026679 0.000000
# 6 0.000000 0.000000 0.000000 0.024572 0.000000 0.063105
#
#
# Mechanical properties :
#
#
# Convention : Reuss Voigt Hill
#
# Bulk Modulus (GPa) = 66.26645 83.03019 74.64832
# Shear Modulus (GPa) = 25.57637 36.16080 30.86859
#
# Velocity S-wave (km/s) = 3.38821 4.02875 3.72229
# Velocity P-wave (km/s) = 6.71196 7.67524 7.20971
#
# Compressibility (1/GPa) = 0.01509059
#
# Stress axis : x y z
#
# Youngs Moduli (GPa) = 55.26819 114.66486 132.48247
#
# Poissons Ratio (x) = 0.51010 0.46167
# Poissons Ratio (y) = 0.24587 0.22558
# Poissons Ratio (z) = 0.19260 0.19524
#
# Static dielectric constant tensor:
#      x y z
#    x 3.967000 0.000000 -0.104180 
#    y 0.000000 3.974830 0.000000 
#    z -0.104180 0.000000 4.078590 
# 
# 
# High freq. dielectric constant tensor:
#      x y z
#    x 1.877130 0.000000 -0.004730 
#    y 0.000000 1.868870 0.000000 
#    z -0.004730 0.000000 1.882140 
# 
# From -- ./inp_files/246465.got.cif
#   From: 2010.06.25/outbox.cif.g09.slc.cpg/sg15_124_cif.got.tgz:246465.got - 2010.06.28 07:06:18.
