data_PCOD8147947
_publ_section_title
;
Structure prediction by ZEFSAII (Michael W. Deem and Ramdas Pophale) SiO2 
 PCOD8147947
Probable space group: C 2/C
;
_chemical_formula_sum "Si O2"
_cell_formula_units_Z 48
_cell_length_a 25.617934
_cell_length_b 9.526639
_cell_length_c 14.477732
_cell_angle_alpha 90.000000
_cell_angle_beta 143.683235
_cell_angle_gamma 90.000000
_cell_volume 2092.611749
_symmetry_space_group_name_H-M "C 2/C"
_symmetry_group_IT_number 15
_symmetry_cell_setting 'monoclinic'
loop_
_space_group_symop_operation_xyz
x,y,z
-x,y,1/2-z
-x,-y,-z
x,-y,1/2+z
1/2+x,1/2+y,z
1/2-x,1/2+y,1/2-z
1/2-x,1/2-y,-z
1/2+x,1/2-y,1/2+z
loop_
_atom_site_type_symbol
_atom_site_label
_atom_site_fract_x
_atom_site_fract_y
_atom_site_fract_z
Si Si1 0.547112 0.903037 0.492173
Si Si2 0.649250 0.627125 0.667852
Si Si3 0.197789 0.026467 0.423430
Si Si4 0.655673 0.845570 0.120589
Si Si5 0.591526 0.582016 0.931826
Si Si6 0.633390 0.826449 0.305318
O O1 0.592387 0.767547 0.602974
O O2 0.467839 0.858163 0.310584
O O3 0.500000 0.000000 0.500000
O O4 0.621449 0.996969 0.547677
O O5 0.659177 0.547275 0.778395
O O6 0.742999 0.670514 0.760961
O O7 0.597330 0.528111 0.523407
O O8 0.303716 0.047424 0.567734
O O9 0.156758 0.179238 0.385493
O O10 0.173308 0.934205 0.477705
O O11 0.645747 0.809101 0.213542
O O12 0.596028 0.738352 0.977909
O O13 0.500000 0.556956 0.750000
#
# Coordination Sequence:
#
# PCOD8147947 Si02
#       6
#     8   8   8   8   8   8
#     4  10  25  43  73 105 146 191 236 304 373 425
#     4  12  25  47  78 103 147 195 244 302 362 443
#     4  11  25  43  77 106 142 198 245 301 367 440
#     4  11  24  47  70 104 147 189 235 305 365 435
#     4  12  27  44  72 108 140 187 253 296 360 442
#     4  10  22  46  72 106 149 187 244 298 370 436
#
# _framework density 22.937842
#
# number of rings (size 3 to 8) (size 9 to 14) (size 15 to 20)
#    0.000    1.000    3.333    2.000    7.000    3.333 
#    0.000    2.500    0.000    0.000    0.000    0.000 
#    0.000    0.000    0.000    0.000    0.000    0.000 
#
# Total GULP energy -297638.272029 kJ/mol
# GULP energy per Si atom -12401.594668 kJ/mol
# Density = 2.288563 g / cm^3
# Si number density = 22.937842 Si / 1000 Ang^3
#
#
#
# Elastic Constant Matrix: (Units=GPa)
#
#
# Indices 1 2 3 4 5 6 
#
# 1 51.6325 37.0849 37.1688 0.0000 -4.9577 0.0000
# 2 37.0849 139.3655 74.5538 0.0000 2.1335 0.0000
# 3 37.1688 74.5538 148.3266 0.0000 9.4594 0.0000
# 4 0.0000 0.0000 0.0000 28.4321 0.0000 11.0088
# 5 -4.9577 2.1335 9.4594 0.0000 47.1292 0.0000
# 6 0.0000 0.0000 0.0000 11.0088 0.0000 25.6522
#
#
#
# Elastic Compliance Matrix: (Units=1/GPa)
#
#
# Indices 1 2 3 4 5 6 
#
# 1 0.026327 -0.004655 -0.004505 0.000000 0.003884 0.000000
# 2 -0.004655 0.010652 -0.004179 0.000000 -0.000133 0.000000
# 3 -0.004505 -0.004179 0.010119 0.000000 -0.002316 0.000000
# 4 0.000000 0.000000 0.000000 0.042180 0.000000 -0.018102
# 5 0.003884 -0.000133 -0.002316 0.000000 0.022098 0.000000
# 6 0.000000 0.000000 0.000000 -0.018102 0.000000 0.046752
#
#
# Mechanical properties :
#
#
# Convention : Reuss Voigt Hill
#
# Bulk Modulus (GPa) = 48.97261 70.77107 59.87184
# Shear Modulus (GPa) = 26.09434 32.94384 29.51909
#
# Velocity S-wave (km/s) = 3.37651 3.79386 3.59125
# Velocity P-wave (km/s) = 6.04959 7.07895 6.58442
#
# Compressibility (1/GPa) = 0.02041958
#
# Stress axis : x y z
#
# Youngs Moduli (GPa) = 37.98337 93.88267 98.82446
#
# Poissons Ratio (x) = 0.43703 0.44523
# Poissons Ratio (y) = 0.17681 0.41297
# Poissons Ratio (z) = 0.17112 0.39232
#
# Static dielectric constant tensor:
#      x y z
#    x 4.109440 0.000000 0.351750 
#    y 0.000000 4.443070 0.000000 
#    z 0.351750 0.000000 4.607230 
# 
# 
# High freq. dielectric constant tensor:
#      x y z
#    x 1.893810 0.000000 0.011760 
#    y 0.000000 1.914530 0.000000 
#    z 0.011760 0.000000 1.921100 
# 
# From -- ./inp_files/177014.got.cif
#   From: 2010.06.25/outbox.cif.g09.slc.cpg/sg15_89_cif.got.tgz:177014.got - 2010.06.28 07:06:18.
