data_PCOD8147889
_publ_section_title
;
Structure prediction by ZEFSAII (Michael W. Deem and Ramdas Pophale) SiO2 
 PCOD8147889
Probable space group: C 2/C
;
_chemical_formula_sum "Si O2"
_cell_formula_units_Z 52
_cell_length_a 20.555125
_cell_length_b 18.717979
_cell_length_c 9.159868
_cell_angle_alpha 90.000000
_cell_angle_beta 136.466237
_cell_angle_gamma 90.000000
_cell_volume 2427.448474
_symmetry_space_group_name_H-M "C 2/C"
_symmetry_group_IT_number 15
_symmetry_cell_setting 'monoclinic'
loop_
_space_group_symop_operation_xyz
x,y,z
-x,y,1/2-z
-x,-y,-z
x,-y,1/2+z
1/2+x,1/2+y,z
1/2-x,1/2+y,1/2-z
1/2-x,1/2-y,-z
1/2+x,1/2-y,1/2+z
loop_
_atom_site_type_symbol
_atom_site_label
_atom_site_fract_x
_atom_site_fract_y
_atom_site_fract_z
Si Si1 0.592877 0.462575 0.832253
Si Si2 0.818448 0.691459 0.971091
Si Si3 0.609157 0.063856 0.932744
Si Si4 0.896587 0.094394 0.464750
Si Si5 0.714796 0.829552 0.761773
Si Si6 0.500000 0.282209 0.250000
Si Si7 0.196601 0.436647 0.256666
O O1 0.500000 0.423444 0.750000
O O2 0.590177 0.455992 0.653480
O O3 0.585579 0.546839 0.860625
O O4 0.689741 0.430420 0.053857
O O5 0.785107 0.652827 0.065180
O O6 0.913645 0.734683 0.166935
O O7 0.736892 0.745242 0.778873
O O8 0.841901 0.633178 0.888311
O O9 0.500000 0.042541 0.750000
O O10 0.650594 0.063098 0.839283
O O11 0.619257 0.142564 0.026593
O O12 0.665916 0.007177 0.122205
O O13 0.790750 0.122878 0.300246
O O14 0.964197 0.164173 0.564229
#
# Coordination Sequence:
#
# PCOD8147889 Si02
#       7
#     8   8   8   8   8   4   8
#     4  12  24  39  69 105 136 176 219 283 350 405
#     4  10  25  42  72  92 134 190 224 276 345 403
#     4  12  26  43  72 100 137 178 229 287 341 402
#     4  11  23  42  67 101 140 171 224 284 344 408
#     4  10  22  46  64  95 135 182 225 278 337 402
#     4  10  24  44  68  96 136 180 238 270 338 422
#     4  12  25  45  68 102 141 173 231 287 336 410
#
# _framework density 21.421671
#
# number of rings (size 3 to 8) (size 9 to 14) (size 15 to 20)
#    0.000    0.923    3.846    1.846    5.385    3.077 
#    0.000    0.769    0.000    0.000    0.000    0.000 
#    0.000    0.000    0.000    0.000    0.000    0.000 
#
# Total GULP energy -322316.941622 kJ/mol
# GULP energy per Si atom -12396.805447 kJ/mol
# Density = 2.137291 g / cm^3
# Si number density = 21.421671 Si / 1000 Ang^3
#
#
#
# Elastic Constant Matrix: (Units=GPa)
#
#
# Indices 1 2 3 4 5 6 
#
# 1 136.0696 48.7714 60.4734 0.0000 -9.8617 0.0000
# 2 48.7714 95.2613 47.8587 0.0000 -14.1933 0.0000
# 3 60.4734 47.8587 91.4360 0.0000 -1.1662 0.0000
# 4 0.0000 0.0000 0.0000 28.4895 0.0000 -7.8637
# 5 -9.8617 -14.1933 -1.1662 0.0000 47.7650 0.0000
# 6 0.0000 0.0000 0.0000 -7.8637 0.0000 24.2762
#
#
#
# Elastic Compliance Matrix: (Units=1/GPa)
#
#
# Indices 1 2 3 4 5 6 
#
# 1 0.010970 -0.002403 -0.005979 0.000000 0.001405 0.000000
# 2 -0.002403 0.015598 -0.006524 0.000000 0.003980 0.000000
# 3 -0.005979 -0.006524 0.018271 0.000000 -0.002727 0.000000
# 4 0.000000 0.000000 0.000000 0.038547 0.000000 0.012486
# 5 0.001405 0.003980 -0.002727 0.000000 0.022342 0.000000
# 6 0.000000 0.000000 0.000000 0.012486 0.000000 0.045237
#
#
# Mechanical properties :
#
#
# Convention : Reuss Voigt Hill
#
# Bulk Modulus (GPa) = 66.55118 70.77488 68.66303
# Shear Modulus (GPa) = 26.91238 31.15038 29.03138
#
# Velocity S-wave (km/s) = 3.54830 3.81747 3.68534
# Velocity P-wave (km/s) = 6.92257 7.24855 7.08743
#
# Compressibility (1/GPa) = 0.01502603
#
# Stress axis : x y z
#
# Youngs Moduli (GPa) = 91.16011 64.10899 54.73008
#
# Poissons Ratio (x) = 0.15404 0.32726
# Poissons Ratio (y) = 0.21904 0.35708
# Poissons Ratio (z) = 0.54509 0.41828
#
# Static dielectric constant tensor:
#      x y z
#    x 4.021950 0.000000 0.289850 
#    y 0.000000 3.822770 0.000000 
#    z 0.289850 0.000000 4.002050 
# 
# 
# High freq. dielectric constant tensor:
#      x y z
#    x 1.849850 0.000000 0.011490 
#    y 0.000000 1.834840 0.000000 
#    z 0.011490 0.000000 1.840710 
# 
# From -- ./inp_files/57066.got.cif
#   From: 2010.06.25/outbox.cif.g09.slc.cpg/sg15_29_cif.got.tgz:57066.got - 2010.06.28 07:06:18.
