data_PCOD8147547
_publ_section_title
;
Structure prediction by ZEFSAII (Michael W. Deem and Ramdas Pophale) SiO2 
 PCOD8147547
Probable space group: C 2/C
;
_chemical_formula_sum "Si O2"
_cell_formula_units_Z 56
_cell_length_a 29.153400
_cell_length_b 12.428829
_cell_length_c 8.995070
_cell_angle_alpha 90.000000
_cell_angle_beta 123.572398
_cell_angle_gamma 90.000000
_cell_volume 2715.606513
_symmetry_space_group_name_H-M "C 2/C"
_symmetry_group_IT_number 15
_symmetry_cell_setting 'monoclinic'
loop_
_space_group_symop_operation_xyz
x,y,z
-x,y,1/2-z
-x,-y,-z
x,-y,1/2+z
1/2+x,1/2+y,z
1/2-x,1/2+y,1/2-z
1/2-x,1/2-y,-z
1/2+x,1/2-y,1/2+z
loop_
_atom_site_type_symbol
_atom_site_label
_atom_site_fract_x
_atom_site_fract_y
_atom_site_fract_z
Si Si1 0.636698 0.046562 0.007259
Si Si2 0.318546 0.365766 0.125240
Si Si3 0.191382 0.379693 0.883196
Si Si4 0.451302 0.797589 0.262164
Si Si5 0.551558 0.435507 0.662924
Si Si6 0.034793 0.428675 0.952300
Si Si7 0.873866 0.024296 0.457051
O O1 0.607690 0.154673 0.892627
O O2 0.658970 0.967453 0.921368
O O3 0.592747 0.982202 0.024489
O O4 0.686230 0.084995 0.201928
O O5 0.334962 0.239652 0.145791
O O6 0.349693 0.420931 0.322175
O O7 0.254358 0.378986 0.046016
O O8 0.328376 0.415622 0.977088
O O9 0.500000 0.854195 0.250000
O O10 0.461488 0.671340 0.268026
O O11 0.456179 0.817817 0.445875
O O12 0.500000 0.500000 0.500000
O O13 0.597478 0.404906 0.620553
O O14 0.577357 0.505936 0.839138
O O15 0.000000 0.395795 0.750000
O O16 0.000000 0.500000 0.000000
#
# Coordination Sequence:
#
# PCOD8147547 Si02
#       7
#     8   8   8   8   8   8   8
#     4  12  22  39  61  93 126 167 209 261 318 382
#     4  10  23  44  64  94 121 171 210 271 329 376
#     4  11  24  39  66  93 129 159 218 268 325 386
#     4  12  24  39  62  88 131 170 204 257 313 379
#     4  11  24  42  63  95 123 164 213 259 306 375
#     4  12  21  39  55  87 127 166 201 246 307 377
#     4  10  22  44  66  85 127 162 212 260 316 375
#
# _framework density 20.621544
#
# number of rings (size 3 to 8) (size 9 to 14) (size 15 to 20)
#    0.000    0.857    4.286    3.000    2.000    2.286 
#    0.000    0.000    0.000    9.429    0.000    0.000 
#    0.000    0.000    0.000    0.000    0.000    0.000 
#
# Total GULP energy -346889.684220 kJ/mol
# GULP energy per Si atom -12388.917294 kJ/mol
# Density = 2.057461 g / cm^3
# Si number density = 20.621544 Si / 1000 Ang^3
#
#
#
# Elastic Constant Matrix: (Units=GPa)
#
#
# Indices 1 2 3 4 5 6 
#
# 1 82.0500 34.7464 35.4523 0.0000 -6.8046 0.0000
# 2 34.7464 107.4385 38.3512 0.0000 -1.8767 0.0000
# 3 35.4523 38.3512 139.2741 0.0000 -4.2591 0.0000
# 4 0.0000 0.0000 0.0000 31.5303 0.0000 1.4077
# 5 -6.8046 -1.8767 -4.2591 0.0000 37.8940 0.0000
# 6 0.0000 0.0000 0.0000 1.4077 0.0000 27.5062
#
#
#
# Elastic Compliance Matrix: (Units=1/GPa)
#
#
# Indices 1 2 3 4 5 6 
#
# 1 0.015205 -0.003905 -0.002727 0.000000 0.002230 0.000000
# 2 -0.003905 0.011327 -0.002137 0.000000 -0.000380 0.000000
# 3 -0.002727 -0.002137 0.008473 0.000000 0.000357 0.000000
# 4 0.000000 0.000000 0.000000 0.031788 0.000000 -0.001627
# 5 0.002230 -0.000380 0.000357 0.000000 0.026811 0.000000
# 6 0.000000 0.000000 0.000000 -0.001627 0.000000 0.036439
#
#
# Mechanical properties :
#
#
# Convention : Reuss Voigt Hill
#
# Bulk Modulus (GPa) = 57.24794 60.65138 58.94966
# Shear Modulus (GPa) = 32.59413 34.06695 33.33054
#
# Velocity S-wave (km/s) = 3.97997 4.06890 4.02468
# Velocity P-wave (km/s) = 6.99584 7.17984 7.08844
#
# Compressibility (1/GPa) = 0.01746788
#
# Stress axis : x y z
#
# Youngs Moduli (GPa) = 65.76987 88.28804 118.01566
#
# Poissons Ratio (x) = 0.34476 0.32181
# Poissons Ratio (y) = 0.25683 0.25215
# Poissons Ratio (z) = 0.17934 0.18863
#
# Static dielectric constant tensor:
#      x y z
#    x 4.713010 0.000000 -1.094940 
#    y 0.000000 3.745760 0.000000 
#    z -1.094940 0.000000 5.104940 
# 
# 
# High freq. dielectric constant tensor:
#      x y z
#    x 1.809300 0.000000 -0.009310 
#    y 0.000000 1.800410 0.000000 
#    z -0.009310 0.000000 1.824280 
# 
# From -- ./inp_files/69459.got.cif
#   From: 2010.06.25/outbox.cif.g09.slc.cpg/sg15_35_cif.got.tgz:69459.got - 2010.06.28 07:06:18.
