data_PCOD8147535
_publ_section_title
;
Structure prediction by ZEFSAII (Michael W. Deem and Ramdas Pophale) SiO2 
 PCOD8147535
Probable space group: C 2/C
;
_chemical_formula_sum "Si O2"
_cell_formula_units_Z 52
_cell_length_a 18.811998
_cell_length_b 18.245411
_cell_length_c 9.147491
_cell_angle_alpha 90.000000
_cell_angle_beta 52.814851
_cell_angle_gamma 90.000000
_cell_volume 2501.370822
_symmetry_space_group_name_H-M "C 2/C"
_symmetry_group_IT_number 15
_symmetry_cell_setting 'monoclinic'
loop_
_space_group_symop_operation_xyz
x,y,z
-x,y,1/2-z
-x,-y,-z
x,-y,1/2+z
1/2+x,1/2+y,z
1/2-x,1/2+y,1/2-z
1/2-x,1/2-y,-z
1/2+x,1/2-y,1/2+z
loop_
_atom_site_type_symbol
_atom_site_label
_atom_site_fract_x
_atom_site_fract_y
_atom_site_fract_z
Si Si1 0.832912 0.075082 0.310809
Si Si2 0.343374 0.731279 0.311812
Si Si3 0.130769 0.627142 0.573380
Si Si4 0.485763 0.916815 0.042188
Si Si5 0.500000 0.821639 0.750000
Si Si6 0.839192 0.223112 0.967588
Si Si7 0.104684 0.059685 0.585691
O O1 0.880862 0.150088 0.308576
O O2 0.732293 0.105599 0.410257
O O3 0.840450 0.007436 0.410945
O O4 0.879673 0.048951 0.104960
O O5 0.250000 0.750000 0.500000
O O6 0.400918 0.794378 0.316211
O O7 0.336218 0.737155 0.144889
O O8 0.075529 0.619355 0.494228
O O9 0.097012 0.574955 0.743919
O O10 0.461936 0.872579 0.925993
O O11 0.500000 0.000000 0.000000
O O12 0.419645 0.769460 0.796775
O O13 0.855751 0.137334 0.909761
O O14 0.750000 0.250000 0.000000
O O15 0.000000 0.053333 0.750000
#
# Coordination Sequence:
#
# PCOD8147535 Si02
#       7
#     8   8   8   8   4   8   8
#     4  10  24  41  70  91 131 171 224 273 329 402
#     4   9  20  43  63  95 128 166 226 268 323 407
#     4  10  22  44  65  95 133 176 219 274 334 412
#     4  11  25  41  64  97 138 171 216 276 344 397
#     4  12  24  44  68  98 136 172 222 280 338 406
#     4  11  25  42  70  98 132 175 221 278 336 401
#     4  11  24  46  63  98 132 170 221 281 333 390
#
# _framework density 20.788602000000001
#
# number of rings (size 3 to 8) (size 9 to 14) (size 15 to 20)
#    0.000    1.538    2.308    1.385    8.615    3.692 
#    2.769    0.000    0.000    0.000    0.000    0.000 
#    0.000    0.000    0.000    0.000    0.000    0.000 
#
# Total GULP energy -322093.542500 kJ/mol
# GULP energy per Si atom -12388.213173 kJ/mol
# Density = 2.074129 g / cm^3
# Si number density = 20.788602 Si / 1000 Ang^3
#
#
#
# Elastic Constant Matrix: (Units=GPa)
#
#
# Indices 1 2 3 4 5 6 
#
# 1 85.0076 51.4674 14.9879 0.0000 -5.5422 0.0000
# 2 51.4674 177.5195 35.3129 0.0000 15.6837 0.0000
# 3 14.9879 35.3129 102.3509 0.0000 -3.9479 0.0000
# 4 0.0000 0.0000 0.0000 35.2536 0.0000 -0.8922
# 5 -5.5422 15.6837 -3.9479 0.0000 31.7307 0.0000
# 6 0.0000 0.0000 0.0000 -0.8922 0.0000 29.2443
#
#
#
# Elastic Compliance Matrix: (Units=1/GPa)
#
#
# Indices 1 2 3 4 5 6 
#
# 1 0.014999 -0.004705 -0.000384 0.000000 0.004898 0.000000
# 2 -0.004705 0.007881 -0.002223 0.000000 -0.004993 0.000000
# 3 -0.000384 -0.002223 0.010684 0.000000 0.002361 0.000000
# 4 0.000000 0.000000 0.000000 0.028388 0.000000 0.000866
# 5 0.004898 -0.004993 0.002361 0.000000 0.035133 0.000000
# 6 0.000000 0.000000 0.000000 0.000866 0.000000 0.034221
#
#
# Mechanical properties :
#
#
# Convention : Reuss Voigt Hill
#
# Bulk Modulus (GPa) = 52.79604 63.15716 57.97660
# Shear Modulus (GPa) = 32.84224 36.78635 34.81430
#
# Velocity S-wave (km/s) = 3.97901 4.21116 4.09673
# Velocity P-wave (km/s) = 6.82362 7.35471 7.09414
#
# Compressibility (1/GPa) = 0.01894081
#
# Stress axis : x y z
#
# Youngs Moduli (GPa) = 66.66984 126.89457 93.59376
#
# Poissons Ratio (x) = 0.59703 0.03596
# Poissons Ratio (y) = 0.31368 0.20802
# Poissons Ratio (z) = 0.02562 0.28203
#
# Static dielectric constant tensor:
#      x y z
#    x 3.368560 0.000000 -0.337030 
#    y 0.000000 4.614580 0.000000 
#    z -0.337030 0.000000 4.357970 
# 
# 
# High freq. dielectric constant tensor:
#      x y z
#    x 1.787730 0.000000 -0.006820 
#    y 0.000000 1.838450 0.000000 
#    z -0.006820 0.000000 1.831940 
# 
# From -- ./inp_files/48938.got.cif
#   From: 2010.06.25/outbox.cif.g09.slc.cpg/sg15_25_cif.got.tgz:48938.got - 2010.06.28 07:06:18.
