data_PCOD8147430
_publ_section_title
;
Structure prediction by ZEFSAII (Michael W. Deem and Ramdas Pophale) SiO2 
 PCOD8147430
Probable space group: C 2/C
;
_chemical_formula_sum "Si O2"
_cell_formula_units_Z 40
_cell_length_a 11.142579
_cell_length_b 17.094410
_cell_length_c 9.676419
_cell_angle_alpha 90.000000
_cell_angle_beta 94.603290
_cell_angle_gamma 90.000000
_cell_volume 1837.178368
_symmetry_space_group_name_H-M "C 2/C"
_symmetry_group_IT_number 15
_symmetry_cell_setting 'monoclinic'
loop_
_space_group_symop_operation_xyz
x,y,z
-x,y,1/2-z
-x,-y,-z
x,-y,1/2+z
1/2+x,1/2+y,z
1/2-x,1/2+y,1/2-z
1/2-x,1/2-y,-z
1/2+x,1/2-y,1/2+z
loop_
_atom_site_type_symbol
_atom_site_label
_atom_site_fract_x
_atom_site_fract_y
_atom_site_fract_z
Si Si1 0.362805 0.931076 0.193112
Si Si2 0.500000 0.756897 0.750000
Si Si3 0.826158 0.131236 0.618732
Si Si4 0.313222 0.824382 0.932687
Si Si5 0.785618 0.915013 0.822038
Si Si6 0.000000 0.008047 0.750000
O O1 0.500000 0.928707 0.250000
O O2 0.288021 0.879832 0.294096
O O3 0.320580 0.020961 0.185693
O O4 0.343556 0.892841 0.042213
O O5 0.393860 0.709245 0.668149
O O6 0.438631 0.806215 0.866647
O O7 0.777817 0.138125 0.458148
O O8 0.918370 0.059160 0.640049
O O9 0.220862 0.859510 0.812212
O O10 0.250000 0.750000 0.000000
O O11 0.915439 0.955616 0.837876
#
# Coordination Sequence:
#
# PCOD8147430 Si02
#       6
#     8   4   8   8   8   4
#     4  11  25  46  71 101 142 183 235 289 349 416
#     4  11  26  46  70  96 145 182 236 288 353 416
#     4  10  22  43  71  98 134 183 232 288 350 415
#     4  12  28  48  69 105 144 185 232 292 351 414
#     4  11  25  41  74 104 135 183 236 285 352 411
#     4   9  20  40  70 104 133 172 230 294 343 416
#
# _framework density 21.772517000000001
#
# number of rings (size 3 to 8) (size 9 to 14) (size 15 to 20)
#    0.000    1.200    2.000    3.000    7.000    4.000 
#    0.000    0.000    0.000    0.000    0.000    0.000 
#    0.000    0.000    0.000    0.000    0.000    0.000 
#
# Total GULP energy -248060.941387 kJ/mol
# GULP energy per Si atom -12403.047069 kJ/mol
# Density = 2.172296 g / cm^3
# Si number density = 21.772517 Si / 1000 Ang^3
#
#
#
# Elastic Constant Matrix: (Units=GPa)
#
#
# Indices 1 2 3 4 5 6 
#
# 1 143.0001 31.6336 50.2822 0.0000 -8.4932 0.0000
# 2 31.6336 81.8445 48.3579 0.0000 -3.7928 0.0000
# 3 50.2822 48.3579 174.2975 0.0000 1.7356 0.0000
# 4 0.0000 0.0000 0.0000 46.8251 0.0000 -23.7408
# 5 -8.4932 -3.7928 1.7356 0.0000 34.1078 0.0000
# 6 0.0000 0.0000 0.0000 -23.7408 0.0000 28.0656
#
#
#
# Elastic Compliance Matrix: (Units=1/GPa)
#
#
# Indices 1 2 3 4 5 6 
#
# 1 0.008191 -0.001997 -0.001828 0.000000 0.001911 0.000000
# 2 -0.001997 0.015216 -0.003659 0.000000 0.001381 0.000000
# 3 -0.001828 -0.003659 0.007292 0.000000 -0.001233 0.000000
# 4 0.000000 0.000000 0.000000 0.037394 0.000000 0.031631
# 5 0.001911 0.001381 -0.001233 0.000000 0.030011 0.000000
# 6 0.000000 0.000000 0.000000 0.031631 0.000000 0.062388
#
#
# Mechanical properties :
#
#
# Convention : Reuss Voigt Hill
#
# Bulk Modulus (GPa) = 63.57039 73.29885 68.43462
# Shear Modulus (GPa) = 27.66954 39.72426 33.69690
#
# Velocity S-wave (km/s) = 3.56876 4.27607 3.93833
# Velocity P-wave (km/s) = 6.80017 7.62355 7.22360
#
# Compressibility (1/GPa) = 0.01573059
#
# Stress axis : x y z
#
# Youngs Moduli (GPa) = 122.08462 65.71881 137.13404
#
# Poissons Ratio (x) = 0.13127 0.25066
# Poissons Ratio (y) = 0.24385 0.50180
# Poissons Ratio (z) = 0.22315 0.24048
#
# Static dielectric constant tensor:
#      x y z
#    x 3.956250 0.000000 -0.121470 
#    y 0.000000 3.934250 0.000000 
#    z -0.121470 0.000000 3.966710 
# 
# 
# High freq. dielectric constant tensor:
#      x y z
#    x 1.862970 0.000000 -0.004960 
#    y 0.000000 1.853650 0.000000 
#    z -0.004960 0.000000 1.869060 
# 
# From -- ./inp_files/29134.got.cif
#   From: 2010.06.25/outbox.cif.g09.slc.cpg/sg15_15_cif.got.tgz:29134.got - 2010.06.28 07:06:18.
