data_PCOD8147961
_publ_section_title
;
Structure prediction by ZEFSAII (Michael W. Deem and Ramdas Pophale) SiO2 
 PCOD8147961
Probable space group: C 2/C
;
_chemical_formula_sum "Si O2"
_cell_formula_units_Z 40
_cell_length_a 8.640878
_cell_length_b 14.781859
_cell_length_c 12.794112
_cell_angle_alpha 90.000000
_cell_angle_beta 127.263330
_cell_angle_gamma 90.000000
_cell_volume 1300.571960
_symmetry_space_group_name_H-M "C 2/C"
_symmetry_group_IT_number 15
_symmetry_cell_setting 'monoclinic'
loop_
_space_group_symop_operation_xyz
x,y,z
-x,y,1/2-z
-x,-y,-z
x,-y,1/2+z
1/2+x,1/2+y,z
1/2-x,1/2+y,1/2-z
1/2-x,1/2-y,-z
1/2+x,1/2-y,1/2+z
loop_
_atom_site_type_symbol
_atom_site_label
_atom_site_fract_x
_atom_site_fract_y
_atom_site_fract_z
Si Si1 0.773289 0.640192 0.013138
Si Si2 0.754952 0.048689 0.937550
Si Si3 0.173378 0.455261 0.169427
Si Si4 0.304066 0.844681 0.845806
Si Si5 0.506463 0.286345 0.565064
O O1 0.666036 0.554407 0.027219
O O2 0.998558 0.646089 0.142161
O O3 0.755471 0.624595 0.880064
O O4 0.860732 0.780523 0.988919
O O5 0.561905 0.040449 0.932458
O O6 0.724703 0.078299 0.805863
O O7 0.900146 0.120060 0.047875
O O8 0.271694 0.551231 0.175759
O O9 0.147622 0.778725 0.723756
O O10 0.352586 0.795426 0.979087
#
# Coordination Sequence:
#
# PCOD8147961 Si02
#       5
#     8   8   8   8   8
#     4  11  23  47  77 107 140 196 251 304 359 431
#     4  10  22  46  74 104 145 190 244 306 360 435
#     4  10  23  48  79 101 144 197 247 299 372 431
#     4  11  25  47  70 112 152 194 232 309 371 436
#     4  12  26  46  76 109 152 188 249 305 366 434
#
# _framework density 30.755700000000001
#
# number of rings (size 3 to 8) (size 9 to 14) (size 15 to 20)
#    0.000    1.200    2.000    4.200    2.800    0.800 
#    0.000    7.000    0.000    0.000    0.000    0.000 
#    0.000    0.000    0.000    0.000    0.000    0.000 
#
# Total GULP energy -247912.295959 kJ/mol
# GULP energy per Si atom -12395.614798 kJ/mol
# Density = 3.068570 g / cm^3
# Si number density = 30.755700 Si / 1000 Ang^3
#
#
#
# Elastic Constant Matrix: (Units=GPa)
#
#
# Indices 1 2 3 4 5 6 
#
# 1 104.0785 39.4794 29.9790 0.0000 -30.5710 0.0000
# 2 39.4794 149.1393 71.6979 0.0000 2.7256 0.0000
# 3 29.9790 71.6979 150.8338 0.0000 2.8057 0.0000
# 4 0.0000 0.0000 0.0000 45.3082 0.0000 -3.3604
# 5 -30.5710 2.7256 2.8057 0.0000 50.5228 0.0000
# 6 0.0000 0.0000 0.0000 -3.3604 0.0000 53.5521
#
#
#
# Elastic Compliance Matrix: (Units=1/GPa)
#
#
# Indices 1 2 3 4 5 6 
#
# 1 0.013698 -0.003107 -0.001404 0.000000 0.008534 0.000000
# 2 -0.003107 0.009399 -0.003810 0.000000 -0.002175 0.000000
# 3 -0.001404 -0.003810 0.008741 0.000000 -0.001130 0.000000
# 4 0.000000 0.000000 0.000000 0.022174 0.000000 0.001391
# 5 0.008534 -0.002175 -0.001130 0.000000 0.025137 0.000000
# 6 0.000000 0.000000 0.000000 0.001391 0.000000 0.018761
#
#
# Mechanical properties :
#
#
# Convention : Reuss Voigt Hill
#
# Bulk Modulus (GPa) = 65.80844 76.26272 71.03558
# Shear Modulus (GPa) = 41.80012 47.40296 44.60154
#
# Velocity S-wave (km/s) = 3.69060 3.93017 3.81226
# Velocity P-wave (km/s) = 6.29319 6.74129 6.52109
#
# Compressibility (1/GPa) = 0.01519562
#
# Stress axis : x y z
#
# Youngs Moduli (GPa) = 73.00391 106.39640 114.40473
#
# Poissons Ratio (x) = 0.33055 0.16068
# Poissons Ratio (y) = 0.22681 0.43585
# Poissons Ratio (z) = 0.10253 0.40534
#
# Static dielectric constant tensor:
#      x y z
#    x 6.038940 0.000000 0.048220 
#    y 0.000000 6.064060 0.000000 
#    z 0.048220 0.000000 5.242500 
# 
# 
# High freq. dielectric constant tensor:
#      x y z
#    x 2.285890 0.000000 -0.017050 
#    y 0.000000 2.293280 0.000000 
#    z -0.017050 0.000000 2.241000 
# 
# From -- ./inp_files/143933.got.cif
#   From: 2010.06.25/outbox.cif.g09.slc.cpg/sg15_72_cif.got.tgz:143933.got - 2010.06.28 07:06:18.
