data_PCOD8147394
_publ_section_title
;
Structure prediction by ZEFSAII (Michael W. Deem and Ramdas Pophale) SiO2 
 PCOD8147394
Probable space group: C 2/C
;
_chemical_formula_sum "Si O2"
_cell_formula_units_Z 40
_cell_length_a 10.374253
_cell_length_b 9.881055
_cell_length_c 29.790239
_cell_angle_alpha 90.000000
_cell_angle_beta 28.533087
_cell_angle_gamma 90.000000
_cell_volume 1458.675303
_symmetry_space_group_name_H-M "C 2/C"
_symmetry_group_IT_number 15
_symmetry_cell_setting 'monoclinic'
loop_
_space_group_symop_operation_xyz
x,y,z
-x,y,1/2-z
-x,-y,-z
x,-y,1/2+z
1/2+x,1/2+y,z
1/2-x,1/2+y,1/2-z
1/2-x,1/2-y,-z
1/2+x,1/2-y,1/2+z
loop_
_atom_site_type_symbol
_atom_site_label
_atom_site_fract_x
_atom_site_fract_y
_atom_site_fract_z
Si Si1 0.054818 0.189720 0.401720
Si Si2 0.000000 0.946728 0.750000
Si Si3 0.012277 0.272971 0.175791
Si Si4 0.624122 0.254783 0.977178
Si Si5 0.902631 0.477424 0.947502
Si Si6 0.000000 0.480511 0.250000
O O1 0.141489 0.277043 0.418845
O O2 0.095206 0.268913 0.342272
O O3 0.248945 0.063209 0.344167
O O4 0.750681 0.124654 0.502421
O O5 0.938449 0.863950 0.723693
O O6 0.283206 0.024189 0.653862
O O7 0.878737 0.393018 0.245529
O O8 0.329191 0.303784 0.081543
O O9 0.822296 0.378633 0.930551
O O10 0.678530 0.109482 0.983757
#
# Coordination Sequence:
#
# PCOD8147394 Si02
#       6
#     8   4   8   8   8   4
#     4  12  25  41  77 101 137 190 236 273 361 415
#     4   9  22  40  68  95 140 181 224 288 344 397
#     4  10  23  45  66 103 145 172 236 295 331 421
#     4  10  22  43  70 103 137 182 231 288 341 418
#     4  10  22  43  72  99 141 187 227 289 350 405
#     4  11  26  44  66 109 138 189 228 292 348 405
#
# _framework density 27.422142000000001
#
# number of rings (size 3 to 8) (size 9 to 14) (size 15 to 20)
#    0.000    1.600    2.000    1.200    5.600    3.200 
#    0.000    4.000    8.800    0.000    0.000    0.000 
#    0.000    0.000    0.000    0.000    0.000    0.000 
#
# Total GULP energy -247883.845324 kJ/mol
# GULP energy per Si atom -12394.192266 kJ/mol
# Density = 2.735973 g / cm^3
# Si number density = 27.422142 Si / 1000 Ang^3
#
#
#
# Elastic Constant Matrix: (Units=GPa)
#
#
# Indices 1 2 3 4 5 6 
#
# 1 182.1737 64.5065 59.0006 -0.0359 52.3848 0.0166
# 2 64.5065 108.6577 30.5440 0.0419 23.0035 -0.0324
# 3 59.0006 30.5440 116.5302 -0.1958 17.0302 0.0884
# 4 -0.0359 0.0419 -0.1958 -11.0212 0.0322 45.9111
# 5 52.3848 23.0035 17.0302 0.0322 61.6721 -0.0171
# 6 0.0166 -0.0324 0.0884 45.9111 -0.0171 8.7175
#
#
#
# Elastic Compliance Matrix: (Units=1/GPa)
#
#
# Indices 1 2 3 4 5 6 
#
# 1 0.009365 -0.003489 -0.002975 -0.000003 -0.005832 0.000001
# 2 -0.003489 0.011843 -0.001173 0.000014 -0.001130 -0.000014
# 3 -0.002975 -0.001173 0.010381 -0.000027 0.000098 0.000037
# 4 -0.000003 0.000014 -0.000027 -0.003955 0.000012 0.020832
# 5 -0.005832 -0.001130 0.000098 0.000012 0.021563 -0.000015
# 6 0.000001 -0.000014 0.000037 0.020832 -0.000015 0.005001
#
#
# Mechanical properties :
#
#
# Convention : Reuss Voigt Hill
#
# Bulk Modulus (GPa) = 61.28793 79.49598 70.39196
# Shear Modulus (GPa) = 66.74736 28.76105 47.75421
#
# Velocity S-wave (km/s) = 4.93898 3.24207 4.17759
# Velocity P-wave (km/s) = 7.41101 6.56257 6.99966
#
# Compressibility (1/GPa) = 0.01631643
#
# Stress axis : x y z
#
# Youngs Moduli (GPa) = 106.77899 84.43566 96.33274
#
# Poissons Ratio (x) = 0.29458 0.28658
# Poissons Ratio (y) = 0.37254 0.11296
# Poissons Ratio (z) = 0.31766 0.09901
#
# Static dielectric constant tensor:
#      x y z
#    x 5.385040 0.000030 0.141620 
#    y 0.000030 4.895780 -0.000050 
#    z 0.141620 -0.000050 5.300790 
# 
# 
# High freq. dielectric constant tensor:
#      x y z
#    x 2.107760 0.000000 0.011800 
#    y 0.000000 2.114720 -0.000010 
#    z 0.011800 -0.000010 2.113540 
# 
# From -- ./inp_files/310739.got.cif
#   From: 2010.06.25/outbox.cif.g09.slc.cpg/sg15_156_cif.got.tgz:310739.got - 2010.06.28 07:06:18.
