data_PCOD8147904
_publ_section_title
;
Structure prediction by ZEFSAII (Michael W. Deem and Ramdas Pophale) SiO2 
 PCOD8147904
Probable space group: C 2/C
;
_chemical_formula_sum "Si O2"
_cell_formula_units_Z 40
_cell_length_a 18.590623
_cell_length_b 11.643818
_cell_length_c 15.007757
_cell_angle_alpha 90.000000
_cell_angle_beta 35.110808
_cell_angle_gamma 90.000000
_cell_volume 1868.501689
_symmetry_space_group_name_H-M "C 2/C"
_symmetry_group_IT_number 15
_symmetry_cell_setting 'monoclinic'
loop_
_space_group_symop_operation_xyz
x,y,z
-x,y,1/2-z
-x,-y,-z
x,-y,1/2+z
1/2+x,1/2+y,z
1/2-x,1/2+y,1/2-z
1/2-x,1/2-y,-z
1/2+x,1/2-y,1/2+z
loop_
_atom_site_type_symbol
_atom_site_label
_atom_site_fract_x
_atom_site_fract_y
_atom_site_fract_z
Si Si1 0.000000 0.500033 0.250000
Si Si2 0.196774 0.951017 0.327894
Si Si3 0.247183 0.120676 0.969326
Si Si4 0.034871 0.853373 0.030107
Si Si5 0.500000 0.472214 0.250000
Si Si6 0.562803 0.088888 0.003658
O O1 0.873533 0.428038 0.383721
O O2 0.999674 0.579298 0.336969
O O3 0.257075 0.887579 0.352223
O O4 0.289367 0.939304 0.149984
O O5 0.064662 0.893915 0.441692
O O6 0.169226 0.085817 0.375504
O O7 0.250000 0.250000 0.000000
O O8 0.122906 0.053047 0.127221
O O9 0.045659 0.720627 0.996597
O O10 0.993936 0.887510 0.171512
O O11 0.500000 0.000000 0.000000
#
# Coordination Sequence:
#
# PCOD8147904 Si02
#       6
#     4   8   8   8   4   8
#     4  12  26  44  64 104 132 175 229 278 340 404
#     4  10  24  45  67 101 134 183 226 276 348 402
#     4  11  24  41  69  99 142 179 228 278 339 405
#     4  10  24  44  71  95 136 179 228 282 339 409
#     4  10  22  46  68 100 132 189 233 276 346 408
#     4  12  26  43  69 100 135 175 229 283 345 408
#
# _framework density 21.407526000000001
#
# number of rings (size 3 to 8) (size 9 to 14) (size 15 to 20)
#    0.000    1.200    2.000    2.400    5.600    4.800 
#    0.000    5.000    0.000    0.000    0.000    0.000 
#    0.000    0.000    0.000    0.000    0.000    0.000 
#
# Total GULP energy -247937.411136 kJ/mol
# GULP energy per Si atom -12396.870557 kJ/mol
# Density = 2.135880 g / cm^3
# Si number density = 21.407526 Si / 1000 Ang^3
#
#
#
# Elastic Constant Matrix: (Units=GPa)
#
#
# Indices 1 2 3 4 5 6 
#
# 1 91.5770 47.8097 19.8459 0.0000 -5.8548 0.0000
# 2 47.8097 175.1106 52.4950 0.0000 -0.6836 0.0000
# 3 19.8459 52.4950 124.7642 0.0000 -7.3001 0.0000
# 4 0.0000 0.0000 0.0000 23.2909 0.0000 0.9104
# 5 -5.8548 -0.6836 -7.3001 0.0000 44.1072 0.0000
# 6 0.0000 0.0000 0.0000 0.9104 0.0000 26.0926
#
#
#
# Elastic Compliance Matrix: (Units=1/GPa)
#
#
# Indices 1 2 3 4 5 6 
#
# 1 0.012887 -0.003348 -0.000550 0.000000 0.001568 0.000000
# 2 -0.003348 0.007410 -0.002630 0.000000 -0.000765 0.000000
# 3 -0.000550 -0.002630 0.009293 0.000000 0.001424 0.000000
# 4 0.000000 0.000000 0.000000 0.042994 0.000000 -0.001500
# 5 0.001568 -0.000765 0.001424 0.000000 0.023104 0.000000
# 6 0.000000 0.000000 0.000000 -0.001500 0.000000 0.038377
#
#
# Mechanical properties :
#
#
# Convention : Reuss Voigt Hill
#
# Bulk Modulus (GPa) = 60.47835 70.19477 65.33656
# Shear Modulus (GPa) = 32.75876 36.78488 34.77182
#
# Velocity S-wave (km/s) = 3.91608 4.14975 4.03461
# Velocity P-wave (km/s) = 6.98283 7.47138 7.23123
#
# Compressibility (1/GPa) = 0.01653484
#
# Stress axis : x y z
#
# Youngs Moduli (GPa) = 77.59895 134.95087 107.61359
#
# Poissons Ratio (x) = 0.45175 0.05915
# Poissons Ratio (y) = 0.25976 0.28303
# Poissons Ratio (z) = 0.04265 0.35493
#
# Static dielectric constant tensor:
#      x y z
#    x 3.822190 0.000000 -0.058100 
#    y 0.000000 3.837370 0.000000 
#    z -0.058100 0.000000 4.203920 
# 
# 
# High freq. dielectric constant tensor:
#      x y z
#    x 1.846850 0.000000 -0.001950 
#    y 0.000000 1.839110 0.000000 
#    z -0.001950 0.000000 1.855250 
# 
# From -- ./inp_files/103959.got.cif
#   From: 2010.06.25/outbox.cif.g09.slc.cpg/sg15_52_cif.got.tgz:103959.got - 2010.06.28 07:06:18.
