data_PCOD8147142
_publ_section_title
;
Structure prediction by ZEFSAII (Michael W. Deem and Ramdas Pophale) SiO2 
 PCOD8147142
Probable space group: C 2/C
;
_chemical_formula_sum "Si O2"
_cell_formula_units_Z 56
_cell_length_a 22.171858
_cell_length_b 8.874881
_cell_length_c 14.174059
_cell_angle_alpha 90.000000
_cell_angle_beta 109.047279
_cell_angle_gamma 90.000000
_cell_volume 2636.363965
_symmetry_space_group_name_H-M "C 2/C"
_symmetry_group_IT_number 15
_symmetry_cell_setting 'monoclinic'
loop_
_space_group_symop_operation_xyz
x,y,z
-x,y,1/2-z
-x,-y,-z
x,-y,1/2+z
1/2+x,1/2+y,z
1/2-x,1/2+y,1/2-z
1/2-x,1/2-y,-z
1/2+x,1/2-y,1/2+z
loop_
_atom_site_type_symbol
_atom_site_label
_atom_site_fract_x
_atom_site_fract_y
_atom_site_fract_z
Si Si1 0.413597 0.009181 0.624252
Si Si2 0.500000 0.736645 0.250000
Si Si3 0.083114 0.016899 0.706312
Si Si4 0.308048 0.909260 0.204575
Si Si5 0.187320 0.086677 0.386812
Si Si6 0.173411 0.545340 0.091938
Si Si7 0.331715 0.613463 0.906991
Si Si8 0.000000 0.735736 0.250000
O O1 0.458452 0.865609 0.658559
O O2 0.452943 0.162665 0.662796
O O3 0.355376 0.989272 0.667192
O O4 0.386518 0.009233 0.504778
O O5 0.458096 0.634381 0.299549
O O6 0.141616 0.030753 0.810621
O O7 0.111527 0.020768 0.614570
O O8 0.040541 0.163398 0.699490
O O9 0.314861 0.737978 0.175472
O O10 0.235361 0.965461 0.154292
O O11 0.328022 0.926424 0.323696
O O12 0.259961 0.028251 0.431848
O O13 0.158776 0.115405 0.475741
O O14 0.167770 0.714549 0.129764
#
# Coordination Sequence:
#
# PCOD8147142 Si02
#       8
#     8   4   8   8   8   8   8   4
#     4  11  21  45  66  96 134 172 221 264 331 389
#     4  10  22  42  72  86 138 196 216 256 300 412
#     4  11  22  45  65  97 134 173 227 263 322 390
#     4  11  20  37  69  99 127 164 215 273 330 391
#     4  11  21  42  68  99 131 171 213 274 337 396
#     4  11  21  38  68 100 129 166 215 276 340 386
#     4  11  21  39  68 102 132 170 213 273 340 387
#     4  10  26  44  64  94 142 176 214 286 306 384
#
# _framework density 21.241377
#
# number of rings (size 3 to 8) (size 9 to 14) (size 15 to 20)
#    0.000    1.143    5.714    1.714    0.000    0.000 
#    2.571   16.429    0.000    0.000    0.000    0.000 
#    0.000    0.000    0.000    0.000    0.000    0.000 
#
# Total GULP energy -347277.631286 kJ/mol
# GULP energy per Si atom -12402.772546 kJ/mol
# Density = 2.119303 g / cm^3
# Si number density = 21.241377 Si / 1000 Ang^3
#
#
#
# Elastic Constant Matrix: (Units=GPa)
#
#
# Indices 1 2 3 4 5 6 
#
# 1 134.3721 53.5283 61.8486 0.0000 -9.8291 0.0000
# 2 53.5283 90.7317 55.4914 0.0000 -4.1892 0.0000
# 3 61.8486 55.4914 155.3135 0.0000 -7.9196 0.0000
# 4 0.0000 0.0000 0.0000 27.8372 0.0000 0.1987
# 5 -9.8291 -4.1892 -7.9196 0.0000 36.3960 0.0000
# 6 0.0000 0.0000 0.0000 0.1987 0.0000 15.1423
#
#
#
# Elastic Compliance Matrix: (Units=1/GPa)
#
#
# Indices 1 2 3 4 5 6 
#
# 1 0.010550 -0.004642 -0.002452 0.000000 0.001781 0.000000
# 2 -0.004642 0.016156 -0.003937 0.000000 -0.000251 0.000000
# 3 -0.002452 -0.003937 0.008863 0.000000 0.000813 0.000000
# 4 0.000000 0.000000 0.000000 0.035927 0.000000 -0.000472
# 5 0.001781 -0.000251 0.000813 0.000000 0.028105 0.000000
# 6 0.000000 0.000000 0.000000 -0.000472 0.000000 0.066046
#
#
# Mechanical properties :
#
#
# Convention : Reuss Voigt Hill
#
# Bulk Modulus (GPa) = 74.03055 80.23933 77.13494
# Shear Modulus (GPa) = 26.01307 29.84503 27.92905
#
# Velocity S-wave (km/s) = 3.50328 3.75246 3.63001
# Velocity P-wave (km/s) = 7.16182 7.52540 7.34586
#
# Compressibility (1/GPa) = 0.01350794
#
# Stress axis : x y z
#
# Youngs Moduli (GPa) = 94.78510 61.89497 112.83043
#
# Poissons Ratio (x) = 0.28735 0.27663
# Poissons Ratio (y) = 0.44004 0.44416
# Poissons Ratio (z) = 0.23239 0.24365
#
# Static dielectric constant tensor:
#      x y z
#    x 4.248660 0.000000 0.174320 
#    y 0.000000 3.695610 0.000000 
#    z 0.174320 0.000000 3.637380 
# 
# 
# High freq. dielectric constant tensor:
#      x y z
#    x 1.850370 0.000000 0.007470 
#    y 0.000000 1.815120 0.000000 
#    z 0.007470 0.000000 1.823810 
# 
# From -- ./inp_files/172001.got.cif
#   From: 2010.06.25/outbox.cif.g09.slc.cpg/sg15_87_cif.got.tgz:172001.got - 2010.06.28 07:06:18.
