data_PCOD8147082
_publ_section_title
;
Structure prediction by ZEFSAII (Michael W. Deem and Ramdas Pophale) SiO2 
 PCOD8147082
Probable space group: C 2/C
;
_chemical_formula_sum "Si O2"
_cell_formula_units_Z 56
_cell_length_a 9.527747
_cell_length_b 15.074500
_cell_length_c 19.914389
_cell_angle_alpha 90.000000
_cell_angle_beta 111.638516
_cell_angle_gamma 90.000000
_cell_volume 2658.661056
_symmetry_space_group_name_H-M "C 2/C"
_symmetry_group_IT_number 15
_symmetry_cell_setting 'monoclinic'
loop_
_space_group_symop_operation_xyz
x,y,z
-x,y,1/2-z
-x,-y,-z
x,-y,1/2+z
1/2+x,1/2+y,z
1/2-x,1/2+y,1/2-z
1/2-x,1/2-y,-z
1/2+x,1/2-y,1/2+z
loop_
_atom_site_type_symbol
_atom_site_label
_atom_site_fract_x
_atom_site_fract_y
_atom_site_fract_z
Si Si1 0.355251 0.219234 0.270414
Si Si2 0.883261 0.127680 0.873200
Si Si3 0.727555 0.985567 0.927439
Si Si4 0.877917 0.013676 0.094582
Si Si5 0.615012 0.337197 0.622925
Si Si6 0.587870 0.238767 0.004870
Si Si7 0.090932 0.581342 0.103657
O O1 0.500000 0.234361 0.250000
O O2 0.318125 0.309737 0.303522
O O3 0.206415 0.197523 0.202551
O O4 0.389753 0.138425 0.326177
O O5 0.940111 0.186900 0.944510
O O6 0.753280 0.059443 0.874306
O O7 0.027795 0.074061 0.870735
O O8 0.774174 0.889188 0.908057
O O9 0.552451 0.983144 0.916146
O O10 0.830994 0.011736 0.008411
O O11 0.735761 0.018131 0.119342
O O12 0.979132 0.100664 0.124265
O O13 0.543728 0.251469 0.573389
O O14 0.573070 0.141574 0.034069
O O15 0.750000 0.250000 0.000000
#
# Coordination Sequence:
#
# PCOD8147082 Si02
#       7
#     8   8   8   8   8   8   8
#     4  11  25  46  64  96 134 186 225 272 332 413
#     4  10  22  42  70  92 134 167 230 273 328 402
#     4  11  20  41  73 103 130 171 221 290 336 391
#     4  11  21  42  72 104 128 174 219 281 349 392
#     4  11  21  41  73  92 143 181 219 273 346 391
#     4  11  20  40  69 104 127 170 225 279 317 401
#     4  11  24  39  73  99 140 169 226 277 335 397
#
# _framework density 21.063233
#
# number of rings (size 3 to 8) (size 9 to 14) (size 15 to 20)
#    0.000    1.143    5.714    1.286    0.000    2.286 
#    5.143    0.000    9.429    0.000    0.000    0.000 
#    0.000    0.000    0.000    0.000    0.000    0.000 
#
# Total GULP energy -347326.589837 kJ/mol
# GULP energy per Si atom -12404.521066 kJ/mol
# Density = 2.101529 g / cm^3
# Si number density = 21.063233 Si / 1000 Ang^3
#
#
#
# Elastic Constant Matrix: (Units=GPa)
#
#
# Indices 1 2 3 4 5 6 
#
# 1 141.5953 50.3109 36.9686 0.0000 13.1643 0.0000
# 2 50.3109 98.1958 53.0062 0.0000 8.4625 0.0000
# 3 36.9686 53.0062 142.6706 0.0000 17.4236 0.0000
# 4 0.0000 0.0000 0.0000 34.3354 0.0000 -1.0566
# 5 13.1643 8.4625 17.4236 0.0000 30.8824 0.0000
# 6 0.0000 0.0000 0.0000 -1.0566 0.0000 32.1433
#
#
#
# Elastic Compliance Matrix: (Units=1/GPa)
#
#
# Indices 1 2 3 4 5 6 
#
# 1 0.008858 -0.004067 -0.000493 0.000000 -0.002383 0.000000
# 2 -0.004067 0.014628 -0.004407 0.000000 0.000211 0.000000
# 3 -0.000493 -0.004407 0.009238 0.000000 -0.003794 0.000000
# 4 0.000000 0.000000 0.000000 0.029154 0.000000 0.000958
# 5 -0.002383 0.000211 -0.003794 0.000000 0.035479 0.000000
# 6 0.000000 0.000000 0.000000 0.000958 0.000000 0.031142
#
#
# Mechanical properties :
#
#
# Convention : Reuss Voigt Hill
#
# Bulk Modulus (GPa) = 67.61432 73.67035 70.64234
# Shear Modulus (GPa) = 33.03347 35.61729 34.32538
#
# Velocity S-wave (km/s) = 3.96447 4.11660 4.04125
# Velocity P-wave (km/s) = 7.28879 7.59256 7.44222
#
# Compressibility (1/GPa) = 0.01478977
#
# Stress axis : x y z
#
# Youngs Moduli (GPa) = 112.89672 68.36288 108.25394
#
# Poissons Ratio (x) = 0.27800 0.05340
# Poissons Ratio (y) = 0.45911 0.47705
# Poissons Ratio (z) = 0.05569 0.30126
#
# Static dielectric constant tensor:
#      x y z
#    x 3.875690 0.000000 -0.042270 
#    y 0.000000 3.895960 0.000000 
#    z -0.042270 0.000000 3.801620 
# 
# 
# High freq. dielectric constant tensor:
#      x y z
#    x 1.833810 0.000000 -0.002350 
#    y 0.000000 1.825910 0.000000 
#    z -0.002350 0.000000 1.812840 
# 
# From -- ./inp_files/232790.got.cif
#   From: 2010.06.25/outbox.cif.g09.slc.cpg/sg15_117_cif.got.tgz:232790.got - 2010.06.28 07:06:18.
