data_PCOD8147318
_publ_section_title
;
Structure prediction by ZEFSAII (Michael W. Deem and Ramdas Pophale) SiO2 
 PCOD8147318
Probable space group: C 2/C
;
_chemical_formula_sum "Si O2"
_cell_formula_units_Z 24
_cell_length_a 12.898189
_cell_length_b 5.162902
_cell_length_c 13.732479
_cell_angle_alpha 90.000000
_cell_angle_beta 79.474717
_cell_angle_gamma 90.000000
_cell_volume 899.087836
_symmetry_space_group_name_H-M "C 2/C"
_symmetry_group_IT_number 15
_symmetry_cell_setting 'monoclinic'
loop_
_space_group_symop_operation_xyz
x,y,z
-x,y,1/2-z
-x,-y,-z
x,-y,1/2+z
1/2+x,1/2+y,z
1/2-x,1/2+y,1/2-z
1/2-x,1/2-y,-z
1/2+x,1/2-y,1/2+z
loop_
_atom_site_type_symbol
_atom_site_label
_atom_site_fract_x
_atom_site_fract_y
_atom_site_fract_z
Si Si1 0.170368 0.171491 0.854578
Si Si2 0.603500 0.947916 0.685613
Si Si3 0.637359 0.188746 0.976255
O O1 0.139061 0.202851 0.746509
O O2 0.136986 0.426439 0.916855
O O3 0.297764 0.143069 0.839309
O O4 0.106572 0.927830 0.911318
O O5 0.500000 0.084059 0.750000
O O6 0.564832 0.846756 0.585228
O O7 0.750000 0.250000 0.000000
#
# Coordination Sequence:
#
# PCOD8147318 Si02
#       3
#     8   8   8
#     4  11  24  45  66  96 139 174 219 279 333 396
#     4  11  24  44  73 102 133 180 229 275 335 401
#     4  10  22  43  67  94 136 178 215 275 339 391
#
# _framework density 26.693722000000001
#
# number of rings (size 3 to 8) (size 9 to 14) (size 15 to 20)
#    0.000    1.333    0.000    8.000    0.000    5.333 
#    0.000   38.333    0.000    2.000    0.000    0.000 
#    0.000    0.000    0.000    0.000    0.000    0.000 
#
# Total GULP energy -148741.225028 kJ/mol
# GULP energy per Si atom -12395.102086 kJ/mol
# Density = 2.663297 g / cm^3
# Si number density = 26.693722 Si / 1000 Ang^3
#
#
#
# Elastic Constant Matrix: (Units=GPa)
#
#
# Indices 1 2 3 4 5 6 
#
# 1 75.4761 24.6079 38.4687 0.0000 -0.1480 0.0000
# 2 24.6079 208.7355 110.3718 0.0000 4.2521 0.0000
# 3 38.4687 110.3718 212.0225 0.0000 -9.5900 0.0000
# 4 0.0000 0.0000 0.0000 41.8569 0.0000 11.4854
# 5 -0.1480 4.2521 -9.5900 0.0000 23.1659 0.0000
# 6 0.0000 0.0000 0.0000 11.4854 0.0000 5.2394
#
#
#
# Elastic Compliance Matrix: (Units=1/GPa)
#
#
# Indices 1 2 3 4 5 6 
#
# 1 0.014646 -0.000391 -0.002493 0.000000 -0.000867 0.000000
# 2 -0.000391 0.006789 -0.003587 0.000000 -0.002734 0.000000
# 3 -0.002493 -0.003587 0.007200 0.000000 0.003623 0.000000
# 4 0.000000 0.000000 0.000000 0.059955 0.000000 -0.131430
# 5 -0.000867 -0.002734 0.003623 0.000000 0.045163 0.000000
# 6 0.000000 0.000000 0.000000 -0.131430 0.000000 0.478975
#
#
# Mechanical properties :
#
#
# Convention : Reuss Voigt Hill
#
# Bulk Modulus (GPa) = 63.72168 93.68121 78.70145
# Shear Modulus (GPa) = 7.92519 35.57148 21.74833
#
# Velocity S-wave (km/s) = 1.72493 3.65441 2.85745
# Velocity P-wave (km/s) = 5.28114 7.27855 6.35876
#
# Compressibility (1/GPa) = 0.01569325
#
# Stress axis : x y z
#
# Youngs Moduli (GPa) = 68.27997 147.29388 138.88987
#
# Poissons Ratio (x) = 0.05754 0.34627
# Poissons Ratio (y) = 0.02667 0.49819
# Poissons Ratio (z) = 0.17023 0.52834
#
# Static dielectric constant tensor:
#      x y z
#    x 5.065350 0.000000 -0.189090 
#    y 0.000000 5.045320 0.000000 
#    z -0.189090 0.000000 6.881320 
# 
# 
# High freq. dielectric constant tensor:
#      x y z
#    x 2.070780 0.000000 -0.002930 
#    y 0.000000 2.047410 0.000000 
#    z -0.002930 0.000000 2.105440 
# 
# From -- ./inp_files/149479.got.cif
#   From: 2010.06.25/outbox.cif.g09.slc.cpg/sg15_75_cif.got.tgz:149479.got - 2010.06.28 07:06:18.
