data_PCOD8147548
_publ_section_title
;
Structure prediction by ZEFSAII (Michael W. Deem and Ramdas Pophale) SiO2 
 PCOD8147548
Probable space group: C 2/C
;
_chemical_formula_sum "Si O2"
_cell_formula_units_Z 56
_cell_length_a 11.565442
_cell_length_b 8.855327
_cell_length_c 27.605160
_cell_angle_alpha 90.000000
_cell_angle_beta 57.042303
_cell_angle_gamma 90.000000
_cell_volume 2372.228799
_symmetry_space_group_name_H-M "C 2/C"
_symmetry_group_IT_number 15
_symmetry_cell_setting 'monoclinic'
loop_
_space_group_symop_operation_xyz
x,y,z
-x,y,1/2-z
-x,-y,-z
x,-y,1/2+z
1/2+x,1/2+y,z
1/2-x,1/2+y,1/2-z
1/2-x,1/2-y,-z
1/2+x,1/2-y,1/2+z
loop_
_atom_site_type_symbol
_atom_site_label
_atom_site_fract_x
_atom_site_fract_y
_atom_site_fract_z
Si Si1 0.309845 0.952265 0.821446
Si Si2 0.440770 0.193398 0.470183
Si Si3 0.500000 0.296390 0.250000
Si Si4 0.945972 0.166442 0.072221
Si Si5 0.683004 0.547625 0.245840
Si Si6 0.500000 0.798656 0.250000
Si Si7 0.670661 0.981070 0.383185
Si Si8 0.666125 0.449401 0.063434
O O1 0.403192 0.803346 0.807255
O O2 0.180060 0.949741 0.887386
O O3 0.266174 0.952413 0.775684
O O4 0.402897 0.101164 0.807659
O O5 0.454102 0.307050 0.512908
O O6 0.578038 0.097862 0.433996
O O7 0.422595 0.298915 0.427264
O O8 0.314642 0.075103 0.503787
O O9 0.590268 0.398119 0.265396
O O10 0.911490 0.324732 0.106404
O O11 0.088372 0.097890 0.060607
O O12 0.589132 0.696668 0.265961
O O13 0.789567 0.550339 0.177069
O O14 0.808961 0.960771 0.384398
#
# Coordination Sequence:
#
# PCOD8147548 Si02
#       8
#     8   8   4   8   8   4   8   8
#     4  11  24  43  64  98 129 168 220 272 325 395
#     4  10  24  46  65  99 133 170 224 270 324 391
#     4  10  22  44  66  86 134 172 212 272 328 386
#     4  11  23  42  70  96 130 174 220 270 328 390
#     4  11  24  42  66  95 132 170 214 271 330 392
#     4  10  26  42  62  96 128 170 224 262 326 396
#     4  11  25  43  67  99 131 171 222 270 325 397
#     4  10  23  43  66  92 130 171 209 268 324 373
#
# _framework density 23.606491999999999
#
# number of rings (size 3 to 8) (size 9 to 14) (size 15 to 20)
#    0.000    1.429    1.429    3.000    6.000    3.429 
#    7.714    1.429    0.000    0.000    0.000    0.000 
#    0.000    0.000    0.000    0.000    0.000    0.000 
#
# Total GULP energy -347240.730403 kJ/mol
# GULP energy per Si atom -12401.454657 kJ/mol
# Density = 2.355276 g / cm^3
# Si number density = 23.606492 Si / 1000 Ang^3
#
#
#
# Elastic Constant Matrix: (Units=GPa)
#
#
# Indices 1 2 3 4 5 6 
#
# 1 105.1872 60.1873 41.1382 0.0000 -8.6367 0.0000
# 2 60.1873 127.3184 33.6575 0.0000 -6.7116 0.0000
# 3 41.1382 33.6575 90.4051 0.0000 -3.5739 0.0000
# 4 0.0000 0.0000 0.0000 26.8162 0.0000 -4.0346
# 5 -8.6367 -6.7116 -3.5739 0.0000 21.5144 0.0000
# 6 0.0000 0.0000 0.0000 -4.0346 0.0000 29.9029
#
#
#
# Elastic Compliance Matrix: (Units=1/GPa)
#
#
# Indices 1 2 3 4 5 6 
#
# 1 0.014752 -0.005606 -0.004490 0.000000 0.003427 0.000000
# 2 -0.005606 0.010946 -0.001488 0.000000 0.000917 0.000000
# 3 -0.004490 -0.001488 0.013659 0.000000 0.000002 0.000000
# 4 0.000000 0.000000 0.000000 0.038064 0.000000 0.005136
# 5 0.003427 0.000917 0.000002 0.000000 0.048143 0.000000
# 6 0.000000 0.000000 0.000000 0.005136 0.000000 0.034135
#
#
# Mechanical properties :
#
#
# Convention : Reuss Voigt Hill
#
# Bulk Modulus (GPa) = 61.77274 65.87518 63.82396
# Shear Modulus (GPa) = 26.55867 28.17522 27.36694
#
# Velocity S-wave (km/s) = 3.35783 3.45851 3.40854
# Velocity P-wave (km/s) = 6.42323 6.62680 6.52581
#
# Compressibility (1/GPa) = 0.01618837
#
# Stress axis : x y z
#
# Youngs Moduli (GPa) = 67.78676 91.35599 73.21382
#
# Poissons Ratio (x) = 0.51215 0.32875
# Poissons Ratio (y) = 0.38002 0.10894
# Poissons Ratio (z) = 0.30438 0.13593
#
# Static dielectric constant tensor:
#      x y z
#    x 4.315880 0.000000 -0.238880 
#    y 0.000000 4.481350 0.000000 
#    z -0.238880 0.000000 4.005640 
# 
# 
# High freq. dielectric constant tensor:
#      x y z
#    x 1.938370 0.000000 -0.013110 
#    y 0.000000 1.944430 0.000000 
#    z -0.013110 0.000000 1.920760 
# 
# From -- ./inp_files/310247.got.cif
#   From: 2010.06.25/outbox.cif.g09.slc.cpg/sg15_156_cif.got.tgz:310247.got - 2010.06.28 07:06:18.
