data_PCOD8147607
_publ_section_title
;
Structure prediction by ZEFSAII (Michael W. Deem and Ramdas Pophale) SiO2 
 PCOD8147607
Probable space group: C 2/C
;
_chemical_formula_sum "Si O2"
_cell_formula_units_Z 48
_cell_length_a 27.545263
_cell_length_b 14.120911
_cell_length_c 14.096918
_cell_angle_alpha 90.000000
_cell_angle_beta 156.149074
_cell_angle_gamma 90.000000
_cell_volume 2217.176452
_symmetry_space_group_name_H-M "C 2/C"
_symmetry_group_IT_number 15
_symmetry_cell_setting 'monoclinic'
loop_
_space_group_symop_operation_xyz
x,y,z
-x,y,1/2-z
-x,-y,-z
x,-y,1/2+z
1/2+x,1/2+y,z
1/2-x,1/2+y,1/2-z
1/2-x,1/2-y,-z
1/2+x,1/2-y,1/2+z
loop_
_atom_site_type_symbol
_atom_site_label
_atom_site_fract_x
_atom_site_fract_y
_atom_site_fract_z
Si Si1 0.597314 0.203349 0.851558
Si Si2 0.644954 0.741085 0.111833
Si Si3 0.000000 0.396921 0.750000
Si Si4 0.601558 0.012143 0.758443
Si Si5 0.971757 0.158970 0.425266
Si Si6 0.359662 0.469633 0.178780
Si Si7 0.000000 0.087203 0.750000
O O1 0.500000 0.161223 0.750000
O O2 0.628978 0.121849 0.832194
O O3 0.534291 0.293875 0.688711
O O4 0.713135 0.240094 0.115719
O O5 0.575136 0.738995 0.086658
O O6 0.605390 0.835493 0.986621
O O7 0.607792 0.649837 0.984477
O O8 0.068431 0.459865 0.795892
O O9 0.500000 0.000000 0.500000
O O10 0.716738 0.965101 0.912800
O O11 0.103936 0.123055 0.693487
O O12 0.888210 0.066157 0.285748
O O13 0.434045 0.474856 0.212719
#
# Coordination Sequence:
#
# PCOD8147607 Si02
#       7
#     8   8   4   8   8   8   4
#     4  12  26  42  66 102 136 179 230 281 345 412
#     4  10  22  46  67  92 139 178 230 284 336 411
#     4  11  26  46  71 100 138 188 225 276 356 407
#     4  12  27  46  69 104 143 183 224 287 354 415
#     4  10  22  44  67  98 127 180 227 283 340 395
#     4  10  23  43  71  99 136 172 233 282 337 410
#     4   9  22  42  69 100 130 182 227 290 338 397
#
# _framework density 21.649156999999999
#
# number of rings (size 3 to 8) (size 9 to 14) (size 15 to 20)
#    0.000    1.333    2.500    1.500    8.167    0.000 
#    0.000    3.333    0.000    0.000    0.000    0.000 
#    0.000    0.000    0.000    0.000    0.000    0.000 
#
# Total GULP energy -297585.887435 kJ/mol
# GULP energy per Si atom -12399.411976 kJ/mol
# Density = 2.159988 g / cm^3
# Si number density = 21.649157 Si / 1000 Ang^3
#
#
#
# Elastic Constant Matrix: (Units=GPa)
#
#
# Indices 1 2 3 4 5 6 
#
# 1 107.9500 40.3699 61.1200 0.0000 1.6012 0.0000
# 2 40.3699 88.8697 48.7770 0.0000 -2.7302 0.0000
# 3 61.1200 48.7770 175.6741 0.0000 3.7284 0.0000
# 4 0.0000 0.0000 0.0000 27.1325 0.0000 -10.2328
# 5 1.6012 -2.7302 3.7284 0.0000 36.4194 0.0000
# 6 0.0000 0.0000 0.0000 -10.2328 0.0000 34.3661
#
#
#
# Elastic Compliance Matrix: (Units=1/GPa)
#
#
# Indices 1 2 3 4 5 6 
#
# 1 0.012601 -0.003940 -0.003279 0.000000 -0.000514 0.000000
# 2 -0.003940 0.014577 -0.002709 0.000000 0.001543 0.000000
# 3 -0.003279 -0.002709 0.007603 0.000000 -0.000837 0.000000
# 4 0.000000 0.000000 0.000000 0.041519 0.000000 0.012363
# 5 -0.000514 0.001543 -0.000837 0.000000 0.027682 0.000000
# 6 0.000000 0.000000 0.000000 0.012363 0.000000 0.032779
#
#
# Mechanical properties :
#
#
# Convention : Reuss Voigt Hill
#
# Bulk Modulus (GPa) = 67.00648 74.78085 70.89366
# Shear Modulus (GPa) = 30.94185 34.39872 32.67029
#
# Velocity S-wave (km/s) = 3.78463 3.99045 3.88890
# Velocity P-wave (km/s) = 7.07928 7.47320 7.27890
#
# Compressibility (1/GPa) = 0.01492393
#
# Stress axis : x y z
#
# Youngs Moduli (GPa) = 79.35635 68.60269 131.52219
#
# Poissons Ratio (x) = 0.27031 0.43130
# Poissons Ratio (y) = 0.31268 0.35632
# Poissons Ratio (z) = 0.26023 0.18586
#
# Static dielectric constant tensor:
#      x y z
#    x 3.809070 0.000000 -0.206530 
#    y 0.000000 3.841730 0.000000 
#    z -0.206530 0.000000 3.990250 
# 
# 
# High freq. dielectric constant tensor:
#      x y z
#    x 1.846950 0.000000 -0.013570 
#    y 0.000000 1.849250 0.000000 
#    z -0.013570 0.000000 1.857130 
# 
# From -- ./inp_files/144419.got.cif
#   From: 2010.06.25/outbox.cif.g09.slc.cpg/sg15_73_cif.got.tgz:144419.got - 2010.06.28 07:06:18.
