data_PCOD8147764
_publ_section_title
;
Structure prediction by ZEFSAII (Michael W. Deem and Ramdas Pophale) SiO2 
 PCOD8147764
Probable space group: C 2/C
;
_chemical_formula_sum "Si O2"
_cell_formula_units_Z 36
_cell_length_a 13.788430
_cell_length_b 12.897781
_cell_length_c 14.134300
_cell_angle_alpha 90.000000
_cell_angle_beta 38.979893
_cell_angle_gamma 90.000000
_cell_volume 1581.203073
_symmetry_space_group_name_H-M "C 2/C"
_symmetry_group_IT_number 15
_symmetry_cell_setting 'monoclinic'
loop_
_space_group_symop_operation_xyz
x,y,z
-x,y,1/2-z
-x,-y,-z
x,-y,1/2+z
1/2+x,1/2+y,z
1/2-x,1/2+y,1/2-z
1/2-x,1/2-y,-z
1/2+x,1/2-y,1/2+z
loop_
_atom_site_type_symbol
_atom_site_label
_atom_site_fract_x
_atom_site_fract_y
_atom_site_fract_z
Si Si1 0.000000 0.830173 0.750000
Si Si2 0.441774 0.131205 0.697050
Si Si3 0.223510 0.454796 0.893022
Si Si4 0.173005 0.140743 0.579075
Si Si5 0.823917 0.984585 0.616149
O O1 0.031138 0.755949 0.817802
O O2 0.153425 0.900833 0.626384
O O3 0.500000 0.078128 0.750000
O O4 0.549739 0.086068 0.533338
O O5 0.264862 0.095866 0.819318
O O6 0.233602 0.577226 0.910625
O O7 0.262641 0.425725 0.755677
O O8 0.250000 0.250000 0.500000
O O9 0.192429 0.081100 0.465684
O O10 0.000000 0.154151 0.750000
O O11 0.000000 0.000000 0.500000
#
# Coordination Sequence:
#
# PCOD8147764 Si02
#       5
#     4   8   8   8   8
#     4  10  22  44  76 102 146 188 240 298 378 416
#     4  10  24  42  74 104 146 186 240 300 376 428
#     4  12  23  46  73 106 146 190 244 307 355 439
#     4  12  27  49  72 103 152 197 238 300 372 436
#     4  12  25  47  76 107 143 193 249 301 366 433
#
# _framework density 22.767474
#
# number of rings (size 3 to 8) (size 9 to 14) (size 15 to 20)
#    0.667    0.000    5.556    1.333    3.111    1.778 
#    4.000    0.000    0.000    0.000    0.000    0.000 
#    0.000    0.000    0.000    0.000    0.000    0.000 
#
# Total GULP energy -223006.053782 kJ/mol
# GULP energy per Si atom -12389.225210 kJ/mol
# Density = 2.271565 g / cm^3
# Si number density = 22.767474 Si / 1000 Ang^3
#
#
#
# Elastic Constant Matrix: (Units=GPa)
#
#
# Indices 1 2 3 4 5 6 
#
# 1 62.4579 16.8141 29.8008 -0.0001 2.5381 0.0000
# 2 16.8141 116.0055 43.6495 0.0000 0.4854 0.0000
# 3 29.8008 43.6495 157.8577 -0.0001 10.7596 0.0001
# 4 -0.0001 0.0000 -0.0001 34.9035 0.0001 -8.6092
# 5 2.5381 0.4854 10.7596 0.0001 46.7279 0.0000
# 6 0.0000 0.0000 0.0001 -8.6092 0.0000 24.8338
#
#
#
# Elastic Compliance Matrix: (Units=1/GPa)
#
#
# Indices 1 2 3 4 5 6 
#
# 1 0.017821 -0.001477 -0.002937 0.000000 -0.000276 0.000000
# 2 -0.001477 0.009756 -0.002456 0.000000 0.000544 0.000000
# 3 -0.002937 -0.002456 0.007676 0.000000 -0.001582 0.000000
# 4 0.000000 0.000000 0.000000 0.031329 0.000000 0.010861
# 5 -0.000276 0.000544 -0.001582 0.000000 0.021774 0.000000
# 6 0.000000 0.000000 0.000000 0.010861 0.000000 0.044033
#
#
# Mechanical properties :
#
#
# Convention : Reuss Voigt Hill
#
# Bulk Modulus (GPa) = 46.48201 57.42779 51.95490
# Shear Modulus (GPa) = 32.61557 37.69681 35.15619
#
# Velocity S-wave (km/s) = 3.78901 4.07348 3.93382
# Velocity P-wave (km/s) = 6.29305 6.88496 6.59565
#
# Compressibility (1/GPa) = 0.02151370
#
# Stress axis : x y z
#
# Youngs Moduli (GPa) = 56.11365 102.49924 130.27136
#
# Poissons Ratio (x) = 0.15136 0.38262
# Poissons Ratio (y) = 0.08286 0.31995
# Poissons Ratio (z) = 0.16481 0.25174
#
# Static dielectric constant tensor:
#      x y z
#    x 4.118940 0.000000 -0.135830 
#    y 0.000000 4.010610 0.000000 
#    z -0.135830 0.000000 4.215270 
# 
# 
# High freq. dielectric constant tensor:
#      x y z
#    x 1.892780 0.000000 -0.000310 
#    y 0.000000 1.885080 0.000000 
#    z -0.000310 0.000000 1.916540 
# 
# From -- ./inp_files/152397.got.cif
#   From: 2010.06.25/outbox.cif.g09.slc.cpg/sg15_77_cif.got.tgz:152397.got - 2010.06.28 07:06:18.
