data_PCOD8147024
_publ_section_title
;
Structure prediction by ZEFSAII (Michael W. Deem and Ramdas Pophale) SiO2 
 PCOD8147024
Probable space group: C 2/C
;
_chemical_formula_sum "Si O2"
_cell_formula_units_Z 52
_cell_length_a 15.479770
_cell_length_b 11.961423
_cell_length_c 15.338479
_cell_angle_alpha 90.000000
_cell_angle_beta 116.728583
_cell_angle_gamma 90.000000
_cell_volume 2536.603889
_symmetry_space_group_name_H-M "C 2/C"
_symmetry_group_IT_number 15
_symmetry_cell_setting 'monoclinic'
loop_
_space_group_symop_operation_xyz
x,y,z
-x,y,1/2-z
-x,-y,-z
x,-y,1/2+z
1/2+x,1/2+y,z
1/2-x,1/2+y,1/2-z
1/2-x,1/2-y,-z
1/2+x,1/2-y,1/2+z
loop_
_atom_site_type_symbol
_atom_site_label
_atom_site_fract_x
_atom_site_fract_y
_atom_site_fract_z
Si Si1 0.143334 0.537198 0.395089
Si Si2 0.780337 0.403180 0.389534
Si Si3 0.917139 0.212754 0.646873
Si Si4 0.500000 0.133504 0.750000
Si Si5 0.032248 0.119356 0.544923
Si Si6 0.581743 0.731210 0.135101
Si Si7 0.797225 0.007745 0.314214
O O1 0.184319 0.523962 0.511769
O O2 0.089406 0.654327 0.360001
O O3 0.065392 0.440521 0.343768
O O4 0.229358 0.529588 0.365209
O O5 0.683562 0.339033 0.370621
O O6 0.860157 0.311731 0.402973
O O7 0.765367 0.484823 0.300604
O O8 0.000000 0.174526 0.750000
O O9 0.948083 0.163411 0.569110
O O10 0.432117 0.211378 0.778025
O O11 0.023241 0.202775 0.457198
O O12 0.138565 0.104778 0.635567
O O13 0.000000 0.000000 0.500000
O O14 0.638940 0.616059 0.176726
#
# Coordination Sequence:
#
# PCOD8147024 Si02
#       7
#     8   8   8   4   8   8   8
#     4  12  25  44  68  99 134 185 230 272 334 415
#     4  12  23  42  71  99 135 178 227 282 342 387
#     4  12  22  40  71 100 128 176 231 276 328 402
#     4  12  28  46  64 100 144 176 224 282 344 416
#     4  10  22  42  68  99 132 170 223 281 335 399
#     4  11  24  45  68  95 138 178 216 288 347 390
#     4  11  24  44  70 101 137 171 232 283 335 406
#
# _framework density 20.499849000000001
#
# number of rings (size 3 to 8) (size 9 to 14) (size 15 to 20)
#    0.000    0.615    6.923    2.308    0.000    4.308 
#    5.538    1.538    0.000    0.000    0.000    0.000 
#    0.000    0.000    0.000    0.000    0.000    0.000 
#
# Total GULP energy -322369.212605 kJ/mol
# GULP energy per Si atom -12398.815869 kJ/mol
# Density = 2.045319 g / cm^3
# Si number density = 20.499849 Si / 1000 Ang^3
#
#
#
# Elastic Constant Matrix: (Units=GPa)
#
#
# Indices 1 2 3 4 5 6 
#
# 1 93.5971 48.0101 38.3912 0.0000 -1.2866 0.0000
# 2 48.0101 105.6645 60.2274 0.0000 -0.5237 0.0000
# 3 38.3912 60.2274 164.0172 0.0000 9.1440 0.0000
# 4 0.0000 0.0000 0.0000 25.6252 0.0000 -2.0711
# 5 -1.2866 -0.5237 9.1440 0.0000 29.0713 0.0000
# 6 0.0000 0.0000 0.0000 -2.0711 0.0000 24.9360
#
#
#
# Elastic Compliance Matrix: (Units=1/GPa)
#
#
# Indices 1 2 3 4 5 6 
#
# 1 0.014139 -0.005696 -0.001269 0.000000 0.000922 0.000000
# 2 -0.005696 0.014340 -0.004003 0.000000 0.001265 0.000000
# 3 -0.001269 -0.004003 0.008012 0.000000 -0.002648 0.000000
# 4 0.000000 0.000000 0.000000 0.039288 0.000000 0.003263
# 5 0.000922 0.001265 -0.002648 0.000000 0.035295 0.000000
# 6 0.000000 0.000000 0.000000 0.003263 0.000000 0.040374
#
#
# Mechanical properties :
#
#
# Convention : Reuss Voigt Hill
#
# Bulk Modulus (GPa) = 68.71046 72.94845 70.82946
# Shear Modulus (GPa) = 28.05282 30.36986 29.21134
#
# Velocity S-wave (km/s) = 3.70326 3.85316 3.77895
# Velocity P-wave (km/s) = 7.20249 7.44701 7.32577
#
# Compressibility (1/GPa) = 0.01455382
#
# Stress axis : x y z
#
# Youngs Moduli (GPa) = 70.72488 69.73514 124.82024
#
# Poissons Ratio (x) = 0.39723 0.15843
# Poissons Ratio (y) = 0.40287 0.49964
# Poissons Ratio (z) = 0.08977 0.27914
#
# Static dielectric constant tensor:
#      x y z
#    x 3.272260 0.000000 -0.122540 
#    y 0.000000 3.766220 0.000000 
#    z -0.122540 0.000000 4.023660 
# 
# 
# High freq. dielectric constant tensor:
#      x y z
#    x 1.799230 0.000000 0.000190 
#    y 0.000000 1.798800 0.000000 
#    z 0.000190 0.000000 1.822390 
# 
# From -- ./inp_files/152666.got.cif
#   From: 2010.06.25/outbox.cif.g09.slc.cpg/sg15_77_cif.got.tgz:152666.got - 2010.06.28 07:06:18.
