data_PCOD8147936
_publ_section_title
;
Structure prediction by ZEFSAII (Michael W. Deem and Ramdas Pophale) SiO2 
 PCOD8147936
Probable space group: C 2/C
;
_chemical_formula_sum "Si O2"
_cell_formula_units_Z 20
_cell_length_a 12.334071
_cell_length_b 9.200509
_cell_length_c 7.666391
_cell_angle_alpha 90.000000
_cell_angle_beta 47.865262
_cell_angle_gamma 90.000000
_cell_volume 645.150392
_symmetry_space_group_name_H-M "C 2/C"
_symmetry_group_IT_number 15
_symmetry_cell_setting 'monoclinic'
loop_
_space_group_symop_operation_xyz
x,y,z
-x,y,1/2-z
-x,-y,-z
x,-y,1/2+z
1/2+x,1/2+y,z
1/2-x,1/2+y,1/2-z
1/2-x,1/2-y,-z
1/2+x,1/2-y,1/2+z
loop_
_atom_site_type_symbol
_atom_site_label
_atom_site_fract_x
_atom_site_fract_y
_atom_site_fract_z
Si Si1 0.189670 0.937975 0.604017
Si Si2 0.453148 0.311766 0.077735
Si Si3 0.500000 0.045115 0.250000
O O1 0.364038 0.939642 0.434671
O O2 0.149247 0.839204 0.481335
O O3 0.121170 0.102335 0.677359
O O4 0.117286 0.868837 0.856935
O O5 0.464072 0.143020 0.118667
#
# Coordination Sequence:
#
# PCOD8147936 Si02
#       3
#     8   8   4
#     4  10  23  45  70 104 146 182 238 301 347 427
#     4  10  22  46  71 102 149 184 231 305 353 419
#     4  12  24  46  78 100 138 200 232 286 376 414
#
# _framework density 31.000520000000002
#
# number of rings (size 3 to 8) (size 9 to 14) (size 15 to 20)
#    0.000    1.600    0.000    6.000    0.000    1.600 
#    0.000   44.000    0.000    0.000    0.000    0.000 
#    0.000    0.000    0.000    0.000    0.000    0.000 
#
# Total GULP energy -124013.072288 kJ/mol
# GULP energy per Si atom -12401.307229 kJ/mol
# Density = 3.092996 g / cm^3
# Si number density = 31.000520 Si / 1000 Ang^3
#
#
#
# Elastic Constant Matrix: (Units=GPa)
#
#
# Indices 1 2 3 4 5 6 
#
# 1 210.3805 64.2647 135.8594 0.0000 -12.1001 0.0000
# 2 64.2647 122.9461 35.2053 0.0000 2.7647 0.0000
# 3 135.8594 35.2053 209.4411 0.0000 -38.0063 0.0000
# 4 0.0000 0.0000 0.0000 23.3526 0.0000 9.4802
# 5 -12.1001 2.7647 -38.0063 0.0000 66.0147 0.0000
# 6 0.0000 0.0000 0.0000 9.4802 0.0000 8.5090
#
#
#
# Elastic Compliance Matrix: (Units=1/GPa)
#
#
# Indices 1 2 3 4 5 6 
#
# 1 0.009425 -0.003219 -0.005845 0.000000 -0.001503 0.000000
# 2 -0.003219 0.009749 0.000299 0.000000 -0.000826 0.000000
# 3 -0.005845 0.000299 0.009290 0.000000 0.004264 0.000000
# 4 0.000000 0.000000 0.000000 0.078184 0.000000 -0.087108
# 5 -0.001503 -0.000826 0.004264 0.000000 0.017362 0.000000
# 6 0.000000 0.000000 0.000000 -0.087108 0.000000 0.214573
#
#
# Mechanical properties :
#
#
# Convention : Reuss Voigt Hill
#
# Bulk Modulus (GPa) = 91.45693 112.60296 102.02994
# Shear Modulus (GPa) = 13.89824 40.07114 26.98469
#
# Velocity S-wave (km/s) = 2.11966 3.59917 2.95356
# Velocity P-wave (km/s) = 5.96292 7.32624 6.67945
#
# Compressibility (1/GPa) = 0.01093411
#
# Stress axis : x y z
#
# Youngs Moduli (GPa) = 106.10122 102.57449 107.64353
#
# Poissons Ratio (x) = 0.33017 0.62922
# Poissons Ratio (y) = 0.34153 -0.03223
# Poissons Ratio (z) = 0.62021 -0.03071
#
# Static dielectric constant tensor:
#      x y z
#    x 5.399740 0.000000 -0.005250 
#    y 0.000000 5.490270 0.000000 
#    z -0.005250 0.000000 6.103280 
# 
# 
# High freq. dielectric constant tensor:
#      x y z
#    x 2.285330 0.000000 0.012950 
#    y 0.000000 2.274340 0.000000 
#    z 0.012950 0.000000 2.280690 
# 
# From -- ./inp_files/26780.got.cif
#   From: 2010.06.25/outbox.cif.g09.slc.cpg/sg15_14_cif.got.tgz:26780.got - 2010.06.28 07:06:18.
