data_PCOD8147235
_publ_section_title
;
Structure prediction by ZEFSAII (Michael W. Deem and Ramdas Pophale) SiO2 
 PCOD8147235
Probable space group: C 2/C
;
_chemical_formula_sum "Si O2"
_cell_formula_units_Z 52
_cell_length_a 15.187076
_cell_length_b 21.577356
_cell_length_c 8.356265
_cell_angle_alpha 90.000000
_cell_angle_beta 116.298049
_cell_angle_gamma 90.000000
_cell_volume 2454.910290
_symmetry_space_group_name_H-M "C 2/C"
_symmetry_group_IT_number 15
_symmetry_cell_setting 'monoclinic'
loop_
_space_group_symop_operation_xyz
x,y,z
-x,y,1/2-z
-x,-y,-z
x,-y,1/2+z
1/2+x,1/2+y,z
1/2-x,1/2+y,1/2-z
1/2-x,1/2-y,-z
1/2+x,1/2-y,1/2+z
loop_
_atom_site_type_symbol
_atom_site_label
_atom_site_fract_x
_atom_site_fract_y
_atom_site_fract_z
Si Si1 0.154192 0.285659 0.869593
Si Si2 0.000000 0.965055 0.250000
Si Si3 0.496721 0.230834 0.502421
Si Si4 0.110544 0.932357 0.029712
Si Si5 0.500000 0.872978 0.250000
Si Si6 0.884219 0.419760 0.662357
Si Si7 0.000000 0.166842 0.250000
Si Si8 0.165026 0.455198 0.230318
O O1 0.173806 0.356943 0.834463
O O2 0.097968 0.249424 0.680987
O O3 0.250000 0.250000 0.000000
O O4 0.086836 0.291391 0.970304
O O5 0.059988 0.924496 0.165862
O O6 0.076065 0.005339 0.413881
O O7 0.464172 0.171174 0.577984
O O8 0.537439 0.288485 0.638268
O O9 0.226447 0.935376 0.133603
O O10 0.086236 0.874908 0.893303
O O11 0.590743 0.916036 0.277856
O O12 0.846588 0.443336 0.463939
O O13 0.856400 0.471826 0.768675
O O14 0.000000 0.406123 0.750000
#
# Coordination Sequence:
#
# PCOD8147235 Si02
#       8
#     8   4   8   8   4   8   4   8
#     4  11  24  44  68  96 129 177 230 279 332 404
#     4   9  20  45  66  88 143 176 215 294 340 393
#     4  10  23  45  64  94 132 176 225 278 336 395
#     4  10  22  43  65 101 133 178 227 278 342 410
#     4  11  22  41  68  96 141 175 208 284 338 403
#     4  12  24  44  65 100 138 174 219 278 343 407
#     4  10  24  42  68  94 132 177 229 278 336 396
#     4  12  25  39  70 103 135 175 218 271 347 410
#
# _framework density 21.182037999999999
#
# number of rings (size 3 to 8) (size 9 to 14) (size 15 to 20)
#    0.000    1.231    3.846    1.385    4.308    2.462 
#    8.308    3.077    0.000    0.000    0.000    0.000 
#    0.000    0.000    0.000    0.000    0.000    0.000 
#
# Total GULP energy -322374.995320 kJ/mol
# GULP energy per Si atom -12399.038282 kJ/mol
# Density = 2.113383 g / cm^3
# Si number density = 21.182038 Si / 1000 Ang^3
#
#
#
# Elastic Constant Matrix: (Units=GPa)
#
#
# Indices 1 2 3 4 5 6 
#
# 1 82.0169 32.5645 45.1269 0.0000 16.3135 0.0000
# 2 32.5645 127.7709 44.0809 0.0000 9.5360 0.0000
# 3 45.1269 44.0809 123.1484 0.0000 10.1097 0.0000
# 4 0.0000 0.0000 0.0000 34.0441 0.0000 1.4609
# 5 16.3135 9.5360 10.1097 0.0000 39.5168 0.0000
# 6 0.0000 0.0000 0.0000 1.4609 0.0000 37.8438
#
#
#
# Elastic Compliance Matrix: (Units=1/GPa)
#
#
# Indices 1 2 3 4 5 6 
#
# 1 0.016812 -0.002192 -0.004954 0.000000 -0.005144 0.000000
# 2 -0.002192 0.009288 -0.002463 0.000000 -0.000706 0.000000
# 3 -0.004954 -0.002463 0.010828 0.000000 -0.000131 0.000000
# 4 0.000000 0.000000 0.000000 0.029422 0.000000 -0.001136
# 5 -0.005144 -0.000706 -0.000131 0.000000 0.027633 0.000000
# 6 0.000000 0.000000 0.000000 -0.001136 0.000000 0.026468
#
#
# Mechanical properties :
#
#
# Convention : Reuss Voigt Hill
#
# Bulk Modulus (GPa) = 56.46638 64.05342 60.25990
# Shear Modulus (GPa) = 34.34728 36.35854 35.35291
#
# Velocity S-wave (km/s) = 4.03119 4.14754 4.08978
# Velocity P-wave (km/s) = 6.95578 7.29666 7.12826
#
# Compressibility (1/GPa) = 0.01770965
#
# Stress axis : x y z
#
# Youngs Moduli (GPa) = 59.48283 107.66942 92.35304
#
# Poissons Ratio (x) = 0.23599 0.45749
# Poissons Ratio (y) = 0.13037 0.22750
# Poissons Ratio (z) = 0.29466 0.26523
#
# Static dielectric constant tensor:
#      x y z
#    x 3.610430 0.000000 -0.304240 
#    y 0.000000 4.179760 0.000000 
#    z -0.304240 0.000000 3.987400 
# 
# 
# High freq. dielectric constant tensor:
#      x y z
#    x 1.807830 0.000000 -0.008660 
#    y 0.000000 1.837490 0.000000 
#    z -0.008660 0.000000 1.855020 
# 
# From -- ./inp_files/50735.got.cif
#   From: 2010.06.25/outbox.cif.g09.slc.cpg/sg15_26_cif.got.tgz:50735.got - 2010.06.28 07:06:18.
