data_PCOD8147810
_publ_section_title
;
Structure prediction by ZEFSAII (Michael W. Deem and Ramdas Pophale) SiO2 
 PCOD8147810
Probable space group: C 2/C
;
_chemical_formula_sum "Si O2"
_cell_formula_units_Z 48
_cell_length_a 16.979193
_cell_length_b 16.254231
_cell_length_c 17.534495
_cell_angle_alpha 90.000000
_cell_angle_beta 29.371983
_cell_angle_gamma 90.000000
_cell_volume 2373.536883
_symmetry_space_group_name_H-M "C 2/C"
_symmetry_group_IT_number 15
_symmetry_cell_setting 'monoclinic'
loop_
_space_group_symop_operation_xyz
x,y,z
-x,y,1/2-z
-x,-y,-z
x,-y,1/2+z
1/2+x,1/2+y,z
1/2-x,1/2+y,1/2-z
1/2-x,1/2-y,-z
1/2+x,1/2-y,1/2+z
loop_
_atom_site_type_symbol
_atom_site_label
_atom_site_fract_x
_atom_site_fract_y
_atom_site_fract_z
Si Si1 0.000000 0.773775 0.250000
Si Si2 0.671037 0.037769 0.871844
Si Si3 0.837772 0.355205 0.985678
Si Si4 0.933525 0.075433 0.224261
Si Si5 0.256132 0.582678 0.634535
Si Si6 0.346375 0.242822 0.842347
Si Si7 0.500000 0.011523 0.250000
O O1 0.152139 0.830662 0.135883
O O2 0.959730 0.717564 0.358132
O O3 0.636149 0.121717 0.947941
O O4 0.763556 0.056247 0.715837
O O5 0.778375 0.977151 0.832708
O O6 0.500000 0.000000 0.000000
O O7 0.872144 0.433953 0.904112
O O8 0.880802 0.170858 0.271611
O O9 0.000000 0.046733 0.250000
O O10 0.073620 0.058940 0.045268
O O11 0.235490 0.681577 0.648814
O O12 0.105129 0.541609 0.719702
O O13 0.500000 0.199946 0.750000
O O14 0.250000 0.250000 0.000000
#
# Coordination Sequence:
#
# PCOD8147810 Si02
#       7
#     4   8   8   8   8   8   4
#     4   9  22  46  74  95 128 170 244 263 338 404
#     4  12  27  44  66 104 141 173 221 286 344 397
#     4  10  22  45  68 101 125 181 220 285 328 405
#     4  11  25  45  70  97 135 184 231 274 336 408
#     4  12  24  42  65 103 140 177 225 278 339 404
#     4  11  22  41  69 101 133 177 231 277 333 404
#     4  11  22  38  74  95 132 180 228 271 332 398
#
# _framework density 20.222985000000001
#
# number of rings (size 3 to 8) (size 9 to 14) (size 15 to 20)
#    0.000    1.000    5.833    1.500    5.833    0.000 
#    6.000    0.000    0.000    0.000    0.000    0.000 
#    0.000    0.000    0.000    0.000    0.000    0.000 
#
# Total GULP energy -297490.519702 kJ/mol
# GULP energy per Si atom -12395.438321 kJ/mol
# Density = 2.017696 g / cm^3
# Si number density = 20.222985 Si / 1000 Ang^3
#
#
#
# Elastic Constant Matrix: (Units=GPa)
#
#
# Indices 1 2 3 4 5 6 
#
# 1 118.7478 58.4177 59.7113 -0.0037 4.7921 0.0047
# 2 58.4177 95.8965 51.4844 -0.0051 -1.5810 0.0054
# 3 59.7113 51.4844 160.6622 -0.0053 3.0605 0.0042
# 4 -0.0037 -0.0051 -0.0053 34.5764 0.0014 -2.8900
# 5 4.7921 -1.5810 3.0605 0.0014 43.0696 -0.0013
# 6 0.0047 0.0054 0.0042 -2.8900 -0.0013 30.4047
#
#
#
# Elastic Compliance Matrix: (Units=1/GPa)
#
#
# Indices 1 2 3 4 5 6 
#
# 1 0.013062 -0.006511 -0.002740 0.000000 -0.001498 -0.000001
# 2 -0.006511 0.015865 -0.002692 0.000001 0.001498 -0.000001
# 3 -0.002740 -0.002692 0.008112 0.000001 -0.000370 0.000000
# 4 0.000000 0.000001 0.000001 0.029153 -0.000001 0.002771
# 5 -0.001498 0.001498 -0.000370 -0.000001 0.023466 0.000001
# 6 -0.000001 -0.000001 0.000000 0.002771 0.000001 0.033153
#
#
# Mechanical properties :
#
#
# Convention : Reuss Voigt Hill
#
# Bulk Modulus (GPa) = 76.02982 79.39258 77.71120
# Shear Modulus (GPa) = 33.09454 35.32300 34.20877
#
# Velocity S-wave (km/s) = 4.04973 4.18386 4.11734
# Velocity P-wave (km/s) = 7.71651 7.91728 7.81754
#
# Compressibility (1/GPa) = 0.01315273
#
# Stress axis : x y z
#
# Youngs Moduli (GPa) = 76.55558 63.03381 123.26904
#
# Poissons Ratio (x) = 0.41042 0.33772
# Poissons Ratio (y) = 0.49846 0.33190
# Poissons Ratio (z) = 0.20974 0.16972
#
# Static dielectric constant tensor:
#      x y z
#    x 3.506760 0.000090 0.124800 
#    y 0.000090 2.981090 -0.000060 
#    z 0.124800 -0.000060 3.918060 
# 
# 
# High freq. dielectric constant tensor:
#      x y z
#    x 1.770170 0.000000 -0.000460 
#    y 0.000000 1.793000 0.000000 
#    z -0.000460 0.000000 1.820500 
# 
# From -- ./inp_files/47982.got.cif
#   From: 2010.06.25/outbox.cif.g09.slc.cpg/sg15_24_cif.got.tgz:47982.got - 2010.06.28 07:06:18.
