data_PCOD8147473
_publ_section_title
;
Structure prediction by ZEFSAII (Michael W. Deem and Ramdas Pophale) SiO2 
 PCOD8147473
Probable space group: C 2/C
;
_chemical_formula_sum "Si O2"
_cell_formula_units_Z 48
_cell_length_a 9.531044
_cell_length_b 9.694955
_cell_length_c 25.787272
_cell_angle_alpha 90.000000
_cell_angle_beta 80.642046
_cell_angle_gamma 90.000000
_cell_volume 2351.111202
_symmetry_space_group_name_H-M "C 2/C"
_symmetry_group_IT_number 15
_symmetry_cell_setting 'monoclinic'
loop_
_space_group_symop_operation_xyz
x,y,z
-x,y,1/2-z
-x,-y,-z
x,-y,1/2+z
1/2+x,1/2+y,z
1/2-x,1/2+y,1/2-z
1/2-x,1/2-y,-z
1/2+x,1/2-y,1/2+z
loop_
_atom_site_type_symbol
_atom_site_label
_atom_site_fract_x
_atom_site_fract_y
_atom_site_fract_z
Si Si1 0.575906 0.292105 0.101870
Si Si2 0.250869 0.740646 0.618586
Si Si3 0.909630 0.519467 0.930501
Si Si4 0.834195 0.859261 0.766569
Si Si5 0.282870 0.998245 0.547424
Si Si6 0.852963 0.830249 0.285133
O O1 0.409120 0.321485 0.104652
O O2 0.663380 0.383134 0.055434
O O3 0.629223 0.338970 0.154674
O O4 0.608431 0.133174 0.090290
O O5 0.138461 0.621995 0.611875
O O6 0.225139 0.789618 0.678244
O O7 0.224532 0.864642 0.580340
O O8 0.072615 0.553050 0.934642
O O9 0.810186 0.542000 0.986357
O O10 0.760004 0.787799 0.721923
O O11 0.000000 0.834512 0.750000
O O12 0.798188 0.021538 0.768166
O O13 0.000000 0.787439 0.250000
#
# Coordination Sequence:
#
# PCOD8147473 Si02
#       6
#     8   8   8   8   8   8
#     4  11  23  39  65  90 126 160 202 255 308 365
#     4  11  23  41  62  94 122 162 205 252 309 364
#     4  10  24  39  65  93 123 164 210 251 309 367
#     4  11  26  40  63  91 120 159 207 247 306 369
#     4  10  22  44  61  90 129 163 206 259 302 361
#     4  11  24  44  62  90 126 158 202 258 304 370
#
# _framework density 20.415879
#
# number of rings (size 3 to 8) (size 9 to 14) (size 15 to 20)
#    0.000    1.333    3.333    1.000    4.667    2.667 
#    0.000    0.000    0.000    0.000    0.000    0.000 
#    0.000    0.000    0.000    0.000    0.000    0.000 
#
# Total GULP energy -297771.085566 kJ/mol
# GULP energy per Si atom -12407.128565 kJ/mol
# Density = 2.036941 g / cm^3
# Si number density = 20.415879 Si / 1000 Ang^3
#
#
#
# Elastic Constant Matrix: (Units=GPa)
#
#
# Indices 1 2 3 4 5 6 
#
# 1 76.8143 51.2692 7.3069 0.0000 -0.8128 0.0000
# 2 51.2692 85.0952 2.6672 0.0000 7.1578 0.0000
# 3 7.3069 2.6672 34.9891 0.0000 -3.5709 0.0000
# 4 0.0000 0.0000 0.0000 22.1631 0.0000 15.3772
# 5 -0.8128 7.1578 -3.5709 0.0000 33.1119 0.0000
# 6 0.0000 0.0000 0.0000 15.3772 0.0000 5.7564
#
#
#
# Elastic Compliance Matrix: (Units=1/GPa)
#
#
# Indices 1 2 3 4 5 6 
#
# 1 0.022542 -0.013743 -0.003337 0.000000 0.003164 0.000000
# 2 -0.013743 0.020397 0.000840 0.000000 -0.004656 0.000000
# 3 -0.003337 0.000840 0.029511 0.000000 0.002919 0.000000
# 4 0.000000 0.000000 0.000000 -0.052871 0.000000 0.141234
# 5 0.003164 -0.004656 0.002919 0.000000 0.031600 0.000000
# 6 0.000000 0.000000 0.000000 0.141234 0.000000 -0.203560
#
#
# Mechanical properties :
#
#
# Convention : Reuss Voigt Hill
#
# Bulk Modulus (GPa) = 25.01871 35.48723 30.25297
# Shear Modulus (GPa) = -46.91423 21.24997 -12.83213
#
# Velocity S-wave (km/s) = -4.79887 3.22973 -2.50978
# Velocity P-wave (km/s) = 4.29237 5.59715 2.54005
#
# Compressibility (1/GPa) = 0.03997009
#
# Stress axis : x y z
#
# Youngs Moduli (GPa) = 44.36173 49.02711 33.88555
#
# Poissons Ratio (x) = 0.67378 0.11307
# Poissons Ratio (y) = 0.60966 -0.02846
# Poissons Ratio (z) = 0.14803 -0.04118
#
# Static dielectric constant tensor:
#      x y z
#    x 3.724810 0.000000 -0.096920 
#    y 0.000000 3.676320 0.000000 
#    z -0.096920 0.000000 3.769030 
# 
# 
# High freq. dielectric constant tensor:
#      x y z
#    x 1.800200 0.000000 -0.007180 
#    y 0.000000 1.802870 0.000000 
#    z -0.007180 0.000000 1.804460 
# 
# From -- ./inp_files/263187.got.cif
#   From: 2010.06.25/outbox.cif.g09.slc.cpg/sg15_132_cif.got.tgz:263187.got - 2010.06.28 07:06:18.
