data_PCOD8147505
_publ_section_title
;
Structure prediction by ZEFSAII (Michael W. Deem and Ramdas Pophale) SiO2 
 PCOD8147505
Probable space group: C 2/C
;
_chemical_formula_sum "Si O2"
_cell_formula_units_Z 52
_cell_length_a 11.607262
_cell_length_b 16.690968
_cell_length_c 14.049339
_cell_angle_alpha 90.000000
_cell_angle_beta 110.324976
_cell_angle_gamma 90.000000
_cell_volume 2552.398844
_symmetry_space_group_name_H-M "C 2/C"
_symmetry_group_IT_number 15
_symmetry_cell_setting 'monoclinic'
loop_
_space_group_symop_operation_xyz
x,y,z
-x,y,1/2-z
-x,-y,-z
x,-y,1/2+z
1/2+x,1/2+y,z
1/2-x,1/2+y,1/2-z
1/2-x,1/2-y,-z
1/2+x,1/2-y,1/2+z
loop_
_atom_site_type_symbol
_atom_site_label
_atom_site_fract_x
_atom_site_fract_y
_atom_site_fract_z
Si Si1 0.184450 0.066423 0.795007
Si Si2 0.500000 0.868865 0.250000
Si Si3 0.381288 0.273594 0.994971
Si Si4 0.988396 0.942596 0.086593
Si Si5 0.449703 0.001143 0.879840
Si Si6 0.788906 0.727782 0.777694
Si Si7 0.444002 0.178652 0.331551
O O1 0.102716 0.028633 0.855858
O O2 0.305709 0.014995 0.833013
O O3 0.212958 0.160941 0.815976
O O4 0.122435 0.061642 0.672754
O O5 0.478448 0.927495 0.153609
O O6 0.621686 0.814062 0.274103
O O7 0.373012 0.274217 0.878099
O O8 0.250000 0.250000 0.000000
O O9 0.433724 0.358875 0.038310
O O10 0.480784 0.208461 0.055819
O O11 0.000000 0.000000 0.000000
O O12 0.464273 0.916104 0.833476
O O13 0.500000 0.000000 0.000000
O O14 0.697118 0.790867 0.700468
O O15 0.500000 0.214861 0.250000
#
# Coordination Sequence:
#
# PCOD8147505 Si02
#       7
#     8   4   8   8   8   8   8
#     4  10  22  44  64  93 138 176 216 287 338 401
#     4  10  24  48  66  96 144 184 210 284 350 394
#     4  12  23  40  69  99 130 173 230 281 336 407
#     4  11  24  41  66  98 133 179 224 273 349 407
#     4  11  25  43  69  96 134 180 230 275 339 410
#     4  11  23  43  68  94 139 171 224 279 342 398
#     4  12  22  40  67 102 125 170 230 280 329 401
#
# _framework density 20.372992
#
# number of rings (size 3 to 8) (size 9 to 14) (size 15 to 20)
#    0.000    0.923    5.385    1.846    2.154    2.462 
#    2.769    1.538    0.000    0.000    0.000    0.000 
#    0.000    0.000    0.000    0.000    0.000    0.000 
#
# Total GULP energy -322311.926631 kJ/mol
# GULP energy per Si atom -12396.612563 kJ/mol
# Density = 2.032662 g / cm^3
# Si number density = 20.372992 Si / 1000 Ang^3
#
#
#
# Elastic Constant Matrix: (Units=GPa)
#
#
# Indices 1 2 3 4 5 6 
#
# 1 115.3510 53.1680 69.0858 0.0000 11.1007 0.0000
# 2 53.1680 97.1835 46.1058 0.0000 6.7390 0.0000
# 3 69.0858 46.1058 151.7951 0.0000 21.4098 0.0000
# 4 0.0000 0.0000 0.0000 35.3883 0.0000 2.3362
# 5 11.1007 6.7390 21.4098 0.0000 38.8338 0.0000
# 6 0.0000 0.0000 0.0000 2.3362 0.0000 34.6573
#
#
#
# Elastic Compliance Matrix: (Units=1/GPa)
#
#
# Indices 1 2 3 4 5 6 
#
# 1 0.014003 -0.005417 -0.004658 0.000000 -0.000495 0.000000
# 2 -0.005417 0.014118 -0.001839 0.000000 0.000112 0.000000
# 3 -0.004658 -0.001839 0.009795 0.000000 -0.003750 0.000000
# 4 0.000000 0.000000 0.000000 0.028384 0.000000 -0.001913
# 5 -0.000495 0.000112 -0.003750 0.000000 0.027940 0.000000
# 6 0.000000 0.000000 0.000000 -0.001913 0.000000 0.028983
#
#
# Mechanical properties :
#
#
# Convention : Reuss Voigt Hill
#
# Bulk Modulus (GPa) = 70.97671 77.89431 74.43551
# Shear Modulus (GPa) = 32.94950 34.84055 33.89502
#
# Velocity S-wave (km/s) = 4.02595 4.13986 4.08330
# Velocity P-wave (km/s) = 7.51833 7.82102 7.67117
#
# Compressibility (1/GPa) = 0.01408913
#
# Stress axis : x y z
#
# Youngs Moduli (GPa) = 71.41085 70.83260 102.09051
#
# Poissons Ratio (x) = 0.38369 0.47556
# Poissons Ratio (y) = 0.38682 0.18770
# Poissons Ratio (z) = 0.33265 0.13023
#
# Static dielectric constant tensor:
#      x y z
#    x 3.572620 0.000000 0.160050 
#    y 0.000000 3.740810 0.000000 
#    z 0.160050 0.000000 3.901920 
# 
# 
# High freq. dielectric constant tensor:
#      x y z
#    x 1.790630 0.000000 0.012470 
#    y 0.000000 1.795170 0.000000 
#    z 0.012470 0.000000 1.804850 
# 
# From -- ./inp_files/144306.got.cif
#   From: 2010.06.25/outbox.cif.g09.slc.cpg/sg15_73_cif.got.tgz:144306.got - 2010.06.28 07:06:18.
