data_PCOD8147053
_publ_section_title
;
Structure prediction by ZEFSAII (Michael W. Deem and Ramdas Pophale) SiO2 
 PCOD8147053
Probable space group: C 2/C
;
_chemical_formula_sum "Si O2"
_cell_formula_units_Z 48
_cell_length_a 23.571779
_cell_length_b 5.453416
_cell_length_c 19.722542
_cell_angle_alpha 90.000000
_cell_angle_beta 128.579690
_cell_angle_gamma 90.000000
_cell_volume 1981.924412
_symmetry_space_group_name_H-M "C 2/C"
_symmetry_group_IT_number 15
_symmetry_cell_setting 'monoclinic'
loop_
_space_group_symop_operation_xyz
x,y,z
-x,y,1/2-z
-x,-y,-z
x,-y,1/2+z
1/2+x,1/2+y,z
1/2-x,1/2+y,1/2-z
1/2-x,1/2-y,-z
1/2+x,1/2-y,1/2+z
loop_
_atom_site_type_symbol
_atom_site_label
_atom_site_fract_x
_atom_site_fract_y
_atom_site_fract_z
Si Si1 0.658857 0.934123 0.974906
Si Si2 0.426581 0.677308 0.170308
Si Si3 0.290992 0.141996 0.262031
Si Si4 0.549631 0.574901 0.940663
Si Si5 0.436606 0.192732 0.441498
Si Si6 0.690153 0.371025 0.364947
O O1 0.604480 0.807501 0.989200
O O2 0.676933 0.753559 0.927075
O O3 0.623587 0.171135 0.916869
O O4 0.731383 0.004635 0.071281
O O5 0.500000 0.818260 0.250000
O O6 0.459351 0.463821 0.146669
O O7 0.375244 0.570318 0.192278
O O8 0.259323 0.401685 0.266540
O O9 0.364038 0.075719 0.356925
O O10 0.309782 0.177552 0.196493
O O11 0.469601 0.618527 0.910854
O O12 0.583575 0.338675 0.004739
O O13 0.500000 0.000000 0.500000
#
# Coordination Sequence:
#
# PCOD8147053 Si02
#       6
#     8   8   8   8   8   8
#     4  10  22  42  69  98 132 185 233 299 364 435
#     4  11  23  39  68 100 137 181 238 297 360 434
#     4  12  30  48  75 107 150 194 248 306 368 442
#     4  10  23  41  67 100 138 181 246 290 372 427
#     4  11  25  44  73 100 144 192 244 301 370 442
#     4  10  24  44  67  97 141 178 241 293 368 428
#
# _framework density 24.218883999999999
#
# number of rings (size 3 to 8) (size 9 to 14) (size 15 to 20)
#    0.000    1.333    0.000    3.500   11.667    5.333 
#    0.000    0.000    0.000    0.000    0.000    0.000 
#    0.000    0.000    0.000    0.000    0.000    0.000 
#
# Total GULP energy -297457.713631 kJ/mol
# GULP energy per Si atom -12394.071401 kJ/mol
# Density = 2.416376 g / cm^3
# Si number density = 24.218884 Si / 1000 Ang^3
#
#
#
# Elastic Constant Matrix: (Units=GPa)
#
#
# Indices 1 2 3 4 5 6 
#
# 1 109.0604 18.6590 31.4125 0.0001 11.9675 -0.0010
# 2 18.6590 83.5312 15.6728 0.0023 15.9810 -0.0148
# 3 31.4125 15.6728 105.7524 -0.0006 36.4005 0.0006
# 4 0.0001 0.0023 -0.0006 28.4811 0.0010 12.4084
# 5 11.9675 15.9810 36.4005 0.0010 40.5910 -0.0007
# 6 -0.0010 -0.0148 0.0006 12.4084 -0.0007 21.7417
#
#
#
# Elastic Compliance Matrix: (Units=1/GPa)
#
#
# Indices 1 2 3 4 5 6 
#
# 1 0.010278 -0.001806 -0.002874 0.000000 0.000258 -0.000001
# 2 -0.001806 0.013268 0.000267 -0.000006 -0.004931 0.000012
# 3 -0.002874 0.000267 0.014486 0.000001 -0.012249 -0.000002
# 4 0.000000 -0.000006 0.000001 0.046730 0.000000 -0.026670
# 5 0.000258 -0.004931 -0.012249 0.000000 0.037485 -0.000002
# 6 -0.000001 0.000012 -0.000002 -0.026670 -0.000002 0.061215
#
#
# Mechanical properties :
#
#
# Convention : Reuss Voigt Hill
#
# Bulk Modulus (GPa) = 34.23868 47.75916 40.99892
# Shear Modulus (GPa) = 24.74954 33.66943 29.20948
#
# Velocity S-wave (km/s) = 3.20020 3.73260 3.47661
# Velocity P-wave (km/s) = 5.27474 6.19185 5.75161
#
# Compressibility (1/GPa) = 0.02920673
#
# Stress axis : x y z
#
# Youngs Moduli (GPa) = 97.29814 75.36795 69.03149
#
# Poissons Ratio (x) = 0.13611 0.19840
# Poissons Ratio (y) = 0.17571 -0.01846
# Poissons Ratio (z) = 0.27964 -0.02015
#
# Static dielectric constant tensor:
#      x y z
#    x 5.119130 0.000000 0.154130 
#    y 0.000000 4.124890 0.000000 
#    z 0.154130 0.000000 4.279600 
# 
# 
# High freq. dielectric constant tensor:
#      x y z
#    x 1.990870 0.000000 0.000710 
#    y 0.000000 1.944080 0.000000 
#    z 0.000710 0.000000 1.954820 
# 
# From -- ./inp_files/254446.got.cif
#   From: 2010.06.25/outbox.cif.g09.slc.cpg/sg15_128_cif.got.tgz:254446.got - 2010.06.28 07:06:18.
