data_PCOD8147010
_publ_section_title
;
Structure prediction by ZEFSAII (Michael W. Deem and Ramdas Pophale) SiO2 
 PCOD8147010
Probable space group: C 2/C
;
_chemical_formula_sum "Si O2"
_cell_formula_units_Z 60
_cell_length_a 12.781207
_cell_length_b 24.077952
_cell_length_c 9.527397
_cell_angle_alpha 90.000000
_cell_angle_beta 100.993710
_cell_angle_gamma 90.000000
_cell_volume 2878.203630
_symmetry_space_group_name_H-M "C 2/C"
_symmetry_group_IT_number 15
_symmetry_cell_setting 'monoclinic'
loop_
_space_group_symop_operation_xyz
x,y,z
-x,y,1/2-z
-x,-y,-z
x,-y,1/2+z
1/2+x,1/2+y,z
1/2-x,1/2+y,1/2-z
1/2-x,1/2-y,-z
1/2+x,1/2-y,1/2+z
loop_
_atom_site_type_symbol
_atom_site_label
_atom_site_fract_x
_atom_site_fract_y
_atom_site_fract_z
Si Si1 0.295614 0.685517 0.783965
Si Si2 0.500000 0.618749 0.750000
Si Si3 0.977536 0.445643 0.084260
Si Si4 0.665377 0.124509 0.526860
Si Si5 0.705690 0.870118 0.531946
Si Si6 0.380861 0.196272 0.253138
Si Si7 0.619385 0.562816 0.281598
Si Si8 0.645713 0.455450 0.469558
O O1 0.409115 0.656077 0.795504
O O2 0.207654 0.667437 0.650848
O O3 0.306146 0.750798 0.759209
O O4 0.250669 0.670843 0.925225
O O5 0.452149 0.581687 0.612145
O O6 0.000000 0.461470 0.250000
O O7 0.050017 0.395742 0.045840
O O8 0.854767 0.424692 0.044122
O O9 0.000000 0.500000 0.000000
O O10 0.663882 0.156159 0.379034
O O11 0.741453 0.070945 0.542066
O O12 0.619156 0.837437 0.602046
O O13 0.802491 0.887124 0.659005
O O14 0.500000 0.216166 0.250000
O O15 0.500000 0.586787 0.250000
O O16 0.634916 0.515886 0.401974
O O17 0.643170 0.537316 0.135665
#
# Coordination Sequence:
#
# PCOD8147010 Si02
#       8
#     8   4   8   8   8   8   8   8
#     4  11  24  45  71  98 130 183 234 287 353 404
#     4  10  22  42  68  96 134 176 228 284 348 410
#     4  12  27  45  71 107 143 188 232 282 350 428
#     4  11  24  44  69  97 138 174 229 289 341 414
#     4  12  26  44  71 101 145 177 233 293 346 418
#     4  12  24  46  72  99 133 182 234 291 351 418
#     4  12  25  41  65  99 138 180 225 277 343 411
#     4  11  24  40  64  97 134 177 224 274 339 417
#
# _framework density 20.846336999999998
#
# number of rings (size 3 to 8) (size 9 to 14) (size 15 to 20)
#    0.000    0.533    5.333    2.800    5.600    2.133 
#    0.000    0.000    0.000    0.000    0.000    0.000 
#    0.000    0.000    0.000    0.000    0.000    0.000 
#
# Total GULP energy -372136.157667 kJ/mol
# GULP energy per Si atom -12404.538589 kJ/mol
# Density = 2.079889 g / cm^3
# Si number density = 20.846337 Si / 1000 Ang^3
#
#
#
# Elastic Constant Matrix: (Units=GPa)
#
#
# Indices 1 2 3 4 5 6 
#
# 1 105.9792 36.9645 43.2963 0.0000 4.9686 0.0000
# 2 36.9645 85.3918 32.9163 0.0000 -8.2529 0.0000
# 3 43.2963 32.9163 145.2242 0.0000 -18.4618 0.0000
# 4 0.0000 0.0000 0.0000 28.8697 0.0000 -13.7118
# 5 4.9686 -8.2529 -18.4618 0.0000 29.6417 0.0000
# 6 0.0000 0.0000 0.0000 -13.7118 0.0000 21.6321
#
#
#
# Elastic Compliance Matrix: (Units=1/GPa)
#
#
# Indices 1 2 3 4 5 6 
#
# 1 0.012756 -0.004737 -0.003442 0.000000 -0.005601 0.000000
# 2 -0.004737 0.014691 -0.001408 0.000000 0.004007 0.000000
# 3 -0.003442 -0.001408 0.008964 0.000000 0.005768 0.000000
# 4 0.000000 0.000000 0.000000 0.049558 0.000000 0.031413
# 5 -0.005601 0.004007 0.005768 0.000000 0.039383 0.000000
# 6 0.000000 0.000000 0.000000 0.031413 0.000000 0.066139
#
#
# Mechanical properties :
#
#
# Convention : Reuss Voigt Hill
#
# Bulk Modulus (GPa) = 58.00748 62.54993 60.27870
# Shear Modulus (GPa) = 23.10407 30.92325 27.01366
#
# Velocity S-wave (km/s) = 3.33273 3.85566 3.60369
# Velocity P-wave (km/s) = 6.53422 7.06342 6.80397
#
# Compressibility (1/GPa) = 0.01723916
#
# Stress axis : x y z
#
# Youngs Moduli (GPa) = 78.39154 68.06747 111.55225
#
# Poissons Ratio (x) = 0.32242 0.38391
# Poissons Ratio (y) = 0.37132 0.15710
# Poissons Ratio (z) = 0.26978 0.09586
#
# Static dielectric constant tensor:
#      x y z
#    x 3.973520 0.000000 0.007560 
#    y 0.000000 3.667530 0.000000 
#    z 0.007560 0.000000 3.924230 
# 
# 
# High freq. dielectric constant tensor:
#      x y z
#    x 1.829660 0.000000 0.000380 
#    y 0.000000 1.810370 0.000000 
#    z 0.000380 0.000000 1.830150 
# 
# From -- ./inp_files/34284.got.cif
#   From: 2010.06.25/outbox.cif.g09.slc.cpg/sg15_18_cif.got.tgz:34284.got - 2010.06.28 07:06:18.
