data_PCOD8147363
_publ_section_title
;
Structure prediction by ZEFSAII (Michael W. Deem and Ramdas Pophale) SiO2 
 PCOD8147363
Probable space group: C 2/C
;
_chemical_formula_sum "Si O2"
_cell_formula_units_Z 32
_cell_length_a 25.958650
_cell_length_b 7.955153
_cell_length_c 14.324347
_cell_angle_alpha 90.000000
_cell_angle_beta 25.027962
_cell_angle_gamma 90.000000
_cell_volume 1251.434050
_symmetry_space_group_name_H-M "C 2/C"
_symmetry_group_IT_number 15
_symmetry_cell_setting 'monoclinic'
loop_
_space_group_symop_operation_xyz
x,y,z
-x,y,1/2-z
-x,-y,-z
x,-y,1/2+z
1/2+x,1/2+y,z
1/2-x,1/2+y,1/2-z
1/2-x,1/2-y,-z
1/2+x,1/2-y,1/2+z
loop_
_atom_site_type_symbol
_atom_site_label
_atom_site_fract_x
_atom_site_fract_y
_atom_site_fract_z
Si Si1 0.716719 0.846513 0.433599
Si Si2 0.805963 0.007538 0.455652
Si Si3 0.400330 0.903482 0.066383
Si Si4 0.511612 0.257540 0.544361
O O1 0.659581 0.686227 0.581053
O O2 0.624392 0.874995 0.501213
O O3 0.852109 0.823934 0.170665
O O4 0.725019 0.003598 0.492660
O O5 0.727207 0.073936 0.670686
O O6 0.924062 0.125003 0.250012
O O7 0.490647 0.063770 0.918925
O O8 0.467692 0.746396 0.007321
#
# Coordination Sequence:
#
# PCOD8147363 Si02
#       4
#     8   8   8   8
#     4  10  23  44  68 105 146 180 243 302 351 444
#     4  10  22  43  69 103 143 189 238 297 364 435
#     4  10  23  44  68 105 146 180 243 302 351 444
#     4  10  22  43  69 103 143 189 238 297 364 435
#
# _framework density 25.570665999999999
#
# number of rings (size 3 to 8) (size 9 to 14) (size 15 to 20)
#    0.000    2.000    0.000    1.500    7.000    1.000 
#    9.000   17.500    0.000    0.000    0.000    0.000 
#    0.000    0.000    0.000    0.000    0.000    0.000 
#
# Total GULP energy -198276.644752 kJ/mol
# GULP energy per Si atom -12392.290297 kJ/mol
# Density = 2.551247 g / cm^3
# Si number density = 25.570666 Si / 1000 Ang^3
#
#
#
# Elastic Constant Matrix: (Units=GPa)
#
#
# Indices 1 2 3 4 5 6 
#
# 1 154.1328 9.6158 11.9648 0.0000 -7.0921 0.0000
# 2 9.6158 78.6846 52.5933 -0.0001 3.2659 0.0000
# 3 11.9648 52.5933 151.1445 0.0000 6.8602 0.0000
# 4 0.0000 -0.0001 0.0000 49.2959 0.0000 1.8716
# 5 -7.0921 3.2659 6.8602 0.0000 25.5205 0.0000
# 6 0.0000 0.0000 0.0000 1.8716 0.0000 24.6355
#
#
#
# Elastic Compliance Matrix: (Units=1/GPa)
#
#
# Indices 1 2 3 4 5 6 
#
# 1 0.006652 -0.000630 -0.000400 0.000000 0.002037 0.000000
# 2 -0.000630 0.016629 -0.005701 0.000000 -0.000771 0.000000
# 3 -0.000400 -0.005701 0.008710 0.000000 -0.001723 0.000000
# 4 0.000000 0.000000 0.000000 0.020344 0.000000 -0.001546
# 5 0.002037 -0.000771 -0.001723 0.000000 0.040312 0.000000
# 6 0.000000 0.000000 0.000000 -0.001546 0.000000 0.040709
#
#
# Mechanical properties :
#
#
# Convention : Reuss Voigt Hill
#
# Bulk Modulus (GPa) = 53.97258 59.14553 56.55905
# Shear Modulus (GPa) = 32.68079 40.54291 36.61185
#
# Velocity S-wave (km/s) = 3.57887 3.98618 3.78801
# Velocity P-wave (km/s) = 6.18311 6.66083 6.42641
#
# Compressibility (1/GPa) = 0.01852793
#
# Stress axis : x y z
#
# Youngs Moduli (GPa) = 150.33138 60.13645 114.81149
#
# Poissons Ratio (x) = 0.03790 0.04589
# Poissons Ratio (y) = 0.09475 0.65459
# Poissons Ratio (z) = 0.06009 0.34286
#
# Static dielectric constant tensor:
#      x y z
#    x 4.562660 0.000000 -0.009550 
#    y 0.000000 4.628920 0.000000 
#    z -0.009550 0.000000 4.437530 
# 
# 
# High freq. dielectric constant tensor:
#      x y z
#    x 2.014500 0.000000 0.001830 
#    y 0.000000 2.007700 0.000000 
#    z 0.001830 0.000000 2.038530 
# 
# From -- ./inp_files/171611.got.cif
#   From: 2010.06.25/outbox.cif.g09.slc.cpg/sg15_86_cif.got.tgz:171611.got - 2010.06.28 07:06:18.
