data_PCOD8147948
_publ_section_title
;
Structure prediction by ZEFSAII (Michael W. Deem and Ramdas Pophale) SiO2 
 PCOD8147948
Probable space group: C 2/C
;
_chemical_formula_sum "Si O2"
_cell_formula_units_Z 52
_cell_length_a 16.938816
_cell_length_b 12.399700
_cell_length_c 11.262998
_cell_angle_alpha 90.000000
_cell_angle_beta 122.843597
_cell_angle_gamma 90.000000
_cell_volume 1987.500387
_symmetry_space_group_name_H-M "C 2/C"
_symmetry_group_IT_number 15
_symmetry_cell_setting 'monoclinic'
loop_
_space_group_symop_operation_xyz
x,y,z
-x,y,1/2-z
-x,-y,-z
x,-y,1/2+z
1/2+x,1/2+y,z
1/2-x,1/2+y,1/2-z
1/2-x,1/2-y,-z
1/2+x,1/2-y,1/2+z
loop_
_atom_site_type_symbol
_atom_site_label
_atom_site_fract_x
_atom_site_fract_y
_atom_site_fract_z
Si Si1 0.513006 0.278484 0.493162
Si Si2 0.500000 0.255036 0.750000
Si Si3 0.162449 0.602385 0.824998
Si Si4 0.752825 0.988849 0.092624
Si Si5 0.778577 0.732189 0.853627
Si Si6 0.951645 0.975520 0.334101
Si Si7 0.121877 0.402698 0.662945
O O1 0.506933 0.321343 0.628790
O O2 0.620573 0.285938 0.537979
O O3 0.451913 0.345034 0.347322
O O4 0.474535 0.156227 0.455339
O O5 0.594332 0.183923 0.839048
O O6 0.213993 0.662516 0.760386
O O7 0.099952 0.497192 0.739267
O O8 0.252377 0.556497 0.970625
O O9 0.661120 0.034206 0.082014
O O10 0.746662 0.858441 0.066151
O O11 0.845905 0.019680 0.242669
O O12 0.698265 0.820451 0.778028
O O13 0.000000 0.012590 0.250000
O O14 0.000000 0.000000 0.500000
#
# Coordination Sequence:
#
# PCOD8147948 Si02
#       7
#     8   4   8   8   8   8   8
#     4  11  24  46  71 106 144 200 240 308 371 441
#     4  10  22  46  72 110 140 184 254 302 370 438
#     4  10  24  39  70 103 136 189 238 311 365 436
#     4  11  24  44  72 101 143 189 248 305 370 438
#     4  10  24  42  66 101 146 186 250 295 376 439
#     4  12  30  50  75 109 152 198 250 300 372 445
#     4  11  23  44  68 100 146 186 247 306 371 438
#
# _framework density 26.163516000000001
#
# number of rings (size 3 to 8) (size 9 to 14) (size 15 to 20)
#    0.000    1.231    3.077    0.923    9.692    4.308 
#    0.000    0.000    0.000    0.000    0.000    0.000 
#    0.000    0.000    0.000    0.000    0.000    0.000 
#
# Total GULP energy -322207.643331 kJ/mol
# GULP energy per Si atom -12392.601667 kJ/mol
# Density = 2.610397 g / cm^3
# Si number density = 26.163516 Si / 1000 Ang^3
#
#
#
# Elastic Constant Matrix: (Units=GPa)
#
#
# Indices 1 2 3 4 5 6 
#
# 1 59.2074 -8.9300 9.4584 0.0000 2.4862 0.0000
# 2 -8.9300 9.4705 -1.8448 0.0000 -2.7067 0.0000
# 3 9.4584 -1.8448 109.5256 0.0000 4.2330 0.0000
# 4 0.0000 0.0000 0.0000 43.4466 0.0000 15.5312
# 5 2.4862 -2.7067 4.2330 0.0000 33.1108 0.0000
# 6 0.0000 0.0000 0.0000 15.5312 0.0000 24.6033
#
#
#
# Elastic Compliance Matrix: (Units=1/GPa)
#
#
# Indices 1 2 3 4 5 6 
#
# 1 0.019905 0.018552 -0.001414 0.000000 0.000203 0.000000
# 2 0.018552 0.125649 0.000172 0.000000 0.008856 0.000000
# 3 -0.001414 0.000172 0.009297 0.000000 -0.001068 0.000000
# 4 0.000000 0.000000 0.000000 0.029725 0.000000 -0.018764
# 5 0.000203 0.008856 -0.001068 0.000000 0.031047 0.000000
# 6 0.000000 0.000000 0.000000 -0.018764 0.000000 0.052490
#
#
# Mechanical properties :
#
#
# Convention : Reuss Voigt Hill
#
# Bulk Modulus (GPa) = 5.27790 19.50785 12.39288
# Shear Modulus (GPa) = 16.85489 32.20015 24.52752
#
# Velocity S-wave (km/s) = 2.54089 3.51198 3.06514
# Velocity P-wave (km/s) = 3.26034 4.89057 4.15617
#
# Compressibility (1/GPa) = 0.18946934
#
# Stress axis : x y z
#
# Youngs Moduli (GPa) = 50.23786 7.95870 107.56614
#
# Poissons Ratio (x) = -0.14765 0.15214
# Poissons Ratio (y) = -0.93200 -0.01850
# Poissons Ratio (z) = 0.07105 -0.00137
#
# Static dielectric constant tensor:
#      x y z
#    x 4.481140 0.000000 -0.174970 
#    y 0.000000 5.743780 0.000000 
#    z -0.174970 0.000000 5.079670 
# 
# 
# High freq. dielectric constant tensor:
#      x y z
#    x 2.029510 0.000000 -0.000270 
#    y 0.000000 2.074650 0.000000 
#    z -0.000270 0.000000 2.050820 
# 
# From -- ./inp_files/111746.got.cif
#   From: 2010.06.25/outbox.cif.g09.slc.cpg/sg15_56_cif.got.tgz:111746.got - 2010.06.28 07:06:18.
