data_PCOD8147946
_publ_section_title
;
Structure prediction by ZEFSAII (Michael W. Deem and Ramdas Pophale) SiO2 
 PCOD8147946
Probable space group: C 2/C
;
_chemical_formula_sum "Si O2"
_cell_formula_units_Z 28
_cell_length_a 10.023627
_cell_length_b 10.859231
_cell_length_c 11.191744
_cell_angle_alpha 90.000000
_cell_angle_beta 127.466009
_cell_angle_gamma 90.000000
_cell_volume 966.909817
_symmetry_space_group_name_H-M "C 2/C"
_symmetry_group_IT_number 15
_symmetry_cell_setting 'monoclinic'
loop_
_space_group_symop_operation_xyz
x,y,z
-x,y,1/2-z
-x,-y,-z
x,-y,1/2+z
1/2+x,1/2+y,z
1/2-x,1/2+y,1/2-z
1/2-x,1/2-y,-z
1/2+x,1/2-y,1/2+z
loop_
_atom_site_type_symbol
_atom_site_label
_atom_site_fract_x
_atom_site_fract_y
_atom_site_fract_z
Si Si1 0.827871 0.763492 0.709436
Si Si2 0.500000 0.117398 0.250000
Si Si3 0.081044 0.801155 0.469651
Si Si4 0.196647 0.951096 0.004795
O O1 0.783972 0.889505 0.614508
O O2 0.680647 0.659431 0.598611
O O3 0.000000 0.705153 0.750000
O O4 0.884659 0.791334 0.872471
O O5 0.440628 0.208872 0.330138
O O6 0.355070 0.031560 0.125938
O O7 0.250000 0.750000 0.500000
O O8 0.046835 0.947335 0.421466
#
# Coordination Sequence:
#
# PCOD8147946 Si02
#       4
#     8   4   8   8
#     4  11  25  45  74 105 140 192 232 294 354 419
#     4  10  22  46  72 104 140 186 232 296 352 416
#     4  10  25  44  71 104 140 184 237 287 358 415
#     4  10  24  45  71 104 142 184 240 289 354 425
#
# _framework density 28.958231000000001
#
# number of rings (size 3 to 8) (size 9 to 14) (size 15 to 20)
#    0.000    1.714    1.429    0.000   10.000   11.429 
#    0.000    0.000    0.000    0.000    0.000    0.000 
#    0.000    0.000    0.000    0.000    0.000    0.000 
#
# Total GULP energy -173442.691245 kJ/mol
# GULP energy per Si atom -12388.763660 kJ/mol
# Density = 2.889232 g / cm^3
# Si number density = 28.958231 Si / 1000 Ang^3
#
#
#
# Elastic Constant Matrix: (Units=GPa)
#
#
# Indices 1 2 3 4 5 6 
#
# 1 43.8105 57.9571 51.8814 0.0000 -14.2844 0.0000
# 2 57.9571 254.4746 138.0199 0.0000 -20.0503 0.0000
# 3 51.8814 138.0199 249.0481 0.0000 -35.1205 0.0000
# 4 0.0000 0.0000 0.0000 69.5001 0.0000 7.6092
# 5 -14.2844 -20.0503 -35.1205 0.0000 74.1086 0.0000
# 6 0.0000 0.0000 0.0000 7.6092 0.0000 47.2584
#
#
#
# Elastic Compliance Matrix: (Units=1/GPa)
#
#
# Indices 1 2 3 4 5 6 
#
# 1 0.036327 -0.005949 -0.003762 0.000000 0.003610 0.000000
# 2 -0.005949 0.006593 -0.002491 0.000000 -0.000543 0.000000
# 3 -0.003762 -0.002491 0.006411 0.000000 0.001639 0.000000
# 4 0.000000 0.000000 0.000000 0.014647 0.000000 -0.002358
# 5 0.003610 -0.000543 0.001639 0.000000 0.014819 0.000000
# 6 0.000000 0.000000 0.000000 -0.002358 0.000000 0.021540
#
#
# Mechanical properties :
#
#
# Convention : Reuss Voigt Hill
#
# Bulk Modulus (GPa) = 40.11692 115.89445 78.00569
# Shear Modulus (GPa) = 37.58022 58.13839 47.85931
#
# Velocity S-wave (km/s) = 3.60632 4.48556 4.06975
# Velocity P-wave (km/s) = 5.58786 8.18139 7.00569
#
# Compressibility (1/GPa) = 0.02492714
#
# Stress axis : x y z
#
# Youngs Moduli (GPa) = 27.52763 151.68119 155.99253
#
# Poissons Ratio (x) = 0.90233 0.58681
# Poissons Ratio (y) = 0.16376 0.38858
# Poissons Ratio (z) = 0.10355 0.37784
#
# Static dielectric constant tensor:
#      x y z
#    x 7.216320 0.000000 1.068590 
#    y 0.000000 8.394260 0.000000 
#    z 1.068590 0.000000 5.813940 
# 
# 
# High freq. dielectric constant tensor:
#      x y z
#    x 2.214130 0.000000 0.018970 
#    y 0.000000 2.207030 0.000000 
#    z 0.018970 0.000000 2.205940 
# 
# From -- ./inp_files/36682.got.cif
#   From: 2010.06.25/outbox.cif.g09.slc.cpg/sg15_19_cif.got.tgz:36682.got - 2010.06.28 07:06:18.
