data_PCOD8147134
_publ_section_title
;
Structure prediction by ZEFSAII (Michael W. Deem and Ramdas Pophale) SiO2 
 PCOD8147134
Probable space group: C 2/C
;
_chemical_formula_sum "Si O2"
_cell_formula_units_Z 64
_cell_length_a 14.672684
_cell_length_b 29.795896
_cell_length_c 8.851429
_cell_angle_alpha 90.000000
_cell_angle_beta 127.617447
_cell_angle_gamma 90.000000
_cell_volume 3065.218994
_symmetry_space_group_name_H-M "C 2/C"
_symmetry_group_IT_number 15
_symmetry_cell_setting 'monoclinic'
loop_
_space_group_symop_operation_xyz
x,y,z
-x,y,1/2-z
-x,-y,-z
x,-y,1/2+z
1/2+x,1/2+y,z
1/2-x,1/2+y,1/2-z
1/2-x,1/2-y,-z
1/2+x,1/2-y,1/2+z
loop_
_atom_site_type_symbol
_atom_site_label
_atom_site_fract_x
_atom_site_fract_y
_atom_site_fract_z
Si Si1 0.922196 0.979078 0.796736
Si Si2 0.626304 0.112203 0.873614
Si Si3 0.598352 0.742494 0.238542
Si Si4 0.385299 0.024958 0.834967
Si Si5 0.242185 0.456463 0.996100
Si Si6 0.784050 0.183235 0.903626
Si Si7 0.995948 0.174799 0.567045
Si Si8 0.798798 0.896402 0.807508
O O1 0.833939 0.942892 0.766208
O O2 0.000000 0.954500 0.750000
O O3 0.862369 0.022248 0.663320
O O4 0.000000 0.000000 0.000000
O O5 0.500000 0.135266 0.750000
O O6 0.604414 0.062224 0.786069
O O7 0.711363 0.138157 0.848606
O O8 0.684180 0.117156 0.098365
O O9 0.500000 0.764199 0.250000
O O10 0.694483 0.776808 0.276603
O O11 0.650575 0.699331 0.379260
O O12 0.543974 0.723832 0.029128
O O13 0.305120 0.986668 0.688172
O O14 0.338551 0.048078 0.940013
O O15 0.500000 0.000000 0.000000
O O16 0.263155 0.406907 0.945413
O O17 0.874302 0.169430 0.864824
O O18 0.000000 0.173302 0.750000
O O19 0.905410 0.138026 0.412300
#
# Coordination Sequence:
#
# PCOD8147134 Si02
#       8
#     8   8   8   8   8   8   8   8
#     4  12  24  38  58  86 118 167 217 264 326 387
#     4  12  25  43  67  97 128 177 228 286 340 398
#     4   9  19  43  74 105 136 173 220 273 327 408
#     4  12  24  42  66  88 125 172 229 284 337 395
#     4  12  23  42  59  88 124 173 217 276 335 389
#     4  10  22  42  72 104 133 176 224 270 334 404
#     4  11  26  42  69 105 143 179 212 275 340 404
#     4  12  26  42  63  96 136 169 226 281 334 402
#
# _framework density 20.879422999999999
#
# number of rings (size 3 to 8) (size 9 to 14) (size 15 to 20)
#    0.000    0.750    5.000    2.250    5.250    0.500 
#    0.000    0.000    0.000    0.000    0.000    0.000 
#    0.000    0.000    0.000    0.000    0.000    0.000 
#
# Total GULP energy -396569.100911 kJ/mol
# GULP energy per Si atom -12392.784403 kJ/mol
# Density = 2.083190 g / cm^3
# Si number density = 20.879423 Si / 1000 Ang^3
#
#
#
# Elastic Constant Matrix: (Units=GPa)
#
#
# Indices 1 2 3 4 5 6 
#
# 1 138.3790 28.9257 60.1994 0.0000 8.9066 0.0000
# 2 28.9257 58.5243 36.6492 0.0000 5.3714 0.0000
# 3 60.1994 36.6492 141.8406 0.0000 13.3839 0.0000
# 4 0.0000 0.0000 0.0000 24.8495 0.0000 7.8427
# 5 8.9066 5.3714 13.3839 0.0000 38.1479 0.0000
# 6 0.0000 0.0000 0.0000 7.8427 0.0000 36.2351
#
#
#
# Elastic Compliance Matrix: (Units=1/GPa)
#
#
# Indices 1 2 3 4 5 6 
#
# 1 0.009175 -0.002475 -0.003191 0.000000 -0.000674 0.000000
# 2 -0.002475 0.021094 -0.004317 0.000000 -0.000878 0.000000
# 3 -0.003191 -0.004317 0.009714 0.000000 -0.002055 0.000000
# 4 0.000000 0.000000 0.000000 0.043193 0.000000 -0.009349
# 5 -0.000674 -0.000878 -0.002055 0.000000 0.027216 0.000000
# 6 0.000000 0.000000 0.000000 -0.009349 0.000000 0.029621
#
#
# Mechanical properties :
#
#
# Convention : Reuss Voigt Hill
#
# Bulk Modulus (GPa) = 49.95672 65.58806 57.77239
# Shear Modulus (GPa) = 30.00268 34.04447 32.02358
#
# Velocity S-wave (km/s) = 3.79482 4.04236 3.92055
# Velocity P-wave (km/s) = 6.57108 7.29853 6.94434
#
# Compressibility (1/GPa) = 0.02001733
#
# Stress axis : x y z
#
# Youngs Moduli (GPa) = 108.98593 47.40648 102.94449
#
# Poissons Ratio (x) = 0.11732 0.32851
# Poissons Ratio (y) = 0.26971 0.44444
# Poissons Ratio (z) = 0.34779 0.20466
#
# Static dielectric constant tensor:
#      x y z
#    x 3.533450 0.000000 0.719890 
#    y 0.000000 3.188960 0.000000 
#    z 0.719890 0.000000 3.085830 
# 
# 
# High freq. dielectric constant tensor:
#      x y z
#    x 1.828690 0.000000 0.011380 
#    y 0.000000 1.797030 0.000000 
#    z 0.011380 0.000000 1.826850 
# 
# From -- ./inp_files/44903.got.cif
#   From: 2010.06.25/outbox.cif.g09.slc.cpg/sg15_23_cif.got.tgz:44903.got - 2010.06.28 07:06:18.
