data_PCOD8147264
_publ_section_title
;
Structure prediction by ZEFSAII (Michael W. Deem and Ramdas Pophale) SiO2 
 PCOD8147264
Probable space group: C 2/C
;
_chemical_formula_sum "Si O2"
_cell_formula_units_Z 48
_cell_length_a 10.850829
_cell_length_b 14.332615
_cell_length_c 14.808740
_cell_angle_alpha 90.000000
_cell_angle_beta 79.766857
_cell_angle_gamma 90.000000
_cell_volume 2266.431558
_symmetry_space_group_name_H-M "C 2/C"
_symmetry_group_IT_number 15
_symmetry_cell_setting 'monoclinic'
loop_
_space_group_symop_operation_xyz
x,y,z
-x,y,1/2-z
-x,-y,-z
x,-y,1/2+z
1/2+x,1/2+y,z
1/2-x,1/2+y,1/2-z
1/2-x,1/2-y,-z
1/2+x,1/2-y,1/2+z
loop_
_atom_site_type_symbol
_atom_site_label
_atom_site_fract_x
_atom_site_fract_y
_atom_site_fract_z
Si Si1 0.926138 0.571417 0.073653
Si Si2 0.198565 0.660369 0.748865
Si Si3 0.500000 0.698317 0.250000
Si Si4 0.642324 0.583291 0.083440
Si Si5 0.098183 0.783391 0.421813
Si Si6 0.586213 0.602658 0.655490
Si Si7 0.000000 0.507432 0.750000
O O1 0.780415 0.549408 0.092197
O O2 0.930624 0.679242 0.039570
O O3 0.983035 0.560044 0.166314
O O4 0.000000 0.500000 0.000000
O O5 0.284993 0.709017 0.661672
O O6 0.276191 0.629977 0.826858
O O7 0.096375 0.736565 0.793876
O O8 0.124552 0.570508 0.719171
O O9 0.579689 0.636463 0.173342
O O10 0.634129 0.646979 0.997179
O O11 0.578123 0.481848 0.083885
O O12 0.970119 0.809403 0.388862
O O13 0.500000 0.572137 0.750000
#
# Coordination Sequence:
#
# PCOD8147264 Si02
#       7
#     8   8   4   8   8   8   4
#     4  12  27  44  68 106 141 184 235 286 347 419
#     4  10  22  43  65  97 132 181 230 284 339 415
#     4  11  24  38  69  96 134 180 235 272 357 410
#     4  12  23  44  67 101 137 184 229 290 345 417
#     4  11  25  42  70  97 143 180 228 287 348 406
#     4  10  22  43  66  98 135 175 232 285 340 409
#     4  11  24  42  71  94 138 184 233 290 345 408
#
# _framework density 21.178667000000001
#
# number of rings (size 3 to 8) (size 9 to 14) (size 15 to 20)
#    0.000    1.000    4.167    2.000    8.167    0.000 
#    0.000    5.000    0.000    0.000    0.000    0.000 
#    0.000    0.000    0.000    0.000    0.000    0.000 
#
# Total GULP energy -297450.242717 kJ/mol
# GULP energy per Si atom -12393.760113 kJ/mol
# Density = 2.113046 g / cm^3
# Si number density = 21.178667 Si / 1000 Ang^3
#
#
#
# Elastic Constant Matrix: (Units=GPa)
#
#
# Indices 1 2 3 4 5 6 
#
# 1 130.3628 52.4576 37.5285 0.0000 10.7772 0.0000
# 2 52.4576 129.0576 37.9641 0.0000 -10.4978 0.0000
# 3 37.5285 37.9641 93.7787 0.0000 3.4337 0.0000
# 4 0.0000 0.0000 0.0000 -9.4070 0.0000 -25.2328
# 5 10.7772 -10.4978 3.4337 0.0000 26.7656 0.0000
# 6 0.0000 0.0000 0.0000 -25.2328 0.0000 25.0151
#
#
#
# Elastic Compliance Matrix: (Units=1/GPa)
#
#
# Indices 1 2 3 4 5 6 
#
# 1 0.010399 -0.003978 -0.002352 0.000000 -0.005446 0.000000
# 2 -0.003978 0.010748 -0.002986 0.000000 0.006200 0.000000
# 3 -0.002352 -0.002986 0.012882 0.000000 -0.001877 0.000000
# 4 0.000000 0.000000 0.000000 -0.028687 0.000000 -0.028936
# 5 -0.005446 0.006200 -0.001877 0.000000 0.042227 0.000000
# 6 0.000000 0.000000 0.000000 -0.028936 0.000000 0.010788
#
#
# Mechanical properties :
#
#
# Convention : Reuss Voigt Hill
#
# Bulk Modulus (GPa) = 64.94607 67.67772 66.31189
# Shear Modulus (GPa) = 60.88573 23.49134 42.18854
#
# Velocity S-wave (km/s) = 5.36759 3.33408 4.46806
# Velocity P-wave (km/s) = 8.31547 6.84444 7.61556
#
# Compressibility (1/GPa) = 0.01539739
#
# Stress axis : x y z
#
# Youngs Moduli (GPa) = 96.16499 93.03889 77.62690
#
# Poissons Ratio (x) = 0.37010 0.18255
# Poissons Ratio (y) = 0.38254 0.23181
# Poissons Ratio (z) = 0.22615 0.27784
#
# Static dielectric constant tensor:
#      x y z
#    x 4.062510 0.000000 0.142930 
#    y 0.000000 3.999020 0.000000 
#    z 0.142930 0.000000 3.282790 
# 
# 
# High freq. dielectric constant tensor:
#      x y z
#    x 1.845990 0.000000 0.004960 
#    y 0.000000 1.846710 0.000000 
#    z 0.004960 0.000000 1.811040 
# 
# From -- ./inp_files/143713.got.cif
#   From: 2010.06.25/outbox.cif.g09.slc.cpg/sg15_72_cif.got.tgz:143713.got - 2010.06.28 07:06:18.
