data_PCOD8147284
_publ_section_title
;
Structure prediction by ZEFSAII (Michael W. Deem and Ramdas Pophale) SiO2 
 PCOD8147284
Probable space group: C 2/C
;
_chemical_formula_sum "Si O2"
_cell_formula_units_Z 32
_cell_length_a 17.637909
_cell_length_b 9.602123
_cell_length_c 9.220467
_cell_angle_alpha 90.000000
_cell_angle_beta 58.772902
_cell_angle_gamma 90.000000
_cell_volume 1335.346338
_symmetry_space_group_name_H-M "C 2/C"
_symmetry_group_IT_number 15
_symmetry_cell_setting 'monoclinic'
loop_
_space_group_symop_operation_xyz
x,y,z
-x,y,1/2-z
-x,-y,-z
x,-y,1/2+z
1/2+x,1/2+y,z
1/2-x,1/2+y,1/2-z
1/2-x,1/2-y,-z
1/2+x,1/2-y,1/2+z
loop_
_atom_site_type_symbol
_atom_site_label
_atom_site_fract_x
_atom_site_fract_y
_atom_site_fract_z
Si Si1 0.562985 0.439057 0.059153
Si Si2 0.400555 0.959811 0.343597
Si Si3 0.670331 0.831092 0.377744
Si Si4 0.174838 0.204344 0.961502
O O1 0.500000 0.384364 0.250000
O O2 0.500000 0.500000 0.000000
O O3 0.619691 0.314255 0.937247
O O4 0.629479 0.559044 0.049531
O O5 0.500000 0.017543 0.250000
O O6 0.371090 0.922569 0.211081
O O7 0.397722 0.827063 0.457224
O O8 0.336953 0.082428 0.466283
O O9 0.775574 0.805769 0.243648
O O10 0.250000 0.250000 0.000000
#
# Coordination Sequence:
#
# PCOD8147284 Si02
#       4
#     8   8   8   8
#     4  12  25  45  71 102 137 183 236 290 350 419
#     4  11  22  41  63  92 131 173 221 279 338 405
#     4  11  24  41  64  96 131 176 223 278 342 410
#     4  10  22  43  66  94 133 176 221 281 343 406
#
# _framework density 23.963820999999999
#
# number of rings (size 3 to 8) (size 9 to 14) (size 15 to 20)
#    0.000    1.000    0.000    8.250    0.000    4.000 
#    0.000    7.500    0.000    0.000    0.000    0.000 
#    0.000    0.000    0.000    0.000    0.000    0.000 
#
# Total GULP energy -198413.809039 kJ/mol
# GULP energy per Si atom -12400.863065 kJ/mol
# Density = 2.390928 g / cm^3
# Si number density = 23.963821 Si / 1000 Ang^3
#
#
#
# Elastic Constant Matrix: (Units=GPa)
#
#
# Indices 1 2 3 4 5 6 
#
# 1 56.0085 13.4973 8.1189 0.0000 3.8617 0.0000
# 2 13.4973 128.2364 32.4924 0.0000 4.9459 0.0000
# 3 8.1189 32.4924 128.2525 0.0000 -16.4450 0.0000
# 4 0.0000 0.0000 0.0000 67.5318 0.0000 -4.5372
# 5 3.8617 4.9459 -16.4450 0.0000 31.0923 0.0000
# 6 0.0000 0.0000 0.0000 -4.5372 0.0000 23.0689
#
#
#
# Elastic Compliance Matrix: (Units=1/GPa)
#
#
# Indices 1 2 3 4 5 6 
#
# 1 0.018577 -0.001570 -0.001118 0.000000 -0.002649 0.000000
# 2 -0.001570 0.008669 -0.002412 0.000000 -0.002460 0.000000
# 3 -0.001118 -0.002412 0.009168 0.000000 0.005372 0.000000
# 4 0.000000 0.000000 0.000000 0.015006 0.000000 0.002951
# 5 -0.002649 -0.002460 0.005372 0.000000 0.035724 0.000000
# 6 0.000000 0.000000 0.000000 0.002951 0.000000 0.043929
#
#
# Mechanical properties :
#
#
# Convention : Reuss Voigt Hill
#
# Bulk Modulus (GPa) = 38.14732 46.74608 42.44670
# Shear Modulus (GPa) = 33.33064 41.56453 37.44759
#
# Velocity S-wave (km/s) = 3.73349 4.16922 3.95735
# Velocity P-wave (km/s) = 5.87695 6.53649 6.21548
#
# Compressibility (1/GPa) = 0.02621416
#
# Stress axis : x y z
#
# Youngs Moduli (GPa) = 53.82870 115.34721 109.07700
#
# Poissons Ratio (x) = 0.18108 0.12194
# Poissons Ratio (y) = 0.08451 0.26314
# Poissons Ratio (z) = 0.06018 0.27827
#
# Static dielectric constant tensor:
#      x y z
#    x 3.933520 0.000000 -0.308900 
#    y 0.000000 4.689300 0.000000 
#    z -0.308900 0.000000 4.530800 
# 
# 
# High freq. dielectric constant tensor:
#      x y z
#    x 1.923670 0.000000 -0.015940 
#    y 0.000000 1.959750 0.000000 
#    z -0.015940 0.000000 1.977580 
# 
# From -- ./inp_files/109483.got.cif
#   From: 2010.06.25/outbox.cif.g09.slc.cpg/sg15_55_cif.got.tgz:109483.got - 2010.06.28 07:06:18.
