data_PCOD8147833
_publ_section_title
;
Structure prediction by ZEFSAII (Michael W. Deem and Ramdas Pophale) SiO2 
 PCOD8147833
Probable space group: C 2/C
;
_chemical_formula_sum "Si O2"
_cell_formula_units_Z 40
_cell_length_a 11.578816
_cell_length_b 9.100762
_cell_length_c 22.601244
_cell_angle_alpha 90.000000
_cell_angle_beta 56.089513
_cell_angle_gamma 90.000000
_cell_volume 1976.538819
_symmetry_space_group_name_H-M "C 2/C"
_symmetry_group_IT_number 15
_symmetry_cell_setting 'monoclinic'
loop_
_space_group_symop_operation_xyz
x,y,z
-x,y,1/2-z
-x,-y,-z
x,-y,1/2+z
1/2+x,1/2+y,z
1/2-x,1/2+y,1/2-z
1/2-x,1/2-y,-z
1/2+x,1/2-y,1/2+z
loop_
_atom_site_type_symbol
_atom_site_label
_atom_site_fract_x
_atom_site_fract_y
_atom_site_fract_z
Si Si1 0.862702 0.648403 0.351701
Si Si2 0.921300 0.152015 0.023541
Si Si3 0.587594 0.824367 0.880879
Si Si4 0.667891 0.141753 0.857645
Si Si5 0.354009 0.138340 0.775731
O O1 0.744167 0.617029 0.435872
O O2 0.824260 0.803887 0.330481
O O3 0.857257 0.523310 0.303257
O O4 0.014380 0.656372 0.337746
O O5 0.939544 0.240571 0.081144
O O6 0.973598 0.253236 0.955791
O O7 0.000000 0.000000 0.000000
O O8 0.723469 0.724467 0.838747
O O9 0.636390 0.980842 0.892827
O O10 0.653218 0.132221 0.792242
O O11 0.500000 0.219027 0.750000
#
# Coordination Sequence:
#
# PCOD8147833 Si02
#       5
#     8   8   8   8   8
#     4  10  24  44  70  97 137 177 218 283 338 398
#     4  10  22  45  70 102 136 178 224 280 340 402
#     4  12  22  46  70  96 141 174 229 282 332 406
#     4  10  24  40  68 101 132 178 227 265 344 398
#     4  12  24  45  66  98 138 180 222 282 338 399
#
# _framework density 20.237397000000001
#
# number of rings (size 3 to 8) (size 9 to 14) (size 15 to 20)
#    1.200    0.000    4.000    2.400    0.000    0.000 
#   10.800    2.000    0.000    0.000    0.000    0.000 
#    0.000    0.000    0.000    0.000    0.000    0.000 
#
# Total GULP energy -247764.917321 kJ/mol
# GULP energy per Si atom -12388.245866 kJ/mol
# Density = 2.019134 g / cm^3
# Si number density = 20.237397 Si / 1000 Ang^3
#
#
#
# Elastic Constant Matrix: (Units=GPa)
#
#
# Indices 1 2 3 4 5 6 
#
# 1 113.7978 48.5310 28.3856 0.0000 -11.2041 0.0000
# 2 48.5310 132.0438 41.2319 0.0000 8.9427 0.0000
# 3 28.3856 41.2319 117.1354 0.0000 -4.1280 0.0000
# 4 0.0000 0.0000 0.0000 32.5406 0.0000 2.5484
# 5 -11.2041 8.9427 -4.1280 0.0000 30.4444 0.0000
# 6 0.0000 0.0000 0.0000 2.5484 0.0000 24.4380
#
#
#
# Elastic Compliance Matrix: (Units=1/GPa)
#
#
# Indices 1 2 3 4 5 6 
#
# 1 0.011367 -0.004193 -0.001093 0.000000 0.005267 0.000000
# 2 -0.004193 0.010322 -0.002792 0.000000 -0.004954 0.000000
# 3 -0.001093 -0.002792 0.009846 0.000000 0.001753 0.000000
# 4 0.000000 0.000000 0.000000 0.030984 0.000000 -0.003231
# 5 0.005267 -0.004954 0.001753 0.000000 0.036478 0.000000
# 6 0.000000 0.000000 0.000000 -0.003231 0.000000 0.041257
#
#
# Mechanical properties :
#
#
# Convention : Reuss Voigt Hill
#
# Bulk Modulus (GPa) = 65.02209 66.58600 65.80405
# Shear Modulus (GPa) = 30.95298 33.80650 32.37974
#
# Velocity S-wave (km/s) = 3.91512 4.09160 4.00433
# Velocity P-wave (km/s) = 7.25513 7.43610 7.34617
#
# Compressibility (1/GPa) = 0.01537939
#
# Stress axis : x y z
#
# Youngs Moduli (GPa) = 87.97446 96.88430 101.55974
#
# Poissons Ratio (x) = 0.40625 0.11100
# Poissons Ratio (y) = 0.36889 0.28352
# Poissons Ratio (z) = 0.09615 0.27047
#
# Static dielectric constant tensor:
#      x y z
#    x 3.608760 0.000000 -0.219990 
#    y 0.000000 3.818590 0.000000 
#    z -0.219990 0.000000 3.898540 
# 
# 
# High freq. dielectric constant tensor:
#      x y z
#    x 1.771810 0.000000 -0.010780 
#    y 0.000000 1.792060 0.000000 
#    z -0.010780 0.000000 1.808630 
# 
# From -- ./inp_files/235880.got.cif
#   From: 2010.06.25/outbox.cif.g09.slc.cpg/sg15_118_cif.got.tgz:235880.got - 2010.06.28 07:06:18.
