data_PCOD8147995
_publ_section_title
;
Structure prediction by ZEFSAII (Michael W. Deem and Ramdas Pophale) SiO2 
 PCOD8147995
Probable space group: C 2/C
;
_chemical_formula_sum "Si O2"
_cell_formula_units_Z 56
_cell_length_a 16.454961
_cell_length_b 25.692819
_cell_length_c 8.342420
_cell_angle_alpha 90.000000
_cell_angle_beta 138.629658
_cell_angle_gamma 90.000000
_cell_volume 2331.051440
_symmetry_space_group_name_H-M "C 2/C"
_symmetry_group_IT_number 15
_symmetry_cell_setting 'monoclinic'
loop_
_space_group_symop_operation_xyz
x,y,z
-x,y,1/2-z
-x,-y,-z
x,-y,1/2+z
1/2+x,1/2+y,z
1/2-x,1/2+y,1/2-z
1/2-x,1/2-y,-z
1/2+x,1/2-y,1/2+z
loop_
_atom_site_type_symbol
_atom_site_label
_atom_site_fract_x
_atom_site_fract_y
_atom_site_fract_z
Si Si1 0.500000 0.563861 0.750000
Si Si2 0.220114 0.382605 0.507838
Si Si3 0.857542 0.431393 0.575628
Si Si4 0.062628 0.734532 0.500842
Si Si5 0.754754 0.476640 0.731654
Si Si6 0.742066 0.657163 0.756641
Si Si7 0.519545 0.346608 0.522866
Si Si8 0.000000 0.313442 0.250000
O O1 0.383418 0.526506 0.545707
O O2 0.521952 0.601971 0.633786
O O3 0.229033 0.440483 0.587743
O O4 0.191153 0.380566 0.276495
O O5 0.119390 0.349523 0.455848
O O6 0.353330 0.355458 0.700014
O O7 0.849664 0.457578 0.738158
O O8 0.785928 0.465882 0.336085
O O9 0.789661 0.374492 0.484508
O O10 0.000000 0.425493 0.750000
O O11 0.203959 0.715372 0.690067
O O12 0.046473 0.796189 0.453582
O O13 0.011217 0.719705 0.601879
O O14 0.000000 0.708389 0.250000
O O15 0.595287 0.664010 0.529349
#
# Coordination Sequence:
#
# PCOD8147995 Si02
#       8
#     4   8   8   8   8   8   8   4
#     4  10  22  48  66 109 137 186 236 294 364 426
#     4  10  25  43  68  99 140 183 231 297 355 425
#     4  12  26  44  72 103 141 187 238 292 362 431
#     4  11  26  42  71 102 139 189 241 295 362 431
#     4  11  25  45  72 101 143 184 236 299 355 440
#     4  11  25  45  68 102 140 186 238 297 357 431
#     4  11  23  44  70 101 141 186 238 292 360 428
#     4  10  26  42  68 101 145 184 240 296 358 430
#
# _framework density 24.023493999999999
#
# number of rings (size 3 to 8) (size 9 to 14) (size 15 to 20)
#    0.000    1.143    2.143    2.143   11.000    2.286 
#    2.571    0.000    0.000    0.000    0.000    0.000 
#    0.000    0.000    0.000    0.000    0.000    0.000 
#
# Total GULP energy -346949.696748 kJ/mol
# GULP energy per Si atom -12391.060598 kJ/mol
# Density = 2.396882 g / cm^3
# Si number density = 24.023494 Si / 1000 Ang^3
#
#
#
# Elastic Constant Matrix: (Units=GPa)
#
#
# Indices 1 2 3 4 5 6 
#
# 1 102.6370 22.2136 28.3176 0.0000 24.7378 0.0000
# 2 22.2136 96.7910 26.6638 0.0000 21.1026 0.0000
# 3 28.3176 26.6638 83.9867 0.0000 22.8210 0.0000
# 4 0.0000 0.0000 0.0000 12.6986 0.0000 5.3177
# 5 24.7378 21.1026 22.8210 0.0000 52.9997 0.0000
# 6 0.0000 0.0000 0.0000 5.3177 0.0000 27.2058
#
#
#
# Elastic Compliance Matrix: (Units=1/GPa)
#
#
# Indices 1 2 3 4 5 6 
#
# 1 0.011616 -0.001128 -0.002500 0.000000 -0.003896 0.000000
# 2 -0.001128 0.011983 -0.002571 0.000000 -0.003137 0.000000
# 3 -0.002500 -0.002571 0.014689 0.000000 -0.004134 0.000000
# 4 0.000000 0.000000 0.000000 0.085769 0.000000 -0.016765
# 5 -0.003896 -0.003137 -0.004134 0.000000 0.023716 0.000000
# 6 0.000000 0.000000 0.000000 -0.016765 0.000000 0.040034
#
#
# Mechanical properties :
#
#
# Convention : Reuss Voigt Hill
#
# Bulk Modulus (GPa) = 38.62491 48.64498 43.63494
# Shear Modulus (GPa) = 23.94235 32.32881 28.13558
#
# Velocity S-wave (km/s) = 3.16036 3.67238 3.42595
# Velocity P-wave (km/s) = 5.42494 6.18666 5.81828
#
# Compressibility (1/GPa) = 0.02589003
#
# Stress axis : x y z
#
# Youngs Moduli (GPa) = 86.08850 83.45298 68.07691
#
# Poissons Ratio (x) = 0.09411 0.17018
# Poissons Ratio (y) = 0.09709 0.17506
# Poissons Ratio (z) = 0.21520 0.21460
#
# Static dielectric constant tensor:
#      x y z
#    x 4.298180 0.000000 -0.031660 
#    y 0.000000 4.154930 0.000000 
#    z -0.031660 0.000000 4.295500 
# 
# 
# High freq. dielectric constant tensor:
#      x y z
#    x 1.960400 0.000000 -0.000510 
#    y 0.000000 1.948830 0.000000 
#    z -0.000510 0.000000 1.956090 
# 
# From -- ./inp_files/52410.got.cif
#   From: 2010.06.25/outbox.cif.g09.slc.cpg/sg15_27_cif.got.tgz:52410.got - 2010.06.28 07:06:18.
