data_PCOD8147375
_publ_section_title
;
Structure prediction by ZEFSAII (Michael W. Deem and Ramdas Pophale) SiO2 
 PCOD8147375
Probable space group: C 2/C
;
_chemical_formula_sum "Si O2"
_cell_formula_units_Z 64
_cell_length_a 8.781478
_cell_length_b 24.868667
_cell_length_c 13.890000
_cell_angle_alpha 90.000000
_cell_angle_beta 87.105213
_cell_angle_gamma 90.000000
_cell_volume 3029.478242
_symmetry_space_group_name_H-M "C 2/C"
_symmetry_group_IT_number 15
_symmetry_cell_setting 'monoclinic'
loop_
_space_group_symop_operation_xyz
x,y,z
-x,y,1/2-z
-x,-y,-z
x,-y,1/2+z
1/2+x,1/2+y,z
1/2-x,1/2+y,1/2-z
1/2-x,1/2-y,-z
1/2+x,1/2-y,1/2+z
loop_
_atom_site_type_symbol
_atom_site_label
_atom_site_fract_x
_atom_site_fract_y
_atom_site_fract_z
Si Si1 0.886420 0.764586 0.162895
Si Si2 0.971772 0.586685 0.003504
Si Si3 0.588089 0.730704 0.470068
Si Si4 0.409946 0.362413 0.669510
Si Si5 0.989911 0.977614 0.858277
Si Si6 0.427830 0.180709 0.852081
Si Si7 0.240746 0.511022 0.008685
Si Si8 0.642204 0.145934 0.307241
O O1 0.749429 0.807441 0.164785
O O2 0.806833 0.705393 0.158227
O O3 0.000000 0.773943 0.250000
O O4 0.978467 0.774968 0.063174
O O5 0.879943 0.535639 0.969136
O O6 0.899659 0.605366 0.106656
O O7 0.952079 0.633466 0.927512
O O8 0.149813 0.568285 0.009463
O O9 0.750000 0.750000 0.500000
O O10 0.619480 0.672387 0.423457
O O11 0.517376 0.768076 0.390389
O O12 0.500000 0.329052 0.750000
O O13 0.517753 0.412595 0.637152
O O14 0.255911 0.382280 0.727470
O O15 0.000000 0.999810 0.750000
O O16 0.144041 0.994153 0.906692
O O17 0.837902 0.003474 0.908086
O O18 0.500000 0.161703 0.750000
O O19 0.500000 0.162516 0.250000
#
# Coordination Sequence:
#
# PCOD8147375 Si02
#       8
#     8   8   8   8   8   8   8   8
#     4  11  24  43  65  99 140 181 226 277 327 404
#     4  11  24  42  67  94 130 178 217 278 339 394
#     4  12  24  40  66  99 138 180 218 276 333 400
#     4  11  23  37  67  97 127 169 221 278 325 392
#     4  10  22  43  69  95 127 164 220 283 339 394
#     4  12  26  43  62  96 139 182 223 267 336 417
#     4  10  24  43  66  97 128 164 226 281 339 401
#     4  11  21  39  65  99 129 168 226 275 328 391
#
# _framework density 21.125751000000001
#
# number of rings (size 3 to 8) (size 9 to 14) (size 15 to 20)
#    0.000    1.000    1.250    6.750    5.250    1.000 
#    0.000    3.125    0.000    0.000    0.000    0.000 
#    0.000    0.000    0.000    0.000    0.000    0.000 
#
# Total GULP energy -396696.331505 kJ/mol
# GULP energy per Si atom -12396.760360 kJ/mol
# Density = 2.107767 g / cm^3
# Si number density = 21.125751 Si / 1000 Ang^3
#
#
#
# Elastic Constant Matrix: (Units=GPa)
#
#
# Indices 1 2 3 4 5 6 
#
# 1 96.4152 21.9885 9.2660 0.0000 -1.4284 0.0000
# 2 21.9885 78.3406 27.7378 0.0000 -6.5969 0.0000
# 3 9.2660 27.7378 99.3813 0.0000 -7.3868 0.0000
# 4 0.0000 0.0000 0.0000 30.4922 0.0000 0.7258
# 5 -1.4284 -6.5969 -7.3868 0.0000 31.7182 0.0000
# 6 0.0000 0.0000 0.0000 0.7258 0.0000 35.3715
#
#
#
# Elastic Compliance Matrix: (Units=1/GPa)
#
#
# Indices 1 2 3 4 5 6 
#
# 1 0.011085 -0.003058 -0.000194 0.000000 -0.000182 0.000000
# 2 -0.003058 0.015142 -0.003783 0.000000 0.002131 0.000000
# 3 -0.000194 -0.003783 0.011272 0.000000 0.001830 0.000000
# 4 0.000000 0.000000 0.000000 0.032811 0.000000 -0.000673
# 5 -0.000182 0.002131 0.001830 0.000000 0.032389 0.000000
# 6 0.000000 0.000000 0.000000 -0.000673 0.000000 0.028285
#
#
# Mechanical properties :
#
#
# Convention : Reuss Voigt Hill
#
# Bulk Modulus (GPa) = 42.67964 43.56908 43.12436
# Shear Modulus (GPa) = 32.70903 33.85938 33.28420
#
# Velocity S-wave (km/s) = 3.93911 4.00778 3.97360
# Velocity P-wave (km/s) = 6.39807 6.48729 6.44284
#
# Compressibility (1/GPa) = 0.02343037
#
# Stress axis : x y z
#
# Youngs Moduli (GPa) = 90.21075 66.04203 88.71494
#
# Poissons Ratio (x) = 0.20197 0.01717
# Poissons Ratio (y) = 0.27588 0.33558
# Poissons Ratio (z) = 0.01746 0.24982
#
# Static dielectric constant tensor:
#      x y z
#    x 3.954760 0.000000 0.051390 
#    y 0.000000 3.764510 0.000000 
#    z 0.051390 0.000000 4.110020 
# 
# 
# High freq. dielectric constant tensor:
#      x y z
#    x 1.848570 0.000000 0.003300 
#    y 0.000000 1.813090 0.000000 
#    z 0.003300 0.000000 1.840010 
# 
# From -- ./inp_files/82568.got.cif
#   From: 2010.06.25/outbox.cif.g09.slc.cpg/sg15_42_cif.got.tgz:82568.got - 2010.06.28 07:06:18.
