data_PCOD8147754
_publ_section_title
;
Structure prediction by ZEFSAII (Michael W. Deem and Ramdas Pophale) SiO2 
 PCOD8147754
Probable space group: C 2/C
;
_chemical_formula_sum "Si O2"
_cell_formula_units_Z 44
_cell_length_a 22.852096
_cell_length_b 12.283571
_cell_length_c 7.894463
_cell_angle_alpha 90.000000
_cell_angle_beta 53.525243
_cell_angle_gamma 90.000000
_cell_volume 1781.941796
_symmetry_space_group_name_H-M "C 2/C"
_symmetry_group_IT_number 15
_symmetry_cell_setting 'monoclinic'
loop_
_space_group_symop_operation_xyz
x,y,z
-x,y,1/2-z
-x,-y,-z
x,-y,1/2+z
1/2+x,1/2+y,z
1/2-x,1/2+y,1/2-z
1/2-x,1/2-y,-z
1/2+x,1/2-y,1/2+z
loop_
_atom_site_type_symbol
_atom_site_label
_atom_site_fract_x
_atom_site_fract_y
_atom_site_fract_z
Si Si1 0.842624 0.872973 0.108759
Si Si2 0.192020 0.588367 0.692016
Si Si3 0.555527 0.227832 0.007102
Si Si4 0.500000 0.161249 0.750000
Si Si5 0.847958 0.372568 0.601116
Si Si6 0.079235 0.948566 0.849112
O O1 0.761849 0.879585 0.177943
O O2 0.852307 0.750417 0.165372
O O3 0.857696 0.960916 0.229686
O O4 0.904202 0.896044 0.861978
O O5 0.182560 0.456748 0.708719
O O6 0.202479 0.626126 0.480549
O O7 0.122663 0.644870 0.898644
O O8 0.500000 0.194180 0.250000
O O9 0.514790 0.230988 0.894836
O O10 0.584488 0.351951 0.980540
O O11 0.571015 0.087209 0.593011
O O12 0.000000 0.000000 0.000000
#
# Coordination Sequence:
#
# PCOD8147754 Si02
#       6
#     8   8   8   4   8   8
#     4  12  25  47  73 101 152 186 244 316 373 449
#     4  11  26  44  72 102 145 199 239 303 383 444
#     4  11  25  45  74 111 148 193 260 303 374 459
#     4  10  22  44  74 100 150 190 232 324 364 424
#     4  11  25  45  70 100 144 189 248 299 373 441
#     4  12  25  46  74 109 139 194 248 312 379 440
#
# _framework density 24.692164999999999
#
# number of rings (size 3 to 8) (size 9 to 14) (size 15 to 20)
#    0.000    0.727    3.636    4.364    6.364    1.455 
#    0.000    1.818    0.000    0.000    0.000    0.000 
#    0.000    0.000    0.000    0.000    0.000    0.000 
#
# Total GULP energy -272788.410243 kJ/mol
# GULP energy per Si atom -12399.473193 kJ/mol
# Density = 2.463596 g / cm^3
# Si number density = 24.692165 Si / 1000 Ang^3
#
#
#
# Elastic Constant Matrix: (Units=GPa)
#
#
# Indices 1 2 3 4 5 6 
#
# 1 112.7119 27.5257 8.0246 0.0000 -14.7279 0.0000
# 2 27.5257 152.3696 21.9921 0.0000 -10.3196 0.0000
# 3 8.0246 21.9921 71.2377 0.0000 -0.3203 0.0000
# 4 0.0000 0.0000 0.0000 29.3256 0.0000 0.9647
# 5 -14.7279 -10.3196 -0.3203 0.0000 26.2376 0.0000
# 6 0.0000 0.0000 0.0000 0.9647 0.0000 31.6937
#
#
#
# Elastic Compliance Matrix: (Units=1/GPa)
#
#
# Indices 1 2 3 4 5 6 
#
# 1 0.009907 -0.001352 -0.000676 0.000000 0.005021 0.000000
# 2 -0.001352 0.007247 -0.002076 0.000000 0.002066 0.000000
# 3 -0.000676 -0.002076 0.014750 0.000000 -0.001016 0.000000
# 4 0.000000 0.000000 0.000000 0.034134 0.000000 -0.001039
# 5 0.005021 0.002066 -0.001016 0.000000 0.041732 0.000000
# 6 0.000000 0.000000 0.000000 -0.001039 0.000000 0.031584
#
#
# Mechanical properties :
#
#
# Convention : Reuss Voigt Hill
#
# Bulk Modulus (GPa) = 42.20123 50.15603 46.17863
# Shear Modulus (GPa) = 32.16295 36.03650 34.09972
#
# Velocity S-wave (km/s) = 3.61301 3.82439 3.72020
# Velocity P-wave (km/s) = 5.87649 6.31331 6.09882
#
# Compressibility (1/GPa) = 0.02369599
#
# Stress axis : x y z
#
# Youngs Moduli (GPa) = 100.94336 137.99327 67.79729
#
# Poissons Ratio (x) = 0.18657 0.04583
# Poissons Ratio (y) = 0.13648 0.14072
# Poissons Ratio (z) = 0.06823 0.28642
#
# Static dielectric constant tensor:
#      x y z
#    x 4.422760 0.000000 -0.121780 
#    y 0.000000 4.612060 0.000000 
#    z -0.121780 0.000000 4.270540 
# 
# 
# High freq. dielectric constant tensor:
#      x y z
#    x 1.985060 0.000000 -0.015170 
#    y 0.000000 1.989880 0.000000 
#    z -0.015170 0.000000 1.966660 
# 
# From -- ./inp_files/60821.got.cif
#   From: 2010.06.25/outbox.cif.g09.slc.cpg/sg15_31_cif.got.tgz:60821.got - 2010.06.28 07:06:18.
