data_PCOD8147954
_publ_section_title
;
Structure prediction by ZEFSAII (Michael W. Deem and Ramdas Pophale) SiO2 
 PCOD8147954
Probable space group: C 2/C
;
_chemical_formula_sum "Si O2"
_cell_formula_units_Z 44
_cell_length_a 11.571004
_cell_length_b 9.511512
_cell_length_c 16.879649
_cell_angle_alpha 90.000000
_cell_angle_beta 109.793737
_cell_angle_gamma 90.000000
_cell_volume 1747.976927
_symmetry_space_group_name_H-M "C 2/C"
_symmetry_group_IT_number 15
_symmetry_cell_setting 'monoclinic'
loop_
_space_group_symop_operation_xyz
x,y,z
-x,y,1/2-z
-x,-y,-z
x,-y,1/2+z
1/2+x,1/2+y,z
1/2-x,1/2+y,1/2-z
1/2-x,1/2-y,-z
1/2+x,1/2-y,1/2+z
loop_
_atom_site_type_symbol
_atom_site_label
_atom_site_fract_x
_atom_site_fract_y
_atom_site_fract_z
Si Si1 0.683706 0.798436 0.247024
Si Si2 0.000000 0.922456 0.750000
Si Si3 0.428529 0.482439 0.566451
Si Si4 0.664902 0.914094 0.976471
Si Si5 0.356874 0.904063 0.705101
Si Si6 0.498847 0.816024 0.064129
O O1 0.618991 0.678786 0.284886
O O2 0.809578 0.724094 0.248205
O O3 0.593227 0.846293 0.156384
O O4 0.712705 0.945009 0.298793
O O5 0.999133 0.014563 0.832291
O O6 0.500000 0.500000 0.500000
O O7 0.301755 0.566855 0.542014
O O8 0.411335 0.314562 0.561864
O O9 0.674017 0.855909 0.890389
O O10 0.594855 0.058934 0.967789
O O11 0.586145 0.797985 0.006716
O O12 0.500000 0.927772 0.750000
#
# Coordination Sequence:
#
# PCOD8147954 Si02
#       6
#     8   4   8   8   8   8
#     4  11  24  46  74 100 149 188 246 297 365 429
#     4  10  22  46  72  98 150 196 226 306 368 426
#     4  11  24  42  68 106 143 184 243 294 361 429
#     4  11  23  43  76  97 142 190 236 298 362 430
#     4  12  25  47  71 108 144 194 240 304 362 437
#     4  10  23  45  69 103 138 191 237 295 361 434
#
# _framework density 25.171958
#
# number of rings (size 3 to 8) (size 9 to 14) (size 15 to 20)
#    0.000    1.091    2.727    3.818    2.545    4.364 
#    1.636    0.000    0.000    0.000    0.000    0.000 
#    0.000    0.000    0.000    0.000    0.000    0.000 
#
# Total GULP energy -272595.734075 kJ/mol
# GULP energy per Si atom -12390.715185 kJ/mol
# Density = 2.511467 g / cm^3
# Si number density = 25.171958 Si / 1000 Ang^3
#
#
#
# Elastic Constant Matrix: (Units=GPa)
#
#
# Indices 1 2 3 4 5 6 
#
# 1 118.0867 37.8317 27.3486 0.0000 -16.5822 0.0000
# 2 37.8317 25.3341 15.1125 0.0000 2.0610 0.0000
# 3 27.3486 15.1125 147.9245 0.0000 -25.4873 0.0000
# 4 0.0000 0.0000 0.0000 20.8418 0.0000 -6.0687
# 5 -16.5822 2.0610 -25.4873 0.0000 36.9014 0.0000
# 6 0.0000 0.0000 0.0000 -6.0687 0.0000 1.5382
#
#
#
# Elastic Compliance Matrix: (Units=1/GPa)
#
#
# Indices 1 2 3 4 5 6 
#
# 1 0.019876 -0.031585 0.001583 0.000000 0.011789 0.000000
# 2 -0.031585 0.093442 -0.008004 0.000000 -0.024940 0.000000
# 3 0.001583 -0.008004 0.008496 0.000000 0.007027 0.000000
# 4 0.000000 0.000000 0.000000 -0.322489 0.000000 -1.272310
# 5 0.011789 -0.024940 0.007027 0.000000 0.038643 0.000000
# 6 0.000000 0.000000 0.000000 -1.272310 0.000000 -4.369513
#
#
# Mechanical properties :
#
#
# Convention : Reuss Voigt Hill
#
# Bulk Modulus (GPa) = 21.83265 50.21454 36.02360
# Shear Modulus (GPa) = -1.12606 25.92645 12.40020
#
# Velocity S-wave (km/s) = -0.66957 3.21280 2.22191
# Velocity P-wave (km/s) = 2.84508 5.80988 4.57434
#
# Compressibility (1/GPa) = 0.04580296
#
# Stress axis : x y z
#
# Youngs Moduli (GPa) = 50.31193 10.70183 117.70446
#
# Poissons Ratio (x) = 0.33801 -0.18637
# Poissons Ratio (y) = 1.58909 0.94212
# Poissons Ratio (z) = -0.07966 0.08566
#
# Static dielectric constant tensor:
#      x y z
#    x 4.676780 0.000000 -0.509720 
#    y 0.000000 4.597990 0.000000 
#    z -0.509720 0.000000 4.940800 
# 
# 
# High freq. dielectric constant tensor:
#      x y z
#    x 2.003440 0.000000 -0.024390 
#    y 0.000000 2.004600 0.000000 
#    z -0.024390 0.000000 2.007400 
# 
# From -- ./inp_files/142300.got.cif
#   From: 2010.06.25/outbox.cif.g09.slc.cpg/sg15_72_cif.got.tgz:142300.got - 2010.06.28 07:06:18.
