data_PCOD8147379
_publ_section_title
;
Structure prediction by ZEFSAII (Michael W. Deem and Ramdas Pophale) SiO2 
 PCOD8147379
Probable space group: C 2/C
;
_chemical_formula_sum "Si O2"
_cell_formula_units_Z 44
_cell_length_a 13.763197
_cell_length_b 6.387325
_cell_length_c 23.212612
_cell_angle_alpha 90.000000
_cell_angle_beta 110.420651
_cell_angle_gamma 90.000000
_cell_volume 1912.380818
_symmetry_space_group_name_H-M "C 2/C"
_symmetry_group_IT_number 15
_symmetry_cell_setting 'monoclinic'
loop_
_space_group_symop_operation_xyz
x,y,z
-x,y,1/2-z
-x,-y,-z
x,-y,1/2+z
1/2+x,1/2+y,z
1/2-x,1/2+y,1/2-z
1/2-x,1/2-y,-z
1/2+x,1/2-y,1/2+z
loop_
_atom_site_type_symbol
_atom_site_label
_atom_site_fract_x
_atom_site_fract_y
_atom_site_fract_z
Si Si1 0.304176 0.825596 0.085910
Si Si2 0.109493 0.408807 0.691268
Si Si3 0.000000 0.108033 0.750000
Si Si4 0.520524 0.089605 0.441836
Si Si5 0.669862 0.562019 0.980290
Si Si6 0.834235 0.233518 0.218117
O O1 0.313791 0.578391 0.073570
O O2 0.312585 0.865374 0.155677
O O3 0.394081 0.950860 0.072353
O O4 0.192052 0.911419 0.040289
O O5 0.100213 0.630460 0.722472
O O6 0.225927 0.328847 0.724796
O O7 0.084150 0.427654 0.618080
O O8 0.024856 0.250561 0.699892
O O9 0.100313 0.970133 0.785275
O O10 0.556028 0.332830 0.456207
O O11 0.500000 0.000000 0.500000
O O12 0.750000 0.750000 0.000000
#
# Coordination Sequence:
#
# PCOD8147379 Si02
#       6
#     8   8   4   8   8   8
#     4  10  22  43  69  97 142 184 237 292 357 425
#     4  12  27  47  72 109 141 190 245 298 364 442
#     4  12  24  50  76 100 150 188 244 302 366 424
#     4  11  25  43  67 103 142 183 236 294 360 427
#     4   9  21  41  66  99 130 186 225 281 350 413
#     4  12  26  47  75 107 142 193 241 301 369 430
#
# _framework density 23.007968999999999
#
# number of rings (size 3 to 8) (size 9 to 14) (size 15 to 20)
#    0.000    1.091    1.818    3.818    7.636    3.636 
#    3.273    0.000    0.000    0.000    0.000    0.000 
#    0.000    0.000    0.000    0.000    0.000    0.000 
#
# Total GULP energy -272838.057819 kJ/mol
# GULP energy per Si atom -12401.729901 kJ/mol
# Density = 2.295560 g / cm^3
# Si number density = 23.007969 Si / 1000 Ang^3
#
#
#
# Elastic Constant Matrix: (Units=GPa)
#
#
# Indices 1 2 3 4 5 6 
#
# 1 88.8212 41.9126 26.1520 0.0000 1.5347 0.0000
# 2 41.9126 130.7118 45.4016 0.0000 4.5754 0.0000
# 3 26.1520 45.4016 154.8837 0.0000 6.8865 0.0000
# 4 0.0000 0.0000 0.0000 30.8454 0.0000 5.7081
# 5 1.5347 4.5754 6.8865 0.0000 38.7681 0.0000
# 6 0.0000 0.0000 0.0000 5.7081 0.0000 43.5802
#
#
#
# Elastic Compliance Matrix: (Units=1/GPa)
#
#
# Indices 1 2 3 4 5 6 
#
# 1 0.013439 -0.003923 -0.001125 0.000000 0.000131 0.000000
# 2 -0.003923 0.009675 -0.002147 0.000000 -0.000605 0.000000
# 3 -0.001125 -0.002147 0.007320 0.000000 -0.001002 0.000000
# 4 0.000000 0.000000 0.000000 0.033225 0.000000 -0.004352
# 5 0.000131 -0.000605 -0.001002 0.000000 0.026039 0.000000
# 6 0.000000 0.000000 0.000000 -0.004352 0.000000 0.023516
#
#
# Mechanical properties :
#
#
# Convention : Reuss Voigt Hill
#
# Bulk Modulus (GPa) = 62.32600 66.81656 64.57128
# Shear Modulus (GPa) = 37.60762 40.03544 38.82153
#
# Velocity S-wave (km/s) = 4.04734 4.17594 4.11214
# Velocity P-wave (km/s) = 6.99921 7.23567 7.11842
#
# Compressibility (1/GPa) = 0.01604467
#
# Stress axis : x y z
#
# Youngs Moduli (GPa) = 74.41207 103.35743 136.60661
#
# Poissons Ratio (x) = 0.40546 0.15368
# Poissons Ratio (y) = 0.29191 0.29327
# Poissons Ratio (z) = 0.08371 0.22189
#
# Static dielectric constant tensor:
#      x y z
#    x 4.152170 0.000000 0.220650 
#    y 0.000000 4.500410 0.000000 
#    z 0.220650 0.000000 4.268800 
# 
# 
# High freq. dielectric constant tensor:
#      x y z
#    x 1.902690 0.000000 0.010670 
#    y 0.000000 1.916850 0.000000 
#    z 0.010670 0.000000 1.911110 
# 
# From -- ./inp_files/271912.got.cif
#   From: 2010.06.25/outbox.cif.g09.slc.cpg/sg15_136_cif.got.tgz:271912.got - 2010.06.28 07:06:18.
