data_PCOD8147652
_publ_section_title
;
Structure prediction by ZEFSAII (Michael W. Deem and Ramdas Pophale) SiO2 
 PCOD8147652
Probable space group: C 2/C
;
_chemical_formula_sum "Si O2"
_cell_formula_units_Z 40
_cell_length_a 9.060662
_cell_length_b 12.292211
_cell_length_c 14.657308
_cell_angle_alpha 90.000000
_cell_angle_beta 71.620103
_cell_angle_gamma 90.000000
_cell_volume 1549.188546
_symmetry_space_group_name_H-M "C 2/C"
_symmetry_group_IT_number 15
_symmetry_cell_setting 'monoclinic'
loop_
_space_group_symop_operation_xyz
x,y,z
-x,y,1/2-z
-x,-y,-z
x,-y,1/2+z
1/2+x,1/2+y,z
1/2-x,1/2+y,1/2-z
1/2-x,1/2-y,-z
1/2+x,1/2-y,1/2+z
loop_
_atom_site_type_symbol
_atom_site_label
_atom_site_fract_x
_atom_site_fract_y
_atom_site_fract_z
Si Si1 0.966464 0.575947 0.896108
Si Si2 0.720050 0.229277 0.686771
Si Si3 0.738103 0.045925 0.401918
Si Si4 0.159269 0.767939 0.901919
Si Si5 0.557335 0.642968 0.593002
O O1 0.898688 0.632980 0.818623
O O2 0.104889 0.486460 0.851671
O O3 0.052262 0.663689 0.944095
O O4 0.827985 0.526270 0.983096
O O5 0.714107 0.328023 0.616087
O O6 0.662693 0.285032 0.792000
O O7 0.886013 0.170836 0.661180
O O8 0.888677 0.967523 0.366561
O O9 0.335417 0.745628 0.899675
O O10 0.078594 0.865348 0.977174
#
# Coordination Sequence:
#
# PCOD8147652 Si02
#       5
#     8   8   8   8   8
#     4  10  22  45  69  99 138 178 225 289 337 414
#     4  12  23  45  72 100 140 181 231 290 340 403
#     4  10  23  45  72  99 138 183 229 279 356 413
#     4  10  22  44  68  99 143 181 225 291 342 405
#     4  10  23  45  68 101 140 180 233 283 343 415
#
# _framework density 25.819969
#
# number of rings (size 3 to 8) (size 9 to 14) (size 15 to 20)
#    0.000    1.600    2.000    1.800    2.800    0.800 
#   10.800    4.000    0.000    0.000    0.000    0.000 
#    0.000    0.000    0.000    0.000    0.000    0.000 
#
# Total GULP energy -247797.512481 kJ/mol
# GULP energy per Si atom -12389.875624 kJ/mol
# Density = 2.576120 g / cm^3
# Si number density = 25.819969 Si / 1000 Ang^3
#
#
#
# Elastic Constant Matrix: (Units=GPa)
#
#
# Indices 1 2 3 4 5 6 
#
# 1 75.8957 27.3508 24.1339 0.0000 -4.2903 0.0000
# 2 27.3508 84.3096 14.5019 0.0000 -12.2735 0.0000
# 3 24.1339 14.5019 102.9635 0.0000 0.7862 0.0000
# 4 0.0000 0.0000 0.0000 20.6899 0.0000 2.2593
# 5 -4.2903 -12.2735 0.7862 0.0000 34.1798 0.0000
# 6 0.0000 0.0000 0.0000 2.2593 0.0000 38.9529
#
#
#
# Elastic Compliance Matrix: (Units=1/GPa)
#
#
# Indices 1 2 3 4 5 6 
#
# 1 0.015812 -0.004540 -0.003070 0.000000 0.000425 0.000000
# 2 -0.004540 0.014160 -0.000965 0.000000 0.004537 0.000000
# 3 -0.003070 -0.000965 0.010575 0.000000 -0.000975 0.000000
# 4 0.000000 0.000000 0.000000 0.048641 0.000000 -0.002821
# 5 0.000425 0.004537 -0.000975 0.000000 0.030962 0.000000
# 6 0.000000 0.000000 0.000000 -0.002821 0.000000 0.025836
#
#
# Mechanical properties :
#
#
# Convention : Reuss Voigt Hill
#
# Bulk Modulus (GPa) = 42.73850 43.90467 43.32159
# Shear Modulus (GPa) = 29.25085 31.90999 30.58042
#
# Velocity S-wave (km/s) = 3.36948 3.51930 3.44520
# Velocity P-wave (km/s) = 5.63261 5.79267 5.71320
#
# Compressibility (1/GPa) = 0.02339811
#
# Stress axis : x y z
#
# Youngs Moduli (GPa) = 63.24203 70.62030 94.56118
#
# Poissons Ratio (x) = 0.32059 0.29032
# Poissons Ratio (y) = 0.28710 0.09125
# Poissons Ratio (z) = 0.19416 0.06815
#
# Static dielectric constant tensor:
#      x y z
#    x 4.858060 0.000000 -0.084850 
#    y 0.000000 4.419860 0.000000 
#    z -0.084850 0.000000 4.426570 
# 
# 
# High freq. dielectric constant tensor:
#      x y z
#    x 2.045450 0.000000 -0.011240 
#    y 0.000000 2.005420 0.000000 
#    z -0.011240 0.000000 2.021270 
# 
# From -- ./inp_files/133071.got.cif
#   From: 2010.06.25/outbox.cif.g09.slc.cpg/sg15_67_cif.got.tgz:133071.got - 2010.06.28 07:06:18.
