data_PCOD8147034
_publ_section_title
;
Structure prediction by ZEFSAII (Michael W. Deem and Ramdas Pophale) SiO2 
 PCOD8147034
Probable space group: C 2/C
;
_chemical_formula_sum "Si O2"
_cell_formula_units_Z 64
_cell_length_a 10.880333
_cell_length_b 11.352967
_cell_length_c 23.684165
_cell_angle_alpha 90.000000
_cell_angle_beta 100.116179
_cell_angle_gamma 90.000000
_cell_volume 2880.082324
_symmetry_space_group_name_H-M "C 2/C"
_symmetry_group_IT_number 15
_symmetry_cell_setting 'monoclinic'
loop_
_space_group_symop_operation_xyz
x,y,z
-x,y,1/2-z
-x,-y,-z
x,-y,1/2+z
1/2+x,1/2+y,z
1/2-x,1/2+y,1/2-z
1/2-x,1/2-y,-z
1/2+x,1/2-y,1/2+z
loop_
_atom_site_type_symbol
_atom_site_label
_atom_site_fract_x
_atom_site_fract_y
_atom_site_fract_z
Si Si1 0.789054 0.534821 0.170099
Si Si2 0.514705 0.104769 0.866972
Si Si3 0.600534 0.728239 0.804297
Si Si4 0.605883 0.317576 0.428169
Si Si5 0.269006 0.981878 0.291516
Si Si6 0.961331 0.959585 0.903002
Si Si7 0.412872 0.334841 0.689048
Si Si8 0.104775 0.722483 0.543670
O O1 0.787501 0.675934 0.181088
O O2 0.819177 0.473910 0.232040
O O3 0.660406 0.484283 0.136044
O O4 0.896860 0.508397 0.132389
O O5 0.376061 0.069537 0.839011
O O6 0.581897 0.200244 0.831445
O O7 0.500083 0.148005 0.930659
O O8 0.500000 0.774170 0.750000
O O9 0.543426 0.716490 0.863032
O O10 0.649689 0.602816 0.787701
O O11 0.542955 0.441888 0.442074
O O12 0.756331 0.327978 0.433506
O O13 0.575992 0.220062 0.474098
O O14 0.224833 0.115095 0.304930
O O15 0.908405 0.858819 0.939752
O O16 0.046257 0.911897 0.860193
O O17 0.500000 0.353109 0.750000
#
# Coordination Sequence:
#
# PCOD8147034 Si02
#       8
#     8   8   8   8   8   8   8   8
#     4  12  25  39  60  91 140 172 206 268 331 400
#     4  11  24  42  57  92 131 174 214 267 331 394
#     4  12  23  41  63  97 131 164 215 268 330 398
#     4  11  21  41  70  96 120 171 223 278 327 385
#     4  12  22  39  61  93 126 171 217 266 325 399
#     4  11  20  39  62  94 124 166 217 271 324 387
#     4  11  20  36  61  88 122 165 214 263 323 387
#     4  10  22  42  69  90 128 165 228 277 325 389
#
# _framework density 22.221588000000001
#
# number of rings (size 3 to 8) (size 9 to 14) (size 15 to 20)
#    0.000    0.750    5.000    4.125    1.750    0.000 
#    2.250    1.250    0.000    0.000    0.000    0.000 
#    0.000    0.000    0.000    0.000    0.000    0.000 
#
# Total GULP energy -396624.388525 kJ/mol
# GULP energy per Si atom -12394.512141 kJ/mol
# Density = 2.217101 g / cm^3
# Si number density = 22.221588 Si / 1000 Ang^3
#
#
#
# Elastic Constant Matrix: (Units=GPa)
#
#
# Indices 1 2 3 4 5 6 
#
# 1 83.4016 29.2167 17.1307 0.0000 -7.4158 0.0000
# 2 29.2167 65.0447 9.1037 0.0000 -1.8478 0.0000
# 3 17.1307 9.1037 82.9443 0.0000 -8.0595 0.0000
# 4 0.0000 0.0000 0.0000 22.8594 0.0000 -8.4792
# 5 -7.4158 -1.8478 -8.0595 0.0000 26.8731 0.0000
# 6 0.0000 0.0000 0.0000 -8.4792 0.0000 50.3834
#
#
#
# Elastic Compliance Matrix: (Units=1/GPa)
#
#
# Indices 1 2 3 4 5 6 
#
# 1 0.014903 -0.006315 -0.002088 0.000000 0.003052 0.000000
# 2 -0.006315 0.018299 -0.000774 0.000000 -0.000717 0.000000
# 3 -0.002088 -0.000774 0.012887 0.000000 0.003235 0.000000
# 4 0.000000 0.000000 0.000000 0.046658 0.000000 0.007852
# 5 0.003052 -0.000717 0.003235 0.000000 0.038975 0.000000
# 6 0.000000 0.000000 0.000000 0.007852 0.000000 0.021169
#
#
# Mechanical properties :
#
#
# Convention : Reuss Voigt Hill
#
# Bulk Modulus (GPa) = 36.05664 38.03254 37.04459
# Shear Modulus (GPa) = 27.70242 31.75247 29.72744
#
# Velocity S-wave (km/s) = 3.53462 3.78418 3.66153
# Velocity P-wave (km/s) = 5.73752 6.02044 5.88068
#
# Compressibility (1/GPa) = 0.02773414
#
# Stress axis : x y z
#
# Youngs Moduli (GPa) = 67.10189 54.64912 77.59835
#
# Poissons Ratio (x) = 0.34511 0.16204
# Poissons Ratio (y) = 0.42375 0.06004
# Poissons Ratio (z) = 0.14012 0.04228
#
# Static dielectric constant tensor:
#      x y z
#    x 3.609970 0.000000 -0.411380 
#    y 0.000000 4.096980 0.000000 
#    z -0.411380 0.000000 4.001710 
# 
# 
# High freq. dielectric constant tensor:
#      x y z
#    x 1.861920 0.000000 -0.022950 
#    y 0.000000 1.870320 0.000000 
#    z -0.022950 0.000000 1.875630 
# 
# From -- ./inp_files/268934.got.cif
#   From: 2010.06.25/outbox.cif.g09.slc.cpg/sg15_135_cif.got.tgz:268934.got - 2010.06.28 07:06:18.
