data_PCOD8147804
_publ_section_title
;
Structure prediction by ZEFSAII (Michael W. Deem and Ramdas Pophale) SiO2 
 PCOD8147804
Probable space group: C 2/C
;
_chemical_formula_sum "Si O2"
_cell_formula_units_Z 64
_cell_length_a 30.051309
_cell_length_b 9.205307
_cell_length_c 17.381269
_cell_angle_alpha 90.000000
_cell_angle_beta 141.820422
_cell_angle_gamma 90.000000
_cell_volume 2972.088559
_symmetry_space_group_name_H-M "C 2/C"
_symmetry_group_IT_number 15
_symmetry_cell_setting 'monoclinic'
loop_
_space_group_symop_operation_xyz
x,y,z
-x,y,1/2-z
-x,-y,-z
x,-y,1/2+z
1/2+x,1/2+y,z
1/2-x,1/2+y,1/2-z
1/2-x,1/2-y,-z
1/2+x,1/2-y,1/2+z
loop_
_atom_site_type_symbol
_atom_site_label
_atom_site_fract_x
_atom_site_fract_y
_atom_site_fract_z
Si Si1 0.219907 0.654936 0.629732
Si Si2 0.085765 0.824756 0.685479
Si Si3 0.859655 0.611257 0.469621
Si Si4 0.774266 0.678034 0.689114
Si Si5 0.453115 0.145963 0.450110
Si Si6 0.688207 0.439920 0.504429
Si Si7 0.922728 0.168540 0.153021
Si Si8 0.135026 0.138006 0.763316
O O1 0.157085 0.545870 0.515829
O O2 0.222114 0.609248 0.721793
O O3 0.195707 0.817289 0.578853
O O4 0.297813 0.626757 0.701520
O O5 0.149069 0.750078 0.723752
O O6 0.102669 0.788741 0.796756
O O7 0.007444 0.767882 0.555323
O O8 0.085178 0.999490 0.677437
O O9 0.787120 0.700888 0.388190
O O10 0.887901 0.609900 0.419972
O O11 0.923360 0.684069 0.604631
O O12 0.757792 0.549283 0.603598
O O13 0.412953 0.216354 0.319752
O O14 0.500000 0.000000 0.500000
O O15 0.624999 0.542140 0.448833
O O16 0.669872 0.367233 0.396787
O O17 0.000000 0.096950 0.250000
#
# Coordination Sequence:
#
# PCOD8147804 Si02
#       8
#     8   8   8   8   8   8   8   8
#     4  12  23  42  67 101 139 173 231 288 350 407
#     4  11  24  43  72  99 133 186 231 290 346 426
#     4  11  23  42  67  99 129 185 230 284 347 413
#     4  11  23  43  73 103 134 179 239 280 347 418
#     4  12  26  45  67 100 144 182 238 286 353 419
#     4  10  26  42  69 102 138 179 230 290 345 419
#     4  10  22  45  67  93 137 181 233 283 351 424
#     4  11  25  45  68 101 138 186 228 289 351 417
#
# _framework density 21.533678999999999
#
# number of rings (size 3 to 8) (size 9 to 14) (size 15 to 20)
#    0.000    1.000    3.750    2.250    3.500    2.500 
#    9.000    0.000    0.000    0.000    0.000    0.000 
#    0.000    0.000    0.000    0.000    0.000    0.000 
#
# Total GULP energy -396462.427672 kJ/mol
# GULP energy per Si atom -12389.450865 kJ/mol
# Density = 2.148467 g / cm^3
# Si number density = 21.533679 Si / 1000 Ang^3
#
#
#
# Elastic Constant Matrix: (Units=GPa)
#
#
# Indices 1 2 3 4 5 6 
#
# 1 77.8990 30.8083 20.1199 0.0000 1.2131 0.0000
# 2 30.8083 111.5631 39.0686 0.0000 -4.6592 0.0000
# 3 20.1199 39.0686 73.2141 0.0000 -2.0707 0.0000
# 4 0.0000 0.0000 0.0000 37.7116 0.0000 3.4785
# 5 1.2131 -4.6592 -2.0707 0.0000 31.9223 0.0000
# 6 0.0000 0.0000 0.0000 3.4785 0.0000 24.2327
#
#
#
# Elastic Compliance Matrix: (Units=1/GPa)
#
#
# Indices 1 2 3 4 5 6 
#
# 1 0.014767 -0.003314 -0.002323 0.000000 -0.001196 0.000000
# 2 -0.003314 0.011816 -0.005352 0.000000 0.001503 0.000000
# 3 -0.002323 -0.005352 0.017165 0.000000 0.000421 0.000000
# 4 0.000000 0.000000 0.000000 0.026873 0.000000 -0.003858
# 5 -0.001196 0.001503 0.000421 0.000000 0.031618 0.000000
# 6 0.000000 0.000000 0.000000 -0.003858 0.000000 0.041820
#
#
# Mechanical properties :
#
#
# Convention : Reuss Voigt Hill
#
# Bulk Modulus (GPa) = 45.93799 49.18554 47.56176
# Shear Modulus (GPa) = 28.85285 30.28527 29.56906
#
# Velocity S-wave (km/s) = 3.66443 3.75429 3.70963
# Velocity P-wave (km/s) = 6.26765 6.45629 6.36267
#
# Compressibility (1/GPa) = 0.02176848
#
# Stress axis : x y z
#
# Youngs Moduli (GPa) = 67.72079 84.63323 58.25887
#
# Poissons Ratio (x) = 0.28048 0.13535
# Poissons Ratio (y) = 0.22443 0.31179
# Poissons Ratio (z) = 0.15734 0.45294
#
# Static dielectric constant tensor:
#      x y z
#    x 3.812160 0.000000 0.007640 
#    y 0.000000 4.094490 0.000000 
#    z 0.007640 0.000000 4.100940 
# 
# 
# High freq. dielectric constant tensor:
#      x y z
#    x 1.839220 0.000000 0.007750 
#    y 0.000000 1.854940 0.000000 
#    z 0.007750 0.000000 1.850190 
# 
# From -- ./inp_files/224671.got.cif
#   From: 2010.06.25/outbox.cif.g09.slc.cpg/sg15_113_cif.got.tgz:224671.got - 2010.06.28 07:06:18.
