data_PCOD8147095
_publ_section_title
;
Structure prediction by ZEFSAII (Michael W. Deem and Ramdas Pophale) SiO2 
 PCOD8147095
Probable space group: C 2/C
;
_chemical_formula_sum "Si O2"
_cell_formula_units_Z 56
_cell_length_a 9.283345
_cell_length_b 10.260167
_cell_length_c 28.650084
_cell_angle_alpha 90.000000
_cell_angle_beta 80.895039
_cell_angle_gamma 90.000000
_cell_volume 2694.498776
_symmetry_space_group_name_H-M "C 2/C"
_symmetry_group_IT_number 15
_symmetry_cell_setting 'monoclinic'
loop_
_space_group_symop_operation_xyz
x,y,z
-x,y,1/2-z
-x,-y,-z
x,-y,1/2+z
1/2+x,1/2+y,z
1/2-x,1/2+y,1/2-z
1/2-x,1/2-y,-z
1/2+x,1/2-y,1/2+z
loop_
_atom_site_type_symbol
_atom_site_label
_atom_site_fract_x
_atom_site_fract_y
_atom_site_fract_z
Si Si1 0.278800 0.609724 0.689561
Si Si2 0.649170 0.249786 0.961207
Si Si3 0.627256 0.274456 0.469653
Si Si4 0.747816 0.993297 0.595374
Si Si5 0.586627 0.012947 0.412176
Si Si6 0.715862 0.900069 0.813503
Si Si7 0.000000 0.505393 0.750000
Si Si8 0.000000 0.994721 0.250000
O O1 0.284768 0.504428 0.648092
O O2 0.289163 0.753065 0.667609
O O3 0.415987 0.593029 0.716814
O O4 0.123435 0.598941 0.722900
O O5 0.708321 0.346067 0.918588
O O6 0.640444 0.103678 0.942051
O O7 0.750000 0.250000 0.000000
O O8 0.501449 0.307765 0.988542
O O9 0.750000 0.250000 0.500000
O O10 0.657732 0.400336 0.436852
O O11 0.595661 0.148011 0.439657
O O12 0.578035 0.016769 0.594514
O O13 0.688749 0.012191 0.360778
O O14 0.582445 0.916620 0.783943
O O15 0.874899 0.922103 0.782576
#
# Coordination Sequence:
#
# PCOD8147095 Si02
#       8
#     8   8   8   8   8   8   4   4
#     4  11  23  44  68 100 134 174 225 271 343 399
#     4  12  26  45  70 101 140 180 228 281 341 399
#     4  12  24  45  72  95 138 180 226 282 343 396
#     4  12  25  44  70 102 136 181 228 281 336 406
#     4  12  25  45  69 102 139 177 228 289 331 403
#     4  11  23  44  69  98 137 173 222 278 339 399
#     4  10  22  42  70  96 130 180 214 274 344 404
#     4  10  26  42  66 106 134 168 224 280 332 410
#
# _framework density 20.783086000000001
#
# number of rings (size 3 to 8) (size 9 to 14) (size 15 to 20)
#    0.000    0.571    5.714    2.571    0.000    4.571 
#   10.286    0.000    0.000    0.000    0.000    0.000 
#    0.000    0.000    0.000    0.000    0.000    0.000 
#
# Total GULP energy -347173.140247 kJ/mol
# GULP energy per Si atom -12399.040723 kJ/mol
# Density = 2.073578 g / cm^3
# Si number density = 20.783086 Si / 1000 Ang^3
#
#
#
# Elastic Constant Matrix: (Units=GPa)
#
#
# Indices 1 2 3 4 5 6 
#
# 1 138.0284 26.1192 48.3133 0.0000 1.8782 0.0000
# 2 26.1192 103.8917 30.9348 0.0000 -3.4419 0.0000
# 3 48.3133 30.9348 119.4124 0.0000 0.1839 0.0000
# 4 0.0000 0.0000 0.0000 40.3663 0.0000 0.8131
# 5 1.8782 -3.4419 0.1839 0.0000 32.5415 0.0000
# 6 0.0000 0.0000 0.0000 0.8131 0.0000 22.7029
#
#
#
# Elastic Compliance Matrix: (Units=1/GPa)
#
#
# Indices 1 2 3 4 5 6 
#
# 1 0.008592 -0.001241 -0.003154 0.000000 -0.000609 0.000000
# 2 -0.001241 0.010650 -0.002259 0.000000 0.001211 0.000000
# 3 -0.003154 -0.002259 0.010236 0.000000 -0.000115 0.000000
# 4 0.000000 0.000000 0.000000 0.024791 0.000000 -0.000888
# 5 -0.000609 0.001211 -0.000115 0.000000 0.030894 0.000000
# 6 0.000000 0.000000 0.000000 -0.000888 0.000000 0.044079
#
#
# Mechanical properties :
#
#
# Convention : Reuss Voigt Hill
#
# Bulk Modulus (GPa) = 61.84138 63.56302 62.70220
# Shear Modulus (GPa) = 33.79772 36.18649 34.99211
#
# Velocity S-wave (km/s) = 4.03701 4.17724 4.10772
# Velocity P-wave (km/s) = 7.17984 7.34276 7.26176
#
# Compressibility (1/GPa) = 0.01617040
#
# Stress axis : x y z
#
# Youngs Moduli (GPa) = 116.38809 93.89567 97.69796
#
# Poissons Ratio (x) = 0.11654 0.30811
# Poissons Ratio (y) = 0.14446 0.22067
# Poissons Ratio (z) = 0.36706 0.21208
#
# Static dielectric constant tensor:
#      x y z
#    x 4.000810 0.000000 -0.104630 
#    y 0.000000 3.890560 0.000000 
#    z -0.104630 0.000000 3.977980 
# 
# 
# High freq. dielectric constant tensor:
#      x y z
#    x 1.829260 0.000000 -0.001410 
#    y 0.000000 1.811110 0.000000 
#    z -0.001410 0.000000 1.829980 
# 
# From -- ./inp_files/288007.got.cif
#   From: 2010.06.25/outbox.cif.g09.slc.cpg/sg15_145_cif.got.tgz:288007.got - 2010.06.28 07:06:18.
