data_PCOD8147303
_publ_section_title
;
Structure prediction by ZEFSAII (Michael W. Deem and Ramdas Pophale) SiO2 
 PCOD8147303
Probable space group: C 2/C
;
_chemical_formula_sum "Si O2"
_cell_formula_units_Z 40
_cell_length_a 21.634108
_cell_length_b 10.087038
_cell_length_c 9.801218
_cell_angle_alpha 90.000000
_cell_angle_beta 74.757191
_cell_angle_gamma 90.000000
_cell_volume 2063.617226
_symmetry_space_group_name_H-M "C 2/C"
_symmetry_group_IT_number 15
_symmetry_cell_setting 'monoclinic'
loop_
_space_group_symop_operation_xyz
x,y,z
-x,y,1/2-z
-x,-y,-z
x,-y,1/2+z
1/2+x,1/2+y,z
1/2-x,1/2+y,1/2-z
1/2-x,1/2-y,-z
1/2+x,1/2-y,1/2+z
loop_
_atom_site_type_symbol
_atom_site_label
_atom_site_fract_x
_atom_site_fract_y
_atom_site_fract_z
Si Si1 0.871113 0.763701 0.147521
Si Si2 0.357567 0.743956 0.971999
Si Si3 0.494652 0.374156 0.407997
Si Si4 0.196864 0.478926 0.935628
Si Si5 0.282786 0.499910 0.131432
O O1 0.847345 0.745887 0.315979
O O2 0.947667 0.773469 0.094274
O O3 0.852469 0.637036 0.070020
O O4 0.840371 0.894991 0.099710
O O5 0.429237 0.704262 0.972437
O O6 0.307419 0.638994 0.059474
O O7 0.342272 0.884470 0.048849
O O8 0.500000 0.426090 0.250000
O O9 0.500000 0.500000 0.500000
O O10 0.256611 0.479795 0.798179
O O11 0.225260 0.449351 0.068718
#
# Coordination Sequence:
#
# PCOD8147303 Si02
#       5
#     8   8   8   8   8
#     4  11  23  42  65  94 125 164 209 256 308 366
#     4  11  23  43  64  92 131 160 205 265 304 361
#     4  10  22  43  67  89 120 164 208 256 307 363
#     4  12  24  40  63  93 130 167 202 252 317 365
#     4  12  22  40  67  89 130 167 203 255 308 370
#
# _framework density 19.383438999999999
#
# number of rings (size 3 to 8) (size 9 to 14) (size 15 to 20)
#    0.000    0.800    6.000    2.400    0.000    0.800 
#    3.600    0.000    0.000    0.000    0.000    0.000 
#    0.000    0.000    0.000    0.000    0.000    0.000 
#
# Total GULP energy -248150.624605 kJ/mol
# GULP energy per Si atom -12407.531230 kJ/mol
# Density = 1.933932 g / cm^3
# Si number density = 19.383439 Si / 1000 Ang^3
#
#
#
# Elastic Constant Matrix: (Units=GPa)
#
#
# Indices 1 2 3 4 5 6 
#
# 1 94.5231 17.8691 17.5114 0.0000 8.8431 0.0000
# 2 17.8691 79.2601 12.4340 0.0000 9.9682 0.0000
# 3 17.5114 12.4340 52.7058 0.0000 0.4768 0.0000
# 4 0.0000 0.0000 0.0000 31.6873 0.0000 5.7234
# 5 8.8431 9.9682 0.4768 0.0000 30.0090 0.0000
# 6 0.0000 0.0000 0.0000 5.7234 0.0000 25.4069
#
#
#
# Elastic Compliance Matrix: (Units=1/GPa)
#
#
# Indices 1 2 3 4 5 6 
#
# 1 0.011825 -0.001761 -0.003487 0.000000 -0.002844 0.000000
# 2 -0.001761 0.013944 -0.002668 0.000000 -0.004071 0.000000
# 3 -0.003487 -0.002668 0.020747 0.000000 0.001584 0.000000
# 4 0.000000 0.000000 0.000000 0.032897 0.000000 -0.007411
# 5 -0.002844 -0.004071 0.001584 0.000000 0.035488 0.000000
# 6 0.000000 0.000000 0.000000 -0.007411 0.000000 0.041029
#
#
# Mechanical properties :
#
#
# Convention : Reuss Voigt Hill
#
# Bulk Modulus (GPa) = 32.59113 35.79090 34.19102
# Shear Modulus (GPa) = 27.47404 29.33226 28.40315
#
# Velocity S-wave (km/s) = 3.76892 3.89429 3.83212
# Velocity P-wave (km/s) = 5.98248 6.22298 6.10391
#
# Compressibility (1/GPa) = 0.03068320
#
# Stress axis : x y z
#
# Youngs Moduli (GPa) = 84.57010 71.71470 48.19982
#
# Poissons Ratio (x) = 0.12629 0.16810
# Poissons Ratio (y) = 0.14893 0.12858
# Poissons Ratio (z) = 0.29494 0.19131
#
# Static dielectric constant tensor:
#      x y z
#    x 3.692670 0.000000 0.071230 
#    y 0.000000 3.496730 0.000000 
#    z 0.071230 0.000000 3.646540 
# 
# 
# High freq. dielectric constant tensor:
#      x y z
#    x 1.766690 0.000000 0.004920 
#    y 0.000000 1.755450 0.000000 
#    z 0.004920 0.000000 1.757600 
# 
# From -- ./inp_files/46066.got.cif
#   From: 2010.06.25/outbox.cif.g09.slc.cpg/sg15_24_cif.got.tgz:46066.got - 2010.06.28 07:06:18.
