data_PCOD8147218
_publ_section_title
;
Structure prediction by ZEFSAII (Michael W. Deem and Ramdas Pophale) SiO2 
 PCOD8147218
Probable space group: C 2/C
;
_chemical_formula_sum "Si O2"
_cell_formula_units_Z 44
_cell_length_a 13.234515
_cell_length_b 11.696317
_cell_length_c 23.691745
_cell_angle_alpha 90.000000
_cell_angle_beta 146.530557
_cell_angle_gamma 90.000000
_cell_volume 2022.523460
_symmetry_space_group_name_H-M "C 2/C"
_symmetry_group_IT_number 15
_symmetry_cell_setting 'monoclinic'
loop_
_space_group_symop_operation_xyz
x,y,z
-x,y,1/2-z
-x,-y,-z
x,-y,1/2+z
1/2+x,1/2+y,z
1/2-x,1/2+y,1/2-z
1/2-x,1/2-y,-z
1/2+x,1/2-y,1/2+z
loop_
_atom_site_type_symbol
_atom_site_label
_atom_site_fract_x
_atom_site_fract_y
_atom_site_fract_z
Si Si1 0.116107 0.265081 0.023159
Si Si2 0.101300 0.375722 0.902126
Si Si3 0.333823 0.678903 0.736219
Si Si4 0.258551 0.195304 0.416870
Si Si5 0.500000 0.512039 0.250000
Si Si6 0.028618 0.368963 0.372630
O O1 0.198351 0.151921 0.031190
O O2 0.246298 0.302771 0.134259
O O3 0.110369 0.366622 0.974221
O O4 0.912068 0.240684 0.950839
O O5 0.041891 0.501846 0.856450
O O6 0.954985 0.286430 0.809490
O O7 0.455500 0.564446 0.784975
O O8 0.182241 0.661261 0.713674
O O9 0.098458 0.285632 0.355810
O O10 0.346287 0.145600 0.514384
O O11 0.177035 0.089221 0.344712
#
# Coordination Sequence:
#
# PCOD8147218 Si02
#       6
#     8   8   8   8   4   8
#     4  10  22  43  64  94 128 164 218 254 322 378
#     4  11  22  41  69  97 123 173 214 265 320 374
#     4  11  23  42  64  98 126 167 215 263 313 385
#     4  10  24  43  64  95 126 171 211 263 324 381
#     4  12  22  40  68  90 126 172 214 264 310 394
#     4  10  24  43  65  92 133 164 213 268 321 375
#
# _framework density 21.755002000000001
#
# number of rings (size 3 to 8) (size 9 to 14) (size 15 to 20)
#    0.000    1.455    1.818    2.182    7.636    3.636 
#    3.273    0.000    0.000    0.000    0.000    0.000 
#    0.000    0.000    0.000    0.000    0.000    0.000 
#
# Total GULP energy -272853.554033 kJ/mol
# GULP energy per Si atom -12402.434274 kJ/mol
# Density = 2.170549 g / cm^3
# Si number density = 21.755002 Si / 1000 Ang^3
#
#
#
# Elastic Constant Matrix: (Units=GPa)
#
#
# Indices 1 2 3 4 5 6 
#
# 1 154.0833 64.8318 39.9157 0.0000 35.0047 0.0000
# 2 64.8318 159.4226 39.5699 0.0000 21.2789 0.0000
# 3 39.9157 39.5699 74.1046 -0.0001 12.5021 0.0000
# 4 0.0000 0.0000 -0.0001 27.0361 0.0000 -1.8793
# 5 35.0047 21.2789 12.5021 0.0000 41.9052 0.0000
# 6 0.0000 0.0000 0.0000 -1.8793 0.0000 23.4962
#
#
#
# Elastic Compliance Matrix: (Units=1/GPa)
#
#
# Indices 1 2 3 4 5 6 
#
# 1 0.009594 -0.002392 -0.002889 0.000000 -0.005937 0.000000
# 2 -0.002392 0.008119 -0.002831 0.000000 -0.001280 0.000000
# 3 -0.002889 -0.002831 0.016756 0.000000 -0.001149 0.000000
# 4 0.000000 0.000000 0.000000 0.037194 0.000000 0.002975
# 5 -0.005937 -0.001280 -0.001149 0.000000 0.029816 0.000000
# 6 0.000000 0.000000 0.000000 0.002975 0.000000 0.042798
#
#
# Mechanical properties :
#
#
# Convention : Reuss Voigt Hill
#
# Bulk Modulus (GPa) = 54.80844 75.13837 64.97340
# Shear Modulus (GPa) = 30.01543 34.70703 32.36123
#
# Velocity S-wave (km/s) = 3.71846 3.99853 3.86104
# Velocity P-wave (km/s) = 6.60940 7.47871 7.05745
#
# Compressibility (1/GPa) = 0.01824537
#
# Stress axis : x y z
#
# Youngs Moduli (GPa) = 104.23644 123.17008 59.68105
#
# Poissons Ratio (x) = 0.29461 0.17239
# Poissons Ratio (y) = 0.24933 0.16895
# Poissons Ratio (z) = 0.30109 0.34868
#
# Static dielectric constant tensor:
#      x y z
#    x 4.208860 0.000000 0.186710 
#    y 0.000000 3.742150 0.000000 
#    z 0.186710 0.000000 3.911800 
# 
# 
# High freq. dielectric constant tensor:
#      x y z
#    x 1.865490 0.000000 0.011180 
#    y 0.000000 1.840210 0.000000 
#    z 0.011180 0.000000 1.858750 
# 
# From -- ./inp_files/269149.got.cif
#   From: 2010.06.25/outbox.cif.g09.slc.cpg/sg15_135_cif.got.tgz:269149.got - 2010.06.28 07:06:18.
