data_PCOD8147373
_publ_section_title
;
Structure prediction by ZEFSAII (Michael W. Deem and Ramdas Pophale) SiO2 
 PCOD8147373
Probable space group: C 2/C
;
_chemical_formula_sum "Si O2"
_cell_formula_units_Z 36
_cell_length_a 9.706290
_cell_length_b 21.610482
_cell_length_c 8.179095
_cell_angle_alpha 90.000000
_cell_angle_beta 65.765703
_cell_angle_gamma 90.000000
_cell_volume 1564.436988
_symmetry_space_group_name_H-M "C 2/C"
_symmetry_group_IT_number 15
_symmetry_cell_setting 'monoclinic'
loop_
_space_group_symop_operation_xyz
x,y,z
-x,y,1/2-z
-x,-y,-z
x,-y,1/2+z
1/2+x,1/2+y,z
1/2-x,1/2+y,1/2-z
1/2-x,1/2-y,-z
1/2+x,1/2-y,1/2+z
loop_
_atom_site_type_symbol
_atom_site_label
_atom_site_fract_x
_atom_site_fract_y
_atom_site_fract_z
Si Si1 0.871158 0.950397 0.108297
Si Si2 0.587600 0.326843 0.553850
Si Si3 0.663136 0.015965 0.997338
Si Si4 0.931809 0.310217 0.457597
Si Si5 0.500000 0.113838 0.250000
O O1 0.800194 0.960990 0.318955
O O2 0.928350 0.879386 0.077553
O O3 0.729490 0.954839 0.051019
O O4 0.000000 0.000000 0.000000
O O5 0.500000 0.354857 0.750000
O O6 0.754852 0.314383 0.532821
O O7 0.516587 0.261030 0.532868
O O8 0.643423 0.068675 0.147391
O O9 0.500000 0.000000 0.000000
O O10 0.000000 0.333838 0.250000
O O11 0.986181 0.347916 0.589406
#
# Coordination Sequence:
#
# PCOD8147373 Si02
#       5
#     8   8   8   8   4
#     4  12  25  43  65 102 138 178 220 284 360 416
#     4  10  22  43  69  93 140 180 219 281 356 406
#     4  12  24  44  68  99 136 180 231 287 341 410
#     4  10  23  46  70  99 131 184 232 286 338 402
#     4  12  24  42  76 104 132 176 246 284 334 414
#
# _framework density 23.011474
#
# number of rings (size 3 to 8) (size 9 to 14) (size 15 to 20)
#    0.000    0.889    2.222    4.667    3.111    0.000 
#    4.000   11.111    0.000    0.000    0.000    0.000 
#    0.000    0.000    0.000    0.000    0.000    0.000 
#
# Total GULP energy -223030.666891 kJ/mol
# GULP energy per Si atom -12390.592605 kJ/mol
# Density = 2.295910 g / cm^3
# Si number density = 23.011474 Si / 1000 Ang^3
#
#
#
# Elastic Constant Matrix: (Units=GPa)
#
#
# Indices 1 2 3 4 5 6 
#
# 1 62.0916 10.5672 25.6393 0.0000 -1.4899 0.0000
# 2 10.5672 123.8400 61.8291 0.0000 2.0150 0.0000
# 3 25.6393 61.8291 191.9245 0.0000 -13.4238 0.0000
# 4 0.0000 0.0000 0.0000 47.1187 0.0000 5.6432
# 5 -1.4899 2.0150 -13.4238 0.0000 43.4124 0.0000
# 6 0.0000 0.0000 0.0000 5.6432 0.0000 37.1036
#
#
#
# Elastic Compliance Matrix: (Units=1/GPa)
#
#
# Indices 1 2 3 4 5 6 
#
# 1 0.017061 -0.000375 -0.002163 0.000000 -0.000066 0.000000
# 2 -0.000375 0.009719 -0.003182 0.000000 -0.001448 0.000000
# 3 -0.002163 -0.003182 0.006674 0.000000 0.002137 0.000000
# 4 0.000000 0.000000 0.000000 0.021617 0.000000 -0.003288
# 5 -0.000066 -0.001448 0.002137 0.000000 0.023761 0.000000
# 6 0.000000 0.000000 0.000000 -0.003288 0.000000 0.027452
#
#
# Mechanical properties :
#
#
# Convention : Reuss Voigt Hill
#
# Bulk Modulus (GPa) = 45.42623 63.76968 54.59795
# Shear Modulus (GPa) = 39.98047 44.18165 42.08106
#
# Velocity S-wave (km/s) = 4.17275 4.38652 4.28097
# Velocity P-wave (km/s) = 6.55739 7.30942 6.94359
#
# Compressibility (1/GPa) = 0.02201371
#
# Stress axis : x y z
#
# Youngs Moduli (GPa) = 58.61457 102.88806 149.83482
#
# Poissons Ratio (x) = 0.03856 0.32409
# Poissons Ratio (y) = 0.02197 0.47682
# Poissons Ratio (z) = 0.12678 0.32742
#
# Static dielectric constant tensor:
#      x y z
#    x 3.922420 0.000000 -0.217880 
#    y 0.000000 4.710060 0.000000 
#    z -0.217880 0.000000 4.455560 
# 
# 
# High freq. dielectric constant tensor:
#      x y z
#    x 1.887450 0.000000 -0.020990 
#    y 0.000000 1.922320 0.000000 
#    z -0.020990 0.000000 1.931430 
# 
# From -- ./inp_files/30118.got.cif
#   From: 2010.06.25/outbox.cif.g09.slc.cpg/sg15_16_cif.got.tgz:30118.got - 2010.06.28 07:06:18.
