data_PCOD8147121
_publ_section_title
;
Structure prediction by ZEFSAII (Michael W. Deem and Ramdas Pophale) SiO2 
 PCOD8147121
Probable space group: C 2/C
;
_chemical_formula_sum "Si O2"
_cell_formula_units_Z 56
_cell_length_a 16.830513
_cell_length_b 9.012621
_cell_length_c 19.782515
_cell_angle_alpha 90.000000
_cell_angle_beta 60.074423
_cell_angle_gamma 90.000000
_cell_volume 2600.673318
_symmetry_space_group_name_H-M "C 2/C"
_symmetry_group_IT_number 15
_symmetry_cell_setting 'monoclinic'
loop_
_space_group_symop_operation_xyz
x,y,z
-x,y,1/2-z
-x,-y,-z
x,-y,1/2+z
1/2+x,1/2+y,z
1/2-x,1/2+y,1/2-z
1/2-x,1/2-y,-z
1/2+x,1/2-y,1/2+z
loop_
_atom_site_type_symbol
_atom_site_label
_atom_site_fract_x
_atom_site_fract_y
_atom_site_fract_z
Si Si1 0.937093 0.125043 0.439690
Si Si2 0.760907 0.309678 0.298427
Si Si3 0.331891 0.334986 0.504669
Si Si4 0.917789 0.644059 0.831887
Si Si5 0.152779 0.103052 0.347567
Si Si6 0.385865 0.140363 0.063875
Si Si7 0.942577 0.568433 0.433116
O O1 0.906852 0.232783 0.393223
O O2 0.925915 0.204728 0.517307
O O3 0.043320 0.077260 0.389877
O O4 0.861729 0.995333 0.464461
O O5 0.826450 0.374544 0.328001
O O6 0.817635 0.240880 0.212260
O O7 0.697576 0.448325 0.303032
O O8 0.704121 0.173841 0.354893
O O9 0.250000 0.250000 0.500000
O O10 0.312684 0.349321 0.592697
O O11 0.421451 0.239919 0.450286
O O12 0.937923 0.484531 0.857568
O O13 0.000000 0.695074 0.750000
O O14 0.454127 0.049519 0.084174
O O15 0.369247 0.028554 0.008125
#
# Coordination Sequence:
#
# PCOD8147121 Si02
#       7
#     8   8   8   8   8   8   8
#     4  11  23  48  73  94 140 190 232 276 356 419
#     4  12  27  42  69 101 136 179 230 288 344 413
#     4  12  25  43  69 104 136 177 234 293 338 413
#     4  11  25  46  66  99 140 181 224 285 353 417
#     4  12  26  45  69 100 139 184 229 290 350 425
#     4  10  22  42  71  97 130 182 231 273 339 421
#     4  10  23  39  70  97 133 174 224 282 340 410
#
# _framework density 21.532885
#
# number of rings (size 3 to 8) (size 9 to 14) (size 15 to 20)
#    0.000    0.857    4.286    2.143    6.000    1.143 
#    0.000    0.714    0.000    0.000    0.000    0.000 
#    0.000    0.000    0.000    0.000    0.000    0.000 
#
# Total GULP energy -347119.071160 kJ/mol
# GULP energy per Si atom -12397.109684 kJ/mol
# Density = 2.148388 g / cm^3
# Si number density = 21.532885 Si / 1000 Ang^3
#
#
#
# Elastic Constant Matrix: (Units=GPa)
#
#
# Indices 1 2 3 4 5 6 
#
# 1 81.5494 20.3135 30.8958 0.0000 -2.1452 0.0000
# 2 20.3135 97.6120 35.8099 0.0000 4.4893 0.0001
# 3 30.8958 35.8099 105.1784 0.0000 5.5879 0.0000
# 4 0.0000 0.0000 0.0000 22.7916 0.0000 -10.6200
# 5 -2.1452 4.4893 5.5879 0.0000 27.4766 0.0000
# 6 0.0000 0.0001 0.0000 -10.6200 0.0000 38.9890
#
#
#
# Elastic Compliance Matrix: (Units=1/GPa)
#
#
# Indices 1 2 3 4 5 6 
#
# 1 0.014137 -0.001686 -0.003692 0.000000 0.002130 0.000000
# 2 -0.001686 0.011942 -0.003498 0.000000 -0.001371 0.000000
# 3 -0.003692 -0.003498 0.011897 0.000000 -0.002136 0.000000
# 4 0.000000 0.000000 0.000000 0.050254 0.000000 0.013688
# 5 0.002130 -0.001371 -0.002136 0.000000 0.037219 0.000000
# 6 0.000000 0.000000 0.000000 0.013688 0.000000 0.029377
#
#
# Mechanical properties :
#
#
# Convention : Reuss Voigt Hill
#
# Bulk Modulus (GPa) = 49.44446 50.93089 50.18767
# Shear Modulus (GPa) = 27.88346 31.00616 29.44481
#
# Velocity S-wave (km/s) = 3.60241 3.79878 3.70190
# Velocity P-wave (km/s) = 6.34943 6.55324 6.45214
#
# Compressibility (1/GPa) = 0.02022471
#
# Stress axis : x y z
#
# Youngs Moduli (GPa) = 70.73559 83.74039 84.05794
#
# Poissons Ratio (x) = 0.14114 0.31035
# Poissons Ratio (y) = 0.11923 0.29402
# Poissons Ratio (z) = 0.26116 0.29291
#
# Static dielectric constant tensor:
#      x y z
#    x 3.839850 0.000000 0.059580 
#    y 0.000000 3.963490 0.000000 
#    z 0.059580 0.000000 3.983760 
# 
# 
# High freq. dielectric constant tensor:
#      x y z
#    x 1.843930 0.000000 -0.000460 
#    y 0.000000 1.853870 0.000000 
#    z -0.000460 0.000000 1.843810 
# 
# From -- ./inp_files/247339.got.cif
#   From: 2010.06.25/outbox.cif.g09.slc.cpg/sg15_124_cif.got.tgz:247339.got - 2010.06.28 07:06:18.
