data_PCOD8147310
_publ_section_title
;
Structure prediction by ZEFSAII (Michael W. Deem and Ramdas Pophale) SiO2 
 PCOD8147310
Probable space group: C 2/C
;
_chemical_formula_sum "Si O2"
_cell_formula_units_Z 40
_cell_length_a 11.475878
_cell_length_b 9.277046
_cell_length_c 17.203884
_cell_angle_alpha 90.000000
_cell_angle_beta 53.458896
_cell_angle_gamma 90.000000
_cell_volume 1471.533466
_symmetry_space_group_name_H-M "C 2/C"
_symmetry_group_IT_number 15
_symmetry_cell_setting 'monoclinic'
loop_
_space_group_symop_operation_xyz
x,y,z
-x,y,1/2-z
-x,-y,-z
x,-y,1/2+z
1/2+x,1/2+y,z
1/2-x,1/2+y,1/2-z
1/2-x,1/2-y,-z
1/2+x,1/2-y,1/2+z
loop_
_atom_site_type_symbol
_atom_site_label
_atom_site_fract_x
_atom_site_fract_y
_atom_site_fract_z
Si Si1 0.921186 0.743357 0.703012
Si Si2 0.645371 0.105483 0.497137
Si Si3 0.997149 0.323481 0.594628
Si Si4 0.711064 0.048995 0.209467
Si Si5 0.367196 0.537223 0.997938
O O1 0.852510 0.888664 0.696056
O O2 0.798299 0.621155 0.767620
O O3 0.000000 0.787462 0.750000
O O4 0.033202 0.683007 0.596877
O O5 0.638878 0.179008 0.414122
O O6 0.608685 0.934342 0.509543
O O7 0.812231 0.099284 0.465744
O O8 0.935028 0.372114 0.702843
O O9 0.081816 0.173799 0.572630
O O10 0.728938 0.074034 0.109328
O O11 0.500000 0.500000 0.000000
#
# Coordination Sequence:
#
# PCOD8147310 Si02
#       5
#     8   8   8   8   8
#     4  11  22  43  70  97 139 187 225 292 343 412
#     4  10  22  43  67  92 135 179 223 282 350 397
#     4  10  23  42  67  97 135 174 224 289 333 412
#     4  11  24  43  69 103 139 179 238 281 347 415
#     4  12  24  41  69 102 133 180 233 280 340 420
#
# _framework density 27.182527
#
# number of rings (size 3 to 8) (size 9 to 14) (size 15 to 20)
#    0.000    1.200    4.000    1.800    0.000    2.400 
#    0.000    1.000    0.000    0.000    0.000    0.000 
#    0.000    0.000    0.000    0.000    0.000    0.000 
#
# Total GULP energy -247985.209071 kJ/mol
# GULP energy per Si atom -12399.260454 kJ/mol
# Density = 2.712066 g / cm^3
# Si number density = 27.182527 Si / 1000 Ang^3
#
#
#
# Elastic Constant Matrix: (Units=GPa)
#
#
# Indices 1 2 3 4 5 6 
#
# 1 102.1055 22.1570 -0.6634 0.0000 -12.8008 0.0000
# 2 22.1570 84.9249 29.7819 0.0000 -4.6069 0.0000
# 3 -0.6634 29.7819 100.6463 0.0000 15.4506 0.0000
# 4 0.0000 0.0000 0.0000 15.1599 0.0000 10.4859
# 5 -12.8008 -4.6069 15.4506 0.0000 32.7206 0.0000
# 6 0.0000 0.0000 0.0000 10.4859 0.0000 51.3604
#
#
#
# Elastic Compliance Matrix: (Units=1/GPa)
#
#
# Indices 1 2 3 4 5 6 
#
# 1 0.010856 -0.002740 0.000312 0.000000 0.003714 0.000000
# 2 -0.002740 0.014328 -0.004747 0.000000 0.003187 0.000000
# 3 0.000312 -0.004747 0.012319 0.000000 -0.006363 0.000000
# 4 0.000000 0.000000 0.000000 0.076810 0.000000 -0.015682
# 5 0.003714 0.003187 -0.006363 0.000000 0.035468 0.000000
# 6 0.000000 0.000000 0.000000 -0.015682 0.000000 0.022672
#
#
# Mechanical properties :
#
#
# Convention : Reuss Voigt Hill
#
# Bulk Modulus (GPa) = 43.19077 43.35863 43.27470
# Shear Modulus (GPa) = 25.70420 35.60828 30.65624
#
# Velocity S-wave (km/s) = 3.07842 3.62328 3.36190
# Velocity P-wave (km/s) = 5.34408 5.78703 5.56996
#
# Compressibility (1/GPa) = 0.02315309
#
# Stress axis : x y z
#
# Youngs Moduli (GPa) = 92.11422 69.79525 81.17324
#
# Poissons Ratio (x) = 0.19127 -0.02536
# Poissons Ratio (y) = 0.25243 0.38532
# Poissons Ratio (z) = -0.02877 0.33131
#
# Static dielectric constant tensor:
#      x y z
#    x 5.592420 0.000000 0.109620 
#    y 0.000000 5.301960 0.000000 
#    z 0.109620 0.000000 5.492460 
# 
# 
# High freq. dielectric constant tensor:
#      x y z
#    x 2.105050 0.000000 -0.007630 
#    y 0.000000 2.096720 0.000000 
#    z -0.007630 0.000000 2.096810 
# 
# From -- ./inp_files/195896.got.cif
#   From: 2010.06.25/outbox.cif.g09.slc.cpg/sg15_98_cif.got.tgz:195896.got - 2010.06.28 07:06:18.
