data_PCOD8147753
_publ_section_title
;
Structure prediction by ZEFSAII (Michael W. Deem and Ramdas Pophale) SiO2 
 PCOD8147753
Probable space group: C 2/C
;
_chemical_formula_sum "Si O2"
_cell_formula_units_Z 60
_cell_length_a 21.441526
_cell_length_b 8.805295
_cell_length_c 26.543132
_cell_angle_alpha 90.000000
_cell_angle_beta 149.905085
_cell_angle_gamma 90.000000
_cell_volume 2512.843872
_symmetry_space_group_name_H-M "C 2/C"
_symmetry_group_IT_number 15
_symmetry_cell_setting 'monoclinic'
loop_
_space_group_symop_operation_xyz
x,y,z
-x,y,1/2-z
-x,-y,-z
x,-y,1/2+z
1/2+x,1/2+y,z
1/2-x,1/2+y,1/2-z
1/2-x,1/2-y,-z
1/2+x,1/2-y,1/2+z
loop_
_atom_site_type_symbol
_atom_site_label
_atom_site_fract_x
_atom_site_fract_y
_atom_site_fract_z
Si Si1 0.136961 0.297954 0.765026
Si Si2 0.611688 0.138772 0.559876
Si Si3 0.961417 0.993210 0.776697
Si Si4 0.796583 0.650389 0.426331
Si Si5 0.145594 0.562033 0.699050
Si Si6 0.000000 0.495348 0.750000
Si Si7 0.933132 0.705128 0.614876
Si Si8 0.095202 0.862527 0.075568
O O1 0.280228 0.259611 0.875648
O O2 0.120933 0.392019 0.702532
O O3 0.093997 0.391912 0.783903
O O4 0.062307 0.139612 0.704921
O O5 0.617695 0.075457 0.620818
O O6 0.482262 0.220603 0.456866
O O7 0.616933 0.993916 0.527052
O O8 0.842897 0.883122 0.687600
O O9 0.067690 0.884785 0.873133
O O10 0.000000 0.061399 0.750000
O O11 0.842485 0.807272 0.433218
O O12 0.809852 0.671441 0.495830
O O13 0.057716 0.675991 0.668753
O O14 0.292849 0.597170 0.808495
O O15 0.076072 0.603814 0.841225
O O16 0.000000 0.000000 0.000000
#
# Coordination Sequence:
#
# PCOD8147753 Si02
#       8
#     8   8   8   8   8   4   8   8
#     4  10  23  43  74 103 143 191 235 299 356 429
#     4  11  25  44  70 105 148 188 239 291 372 437
#     4  11  23  46  72 101 137 186 247 299 359 429
#     4  11  26  45  68 104 144 187 239 304 364 432
#     4  11  24  42  72 104 147 193 229 301 369 422
#     4  10  22  44  74 100 142 190 244 292 362 418
#     4  11  23  44  74  99 138 191 240 301 360 426
#     4  12  24  41  66 105 144 184 239 289 359 452
#
# _framework density 23.877327999999999
#
# number of rings (size 3 to 8) (size 9 to 14) (size 15 to 20)
#    0.000    1.067    5.333    0.400    1.867    3.733 
#    0.000    2.667    5.867    0.000    0.000    0.000 
#    0.000    0.000    0.000    0.000    0.000    0.000 
#
# Total GULP energy -372007.119979 kJ/mol
# GULP energy per Si atom -12400.237333 kJ/mol
# Density = 2.382298 g / cm^3
# Si number density = 23.877328 Si / 1000 Ang^3
#
#
#
# Elastic Constant Matrix: (Units=GPa)
#
#
# Indices 1 2 3 4 5 6 
#
# 1 79.4239 37.9479 9.1057 0.0001 -11.7025 0.0000
# 2 37.9479 119.0270 33.4198 0.0000 -12.2033 0.0000
# 3 9.1057 33.4198 61.6434 0.0004 -13.8396 -0.0001
# 4 0.0001 0.0000 0.0004 29.6286 0.0001 8.8851
# 5 -11.7025 -12.2033 -13.8396 0.0001 39.9482 0.0000
# 6 0.0000 0.0000 -0.0001 8.8851 0.0000 37.6445
#
#
#
# Elastic Compliance Matrix: (Units=1/GPa)
#
#
# Indices 1 2 3 4 5 6 
#
# 1 0.015272 -0.004838 0.001127 0.000000 0.003386 0.000000
# 2 -0.004838 0.011502 -0.005476 0.000000 0.000199 0.000000
# 3 0.001127 -0.005476 0.020303 0.000000 0.005691 0.000000
# 4 0.000000 0.000000 0.000000 0.036322 0.000000 -0.008573
# 5 0.003386 0.000199 0.005691 0.000000 0.028057 0.000000
# 6 0.000000 0.000000 0.000000 -0.008573 0.000000 0.028588
#
#
# Mechanical properties :
#
#
# Convention : Reuss Voigt Hill
#
# Bulk Modulus (GPa) = 34.84077 46.78235 40.81156
# Shear Modulus (GPa) = 29.76451 33.41900 31.59175
#
# Velocity S-wave (km/s) = 3.53450 3.74520 3.64137
# Velocity P-wave (km/s) = 5.59286 6.19171 5.89989
#
# Compressibility (1/GPa) = 0.02870201
#
# Stress axis : x y z
#
# Youngs Moduli (GPa) = 65.47887 86.94095 49.25501
#
# Poissons Ratio (x) = 0.42065 -0.05553
# Poissons Ratio (y) = 0.31681 0.26974
# Poissons Ratio (z) = -0.07383 0.47613
#
# Static dielectric constant tensor:
#      x y z
#    x 4.529980 0.000000 0.208890 
#    y 0.000000 4.483990 0.000000 
#    z 0.208890 0.000000 4.182880 
# 
# 
# High freq. dielectric constant tensor:
#      x y z
#    x 1.954560 0.000000 0.010100 
#    y 0.000000 1.959610 0.000000 
#    z 0.010100 0.000000 1.936770 
# 
# From -- ./inp_files/302081.got.cif
#   From: 2010.06.25/outbox.cif.g09.slc.cpg/sg15_152_cif.got.tgz:302081.got - 2010.06.28 07:06:18.
