data_PCOD8147265
_publ_section_title
;
Structure prediction by ZEFSAII (Michael W. Deem and Ramdas Pophale) SiO2 
 PCOD8147265
Probable space group: C 2/C
;
_chemical_formula_sum "Si O2"
_cell_formula_units_Z 40
_cell_length_a 19.054237
_cell_length_b 11.796479
_cell_length_c 21.045397
_cell_angle_alpha 90.000000
_cell_angle_beta 156.082704
_cell_angle_gamma 90.000000
_cell_volume 1917.801419
_symmetry_space_group_name_H-M "C 2/C"
_symmetry_group_IT_number 15
_symmetry_cell_setting 'monoclinic'
loop_
_space_group_symop_operation_xyz
x,y,z
-x,y,1/2-z
-x,-y,-z
x,-y,1/2+z
1/2+x,1/2+y,z
1/2-x,1/2+y,1/2-z
1/2-x,1/2-y,-z
1/2+x,1/2-y,1/2+z
loop_
_atom_site_type_symbol
_atom_site_label
_atom_site_fract_x
_atom_site_fract_y
_atom_site_fract_z
Si Si1 0.664933 0.958861 0.851859
Si Si2 0.697173 0.370305 0.930511
Si Si3 0.529483 0.612499 0.980308
Si Si4 0.843999 0.654959 0.879708
Si Si5 0.457221 0.025545 0.562781
O O1 0.500000 0.893546 0.750000
O O2 0.580826 0.030828 0.725929
O O3 0.758668 0.037719 0.979953
O O4 0.815930 0.886649 0.943988
O O5 0.500000 0.373404 0.750000
O O6 0.750000 0.250000 0.000000
O O7 0.792315 0.397392 0.942919
O O8 0.360409 0.645530 0.800884
O O9 0.500000 0.500000 0.000000
O O10 0.586829 0.716996 0.072376
O O11 0.936240 0.579047 0.904830
O O12 0.893631 0.601165 0.989721
#
# Coordination Sequence:
#
# PCOD8147265 Si02
#       5
#     8   8   8   8   8
#     4  10  22  44  65  97 133 172 224 280 335 409
#     4  11  23  39  64  94 135 178 230 281 342 401
#     4  12  25  43  69 100 136 180 230 279 347 405
#     4  11  25  42  68  97 139 176 231 281 336 408
#     4  10  22  43  65  97 134 177 224 281 343 398
#
# _framework density 20.857218
#
# number of rings (size 3 to 8) (size 9 to 14) (size 15 to 20)
#    0.000    1.200    2.000    4.200    5.600    1.600 
#    0.000   10.000    0.000    0.000    0.000    0.000 
#    0.000    0.000    0.000    0.000    0.000    0.000 
#
# Total GULP energy -247801.823076 kJ/mol
# GULP energy per Si atom -12390.091154 kJ/mol
# Density = 2.080975 g / cm^3
# Si number density = 20.857218 Si / 1000 Ang^3
#
#
#
# Elastic Constant Matrix: (Units=GPa)
#
#
# Indices 1 2 3 4 5 6 
#
# 1 83.8038 10.1171 45.7795 0.0009 21.4108 -0.0001
# 2 10.1171 78.2748 35.9600 -0.0005 14.3675 0.0001
# 3 45.7795 35.9600 178.1098 0.0006 16.6323 0.0020
# 4 0.0009 -0.0005 0.0006 30.3742 0.0014 6.1968
# 5 21.4108 14.3675 16.6323 0.0014 39.4129 0.0009
# 6 -0.0001 0.0001 0.0020 6.1968 0.0009 16.0271
#
#
#
# Elastic Compliance Matrix: (Units=1/GPa)
#
#
# Indices 1 2 3 4 5 6 
#
# 1 0.015617 0.000946 -0.003519 0.000000 -0.007344 0.000001
# 2 0.000946 0.014804 -0.002790 0.000000 -0.004733 0.000000
# 3 -0.003519 -0.002790 0.007088 0.000000 -0.000062 -0.000001
# 4 0.000000 0.000000 0.000000 0.035742 -0.000001 -0.013819
# 5 -0.007344 -0.004733 -0.000062 -0.000001 0.031114 -0.000001
# 6 0.000001 0.000000 -0.000001 -0.013819 -0.000001 0.067737
#
#
# Mechanical properties :
#
#
# Convention : Reuss Voigt Hill
#
# Bulk Modulus (GPa) = 37.33742 58.21128 47.77435
# Shear Modulus (GPa) = 26.07479 33.71830 29.89654
#
# Velocity S-wave (km/s) = 3.53959 4.02509 3.79012
# Velocity P-wave (km/s) = 5.88602 7.04072 6.48911
#
# Compressibility (1/GPa) = 0.02678278
#
# Stress axis : x y z
#
# Youngs Moduli (GPa) = 64.03227 67.55040 141.07931
#
# Poissons Ratio (x) = -0.06392 0.49651
# Poissons Ratio (y) = -0.06059 0.39362
# Poissons Ratio (z) = 0.22535 0.18847
#
# Static dielectric constant tensor:
#      x y z
#    x 4.126500 -0.000020 0.291790 
#    y -0.000020 3.716370 -0.000010 
#    z 0.291790 -0.000010 4.263370 
# 
# 
# High freq. dielectric constant tensor:
#      x y z
#    x 1.827880 0.000000 0.008250 
#    y 0.000000 1.797560 0.000000 
#    z 0.008250 0.000000 1.844710 
# 
# From -- ./inp_files/46197.got.cif
#   From: 2010.06.25/outbox.cif.g09.slc.cpg/sg15_24_cif.got.tgz:46197.got - 2010.06.28 07:06:18.
