data_PCOD8147020
_publ_section_title
;
Structure prediction by ZEFSAII (Michael W. Deem and Ramdas Pophale) SiO2 
 PCOD8147020
Probable space group: C 2/C
;
_chemical_formula_sum "Si O2"
_cell_formula_units_Z 56
_cell_length_a 6.160848
_cell_length_b 25.129901
_cell_length_c 16.875969
_cell_angle_alpha 90.000000
_cell_angle_beta 108.541041
_cell_angle_gamma 90.000000
_cell_volume 2477.150328
_symmetry_space_group_name_H-M "C 2/C"
_symmetry_group_IT_number 15
_symmetry_cell_setting 'monoclinic'
loop_
_space_group_symop_operation_xyz
x,y,z
-x,y,1/2-z
-x,-y,-z
x,-y,1/2+z
1/2+x,1/2+y,z
1/2-x,1/2+y,1/2-z
1/2-x,1/2-y,-z
1/2+x,1/2-y,1/2+z
loop_
_atom_site_type_symbol
_atom_site_label
_atom_site_fract_x
_atom_site_fract_y
_atom_site_fract_z
Si Si1 0.109560 0.318301 0.601590
Si Si2 0.233095 0.096720 0.037613
Si Si3 0.746645 0.459531 0.689760
Si Si4 0.034757 0.212351 0.848194
Si Si5 0.500000 0.366097 0.750000
Si Si6 0.831762 0.612910 0.883176
Si Si7 0.215307 0.840597 0.042828
Si Si8 0.500000 0.546689 0.750000
O O1 0.942809 0.272898 0.619448
O O2 0.337693 0.326972 0.680426
O O3 0.178356 0.305889 0.517671
O O4 0.959759 0.371088 0.588185
O O5 0.234887 0.044955 0.093420
O O6 0.256944 0.077552 0.949914
O O7 0.004749 0.131451 0.020428
O O8 0.656616 0.403451 0.713178
O O9 0.580963 0.508816 0.688738
O O10 0.000000 0.472021 0.750000
O O11 0.827598 0.191832 0.880851
O O12 0.000000 0.210311 0.750000
O O13 0.252200 0.174494 0.889923
O O14 0.710989 0.585535 0.794851
O O15 0.104670 0.614239 0.906813
#
# Coordination Sequence:
#
# PCOD8147020 Si02
#       8
#     8   8   8   8   4   8   8   4
#     4  11  23  39  68 100 140 176 219 272 330 395
#     4  10  22  42  68  98 136 172 216 276 335 393
#     4  11  23  42  70 100 129 168 216 284 339 400
#     4  11  25  41  64 101 136 180 229 268 319 396
#     4  11  22  38  66 102 136 166 218 269 340 402
#     4  10  24  47  64  93 137 177 223 278 319 401
#     4  10  23  43  68  92 141 181 220 265 335 390
#     4  11  26  46  68  96 128 170 230 279 344 390
#
# _framework density 22.606619999999999
#
# number of rings (size 3 to 8) (size 9 to 14) (size 15 to 20)
#    0.000    1.429    3.571    0.429    2.000   10.857 
#    0.000    1.429    0.000    0.000    0.000    0.000 
#    0.000    0.000    0.000    0.000    0.000    0.000 
#
# Total GULP energy -347005.603645 kJ/mol
# GULP energy per Si atom -12393.057273 kJ/mol
# Density = 2.255517 g / cm^3
# Si number density = 22.606620 Si / 1000 Ang^3
#
#
#
# Elastic Constant Matrix: (Units=GPa)
#
#
# Indices 1 2 3 4 5 6 
#
# 1 82.0184 16.8040 36.4388 0.0000 -0.3640 0.0000
# 2 16.8040 70.0615 27.2274 0.0000 -0.1499 0.0000
# 3 36.4388 27.2274 126.3087 0.0000 -4.6643 0.0000
# 4 0.0000 0.0000 0.0000 20.1601 0.0000 -1.1285
# 5 -0.3640 -0.1499 -4.6643 0.0000 35.7008 0.0000
# 6 0.0000 0.0000 0.0000 -1.1285 0.0000 12.8739
#
#
#
# Elastic Compliance Matrix: (Units=1/GPa)
#
#
# Indices 1 2 3 4 5 6 
#
# 1 0.014237 -0.001980 -0.003693 0.000000 -0.000346 0.000000
# 2 -0.001980 0.015859 -0.002859 0.000000 -0.000327 0.000000
# 3 -0.003693 -0.002859 0.009644 0.000000 0.001210 0.000000
# 4 0.000000 0.000000 0.000000 0.049848 0.000000 0.004370
# 5 -0.000346 -0.000327 0.001210 0.000000 0.028164 0.000000
# 6 0.000000 0.000000 0.000000 0.004370 0.000000 0.078060
#
#
# Mechanical properties :
#
#
# Convention : Reuss Voigt Hill
#
# Bulk Modulus (GPa) = 44.10335 48.81433 46.45884
# Shear Modulus (GPa) = 22.68251 26.94152 24.81202
#
# Velocity S-wave (km/s) = 3.17102 3.45592 3.31653
# Velocity P-wave (km/s) = 5.74095 6.12898 5.93813
#
# Compressibility (1/GPa) = 0.02267402
#
# Stress axis : x y z
#
# Youngs Moduli (GPa) = 70.23765 63.05717 103.69537
#
# Poissons Ratio (x) = 0.12487 0.38297
# Poissons Ratio (y) = 0.13909 0.29650
# Poissons Ratio (z) = 0.25940 0.18030
#
# Static dielectric constant tensor:
#      x y z
#    x 4.181010 0.000000 -0.176030 
#    y 0.000000 3.757550 0.000000 
#    z -0.176030 0.000000 4.150990 
# 
# 
# High freq. dielectric constant tensor:
#      x y z
#    x 1.899180 0.000000 -0.005550 
#    y 0.000000 1.863400 0.000000 
#    z -0.005550 0.000000 1.902590 
# 
# From -- ./inp_files/186254.got.cif
#   From: 2010.06.25/outbox.cif.g09.slc.cpg/sg15_94_cif.got.tgz:186254.got - 2010.06.28 07:06:18.
