data_PCOD8147035
_publ_section_title
;
Structure prediction by ZEFSAII (Michael W. Deem and Ramdas Pophale) SiO2 
 PCOD8147035
Probable space group: C 2/C
;
_chemical_formula_sum "Si O2"
_cell_formula_units_Z 36
_cell_length_a 12.716256
_cell_length_b 14.022315
_cell_length_c 11.759462
_cell_angle_alpha 90.000000
_cell_angle_beta 46.548816
_cell_angle_gamma 90.000000
_cell_volume 1522.227196
_symmetry_space_group_name_H-M "C 2/C"
_symmetry_group_IT_number 15
_symmetry_cell_setting 'monoclinic'
loop_
_space_group_symop_operation_xyz
x,y,z
-x,y,1/2-z
-x,-y,-z
x,-y,1/2+z
1/2+x,1/2+y,z
1/2-x,1/2+y,1/2-z
1/2-x,1/2-y,-z
1/2+x,1/2-y,1/2+z
loop_
_atom_site_type_symbol
_atom_site_label
_atom_site_fract_x
_atom_site_fract_y
_atom_site_fract_z
Si Si1 0.816499 0.595247 0.698295
Si Si2 0.500000 0.572049 0.250000
Si Si3 0.181570 0.811104 0.784672
Si Si4 0.489677 0.395765 0.380111
Si Si5 0.042528 0.590215 0.340607
O O1 0.843259 0.700837 0.726854
O O2 0.646764 0.579803 0.812096
O O3 0.880155 0.512986 0.732607
O O4 0.893577 0.581826 0.519683
O O5 0.377730 0.634942 0.281336
O O6 0.423135 0.501766 0.401057
O O7 0.351176 0.834903 0.674305
O O8 0.103670 0.837085 0.961238
O O9 0.500000 0.339237 0.250000
O O10 0.000000 0.631017 0.250000
#
# Coordination Sequence:
#
# PCOD8147035 Si02
#       5
#     8   4   8   8   8
#     4  11  25  42  63 102 128 166 217 262 331 374
#     4  10  24  42  68  92 128 174 218 266 304 394
#     4  12  24  44  68  96 127 176 219 258 319 390
#     4  10  22  42  69  90 129 169 220 259 316 379
#     4  11  25  44  65  95 138 164 207 276 326 373
#
# _framework density 23.649557000000001
#
# number of rings (size 3 to 8) (size 9 to 14) (size 15 to 20)
#    0.667    0.444    2.222    3.333    1.556    5.333 
#    0.000    2.222    0.000    0.000    0.000    0.000 
#    0.000    0.000    0.000    0.000    0.000    0.000 
#
# Total GULP energy -223109.526009 kJ/mol
# GULP energy per Si atom -12394.973667 kJ/mol
# Density = 2.359573 g / cm^3
# Si number density = 23.649557 Si / 1000 Ang^3
#
#
#
# Elastic Constant Matrix: (Units=GPa)
#
#
# Indices 1 2 3 4 5 6 
#
# 1 106.3736 13.7886 6.7319 0.0000 1.4665 0.0000
# 2 13.7886 140.4192 -12.4387 0.0000 -3.7056 0.0000
# 3 6.7319 -12.4387 56.4814 0.0000 -6.6251 0.0000
# 4 0.0000 0.0000 0.0000 21.1962 0.0000 0.3818
# 5 1.4665 -3.7056 -6.6251 0.0000 16.8266 0.0000
# 6 0.0000 0.0000 0.0000 0.3818 0.0000 11.5531
#
#
#
# Elastic Compliance Matrix: (Units=1/GPa)
#
#
# Indices 1 2 3 4 5 6 
#
# 1 0.009674 -0.001138 -0.001606 0.000000 -0.001726 0.000000
# 2 -0.001138 0.007486 0.002085 0.000000 0.002569 0.000000
# 3 -0.001606 0.002085 0.019318 0.000000 0.008205 0.000000
# 4 0.000000 0.000000 0.000000 0.047206 0.000000 -0.001560
# 5 -0.001726 0.002569 0.008205 0.000000 0.063376 0.000000
# 6 0.000000 0.000000 0.000000 -0.001560 0.000000 0.086608
#
#
# Mechanical properties :
#
#
# Convention : Reuss Voigt Hill
#
# Bulk Modulus (GPa) = 28.44055 35.49311 31.96683
# Shear Modulus (GPa) = 20.26708 29.59468 24.93088
#
# Velocity S-wave (km/s) = 2.93059 3.54133 3.25034
# Velocity P-wave (km/s) = 4.84800 5.63577 5.25666
#
# Compressibility (1/GPa) = 0.03516107
#
# Stress axis : x y z
#
# Youngs Moduli (GPa) = 103.37265 133.58664 51.76499
#
# Poissons Ratio (x) = 0.15199 0.08314
# Poissons Ratio (y) = 0.11761 -0.10795
# Poissons Ratio (z) = 0.16602 -0.27859
#
# Static dielectric constant tensor:
#      x y z
#    x 4.206800 0.000000 -0.066200 
#    y 0.000000 4.463400 0.000000 
#    z -0.066200 0.000000 4.067240 
# 
# 
# High freq. dielectric constant tensor:
#      x y z
#    x 1.935120 0.000000 -0.006830 
#    y 0.000000 1.945830 0.000000 
#    z -0.006830 0.000000 1.920980 
# 
# From -- ./inp_files/153206.got.cif
#   From: 2010.06.25/outbox.cif.g09.slc.cpg/sg15_77_cif.got.tgz:153206.got - 2010.06.28 07:06:18.
