data_PCOD8147075
_publ_section_title
;
Structure prediction by ZEFSAII (Michael W. Deem and Ramdas Pophale) SiO2 
 PCOD8147075
Probable space group: C 2/C
;
_chemical_formula_sum "Si O2"
_cell_formula_units_Z 40
_cell_length_a 16.376647
_cell_length_b 15.559052
_cell_length_c 7.290214
_cell_angle_alpha 90.000000
_cell_angle_beta 50.894449
_cell_angle_gamma 90.000000
_cell_volume 1441.457666
_symmetry_space_group_name_H-M "C 2/C"
_symmetry_group_IT_number 15
_symmetry_cell_setting 'monoclinic'
loop_
_space_group_symop_operation_xyz
x,y,z
-x,y,1/2-z
-x,-y,-z
x,-y,1/2+z
1/2+x,1/2+y,z
1/2-x,1/2+y,1/2-z
1/2-x,1/2-y,-z
1/2+x,1/2-y,1/2+z
loop_
_atom_site_type_symbol
_atom_site_label
_atom_site_fract_x
_atom_site_fract_y
_atom_site_fract_z
Si Si1 0.384183 0.473046 0.216120
Si Si2 0.370121 0.889421 0.766035
Si Si3 0.326186 0.636032 0.144237
Si Si4 0.438274 0.208676 0.660944
Si Si5 0.794260 0.421312 0.264721
O O1 0.314655 0.564558 0.329560
O O2 0.328295 0.421226 0.128442
O O3 0.500000 0.500000 0.000000
O O4 0.617109 0.421481 0.094026
O O5 0.283701 0.829290 0.781058
O O6 0.484827 0.858556 0.548929
O O7 0.341480 0.986489 0.748384
O O8 0.358904 0.882773 0.998437
O O9 0.407714 0.709826 0.080869
O O10 0.500000 0.244007 0.750000
O O11 0.330711 0.153345 0.861009
#
# Coordination Sequence:
#
# PCOD8147075 Si02
#       5
#     8   8   8   8   8
#     4  10  22  43  71  99 136 178 225 286 355 426
#     4  10  22  44  71  99 141 185 230 295 360 423
#     4  10  25  45  68 101 135 183 237 289 359 430
#     4  12  26  43  69 104 143 186 240 298 351 419
#     4  10  22  42  70 104 138 182 234 286 357 428
#
# _framework density 27.749687000000002
#
# number of rings (size 3 to 8) (size 9 to 14) (size 15 to 20)
#    0.000    1.600    0.000    3.000    0.000   12.000 
#    0.000    0.000    0.000    0.000    0.000    0.000 
#    0.000    0.000    0.000    0.000    0.000    0.000 
#
# Total GULP energy -247790.668199 kJ/mol
# GULP energy per Si atom -12389.533410 kJ/mol
# Density = 2.768653 g / cm^3
# Si number density = 27.749687 Si / 1000 Ang^3
#
#
#
# Elastic Constant Matrix: (Units=GPa)
#
#
# Indices 1 2 3 4 5 6 
#
# 1 223.6842 86.6605 38.7049 0.0000 -19.8023 0.0000
# 2 86.6605 139.9005 20.5450 0.0000 -11.0061 0.0000
# 3 38.7049 20.5450 20.7570 0.0000 -10.1870 0.0000
# 4 0.0000 0.0000 0.0000 24.9226 0.0000 0.3127
# 5 -19.8023 -11.0061 -10.1870 0.0000 47.6901 0.0000
# 6 0.0000 0.0000 0.0000 0.3127 0.0000 61.1934
#
#
#
# Elastic Compliance Matrix: (Units=1/GPa)
#
#
# Indices 1 2 3 4 5 6 
#
# 1 0.007578 -0.003064 -0.011061 0.000000 0.000077 0.000000
# 2 -0.003064 0.009604 -0.003719 0.000000 0.000150 0.000000
# 3 -0.011061 -0.003719 0.077981 0.000000 0.011207 0.000000
# 4 0.000000 0.000000 0.000000 0.040127 0.000000 -0.000205
# 5 0.000077 0.000150 0.011207 0.000000 0.023429 0.000000
# 6 0.000000 0.000000 0.000000 -0.000205 0.000000 0.016343
#
#
# Mechanical properties :
#
#
# Convention : Reuss Voigt Hill
#
# Bulk Modulus (GPa) = 16.81332 75.12917 45.97124
# Shear Modulus (GPa) = 21.68498 42.65664 32.17081
#
# Velocity S-wave (km/s) = 2.79847 3.92496 3.40857
# Velocity P-wave (km/s) = 4.06374 6.90457 5.66512
#
# Compressibility (1/GPa) = 0.05947665
#
# Stress axis : x y z
#
# Youngs Moduli (GPa) = 131.95556 104.12517 12.82359
#
# Poissons Ratio (x) = 0.31904 0.14184
# Poissons Ratio (y) = 0.40431 0.04769
# Poissons Ratio (z) = 1.45950 0.38723
#
# Static dielectric constant tensor:
#      x y z
#    x 6.111580 0.000000 0.342760 
#    y 0.000000 4.911420 0.000000 
#    z 0.342760 0.000000 6.010590 
# 
# 
# High freq. dielectric constant tensor:
#      x y z
#    x 2.176510 0.000000 0.009520 
#    y 0.000000 2.096250 0.000000 
#    z 0.009520 0.000000 2.133420 
# 
# From -- ./inp_files/48306.got.cif
#   From: 2010.06.25/outbox.cif.g09.slc.cpg/sg15_25_cif.got.tgz:48306.got - 2010.06.28 07:06:18.
