data_PCOD8147751
_publ_section_title
;
Structure prediction by ZEFSAII (Michael W. Deem and Ramdas Pophale) SiO2 
 PCOD8147751
Probable space group: C 2/C
;
_chemical_formula_sum "Si O2"
_cell_formula_units_Z 56
_cell_length_a 12.680207
_cell_length_b 17.002775
_cell_length_c 13.107958
_cell_angle_alpha 90.000000
_cell_angle_beta 59.793430
_cell_angle_gamma 90.000000
_cell_volume 2442.328377
_symmetry_space_group_name_H-M "C 2/C"
_symmetry_group_IT_number 15
_symmetry_cell_setting 'monoclinic'
loop_
_space_group_symop_operation_xyz
x,y,z
-x,y,1/2-z
-x,-y,-z
x,-y,1/2+z
1/2+x,1/2+y,z
1/2-x,1/2+y,1/2-z
1/2-x,1/2-y,-z
1/2+x,1/2-y,1/2+z
loop_
_atom_site_type_symbol
_atom_site_label
_atom_site_fract_x
_atom_site_fract_y
_atom_site_fract_z
Si Si1 0.261211 0.828522 0.930582
Si Si2 0.450032 0.178776 0.881453
Si Si3 0.000000 0.149523 0.750000
Si Si4 0.607185 0.976872 0.310019
Si Si5 0.500000 0.112279 0.250000
Si Si6 0.218643 0.960166 0.097379
Si Si7 0.501415 0.689648 0.976683
Si Si8 0.720539 0.410849 0.443373
O O1 0.383691 0.828507 0.804045
O O2 0.250000 0.750000 0.000000
O O3 0.289212 0.902162 0.988182
O O4 0.135899 0.839406 0.926418
O O5 0.500000 0.217011 0.750000
O O6 0.522731 0.098750 0.865471
O O7 0.305688 0.160523 0.942629
O O8 0.470023 0.233525 0.970381
O O9 0.114375 0.090958 0.701890
O O10 0.998663 0.203077 0.854086
O O11 0.684455 0.994643 0.371749
O O12 0.701165 0.964377 0.171307
O O13 0.521509 0.052711 0.334735
O O14 0.168761 0.035431 0.060028
O O15 0.599948 0.622798 0.949388
#
# Coordination Sequence:
#
# PCOD8147751 Si02
#       8
#     8   8   4   8   4   8   8   8
#     4  11  26  45  67 104 141 190 238 303 366 436
#     4  10  22  44  73 108 147 186 245 300 367 436
#     4  10  24  41  68  97 150 202 226 304 364 431
#     4  11  21  44  76 101 140 191 240 304 357 437
#     4  12  24  49  72 103 140 186 254 292 370 439
#     4  11  23  42  70 102 141 185 246 292 366 432
#     4  11  24  46  71 106 154 188 245 300 371 445
#     4  11  22  44  74 105 140 191 240 305 365 431
#
# _framework density 22.928939
#
# number of rings (size 3 to 8) (size 9 to 14) (size 15 to 20)
#    0.000    1.143    5.000    1.286    0.000    9.143 
#    9.000    0.000    0.000    0.000    0.000    0.000 
#    0.000    0.000    0.000    0.000    0.000    0.000 
#
# Total GULP energy -346993.485478 kJ/mol
# GULP energy per Si atom -12392.624481 kJ/mol
# Density = 2.287675 g / cm^3
# Si number density = 22.928939 Si / 1000 Ang^3
#
#
#
# Elastic Constant Matrix: (Units=GPa)
#
#
# Indices 1 2 3 4 5 6 
#
# 1 163.4636 48.0334 56.7109 0.0000 -2.9627 0.0000
# 2 48.0334 92.3004 48.7581 0.0000 8.8590 0.0000
# 3 56.7109 48.7581 82.1017 0.0000 -2.9985 0.0000
# 4 0.0000 0.0000 0.0000 37.3671 0.0000 -1.2851
# 5 -2.9627 8.8590 -2.9985 0.0000 49.3385 0.0000
# 6 0.0000 0.0000 0.0000 -1.2851 0.0000 34.2735
#
#
#
# Elastic Compliance Matrix: (Units=1/GPa)
#
#
# Indices 1 2 3 4 5 6 
#
# 1 0.008278 -0.001973 -0.004525 0.000000 0.000576 0.000000
# 2 -0.001973 0.016851 -0.008779 0.000000 -0.003678 0.000000
# 3 -0.004525 -0.008779 0.020613 0.000000 0.002557 0.000000
# 4 0.000000 0.000000 0.000000 0.026796 0.000000 0.001005
# 5 0.000576 -0.003678 0.002557 0.000000 0.021119 0.000000
# 6 0.000000 0.000000 0.000000 0.001005 0.000000 0.029215
#
#
# Mechanical properties :
#
#
# Convention : Reuss Voigt Hill
#
# Bulk Modulus (GPa) = 65.84258 71.65228 68.74743
# Shear Modulus (GPa) = 31.54809 36.48673 34.01741
#
# Velocity S-wave (km/s) = 3.71335 3.99343 3.85593
# Velocity P-wave (km/s) = 6.86757 7.25127 7.06203
#
# Compressibility (1/GPa) = 0.01518774
#
# Stress axis : x y z
#
# Youngs Moduli (GPa) = 120.80851 59.34196 48.51309
#
# Poissons Ratio (x) = 0.11705 0.21953
# Poissons Ratio (y) = 0.23830 0.42592
# Poissons Ratio (z) = 0.54668 0.52099
#
# Static dielectric constant tensor:
#      x y z
#    x 4.483700 0.000000 -0.159410 
#    y 0.000000 3.874740 0.000000 
#    z -0.159410 0.000000 4.239970 
# 
# 
# High freq. dielectric constant tensor:
#      x y z
#    x 1.924200 0.000000 -0.011110 
#    y 0.000000 1.897660 0.000000 
#    z -0.011110 0.000000 1.896980 
# 
# From -- ./inp_files/146016.got.cif
#   From: 2010.06.25/outbox.cif.g09.slc.cpg/sg15_74_cif.got.tgz:146016.got - 2010.06.28 07:06:18.
