data_PCOD8147054
_publ_section_title
;
Structure prediction by ZEFSAII (Michael W. Deem and Ramdas Pophale) SiO2 
 PCOD8147054
Probable space group: C 2/C
;
_chemical_formula_sum "Si O2"
_cell_formula_units_Z 36
_cell_length_a 12.501445
_cell_length_b 16.055547
_cell_length_c 8.893043
_cell_angle_alpha 90.000000
_cell_angle_beta 86.970723
_cell_angle_gamma 90.000000
_cell_volume 1782.495460
_symmetry_space_group_name_H-M "C 2/C"
_symmetry_group_IT_number 15
_symmetry_cell_setting 'monoclinic'
loop_
_space_group_symop_operation_xyz
x,y,z
-x,y,1/2-z
-x,-y,-z
x,-y,1/2+z
1/2+x,1/2+y,z
1/2-x,1/2+y,1/2-z
1/2-x,1/2-y,-z
1/2+x,1/2-y,1/2+z
loop_
_atom_site_type_symbol
_atom_site_label
_atom_site_fract_x
_atom_site_fract_y
_atom_site_fract_z
Si Si1 0.735539 0.429658 0.298862
Si Si2 0.310393 0.077517 0.121480
Si Si3 0.000000 0.323088 0.750000
Si Si4 0.655577 0.701475 0.585754
Si Si5 0.611616 0.586212 0.321267
O O1 0.809153 0.479711 0.171569
O O2 0.803920 0.413031 0.443089
O O3 0.697728 0.341797 0.235148
O O4 0.632317 0.487467 0.348662
O O5 0.420387 0.118919 0.162836
O O6 0.208674 0.122703 0.210369
O O7 0.938123 0.265976 0.873024
O O8 0.750000 0.750000 0.500000
O O9 0.608484 0.630435 0.481938
O O10 0.500000 0.602285 0.250000
#
# Coordination Sequence:
#
# PCOD8147054 Si02
#       5
#     8   8   4   8   8
#     4  10  22  43  74  95 134 180 238 277 336 412
#     4  10  23  45  66 105 131 184 233 279 338 420
#     4  12  28  40  72 100 150 176 226 284 360 392
#     4  12  25  46  65 104 145 176 221 297 341 400
#     4  10  22  42  69  98 133 174 235 281 335 400
#
# _framework density 20.196404000000001
#
# number of rings (size 3 to 8) (size 9 to 14) (size 15 to 20)
#    1.333    0.000    4.444    0.000    4.667    5.333 
#    0.000    0.000    0.000    0.000    0.000    0.000 
#    0.000    0.000    0.000    0.000    0.000    0.000 
#
# Total GULP energy -223181.181030 kJ/mol
# GULP energy per Si atom -12398.954502 kJ/mol
# Density = 2.015044 g / cm^3
# Si number density = 20.196404 Si / 1000 Ang^3
#
#
#
# Elastic Constant Matrix: (Units=GPa)
#
#
# Indices 1 2 3 4 5 6 
#
# 1 147.0415 46.6892 54.7138 0.0000 15.6538 0.0000
# 2 46.6892 65.6494 19.0638 0.0000 11.5061 0.0000
# 3 54.7138 19.0638 100.2392 0.0000 33.4603 0.0000
# 4 0.0000 0.0000 0.0000 34.8852 0.0000 -4.1455
# 5 15.6538 11.5061 33.4603 0.0000 41.5339 0.0000
# 6 0.0000 0.0000 0.0000 -4.1455 0.0000 31.2803
#
#
#
# Elastic Compliance Matrix: (Units=1/GPa)
#
#
# Indices 1 2 3 4 5 6 
#
# 1 0.010538 -0.006328 -0.005208 0.000000 0.001978 0.000000
# 2 -0.006328 0.020153 0.000942 0.000000 -0.003957 0.000000
# 3 -0.005208 0.000942 0.016512 0.000000 -0.011600 0.000000
# 4 0.000000 0.000000 0.000000 0.029124 0.000000 0.003860
# 5 0.001978 -0.003957 -0.011600 0.000000 0.033773 0.000000
# 6 0.000000 0.000000 0.000000 0.003860 0.000000 0.032481
#
#
# Mechanical properties :
#
#
# Convention : Reuss Voigt Hill
#
# Bulk Modulus (GPa) = 38.44090 61.54041 49.99065
# Shear Modulus (GPa) = 28.99546 34.37079 31.68312
#
# Velocity S-wave (km/s) = 3.79314 4.12980 3.96504
# Velocity P-wave (km/s) = 6.18536 7.29914 6.76521
#
# Compressibility (1/GPa) = 0.02601396
#
# Stress axis : x y z
#
# Youngs Moduli (GPa) = 94.89701 49.62034 60.56170
#
# Poissons Ratio (x) = 0.31402 0.31543
# Poissons Ratio (y) = 0.60055 -0.05707
# Poissons Ratio (z) = 0.49426 -0.04676
#
# Static dielectric constant tensor:
#      x y z
#    x 3.453150 0.000000 0.020380 
#    y 0.000000 3.585930 0.000000 
#    z 0.020380 0.000000 3.643750 
# 
# 
# High freq. dielectric constant tensor:
#      x y z
#    x 1.780490 0.000000 0.008850 
#    y 0.000000 1.780870 0.000000 
#    z 0.008850 0.000000 1.793510 
# 
# From -- ./inp_files/28724.got.cif
#   From: 2010.06.25/outbox.cif.g09.slc.cpg/sg15_15_cif.got.tgz:28724.got - 2010.06.28 07:06:18.
