data_PCOD8147534
_publ_section_title
;
Structure prediction by ZEFSAII (Michael W. Deem and Ramdas Pophale) SiO2 
 PCOD8147534
Probable space group: C 2/C
;
_chemical_formula_sum "Si O2"
_cell_formula_units_Z 56
_cell_length_a 12.787535
_cell_length_b 7.611396
_cell_length_c 30.526815
_cell_angle_alpha 90.000000
_cell_angle_beta 115.347458
_cell_angle_gamma 90.000000
_cell_volume 2685.162113
_symmetry_space_group_name_H-M "C 2/C"
_symmetry_group_IT_number 15
_symmetry_cell_setting 'monoclinic'
loop_
_space_group_symop_operation_xyz
x,y,z
-x,y,1/2-z
-x,-y,-z
x,-y,1/2+z
1/2+x,1/2+y,z
1/2-x,1/2+y,1/2-z
1/2-x,1/2-y,-z
1/2+x,1/2-y,1/2+z
loop_
_atom_site_type_symbol
_atom_site_label
_atom_site_fract_x
_atom_site_fract_y
_atom_site_fract_z
Si Si1 0.684637 0.819833 0.554541
Si Si2 0.451834 0.502733 0.358757
Si Si3 0.232695 0.651475 0.785948
Si Si4 0.831561 0.942252 0.659585
Si Si5 0.748465 0.274296 0.691946
Si Si6 0.730718 0.985728 0.974192
Si Si7 0.555985 0.706994 0.955474
O O1 0.727873 0.900420 0.607684
O O2 0.759444 0.644207 0.558328
O O3 0.548534 0.780582 0.534064
O O4 0.704568 0.954539 0.519012
O O5 0.370081 0.350063 0.323229
O O6 0.545579 0.567279 0.341103
O O7 0.371724 0.673503 0.354283
O O8 0.511074 0.438107 0.413635
O O9 0.167124 0.802376 0.800934
O O10 0.180062 0.456867 0.787386
O O11 0.216179 0.684941 0.731989
O O12 0.818752 0.140104 0.674842
O O13 0.623411 0.861407 0.940942
O O14 0.852324 0.881812 0.995043
#
# Coordination Sequence:
#
# PCOD8147534 Si02
#       7
#     8   8   8   8   8   8   8
#     4  11  22  41  64  93 131 176 224 267 328 390
#     4  10  24  41  64  99 128 168 222 271 317 406
#     4  10  22  44  65  95 127 165 211 271 331 398
#     4  12  22  44  67  95 134 170 216 275 325 395
#     4  10  23  43  68  93 129 165 215 270 331 396
#     4  10  24  40  63  96 133 175 226 271 325 394
#     4  11  21  43  63  93 133 174 219 274 331 377
#
# _framework density 20.855350000000001
#
# number of rings (size 3 to 8) (size 9 to 14) (size 15 to 20)
#    0.857    0.571    4.286    0.857    0.000    5.714 
#    5.143    1.429    0.000    0.000    0.000    0.000 
#    0.000    0.000    0.000    0.000    0.000    0.000 
#
# Total GULP energy -347131.365169 kJ/mol
# GULP energy per Si atom -12397.548756 kJ/mol
# Density = 2.080788 g / cm^3
# Si number density = 20.855350 Si / 1000 Ang^3
#
#
#
# Elastic Constant Matrix: (Units=GPa)
#
#
# Indices 1 2 3 4 5 6 
#
# 1 64.8059 10.4089 -13.7660 0.0000 2.4804 0.0000
# 2 10.4089 108.5451 7.2092 0.0000 2.6386 0.0000
# 3 -13.7660 7.2092 45.9395 0.0000 -0.8853 0.0000
# 4 0.0000 0.0000 0.0000 24.1156 0.0000 0.0499
# 5 2.4804 2.6386 -0.8853 0.0000 13.9010 0.0000
# 6 0.0000 0.0000 0.0000 0.0499 0.0000 31.2571
#
#
#
# Elastic Compliance Matrix: (Units=1/GPa)
#
#
# Indices 1 2 3 4 5 6 
#
# 1 0.016963 -0.001925 0.005340 0.000000 -0.002321 0.000000
# 2 -0.001925 0.009577 -0.002111 0.000000 -0.001609 0.000000
# 3 0.005340 -0.002111 0.023718 0.000000 0.000958 0.000000
# 4 0.000000 0.000000 0.000000 0.041467 0.000000 -0.000066
# 5 -0.002321 -0.001609 0.000958 0.000000 0.072718 0.000000
# 6 0.000000 0.000000 0.000000 -0.000066 0.000000 0.031993
#
#
# Mechanical properties :
#
#
# Convention : Reuss Voigt Hill
#
# Bulk Modulus (GPa) = 18.91532 25.22162 22.06847
# Shear Modulus (GPa) = 23.64645 28.21729 25.93187
#
# Velocity S-wave (km/s) = 3.37089 3.68231 3.53004
# Velocity P-wave (km/s) = 4.92342 5.49536 5.21723
#
# Compressibility (1/GPa) = 0.05286720
#
# Stress axis : x y z
#
# Youngs Moduli (GPa) = 58.95134 104.42080 42.16254
#
# Poissons Ratio (x) = 0.20100 -0.22517
# Poissons Ratio (y) = 0.11348 0.08899
# Poissons Ratio (z) = -0.31483 0.22040
#
# Static dielectric constant tensor:
#      x y z
#    x 3.759420 0.000000 0.010560 
#    y 0.000000 3.986360 0.000000 
#    z 0.010560 0.000000 3.535590 
# 
# 
# High freq. dielectric constant tensor:
#      x y z
#    x 1.812910 0.000000 -0.002650 
#    y 0.000000 1.826050 0.000000 
#    z -0.002650 0.000000 1.803020 
# 
# From -- ./inp_files/310051.got.cif
#   From: 2010.06.25/outbox.cif.g09.slc.cpg/sg15_156_cif.got.tgz:310051.got - 2010.06.28 07:06:18.
