data_PCOD8147170
_publ_section_title
;
Structure prediction by ZEFSAII (Michael W. Deem and Ramdas Pophale) SiO2 
 PCOD8147170
Probable space group: C 2/C
;
_chemical_formula_sum "Si O2"
_cell_formula_units_Z 36
_cell_length_a 9.282267
_cell_length_b 12.556486
_cell_length_c 26.353529
_cell_angle_alpha 90.000000
_cell_angle_beta 147.261155
_cell_angle_gamma 90.000000
_cell_volume 1661.140027
_symmetry_space_group_name_H-M "C 2/C"
_symmetry_group_IT_number 15
_symmetry_cell_setting 'monoclinic'
loop_
_space_group_symop_operation_xyz
x,y,z
-x,y,1/2-z
-x,-y,-z
x,-y,1/2+z
1/2+x,1/2+y,z
1/2-x,1/2+y,1/2-z
1/2-x,1/2-y,-z
1/2+x,1/2-y,1/2+z
loop_
_atom_site_type_symbol
_atom_site_label
_atom_site_fract_x
_atom_site_fract_y
_atom_site_fract_z
Si Si1 0.633352 0.227140 0.840964
Si Si2 0.894831 0.017765 0.913606
Si Si3 0.709672 0.822960 0.173921
Si Si4 0.000000 0.618965 0.250000
Si Si5 0.831268 0.408253 0.975091
O O1 0.500000 0.272008 0.750000
O O2 0.866802 0.144320 0.894523
O O3 0.429617 0.151783 0.813583
O O4 0.747617 0.324806 0.907013
O O5 0.608147 0.958044 0.826396
O O6 0.083064 0.966509 0.927108
O O7 0.000000 0.000000 0.000000
O O8 0.000000 0.879535 0.250000
O O9 0.754508 0.695245 0.193425
O O10 0.507981 0.845638 0.068634
O O11 0.000000 0.500000 0.000000
#
# Coordination Sequence:
#
# PCOD8147170 Si02
#       5
#     8   8   8   4   8
#     4  12  26  46  73 107 144 187 249 296 360 447
#     4  12  24  44  77 105 138 195 242 292 370 431
#     4  10  23  46  73  98 145 188 235 298 364 424
#     4  10  22  42  76 100 138 184 240 290 368 418
#     4  12  27  47  70 106 150 188 240 306 364 432
#
# _framework density 21.671865
#
# number of rings (size 3 to 8) (size 9 to 14) (size 15 to 20)
#    0.667    0.000    5.556    2.000    3.111    3.556 
#    0.000    0.000    0.000    0.000    0.000    0.000 
#    0.000    0.000    0.000    0.000    0.000    0.000 
#
# Total GULP energy -223003.588313 kJ/mol
# GULP energy per Si atom -12389.088240 kJ/mol
# Density = 2.162254 g / cm^3
# Si number density = 21.671865 Si / 1000 Ang^3
#
#
#
# Elastic Constant Matrix: (Units=GPa)
#
#
# Indices 1 2 3 4 5 6 
#
# 1 93.1670 59.6281 71.3732 0.0000 -5.5956 0.0000
# 2 59.6281 142.1323 76.9340 0.0001 0.8491 0.0000
# 3 71.3732 76.9340 174.9341 0.0015 -28.7433 0.0001
# 4 0.0000 0.0001 0.0015 40.2284 0.0004 3.0938
# 5 -5.5956 0.8491 -28.7433 0.0004 35.8848 0.0000
# 6 0.0000 0.0000 0.0001 3.0938 0.0000 35.0259
#
#
#
# Elastic Compliance Matrix: (Units=1/GPa)
#
#
# Indices 1 2 3 4 5 6 
#
# 1 0.017714 -0.004423 -0.005540 0.000000 -0.001571 0.000000
# 2 -0.004423 0.010865 -0.003603 0.000000 -0.003833 0.000000
# 3 -0.005540 -0.003603 0.010863 0.000000 0.007923 0.000000
# 4 0.000000 0.000000 0.000000 0.025028 -0.000001 -0.002211
# 5 -0.001571 -0.003833 0.007923 -0.000001 0.034059 0.000000
# 6 0.000000 0.000000 0.000000 -0.002211 0.000000 0.028746
#
#
# Mechanical properties :
#
#
# Convention : Reuss Voigt Hill
#
# Bulk Modulus (GPa) = 81.24337 91.78932 86.51634
# Shear Modulus (GPa) = 31.54354 35.71435 33.62895
#
# Velocity S-wave (km/s) = 3.81925 4.06391 3.94348
# Velocity P-wave (km/s) = 7.55104 8.02911 7.79374
#
# Compressibility (1/GPa) = 0.01230870
#
# Stress axis : x y z
#
# Youngs Moduli (GPa) = 56.45153 92.04131 92.05349
#
# Poissons Ratio (x) = 0.40714 0.50999
# Poissons Ratio (y) = 0.24971 0.33169
# Poissons Ratio (z) = 0.31275 0.33164
#
# Static dielectric constant tensor:
#      x y z
#    x 3.867380 0.000000 0.047670 
#    y 0.000000 3.892680 0.000000 
#    z 0.047670 0.000000 3.888080 
# 
# 
# High freq. dielectric constant tensor:
#      x y z
#    x 1.843350 0.000000 0.005570 
#    y 0.000000 1.855320 0.000000 
#    z 0.005570 0.000000 1.868180 
# 
# From -- ./inp_files/189093.got.cif
#   From: 2010.06.25/outbox.cif.g09.slc.cpg/sg15_95_cif.got.tgz:189093.got - 2010.06.28 07:06:18.
