data_PCOD8147280
_publ_section_title
;
Structure prediction by ZEFSAII (Michael W. Deem and Ramdas Pophale) SiO2 
 PCOD8147280
Probable space group: C 2/C
;
_chemical_formula_sum "Si O2"
_cell_formula_units_Z 56
_cell_length_a 9.199871
_cell_length_b 22.234961
_cell_length_c 14.384438
_cell_angle_alpha 90.000000
_cell_angle_beta 111.194718
_cell_angle_gamma 90.000000
_cell_volume 2743.426359
_symmetry_space_group_name_H-M "C 2/C"
_symmetry_group_IT_number 15
_symmetry_cell_setting 'monoclinic'
loop_
_space_group_symop_operation_xyz
x,y,z
-x,y,1/2-z
-x,-y,-z
x,-y,1/2+z
1/2+x,1/2+y,z
1/2-x,1/2+y,1/2-z
1/2-x,1/2-y,-z
1/2+x,1/2-y,1/2+z
loop_
_atom_site_type_symbol
_atom_site_label
_atom_site_fract_x
_atom_site_fract_y
_atom_site_fract_z
Si Si1 0.941279 0.603132 0.958056
Si Si2 0.171883 0.778147 0.068976
Si Si3 0.097094 0.570980 0.186502
Si Si4 0.135021 0.257291 0.056992
Si Si5 0.348706 0.896163 0.158829
Si Si6 0.810777 0.037021 0.716687
Si Si7 0.339104 0.203775 0.256598
O O1 0.931466 0.675190 0.950291
O O2 0.774738 0.577137 0.882890
O O3 0.084071 0.579349 0.924644
O O4 0.980729 0.582046 0.071992
O O5 0.243680 0.838392 0.122888
O O6 0.176091 0.724565 0.142855
O O7 0.250000 0.750000 0.000000
O O8 0.995982 0.791396 0.998567
O O9 0.243266 0.530229 0.189444
O O10 0.170010 0.631761 0.245407
O O11 0.000000 0.540482 0.250000
O O12 0.201445 0.235490 0.169517
O O13 0.250000 0.250000 0.000000
O O14 0.500000 0.875632 0.250000
O O15 0.240760 0.942483 0.191302
O O16 0.000000 0.039127 0.750000
O O17 0.500000 0.226909 0.250000
#
# Coordination Sequence:
#
# PCOD8147280 Si02
#       7
#     8   8   8   8   8   8   8
#     4  11  22  45  69  93 129 178 217 251 325 395
#     4  12  23  39  62  99 132 163 213 258 316 388
#     4  11  22  46  67  90 124 178 218 259 317 394
#     4  12  23  39  65 100 132 167 210 261 322 380
#     4  10  22  43  66  93 131 174 211 259 323 391
#     4  11  26  44  67  98 124 161 222 281 324 370
#     4  11  22  40  65  92 131 172 210 259 319 387
#
# _framework density 20.412428999999999
#
# number of rings (size 3 to 8) (size 9 to 14) (size 15 to 20)
#    0.000    0.857    4.286    4.286    2.000    1.143 
#    5.143    1.429    0.000    0.000    0.000    0.000 
#    0.000    0.000    0.000    0.000    0.000    0.000 
#
# Total GULP energy -347041.891946 kJ/mol
# GULP energy per Si atom -12394.353284 kJ/mol
# Density = 2.036597 g / cm^3
# Si number density = 20.412429 Si / 1000 Ang^3
#
#
#
# Elastic Constant Matrix: (Units=GPa)
#
#
# Indices 1 2 3 4 5 6 
#
# 1 140.4165 38.4770 66.2354 0.0000 8.1362 0.0000
# 2 38.4770 72.4565 45.4950 0.0000 12.3278 0.0000
# 3 66.2354 45.4950 121.6316 0.0000 -2.9938 0.0000
# 4 0.0000 0.0000 0.0000 26.1906 0.0000 4.1653
# 5 8.1362 12.3278 -2.9938 0.0000 43.6370 0.0000
# 6 0.0000 0.0000 0.0000 4.1653 0.0000 33.2704
#
#
#
# Elastic Compliance Matrix: (Units=1/GPa)
#
#
# Indices 1 2 3 4 5 6 
#
# 1 0.010007 -0.002085 -0.004709 0.000000 -0.001600 0.000000
# 2 -0.002085 0.019932 -0.006460 0.000000 -0.005685 0.000000
# 3 -0.004709 -0.006460 0.013291 0.000000 0.003615 0.000000
# 4 0.000000 0.000000 0.000000 0.038957 0.000000 -0.004877
# 5 -0.001600 -0.005685 0.003615 0.000000 0.025069 0.000000
# 6 0.000000 0.000000 0.000000 -0.004877 0.000000 0.030667
#
#
# Mechanical properties :
#
#
# Convention : Reuss Voigt Hill
#
# Bulk Modulus (GPa) = 59.80018 70.54661 65.17339
# Shear Modulus (GPa) = 29.41087 32.90607 31.15847
#
# Velocity S-wave (km/s) = 3.79995 4.01940 3.91121
# Velocity P-wave (km/s) = 6.97226 7.49509 7.23840
#
# Compressibility (1/GPa) = 0.01672236
#
# Stress axis : x y z
#
# Youngs Moduli (GPa) = 99.93087 50.17026 75.23933
#
# Poissons Ratio (x) = 0.10462 0.35428
# Poissons Ratio (y) = 0.20838 0.48603
# Poissons Ratio (z) = 0.47055 0.32409
#
# Static dielectric constant tensor:
#      x y z
#    x 3.351950 0.000000 0.258020 
#    y 0.000000 3.921660 0.000000 
#    z 0.258020 0.000000 1.422410 
# 
# 
# High freq. dielectric constant tensor:
#      x y z
#    x 1.799840 0.000000 -0.009940 
#    y 0.000000 1.794560 0.000000 
#    z -0.009940 0.000000 1.813240 
# 
# From -- ./inp_files/137974.got.cif
#   From: 2010.06.25/outbox.cif.g09.slc.cpg/sg15_69_cif.got.tgz:137974.got - 2010.06.28 07:06:18.
