data_PCOD8147223
_publ_section_title
;
Structure prediction by ZEFSAII (Michael W. Deem and Ramdas Pophale) SiO2 
 PCOD8147223
Probable space group: C 2/C
;
_chemical_formula_sum "Si O2"
_cell_formula_units_Z 52
_cell_length_a 15.588376
_cell_length_b 11.401229
_cell_length_c 15.449597
_cell_angle_alpha 90.000000
_cell_angle_beta 63.722934
_cell_angle_gamma 90.000000
_cell_volume 2462.063724
_symmetry_space_group_name_H-M "C 2/C"
_symmetry_group_IT_number 15
_symmetry_cell_setting 'monoclinic'
loop_
_space_group_symop_operation_xyz
x,y,z
-x,y,1/2-z
-x,-y,-z
x,-y,1/2+z
1/2+x,1/2+y,z
1/2-x,1/2+y,1/2-z
1/2-x,1/2-y,-z
1/2+x,1/2-y,1/2+z
loop_
_atom_site_type_symbol
_atom_site_label
_atom_site_fract_x
_atom_site_fract_y
_atom_site_fract_z
Si Si1 0.145678 0.974920 0.277812
Si Si2 0.782426 0.621823 0.314387
Si Si3 0.915154 0.562620 0.398320
Si Si4 0.509080 0.188973 0.589943
Si Si5 0.500000 0.640569 0.250000
Si Si6 0.421460 0.766614 0.628342
Si Si7 0.694042 0.151886 0.895809
O O1 0.079212 0.869411 0.342183
O O2 0.241029 0.935370 0.187245
O O3 0.186927 0.046010 0.341708
O O4 0.086597 0.058402 0.240817
O O5 0.865249 0.550243 0.327188
O O6 0.824436 0.670323 0.204358
O O7 0.753979 0.730490 0.389325
O O8 0.969859 0.443526 0.392769
O O9 0.833647 0.583551 0.505671
O O10 0.987614 0.672199 0.367100
O O11 0.535308 0.278374 0.654885
O O12 0.572030 0.224246 0.478228
O O13 0.396879 0.192323 0.620098
#
# Coordination Sequence:
#
# PCOD8147223 Si02
#       7
#     8   8   8   8   4   8   8
#     4  11  25  43  66  93 137 169 216 272 331 389
#     4  11  22  40  64 100 130 169 216 271 324 384
#     4  11  23  40  71  98 127 172 223 266 318 392
#     4  11  24  46  68  96 132 172 223 264 326 387
#     4  12  28  44  64  98 130 178 214 278 334 388
#     4  10  24  42  71  98 131 175 217 269 325 389
#     4  10  22  43  64  94 132 170 216 269 319 388
#
# _framework density 21.120493
#
# number of rings (size 3 to 8) (size 9 to 14) (size 15 to 20)
#    0.000    1.231    1.538    4.615    8.615    1.846 
#    0.000    2.308    0.000    0.000    0.000    0.000 
#    0.000    0.000    0.000    0.000    0.000    0.000 
#
# Total GULP energy -322458.289592 kJ/mol
# GULP energy per Si atom -12402.241907 kJ/mol
# Density = 2.107242 g / cm^3
# Si number density = 21.120493 Si / 1000 Ang^3
#
#
#
# Elastic Constant Matrix: (Units=GPa)
#
#
# Indices 1 2 3 4 5 6 
#
# 1 92.2037 43.4883 35.8529 0.0000 15.2408 0.0000
# 2 43.4883 116.5807 55.6405 0.0000 4.5875 0.0000
# 3 35.8529 55.6405 103.1080 0.0000 4.5256 0.0000
# 4 0.0000 0.0000 0.0000 25.6091 0.0000 4.6914
# 5 15.2408 4.5875 4.5256 0.0000 34.6506 0.0000
# 6 0.0000 0.0000 0.0000 4.6914 0.0000 34.1511
#
#
#
# Elastic Compliance Matrix: (Units=1/GPa)
#
#
# Indices 1 2 3 4 5 6 
#
# 1 0.014697 -0.003961 -0.002728 0.000000 -0.005584 0.000000
# 2 -0.003961 0.012639 -0.005477 0.000000 0.000784 0.000000
# 3 -0.002728 -0.005477 0.013596 0.000000 0.000149 0.000000
# 4 0.000000 0.000000 0.000000 0.040057 0.000000 -0.005503
# 5 -0.005584 0.000784 0.000149 0.000000 0.031192 0.000000
# 6 0.000000 0.000000 0.000000 -0.005503 0.000000 0.030038
#
#
# Mechanical properties :
#
#
# Convention : Reuss Voigt Hill
#
# Bulk Modulus (GPa) = 60.24167 64.65063 62.44615
# Shear Modulus (GPa) = 29.05544 30.67623 29.86583
#
# Velocity S-wave (km/s) = 3.71307 3.81522 3.76449
# Velocity P-wave (km/s) = 6.85327 7.07706 6.96606
#
# Compressibility (1/GPa) = 0.01659981
#
# Stress axis : x y z
#
# Youngs Moduli (GPa) = 68.03879 79.12278 73.54878
#
# Poissons Ratio (x) = 0.31339 0.20065
# Poissons Ratio (y) = 0.26949 0.40285
# Poissons Ratio (z) = 0.18562 0.43338
#
# Static dielectric constant tensor:
#      x y z
#    x 3.714150 0.000000 -0.037850 
#    y 0.000000 3.960530 0.000000 
#    z -0.037850 0.000000 3.869110 
# 
# 
# High freq. dielectric constant tensor:
#      x y z
#    x 1.824540 0.000000 -0.005320 
#    y 0.000000 1.840560 0.000000 
#    z -0.005320 0.000000 1.828670 
# 
# From -- ./inp_files/152554.got.cif
#   From: 2010.06.25/outbox.cif.g09.slc.cpg/sg15_77_cif.got.tgz:152554.got - 2010.06.28 07:06:18.
