data_PCOD8147730
_publ_section_title
;
Structure prediction by ZEFSAII (Michael W. Deem and Ramdas Pophale) SiO2 
 PCOD8147730
Probable space group: C 2/C
;
_chemical_formula_sum "Si O2"
_cell_formula_units_Z 36
_cell_length_a 22.460857
_cell_length_b 5.820991
_cell_length_c 20.863545
_cell_angle_alpha 90.000000
_cell_angle_beta 34.500270
_cell_angle_gamma 90.000000
_cell_volume 1545.049359
_symmetry_space_group_name_H-M "C 2/C"
_symmetry_group_IT_number 15
_symmetry_cell_setting 'monoclinic'
loop_
_space_group_symop_operation_xyz
x,y,z
-x,y,1/2-z
-x,-y,-z
x,-y,1/2+z
1/2+x,1/2+y,z
1/2-x,1/2+y,1/2-z
1/2-x,1/2-y,-z
1/2+x,1/2-y,1/2+z
loop_
_atom_site_type_symbol
_atom_site_label
_atom_site_fract_x
_atom_site_fract_y
_atom_site_fract_z
Si Si1 0.913926 0.164684 0.106980
Si Si2 0.757104 0.851029 0.326546
Si Si3 0.418979 0.025514 0.714840
Si Si4 0.000000 0.219074 0.750000
Si Si5 0.316900 0.393091 0.890937
O O1 0.857817 0.308234 0.100490
O O2 0.967829 0.347632 0.108545
O O3 0.825858 0.014778 0.220304
O O4 0.000000 0.000000 0.000000
O O5 0.815298 0.608514 0.283986
O O6 0.739701 0.975146 0.410342
O O7 0.496177 0.858827 0.686094
O O8 0.392881 0.222781 0.787421
O O9 0.106262 0.075987 0.643564
O O10 0.250000 0.250000 0.000000
#
# Coordination Sequence:
#
# PCOD8147730 Si02
#       5
#     8   8   8   4   8
#     4  11  23  45  72 105 139 192 233 292 367 416
#     4  10  22  45  69 103 144 177 242 297 343 436
#     4  10  22  46  68 100 146 179 233 301 339 429
#     4  10  22  44  72 104 138 188 236 292 358 426
#     4  10  23  46  70 103 138 187 230 298 354 415
#
# _framework density 23.300228000000001
#
# number of rings (size 3 to 8) (size 9 to 14) (size 15 to 20)
#    0.000    1.778    2.222    0.667    0.000    4.444 
#   32.000    0.000    0.000    0.000    0.000    0.000 
#    0.000    0.000    0.000    0.000    0.000    0.000 
#
# Total GULP energy -223157.308173 kJ/mol
# GULP energy per Si atom -12397.628232 kJ/mol
# Density = 2.324720 g / cm^3
# Si number density = 23.300228 Si / 1000 Ang^3
#
#
#
# Elastic Constant Matrix: (Units=GPa)
#
#
# Indices 1 2 3 4 5 6 
#
# 1 199.7283 94.0615 84.3238 0.0615 7.0739 -0.0297
# 2 94.0615 141.5199 56.5879 0.1233 8.6286 -0.1279
# 3 84.3238 56.5879 97.4615 0.0818 12.2662 -0.0826
# 4 0.0615 0.1233 0.0818 47.8741 -0.0450 11.5010
# 5 7.0739 8.6286 12.2662 -0.0450 25.8117 0.0140
# 6 -0.0297 -0.1279 -0.0826 11.5010 0.0140 50.0929
#
#
#
# Elastic Compliance Matrix: (Units=1/GPa)
#
#
# Indices 1 2 3 4 5 6 
#
# 1 0.009317 -0.003889 -0.006004 0.000014 0.001600 -0.000018
# 2 -0.003889 0.010834 -0.002770 -0.000026 -0.001240 0.000027
# 3 -0.006004 -0.002770 0.017804 -0.000028 -0.005890 0.000027
# 4 0.000014 -0.000026 -0.000028 0.022108 0.000059 -0.005076
# 5 0.001600 -0.001240 -0.005890 0.000059 0.041517 -0.000037
# 6 -0.000018 0.000027 0.000027 -0.005076 -0.000037 0.021128
#
#
# Mechanical properties :
#
#
# Convention : Reuss Voigt Hill
#
# Bulk Modulus (GPa) = 79.17747 100.96178 90.06962
# Shear Modulus (GPa) = 32.84213 38.33819 35.59016
#
# Velocity S-wave (km/s) = 3.75843 4.06075 3.91251
# Velocity P-wave (km/s) = 7.27252 8.08772 7.69093
#
# Compressibility (1/GPa) = 0.01262986
#
# Stress axis : x y z
#
# Youngs Moduli (GPa) = 107.33618 92.30116 56.16559
#
# Poissons Ratio (x) = 0.35897 0.33722
# Poissons Ratio (y) = 0.41744 0.15555
# Poissons Ratio (z) = 0.64445 0.25563
#
# Static dielectric constant tensor:
#      x y z
#    x 4.397780 0.000450 -0.414420 
#    y 0.000450 4.578700 0.000800 
#    z -0.414420 0.000800 2.239270 
# 
# 
# High freq. dielectric constant tensor:
#      x y z
#    x 1.942740 -0.000010 0.013830 
#    y -0.000010 1.948420 0.000010 
#    z 0.013830 0.000010 1.882650 
# 
# From -- ./inp_files/115690.got.cif
#   From: 2010.06.25/outbox.cif.g09.slc.cpg/sg15_58_cif.got.tgz:115690.got - 2010.06.28 07:06:18.
