data_PCOD8147827
_publ_section_title
;
Structure prediction by ZEFSAII (Michael W. Deem and Ramdas Pophale) SiO2 
 PCOD8147827
Probable space group: C 2/C
;
_chemical_formula_sum "Si O2"
_cell_formula_units_Z 48
_cell_length_a 11.205969
_cell_length_b 8.767204
_cell_length_c 19.487562
_cell_angle_alpha 90.000000
_cell_angle_beta 61.272970
_cell_angle_gamma 90.000000
_cell_volume 1678.911383
_symmetry_space_group_name_H-M "C 2/C"
_symmetry_group_IT_number 15
_symmetry_cell_setting 'monoclinic'
loop_
_space_group_symop_operation_xyz
x,y,z
-x,y,1/2-z
-x,-y,-z
x,-y,1/2+z
1/2+x,1/2+y,z
1/2-x,1/2+y,1/2-z
1/2-x,1/2-y,-z
1/2+x,1/2-y,1/2+z
loop_
_atom_site_type_symbol
_atom_site_label
_atom_site_fract_x
_atom_site_fract_y
_atom_site_fract_z
Si Si1 0.055851 0.235624 0.095720
Si Si2 0.878668 0.413550 0.899671
Si Si3 0.168413 0.804375 0.418516
Si Si4 0.701470 0.577880 0.326274
Si Si5 0.665587 0.415803 0.073551
Si Si6 0.327583 0.992634 0.154114
O O1 0.169455 0.337979 0.105579
O O2 0.888617 0.237168 0.158573
O O3 0.077000 0.062226 0.117439
O O4 0.079838 0.247267 0.007756
O O5 0.841547 0.392151 0.829379
O O6 0.920715 0.241006 0.913102
O O7 0.006008 0.535821 0.879387
O O8 0.746929 0.458490 0.981658
O O9 0.170905 0.670132 0.363812
O O10 0.113214 0.958290 0.397575
O O11 0.737031 0.487015 0.247356
O O12 0.771354 0.389850 0.107525
#
# Coordination Sequence:
#
# PCOD8147827 Si02
#       6
#     8   8   8   8   8   8
#     4  10  22  45  69  96 123 176 232 267 329 399
#     4  11  24  42  66  99 131 176 221 269 333 398
#     4  10  23  43  69  93 129 172 224 277 321 404
#     4  12  25  42  68  99 133 173 216 281 338 390
#     4  10  23  43  70  93 129 178 223 272 322 403
#     4  11  26  44  63 100 137 173 217 277 342 392
#
# _framework density 28.589953999999999
#
# number of rings (size 3 to 8) (size 9 to 14) (size 15 to 20)
#    0.000    1.333    1.667    2.500    7.000    4.000 
#    6.000    0.000    0.000    0.000    0.000    0.000 
#    0.000    0.000    0.000    0.000    0.000    0.000 
#
# Total GULP energy -297597.536645 kJ/mol
# GULP energy per Si atom -12399.897360 kJ/mol
# Density = 2.852488 g / cm^3
# Si number density = 28.589954 Si / 1000 Ang^3
#
#
#
# Elastic Constant Matrix: (Units=GPa)
#
#
# Indices 1 2 3 4 5 6 
#
# 1 112.7029 30.3521 39.5625 0.0000 -2.3862 0.0000
# 2 30.3521 114.2085 9.6584 0.0000 -5.6438 0.0000
# 3 39.5625 9.6584 115.0717 0.0000 2.7113 0.0000
# 4 0.0000 0.0000 0.0000 42.8862 0.0000 -9.2709
# 5 -2.3862 -5.6438 2.7113 0.0000 36.1365 0.0000
# 6 0.0000 0.0000 0.0000 -9.2709 0.0000 76.5896
#
#
#
# Elastic Compliance Matrix: (Units=1/GPa)
#
#
# Indices 1 2 3 4 5 6 
#
# 1 0.010804 -0.002546 -0.003515 0.000000 0.000580 0.000000
# 2 -0.002546 0.009493 0.000047 0.000000 0.001311 0.000000
# 3 -0.003515 0.000047 0.009917 0.000000 -0.000969 0.000000
# 4 0.000000 0.000000 0.000000 0.023944 0.000000 0.002898
# 5 0.000580 0.001311 -0.000969 0.000000 0.027989 0.000000
# 6 0.000000 0.000000 0.000000 0.002898 0.000000 0.013407
#
#
# Mechanical properties :
#
#
# Convention : Reuss Voigt Hill
#
# Bulk Modulus (GPa) = 54.97622 55.68103 55.32863
# Shear Modulus (GPa) = 43.99712 48.61646 46.30679
#
# Velocity S-wave (km/s) = 3.92714 4.12815 4.02890
# Velocity P-wave (km/s) = 6.31143 6.49925 6.40603
#
# Compressibility (1/GPa) = 0.01818968
#
# Stress axis : x y z
#
# Youngs Moduli (GPa) = 92.55442 105.33865 100.83245
#
# Poissons Ratio (x) = 0.26814 0.35439
# Poissons Ratio (y) = 0.23560 -0.00479
# Poissons Ratio (z) = 0.32530 -0.00500
#
# Static dielectric constant tensor:
#      x y z
#    x 5.927800 0.000000 0.044200 
#    y 0.000000 6.029430 0.000000 
#    z 0.044200 0.000000 4.426710 
# 
# 
# High freq. dielectric constant tensor:
#      x y z
#    x 2.195470 0.000000 0.008010 
#    y 0.000000 2.241190 0.000000 
#    z 0.008010 0.000000 2.106160 
# 
# From -- ./inp_files/236827.got.cif
#   From: 2010.06.25/outbox.cif.g09.slc.cpg/sg15_119_cif.got.tgz:236827.got - 2010.06.28 07:06:18.
