data_PCOD8147207
_publ_section_title
;
Structure prediction by ZEFSAII (Michael W. Deem and Ramdas Pophale) SiO2 
 PCOD8147207
Probable space group: C 2/C
;
_chemical_formula_sum "Si O2"
_cell_formula_units_Z 32
_cell_length_a 19.993387
_cell_length_b 5.205023
_cell_length_c 14.349089
_cell_angle_alpha 90.000000
_cell_angle_beta 108.640669
_cell_angle_gamma 90.000000
_cell_volume 1414.919458
_symmetry_space_group_name_H-M "C 2/C"
_symmetry_group_IT_number 15
_symmetry_cell_setting 'monoclinic'
loop_
_space_group_symop_operation_xyz
x,y,z
-x,y,1/2-z
-x,-y,-z
x,-y,1/2+z
1/2+x,1/2+y,z
1/2-x,1/2+y,1/2-z
1/2-x,1/2-y,-z
1/2+x,1/2-y,1/2+z
loop_
_atom_site_type_symbol
_atom_site_label
_atom_site_fract_x
_atom_site_fract_y
_atom_site_fract_z
Si Si1 0.685040 0.299913 0.841671
Si Si2 0.192239 0.451659 0.009550
Si Si3 0.109150 0.620142 0.644170
Si Si4 0.566224 0.393402 0.215572
O O1 0.766251 0.357442 0.901049
O O2 0.679606 0.151351 0.740443
O O3 0.634675 0.555237 0.813825
O O4 0.656226 0.109844 0.910116
O O5 0.129630 0.335630 0.045015
O O6 0.250000 0.250000 0.000000
O O7 0.075830 0.342294 0.648684
O O8 0.054365 0.846894 0.648801
O O9 0.500000 0.332029 0.250000
#
# Coordination Sequence:
#
# PCOD8147207 Si02
#       4
#     8   8   8   8
#     4   9  24  36  66  91 130 162 204 258 310 369
#     4  11  23  40  63  99 129 158 210 257 318 375
#     4  10  24  39  68  91 124 168 202 258 318 359
#     4  10  22  43  64  90 125 170 214 253 303 367
#
# _framework density 22.616126999999999
#
# number of rings (size 3 to 8) (size 9 to 14) (size 15 to 20)
#    1.500    0.500    0.000    2.250   14.000    0.000 
#    0.000    2.500    0.000    0.000    0.000    0.000 
#    0.000    0.000    0.000    0.000    0.000    0.000 
#
# Total GULP energy -198234.076025 kJ/mol
# GULP energy per Si atom -12389.629752 kJ/mol
# Density = 2.256465 g / cm^3
# Si number density = 22.616127 Si / 1000 Ang^3
#
#
#
# Elastic Constant Matrix: (Units=GPa)
#
#
# Indices 1 2 3 4 5 6 
#
# 1 51.8150 16.3826 5.5394 0.0000 -30.2922 0.0000
# 2 16.3826 135.7795 16.8738 0.0000 -26.7726 0.0000
# 3 5.5394 16.8738 64.1263 0.0000 -33.5487 0.0000
# 4 0.0000 0.0000 0.0000 28.7795 0.0000 -10.1736
# 5 -30.2922 -26.7726 -33.5487 0.0000 43.4691 0.0000
# 6 0.0000 0.0000 0.0000 -10.1736 0.0000 30.3595
#
#
#
# Elastic Compliance Matrix: (Units=1/GPa)
#
#
# Indices 1 2 3 4 5 6 
#
# 1 0.044955 0.001528 0.021127 0.000000 0.048574 0.000000
# 2 0.001528 0.008461 0.001551 0.000000 0.007474 0.000000
# 3 0.021127 0.001551 0.036166 0.000000 0.043591 0.000000
# 4 0.000000 0.000000 0.000000 0.039416 0.000000 0.013209
# 5 0.048574 0.007474 0.043591 0.000000 0.095100 0.000000
# 6 0.000000 0.000000 0.000000 0.013209 0.000000 0.037365
#
#
# Mechanical properties :
#
#
# Convention : Reuss Voigt Hill
#
# Bulk Modulus (GPa) = 7.24659 36.59025 21.91842
# Shear Modulus (GPa) = 19.30135 34.71663 27.00899
#
# Velocity S-wave (km/s) = 2.92453 3.92221 3.45952
# Velocity P-wave (km/s) = 3.82295 6.06016 5.06658
#
# Compressibility (1/GPa) = 0.13799599
#
# Stress axis : x y z
#
# Youngs Moduli (GPa) = 22.24432 118.18473 27.65024
#
# Poissons Ratio (x) = -0.18060 -0.58417
# Poissons Ratio (y) = -0.03399 -0.04290
# Poissons Ratio (z) = -0.46996 -0.18336
#
# Static dielectric constant tensor:
#      x y z
#    x 3.505280 0.000000 -0.022330 
#    y 0.000000 4.074410 0.000000 
#    z -0.022330 0.000000 4.018190 
# 
# 
# High freq. dielectric constant tensor:
#      x y z
#    x 1.848510 0.000000 -0.015030 
#    y 0.000000 1.899050 0.000000 
#    z -0.015030 0.000000 1.889030 
# 
# From -- ./inp_files/115383.got.cif
#   From: 2010.06.25/outbox.cif.g09.slc.cpg/sg15_58_cif.got.tgz:115383.got - 2010.06.28 07:06:18.
