data_PCOD8147843
_publ_section_title
;
Structure prediction by ZEFSAII (Michael W. Deem and Ramdas Pophale) SiO2 
 PCOD8147843
Probable space group: C 2/C
;
_chemical_formula_sum "Si O2"
_cell_formula_units_Z 32
_cell_length_a 8.023950
_cell_length_b 15.143522
_cell_length_c 11.039645
_cell_angle_alpha 90.000000
_cell_angle_beta 84.407018
_cell_angle_gamma 90.000000
_cell_volume 1335.050677
_symmetry_space_group_name_H-M "C 2/C"
_symmetry_group_IT_number 15
_symmetry_cell_setting 'monoclinic'
loop_
_space_group_symop_operation_xyz
x,y,z
-x,y,1/2-z
-x,-y,-z
x,-y,1/2+z
1/2+x,1/2+y,z
1/2-x,1/2+y,1/2-z
1/2-x,1/2-y,-z
1/2+x,1/2-y,1/2+z
loop_
_atom_site_type_symbol
_atom_site_label
_atom_site_fract_x
_atom_site_fract_y
_atom_site_fract_z
Si Si1 0.720996 0.502571 0.411379
Si Si2 0.771053 0.337418 0.073712
Si Si3 0.867887 0.334906 0.514351
Si Si4 0.000000 0.091430 0.750000
Si Si5 0.500000 0.903498 0.750000
O O1 0.692862 0.586490 0.496556
O O2 0.767456 0.423126 0.496964
O O3 0.552483 0.473603 0.355072
O O4 0.858922 0.528367 0.302567
O O5 0.658351 0.344759 0.203662
O O6 0.750000 0.250000 0.000000
O O7 0.970101 0.340550 0.086885
O O8 0.750000 0.250000 0.500000
O O9 0.933655 0.338506 0.648418
#
# Coordination Sequence:
#
# PCOD8147843 Si02
#       5
#     8   8   8   4   4
#     4  11  23  42  68 100 138 184 232 281 344 418
#     4  11  25  43  67 100 136 179 235 288 344 415
#     4  11  24  44  70 101 137 182 236 288 345 418
#     4  12  24  43  68 101 144 188 226 289 350 407
#     4  10  22  45  70  99 140 184 226 293 352 401
#
# _framework density 23.969125999999999
#
# number of rings (size 3 to 8) (size 9 to 14) (size 15 to 20)
#    0.000    1.000    0.000    8.250    0.000   11.000 
#    0.000    0.000    0.000    1.500    0.000    0.000 
#    0.000    0.000    0.000    0.000    0.000    0.000 
#
# Total GULP energy -198305.274716 kJ/mol
# GULP energy per Si atom -12394.079670 kJ/mol
# Density = 2.391457 g / cm^3
# Si number density = 23.969126 Si / 1000 Ang^3
#
#
#
# Elastic Constant Matrix: (Units=GPa)
#
#
# Indices 1 2 3 4 5 6 
#
# 1 151.7281 57.8574 59.0290 0.0000 -3.7429 0.0000
# 2 57.8574 172.0903 46.2703 0.0000 7.1619 0.0000
# 3 59.0290 46.2703 80.0908 0.0000 3.3160 0.0000
# 4 0.0000 0.0000 0.0000 22.7512 0.0000 6.4477
# 5 -3.7429 7.1619 3.3160 0.0000 55.8359 0.0000
# 6 0.0000 0.0000 0.0000 6.4477 0.0000 47.4857
#
#
#
# Elastic Compliance Matrix: (Units=1/GPa)
#
#
# Indices 1 2 3 4 5 6 
#
# 1 0.009667 -0.001624 -0.006237 0.000000 0.001227 0.000000
# 2 -0.001624 0.007176 -0.002913 0.000000 -0.000856 0.000000
# 3 -0.006237 -0.002913 0.018814 0.000000 -0.001162 0.000000
# 4 0.000000 0.000000 0.000000 0.045713 0.000000 -0.006207
# 5 0.001227 -0.000856 -0.001162 0.000000 0.018171 0.000000
# 6 0.000000 0.000000 0.000000 -0.006207 0.000000 0.021902
#
#
# Mechanical properties :
#
#
# Convention : Reuss Voigt Hill
#
# Bulk Modulus (GPa) = 70.88377 81.13586 76.00982
# Shear Modulus (GPa) = 33.85385 41.26472 37.55928
#
# Velocity S-wave (km/s) = 3.76226 4.15369 3.96281
# Velocity P-wave (km/s) = 6.96491 7.54505 7.26078
#
# Compressibility (1/GPa) = 0.01410760
#
# Stress axis : x y z
#
# Youngs Moduli (GPa) = 103.44619 139.35656 53.15191
#
# Poissons Ratio (x) = 0.22632 0.33152
# Poissons Ratio (y) = 0.16800 0.15484
# Poissons Ratio (z) = 0.64522 0.40598
#
# Static dielectric constant tensor:
#      x y z
#    x 4.279030 0.000000 -0.298940 
#    y 0.000000 4.075530 0.000000 
#    z -0.298940 0.000000 4.468960 
# 
# 
# High freq. dielectric constant tensor:
#      x y z
#    x 1.965410 0.000000 -0.012130 
#    y 0.000000 1.959050 0.000000 
#    z -0.012130 0.000000 1.948590 
# 
# From -- ./inp_files/75373.got.cif
#   From: 2010.06.25/outbox.cif.g09.slc.cpg/sg15_38_cif.got.tgz:75373.got - 2010.06.28 07:06:18.
