data_PCOD8147308
_publ_section_title
;
Structure prediction by ZEFSAII (Michael W. Deem and Ramdas Pophale) SiO2 
 PCOD8147308
Probable space group: C 2/C
;
_chemical_formula_sum "Si O2"
_cell_formula_units_Z 36
_cell_length_a 23.919559
_cell_length_b 7.150730
_cell_length_c 8.943790
_cell_angle_alpha 90.000000
_cell_angle_beta 84.313662
_cell_angle_gamma 90.000000
_cell_volume 1522.238847
_symmetry_space_group_name_H-M "C 2/C"
_symmetry_group_IT_number 15
_symmetry_cell_setting 'monoclinic'
loop_
_space_group_symop_operation_xyz
x,y,z
-x,y,1/2-z
-x,-y,-z
x,-y,1/2+z
1/2+x,1/2+y,z
1/2-x,1/2+y,1/2-z
1/2-x,1/2-y,-z
1/2+x,1/2-y,1/2+z
loop_
_atom_site_type_symbol
_atom_site_label
_atom_site_fract_x
_atom_site_fract_y
_atom_site_fract_z
Si Si1 0.275408 0.377561 0.291667
Si Si2 0.500000 0.498982 0.750000
Si Si3 0.169118 0.162662 0.023091
Si Si4 0.829860 0.588409 0.491101
Si Si5 0.923511 0.126792 0.023219
O O1 0.310267 0.561986 0.331298
O O2 0.279756 0.361156 0.111066
O O3 0.210956 0.399063 0.355052
O O4 0.301876 0.190827 0.356465
O O5 0.467945 0.630857 0.876135
O O6 0.455549 0.369203 0.673386
O O7 0.155284 0.377362 0.058197
O O8 0.113841 0.061959 0.973674
O O9 0.887396 0.686172 0.522931
#
# Coordination Sequence:
#
# PCOD8147308 Si02
#       5
#     8   4   8   8   8
#     4  10  24  40  62 100 142 179 208 253 333 388
#     4  10  22  46  66  86 130 170 218 302 328 368
#     4  11  23  42  68  98 139 175 213 269 320 408
#     4  10  23  39  63  98 133 174 216 257 316 408
#     4  10  22  43  67  92 125 172 225 269 342 376
#
# _framework density 23.649376
#
# number of rings (size 3 to 8) (size 9 to 14) (size 15 to 20)
#    0.000    1.778    0.000    3.333    9.333    5.333 
#    0.000    6.667    0.000    0.000    0.000    0.000 
#    0.000    0.000    0.000    0.000    0.000    0.000 
#
# Total GULP energy -223341.135007 kJ/mol
# GULP energy per Si atom -12407.840834 kJ/mol
# Density = 2.359555 g / cm^3
# Si number density = 23.649376 Si / 1000 Ang^3
#
#
#
# Elastic Constant Matrix: (Units=GPa)
#
#
# Indices 1 2 3 4 5 6 
#
# 1 76.0234 35.4747 11.5507 0.0000 -6.5023 0.0000
# 2 35.4747 206.9166 20.7898 0.0000 1.5648 0.0000
# 3 11.5507 20.7898 87.7193 0.0000 11.7198 0.0000
# 4 0.0000 0.0000 0.0000 18.3032 0.0000 -8.7342
# 5 -6.5023 1.5648 11.7198 0.0000 22.5741 0.0000
# 6 0.0000 0.0000 0.0000 -8.7342 0.0000 16.1463
#
#
#
# Elastic Compliance Matrix: (Units=1/GPa)
#
#
# Indices 1 2 3 4 5 6 
#
# 1 0.015091 -0.002412 -0.002169 0.000000 0.005640 0.000000
# 2 -0.002412 0.005338 -0.000865 0.000000 -0.000616 0.000000
# 3 -0.002169 -0.000865 0.012858 0.000000 -0.007240 0.000000
# 4 0.000000 0.000000 0.000000 0.073646 0.000000 0.039838
# 5 0.005640 -0.000616 -0.007240 0.000000 0.049725 0.000000
# 6 0.000000 0.000000 0.000000 0.039838 0.000000 0.083484
#
#
# Mechanical properties :
#
#
# Convention : Reuss Voigt Hill
#
# Bulk Modulus (GPa) = 44.65372 56.25440 50.45406
# Shear Modulus (GPa) = 19.34236 31.59432 25.46834
#
# Velocity S-wave (km/s) = 2.86296 3.65903 3.28520
# Velocity P-wave (km/s) = 5.46363 6.45676 5.98085
#
# Compressibility (1/GPa) = 0.02239455
#
# Stress axis : x y z
#
# Youngs Moduli (GPa) = 66.26306 187.33653 77.77227
#
# Poissons Ratio (x) = 0.45186 0.16870
# Poissons Ratio (y) = 0.15983 0.06729
# Poissons Ratio (z) = 0.14373 0.16210
#
# Static dielectric constant tensor:
#      x y z
#    x 4.361260 0.000000 -0.077930 
#    y 0.000000 4.314270 0.000000 
#    z -0.077930 0.000000 4.335530 
# 
# 
# High freq. dielectric constant tensor:
#      x y z
#    x 1.932980 0.000000 0.004160 
#    y 0.000000 1.931250 0.000000 
#    z 0.004160 0.000000 1.947750 
# 
# From -- ./inp_files/64386.got.cif
#   From: 2010.06.25/outbox.cif.g09.slc.cpg/sg15_33_cif.got.tgz:64386.got - 2010.06.28 07:06:18.
