data_PCOD8147513
_publ_section_title
;
Structure prediction by ZEFSAII (Michael W. Deem and Ramdas Pophale) SiO2 
 PCOD8147513
Probable space group: C 2/C
;
_chemical_formula_sum "Si O2"
_cell_formula_units_Z 44
_cell_length_a 14.769520
_cell_length_b 8.369198
_cell_length_c 18.033470
_cell_angle_alpha 90.000000
_cell_angle_beta 115.314102
_cell_angle_gamma 90.000000
_cell_volume 2015.055763
_symmetry_space_group_name_H-M "C 2/C"
_symmetry_group_IT_number 15
_symmetry_cell_setting 'monoclinic'
loop_
_space_group_symop_operation_xyz
x,y,z
-x,y,1/2-z
-x,-y,-z
x,-y,1/2+z
1/2+x,1/2+y,z
1/2-x,1/2+y,1/2-z
1/2-x,1/2-y,-z
1/2+x,1/2-y,1/2+z
loop_
_atom_site_type_symbol
_atom_site_label
_atom_site_fract_x
_atom_site_fract_y
_atom_site_fract_z
Si Si1 0.938990 0.351919 0.102141
Si Si2 0.338311 0.131118 0.844930
Si Si3 0.842753 0.993551 0.805283
Si Si4 0.038222 0.831491 0.038419
Si Si5 0.500000 0.634040 0.250000
Si Si6 0.156355 0.356452 0.988888
O O1 0.928517 0.241721 0.171453
O O2 0.859190 0.497835 0.075121
O O3 0.051590 0.422398 0.142229
O O4 0.919203 0.257016 0.018869
O O5 0.330505 0.324056 0.842166
O O6 0.262505 0.044318 0.764564
O O7 0.320361 0.070611 0.922026
O O8 0.927517 0.978746 0.771857
O O9 0.873416 0.136521 0.871625
O O10 0.947162 0.740108 0.045696
O O11 0.000000 0.000000 0.000000
O O12 0.250000 0.250000 0.000000
#
# Coordination Sequence:
#
# PCOD8147513 Si02
#       6
#     8   8   8   8   4   8
#     4  10  23  45  68  87 138 175 212 270 328 392
#     4  10  23  41  64  94 127 169 221 262 328 392
#     4  11  24  40  68  95 128 169 217 269 325 390
#     4  11  20  45  68  90 128 179 213 263 327 397
#     4  10  22  44  64  98 132 160 218 270 328 372
#     4  11  25  42  64  99 130 169 225 266 329 389
#
# _framework density 21.835622999999998
#
# number of rings (size 3 to 8) (size 9 to 14) (size 15 to 20)
#    0.000    1.455    5.455    2.182    7.636    2.909 
#    0.000    1.818    0.000    0.000    0.000    0.000 
#    0.000    0.000    0.000    0.000    0.000    0.000 
#
# Total GULP energy -272761.665719 kJ/mol
# GULP energy per Si atom -12398.257533 kJ/mol
# Density = 2.178592 g / cm^3
# Si number density = 21.835623 Si / 1000 Ang^3
#
#
#
# Elastic Constant Matrix: (Units=GPa)
#
#
# Indices 1 2 3 4 5 6 
#
# 1 33.9052 25.4546 37.3208 0.0000 5.3876 0.0000
# 2 25.4546 89.2650 46.9339 0.0000 13.3650 0.0000
# 3 37.3208 46.9339 144.9355 0.0000 18.3513 0.0000
# 4 0.0000 0.0000 0.0000 55.6517 0.0000 13.9173
# 5 5.3876 13.3650 18.3513 0.0000 32.1829 0.0000
# 6 0.0000 0.0000 0.0000 13.9173 0.0000 16.5692
#
#
#
# Elastic Compliance Matrix: (Units=1/GPa)
#
#
# Indices 1 2 3 4 5 6 
#
# 1 0.045733 -0.008362 -0.009203 0.000000 0.001064 0.000000
# 2 -0.008362 0.015375 -0.002365 0.000000 -0.003636 0.000000
# 3 -0.009203 -0.002365 0.010472 0.000000 -0.003448 0.000000
# 4 0.000000 0.000000 0.000000 0.022747 0.000000 -0.019106
# 5 0.001064 -0.003636 -0.003448 0.000000 0.034371 0.000000
# 6 0.000000 0.000000 0.000000 -0.019106 0.000000 0.076401
#
#
# Mechanical properties :
#
#
# Convention : Reuss Voigt Hill
#
# Bulk Modulus (GPa) = 31.52618 54.16935 42.84776
# Shear Modulus (GPa) = 19.56701 31.44053 25.50377
#
# Velocity S-wave (km/s) = 2.99675 3.79868 3.42129
# Velocity P-wave (km/s) = 5.14231 6.64091 5.93906
#
# Compressibility (1/GPa) = 0.03171967
#
# Stress axis : x y z
#
# Youngs Moduli (GPa) = 21.86615 65.04038 95.49247
#
# Poissons Ratio (x) = 0.54384 0.87884
# Poissons Ratio (y) = 0.18283 0.22587
# Poissons Ratio (z) = 0.20124 0.15384
#
# Static dielectric constant tensor:
#      x y z
#    x 3.798290 0.000000 0.934480 
#    y 0.000000 5.085700 0.000000 
#    z 0.934480 0.000000 13.035310 
# 
# 
# High freq. dielectric constant tensor:
#      x y z
#    x 1.835880 0.000000 0.005310 
#    y 0.000000 1.857230 0.000000 
#    z 0.005310 0.000000 1.876690 
# 
# From -- ./inp_files/202544.got.cif
#   From: 2010.06.25/outbox.cif.g09.slc.cpg/sg15_102_cif.got.tgz:202544.got - 2010.06.28 07:06:18.
