data_PCOD8147592
_publ_section_title
;
Structure prediction by ZEFSAII (Michael W. Deem and Ramdas Pophale) SiO2 
 PCOD8147592
Probable space group: C 2/C
;
_chemical_formula_sum "Si O2"
_cell_formula_units_Z 36
_cell_length_a 7.035133
_cell_length_b 21.712526
_cell_length_c 11.524345
_cell_angle_alpha 90.000000
_cell_angle_beta 123.668941
_cell_angle_gamma 90.000000
_cell_volume 1465.059316
_symmetry_space_group_name_H-M "C 2/C"
_symmetry_group_IT_number 15
_symmetry_cell_setting 'monoclinic'
loop_
_space_group_symop_operation_xyz
x,y,z
-x,y,1/2-z
-x,-y,-z
x,-y,1/2+z
1/2+x,1/2+y,z
1/2-x,1/2+y,1/2-z
1/2-x,1/2-y,-z
1/2+x,1/2-y,1/2+z
loop_
_atom_site_type_symbol
_atom_site_label
_atom_site_fract_x
_atom_site_fract_y
_atom_site_fract_z
Si Si1 0.193686 0.587146 0.603337
Si Si2 0.154574 0.544173 0.192135
Si Si3 0.567601 0.654243 0.150340
Si Si4 0.611870 0.342828 0.141894
Si Si5 0.000000 0.731137 0.250000
O O1 0.237583 0.517724 0.659823
O O2 0.169395 0.633391 0.708050
O O3 0.411670 0.608444 0.603395
O O4 0.973809 0.588556 0.445114
O O5 0.373341 0.582839 0.307054
O O6 0.000000 0.526864 0.250000
O O7 0.500000 0.686381 0.250000
O O8 0.779836 0.688009 0.160312
O O9 0.355905 0.656128 0.986914
O O10 0.536396 0.273836 0.149929
#
# Coordination Sequence:
#
# PCOD8147592 Si02
#       5
#     8   8   8   8   4
#     4   9  21  38  63  92 124 178 211 259 328 383
#     4  11  21  39  62  94 137 168 215 268 326 388
#     4  12  25  40  67 101 127 175 221 271 322 390
#     4  10  22  44  67  93 132 176 217 271 327 390
#     4  10  22  46  70  92 134 172 218 274 332 380
#
# _framework density 24.572384
#
# number of rings (size 3 to 8) (size 9 to 14) (size 15 to 20)
#    0.000    1.778    3.333    0.667    3.111    7.111 
#    0.000    4.444    0.000    0.000    0.000    0.000 
#    0.000    0.000    0.000    0.000    0.000    0.000 
#
# Total GULP energy -223090.656295 kJ/mol
# GULP energy per Si atom -12393.925350 kJ/mol
# Density = 2.451646 g / cm^3
# Si number density = 24.572384 Si / 1000 Ang^3
#
#
#
# Elastic Constant Matrix: (Units=GPa)
#
#
# Indices 1 2 3 4 5 6 
#
# 1 21.4621 3.3556 5.6312 0.0000 -13.3443 0.0000
# 2 3.3556 89.2403 9.7408 0.0000 -8.7070 0.0000
# 3 5.6312 9.7408 173.6891 0.0000 -31.1880 0.0000
# 4 0.0000 0.0000 0.0000 19.1996 0.0000 1.7639
# 5 -13.3443 -8.7070 -31.1880 0.0000 30.0507 0.0000
# 6 0.0000 0.0000 0.0000 1.7639 0.0000 12.9883
#
#
#
# Elastic Compliance Matrix: (Units=1/GPa)
#
#
# Indices 1 2 3 4 5 6 
#
# 1 0.066419 0.000360 0.003861 0.000000 0.033605 0.000000
# 2 0.000360 0.011534 -0.000037 0.000000 0.003464 0.000000
# 3 0.003861 -0.000037 0.007301 0.000000 0.009281 0.000000
# 4 0.000000 0.000000 0.000000 0.052743 0.000000 -0.007163
# 5 0.033605 0.003464 0.009281 0.000000 0.058835 0.000000
# 6 0.000000 0.000000 0.000000 -0.007163 0.000000 0.077965
#
#
# Mechanical properties :
#
#
# Convention : Reuss Voigt Hill
#
# Bulk Modulus (GPa) = 10.68133 35.76076 23.22105
# Shear Modulus (GPa) = 16.79904 30.15862 23.47883
#
# Velocity S-wave (km/s) = 2.61752 3.50714 3.09446
# Velocity P-wave (km/s) = 3.67308 5.56640 4.71574
#
# Compressibility (1/GPa) = 0.09362129
#
# Stress axis : x y z
#
# Youngs Moduli (GPa) = 15.05603 86.69931 136.97158
#
# Poissons Ratio (x) = -0.03120 -0.52879
# Poissons Ratio (y) = -0.00542 0.00501
# Poissons Ratio (z) = -0.05813 0.00317
#
# Static dielectric constant tensor:
#      x y z
#    x 4.050020 0.000000 -0.206280 
#    y 0.000000 4.278010 0.000000 
#    z -0.206280 0.000000 5.155240 
# 
# 
# High freq. dielectric constant tensor:
#      x y z
#    x 1.940880 0.000000 -0.012020 
#    y 0.000000 1.974640 0.000000 
#    z -0.012020 0.000000 1.997230 
# 
# From -- ./inp_files/77994.got.cif
#   From: 2010.06.25/outbox.cif.g09.slc.cpg/sg15_39_cif.got.tgz:77994.got - 2010.06.28 07:06:18.
