data_PCOD8147891
_publ_section_title
;
Structure prediction by ZEFSAII (Michael W. Deem and Ramdas Pophale) SiO2 
 PCOD8147891
Probable space group: C 2/C
;
_chemical_formula_sum "Si O2"
_cell_formula_units_Z 28
_cell_length_a 18.196080
_cell_length_b 11.657740
_cell_length_c 10.245554
_cell_angle_alpha 90.000000
_cell_angle_beta 36.004895
_cell_angle_gamma 90.000000
_cell_volume 1277.607341
_symmetry_space_group_name_H-M "C 2/C"
_symmetry_group_IT_number 15
_symmetry_cell_setting 'monoclinic'
loop_
_space_group_symop_operation_xyz
x,y,z
-x,y,1/2-z
-x,-y,-z
x,-y,1/2+z
1/2+x,1/2+y,z
1/2-x,1/2+y,1/2-z
1/2-x,1/2-y,-z
1/2+x,1/2-y,1/2+z
loop_
_atom_site_type_symbol
_atom_site_label
_atom_site_fract_x
_atom_site_fract_y
_atom_site_fract_z
Si Si1 0.000000 0.665866 0.250000
Si Si2 0.698098 0.729148 0.276422
Si Si3 0.138670 0.903553 0.604810
Si Si4 0.714749 0.127476 0.110185
O O1 0.084636 0.588659 0.227350
O O2 0.915816 0.745435 0.463074
O O3 0.640426 0.665235 0.236459
O O4 0.794070 0.646080 0.219602
O O5 0.768511 0.845170 0.133148
O O6 0.000000 0.903728 0.750000
O O7 0.181501 0.032770 0.570974
O O8 0.750000 0.250000 0.000000
#
# Coordination Sequence:
#
# PCOD8147891 Si02
#       4
#     4   8   8   8
#     4  10  22  46  64  98 140 168 222 272 334 400
#     4  10  24  45  68 103 130 176 222 278 338 389
#     4  11  25  45  72  99 133 176 227 276 329 401
#     4  10  24  41  68 100 131 178 221 275 336 387
#
# _framework density 21.915966999999998
#
# number of rings (size 3 to 8) (size 9 to 14) (size 15 to 20)
#    0.000    1.714    0.000    1.714   16.000    2.286 
#   10.286    0.000    0.000    0.000    0.000    0.000 
#    0.000    0.000    0.000    0.000    0.000    0.000 
#
# Total GULP energy -173522.911508 kJ/mol
# GULP energy per Si atom -12394.493679 kJ/mol
# Density = 2.186609 g / cm^3
# Si number density = 21.915967 Si / 1000 Ang^3
#
#
#
# Elastic Constant Matrix: (Units=GPa)
#
#
# Indices 1 2 3 4 5 6 
#
# 1 212.6292 55.9608 73.4547 0.0000 -36.1315 0.0000
# 2 55.9608 125.3938 58.4656 0.0000 -15.3276 0.0000
# 3 73.4547 58.4656 128.6401 0.0000 3.3579 0.0000
# 4 0.0000 0.0000 0.0000 22.4170 0.0000 -5.7744
# 5 -36.1315 -15.3276 3.3579 0.0000 34.0946 0.0000
# 6 0.0000 0.0000 0.0000 -5.7744 0.0000 28.6645
#
#
#
# Elastic Compliance Matrix: (Units=1/GPa)
#
#
# Indices 1 2 3 4 5 6 
#
# 1 0.007815 -0.000321 -0.004540 0.000000 0.008584 0.000000
# 2 -0.000321 0.011067 -0.004980 0.000000 0.005125 0.000000
# 3 -0.004540 -0.004980 0.012847 0.000000 -0.008316 0.000000
# 4 0.000000 0.000000 0.000000 0.047051 0.000000 0.009478
# 5 0.008584 0.005125 -0.008316 0.000000 0.041551 0.000000
# 6 0.000000 0.000000 0.000000 0.009478 0.000000 0.036796
#
#
# Mechanical properties :
#
#
# Convention : Reuss Voigt Hill
#
# Bulk Modulus (GPa) = 83.02356 93.60282 88.31319
# Shear Modulus (GPa) = 27.65129 35.62068 31.63599
#
# Velocity S-wave (km/s) = 3.55589 4.03591 3.80348
# Velocity P-wave (km/s) = 7.40433 8.03248 7.72479
#
# Compressibility (1/GPa) = 0.01204477
#
# Stress axis : x y z
#
# Youngs Moduli (GPa) = 127.96158 90.36120 77.84112
#
# Poissons Ratio (x) = 0.02903 0.35343
# Poissons Ratio (y) = 0.04111 0.38765
# Poissons Ratio (z) = 0.58100 0.45000
#
# Static dielectric constant tensor:
#      x y z
#    x 5.466230 0.000000 -0.172380 
#    y 0.000000 3.785270 0.000000 
#    z -0.172380 0.000000 3.810160 
# 
# 
# High freq. dielectric constant tensor:
#      x y z
#    x 1.907260 0.000000 -0.000340 
#    y 0.000000 1.846790 0.000000 
#    z -0.000340 0.000000 1.842480 
# 
# From -- ./inp_files/83499.got.cif
#   From: 2010.06.25/outbox.cif.g09.slc.cpg/sg15_42_cif.got.tgz:83499.got - 2010.06.28 07:06:18.
