data_PCOD8147900
_publ_section_title
;
Structure prediction by ZEFSAII (Michael W. Deem and Ramdas Pophale) SiO2 
 PCOD8147900
Probable space group: C 2/C
;
_chemical_formula_sum "Si O2"
_cell_formula_units_Z 60
_cell_length_a 19.741580
_cell_length_b 12.011705
_cell_length_c 20.839893
_cell_angle_alpha 90.000000
_cell_angle_beta 144.470936
_cell_angle_gamma 90.000000
_cell_volume 2871.737719
_symmetry_space_group_name_H-M "C 2/C"
_symmetry_group_IT_number 15
_symmetry_cell_setting 'monoclinic'
loop_
_space_group_symop_operation_xyz
x,y,z
-x,y,1/2-z
-x,-y,-z
x,-y,1/2+z
1/2+x,1/2+y,z
1/2-x,1/2+y,1/2-z
1/2-x,1/2-y,-z
1/2+x,1/2-y,1/2+z
loop_
_atom_site_type_symbol
_atom_site_label
_atom_site_fract_x
_atom_site_fract_y
_atom_site_fract_z
Si Si1 0.664882 0.408080 0.291029
Si Si2 0.451861 0.097452 0.314599
Si Si3 0.846319 0.449479 0.999062
Si Si4 0.830909 0.786148 0.435151
Si Si5 0.369872 0.912706 0.159058
Si Si6 0.000000 0.228601 0.750000
Si Si7 0.041802 0.939089 0.595510
Si Si8 0.761886 0.722608 0.242696
O O1 0.739760 0.508955 0.375017
O O2 0.605856 0.349382 0.307660
O O3 0.573717 0.466248 0.172173
O O4 0.749018 0.319722 0.319404
O O5 0.524032 0.192002 0.330445
O O6 0.365319 0.142835 0.300794
O O7 0.541725 0.026388 0.425317
O O8 0.375817 0.022593 0.207453
O O9 0.812904 0.448794 0.048076
O O10 0.879443 0.328642 0.999509
O O11 0.707047 0.815474 0.370762
O O12 0.806367 0.782709 0.340838
O O13 0.927779 0.874436 0.531723
O O14 0.500000 0.863610 0.250000
O O15 0.144702 0.849653 0.660802
O O16 0.000000 0.000000 0.500000
#
# Coordination Sequence:
#
# PCOD8147900 Si02
#       8
#     8   8   8   8   8   4   8   8
#     4  11  26  43  69 102 137 175 237 287 338 415
#     4  10  22  46  70  95 136 177 232 281 344 413
#     4  11  24  42  67 103 131 182 229 283 348 408
#     4  12  26  43  70 100 140 183 227 283 350 417
#     4  10  23  45  70  97 136 180 227 282 343 411
#     4  10  22  46  66  98 132 174 226 284 340 402
#     4  12  26  47  67 101 143 184 228 284 356 403
#     4  11  26  45  69 102 136 184 231 285 346 420
#
# _framework density 20.893272
#
# number of rings (size 3 to 8) (size 9 to 14) (size 15 to 20)
#    0.000    1.067    4.667    1.200    7.467    1.067 
#    1.200    0.000    0.000    0.000    0.000    0.000 
#    0.000    0.000    0.000    0.000    0.000    0.000 
#
# Total GULP energy -371928.364613 kJ/mol
# GULP energy per Si atom -12397.612154 kJ/mol
# Density = 2.084572 g / cm^3
# Si number density = 20.893272 Si / 1000 Ang^3
#
#
#
# Elastic Constant Matrix: (Units=GPa)
#
#
# Indices 1 2 3 4 5 6 
#
# 1 93.0866 29.4935 46.3462 0.0000 18.7564 0.0000
# 2 29.4935 105.9027 46.9941 0.0000 13.7704 0.0000
# 3 46.3462 46.9941 98.1246 0.0000 -5.8654 0.0000
# 4 0.0000 0.0000 0.0000 40.1585 0.0000 6.4068
# 5 18.7564 13.7704 -5.8654 0.0000 32.7015 0.0000
# 6 0.0000 0.0000 0.0000 6.4068 0.0000 36.8382
#
#
#
# Elastic Compliance Matrix: (Units=1/GPa)
#
#
# Indices 1 2 3 4 5 6 
#
# 1 0.017641 0.000880 -0.009482 0.000000 -0.012190 0.000000
# 2 0.000880 0.013395 -0.007276 0.000000 -0.007450 0.000000
# 3 -0.009482 -0.007276 0.018865 0.000000 0.011886 0.000000
# 4 0.000000 0.000000 0.000000 0.025612 0.000000 -0.004454
# 5 -0.012190 -0.007450 0.011886 0.000000 0.042840 0.000000
# 6 0.000000 0.000000 0.000000 -0.004454 0.000000 0.027920
#
#
# Mechanical properties :
#
#
# Convention : Reuss Voigt Hill
#
# Bulk Modulus (GPa) = 55.11448 60.30906 57.71177
# Shear Modulus (GPa) = 27.16225 33.55831 30.36028
#
# Velocity S-wave (km/s) = 3.60953 4.01206 3.81611
# Velocity P-wave (km/s) = 6.61876 7.09860 6.86287
#
# Compressibility (1/GPa) = 0.01814405
#
# Stress axis : x y z
#
# Youngs Moduli (GPa) = 56.68582 74.65407 53.00838
#
# Poissons Ratio (x) = -0.06567 0.50264
# Poissons Ratio (y) = -0.04987 0.38569
# Poissons Ratio (z) = 0.53751 0.54319
#
# Static dielectric constant tensor:
#      x y z
#    x 3.902280 0.000000 -0.042790 
#    y 0.000000 3.925490 0.000000 
#    z -0.042790 0.000000 3.717980 
# 
# 
# High freq. dielectric constant tensor:
#      x y z
#    x 1.826350 0.000000 -0.006430 
#    y 0.000000 1.834530 0.000000 
#    z -0.006430 0.000000 1.808860 
# 
# From -- ./inp_files/280100.got.cif
#   From: 2010.06.25/outbox.cif.g09.slc.cpg/sg15_141_cif.got.tgz:280100.got - 2010.06.28 07:06:18.
