data_PCOD8147569
_publ_section_title
;
Structure prediction by ZEFSAII (Michael W. Deem and Ramdas Pophale) SiO2 
 PCOD8147569
Probable space group: C 2/C
;
_chemical_formula_sum "Si O2"
_cell_formula_units_Z 36
_cell_length_a 28.216726
_cell_length_b 5.282286
_cell_length_c 10.271282
_cell_angle_alpha 90.000000
_cell_angle_beta 58.922526
_cell_angle_gamma 90.000000
_cell_volume 1311.189278
_symmetry_space_group_name_H-M "C 2/C"
_symmetry_group_IT_number 15
_symmetry_cell_setting 'monoclinic'
loop_
_space_group_symop_operation_xyz
x,y,z
-x,y,1/2-z
-x,-y,-z
x,-y,1/2+z
1/2+x,1/2+y,z
1/2-x,1/2+y,1/2-z
1/2-x,1/2-y,-z
1/2+x,1/2-y,1/2+z
loop_
_atom_site_type_symbol
_atom_site_label
_atom_site_fract_x
_atom_site_fract_y
_atom_site_fract_z
Si Si1 0.214885 0.460245 0.624057
Si Si2 0.561477 0.992653 0.356511
Si Si3 0.500000 0.720808 0.250000
Si Si4 0.414454 0.510373 0.548004
Si Si5 0.680719 0.243193 0.441331
O O1 0.250000 0.250000 0.500000
O O2 0.257217 0.668512 0.617108
O O3 0.168792 0.562696 0.584295
O O4 0.180744 0.380296 0.798477
O O5 0.551578 0.901664 0.221273
O O6 0.595255 0.767349 0.381137
O O7 0.500000 0.000000 0.500000
O O8 0.590312 0.266799 0.334191
O O9 0.475446 0.538141 0.396551
O O10 0.366644 0.543876 0.504810
#
# Coordination Sequence:
#
# PCOD8147569 Si02
#       5
#     8   8   4   8   8
#     4  11  24  47  72 102 151 189 248 313 378 450
#     4  10  23  43  65  97 138 182 237 294 357 429
#     4  10  22  44  66  96 138 182 226 298 356 432
#     4  11  26  41  71 103 138 185 243 295 366 436
#     4  11  26  44  74 107 143 199 245 312 378 451
#
# _framework density 27.455991999999998
#
# number of rings (size 3 to 8) (size 9 to 14) (size 15 to 20)
#    0.000    1.333    2.222    2.667    6.222    9.778 
#    0.000    0.000    0.000    0.000    0.000    0.000 
#    0.000    0.000    0.000    0.000    0.000    0.000 
#
# Total GULP energy -223032.456169 kJ/mol
# GULP energy per Si atom -12390.692009 kJ/mol
# Density = 2.739350 g / cm^3
# Si number density = 27.455992 Si / 1000 Ang^3
#
#
#
# Elastic Constant Matrix: (Units=GPa)
#
#
# Indices 1 2 3 4 5 6 
#
# 1 143.7921 28.8535 12.5262 0.0000 21.4810 0.0000
# 2 28.8535 119.5048 24.9790 0.0000 16.7019 0.0000
# 3 12.5262 24.9790 95.4482 0.0000 43.7249 0.0000
# 4 0.0000 0.0000 0.0000 27.2568 0.0000 -2.2165
# 5 21.4810 16.7019 43.7249 0.0000 31.3276 0.0000
# 6 0.0000 0.0000 0.0000 -2.2165 0.0000 42.5520
#
#
#
# Elastic Compliance Matrix: (Units=1/GPa)
#
#
# Indices 1 2 3 4 5 6 
#
# 1 0.008533 -0.001409 0.004395 0.000000 -0.011234 0.000000
# 2 -0.001409 0.009281 -0.001164 0.000000 -0.002357 0.000000
# 3 0.004395 -0.001164 0.031338 0.000000 -0.046133 0.000000
# 4 0.000000 0.000000 0.000000 0.036844 0.000000 0.001919
# 5 -0.011234 -0.002357 -0.046133 0.000000 0.105270 0.000000
# 6 0.000000 0.000000 0.000000 0.001919 0.000000 0.023601
#
#
# Mechanical properties :
#
#
# Convention : Reuss Voigt Hill
#
# Bulk Modulus (GPa) = 18.94053 54.60697 36.77375
# Shear Modulus (GPa) = 21.85119 39.71970 30.78545
#
# Velocity S-wave (km/s) = 2.82416 3.80763 3.35216
# Velocity P-wave (km/s) = 4.18904 6.26601 5.32968
#
# Compressibility (1/GPa) = 0.05279685
#
# Stress axis : x y z
#
# Youngs Moduli (GPa) = 117.19790 107.74986 31.90983
#
# Poissons Ratio (x) = 0.15179 -0.14026
# Poissons Ratio (y) = 0.16510 0.03715
# Poissons Ratio (z) = -0.51513 0.12543
#
# Static dielectric constant tensor:
#      x y z
#    x 14.366870 0.000000 2.165940 
#    y 0.000000 5.027560 0.000000 
#    z 2.165940 0.000000 5.441990 
# 
# 
# High freq. dielectric constant tensor:
#      x y z
#    x 2.136820 0.000000 0.005020 
#    y 0.000000 2.087850 0.000000 
#    z 0.005020 0.000000 2.098380 
# 
# From -- ./inp_files/120554.got.cif
#   From: 2010.06.25/outbox.cif.g09.slc.cpg/sg15_61_cif.got.tgz:120554.got - 2010.06.28 07:06:18.
