data_PCOD8147735
_publ_section_title
;
Structure prediction by ZEFSAII (Michael W. Deem and Ramdas Pophale) SiO2 
 PCOD8147735
Probable space group: C 2/C
;
_chemical_formula_sum "Si O2"
_cell_formula_units_Z 44
_cell_length_a 11.084382
_cell_length_b 13.249925
_cell_length_c 13.785585
_cell_angle_alpha 90.000000
_cell_angle_beta 98.638137
_cell_angle_gamma 90.000000
_cell_volume 2001.684321
_symmetry_space_group_name_H-M "C 2/C"
_symmetry_group_IT_number 15
_symmetry_cell_setting 'monoclinic'
loop_
_space_group_symop_operation_xyz
x,y,z
-x,y,1/2-z
-x,-y,-z
x,-y,1/2+z
1/2+x,1/2+y,z
1/2-x,1/2+y,1/2-z
1/2-x,1/2-y,-z
1/2+x,1/2-y,1/2+z
loop_
_atom_site_type_symbol
_atom_site_label
_atom_site_fract_x
_atom_site_fract_y
_atom_site_fract_z
Si Si1 0.500000 0.361410 0.750000
Si Si2 0.705091 0.908511 0.388962
Si Si3 0.901019 0.383019 0.659495
Si Si4 0.527878 0.816304 0.037540
Si Si5 0.061807 0.905054 0.960371
Si Si6 0.284072 0.220733 0.794290
O O1 0.554501 0.427725 0.844256
O O2 0.389430 0.294168 0.772202
O O3 0.577092 0.862954 0.407756
O O4 0.799486 0.892648 0.487870
O O5 0.753583 0.853354 0.297704
O O6 0.695710 0.026688 0.362943
O O7 0.971060 0.368310 0.566627
O O8 0.834944 0.280939 0.685384
O O9 0.000000 0.416479 0.750000
O O10 0.509954 0.696776 0.021611
O O11 0.657865 0.838578 0.106416
O O12 0.000000 0.000000 0.000000
#
# Coordination Sequence:
#
# PCOD8147735 Si02
#       6
#     4   8   8   8   8   8
#     4  10  22  44  72  90 134 174 230 272 338 404
#     4  12  23  44  74  96 135 185 227 276 342 414
#     4  12  27  42  65 105 141 174 228 284 343 402
#     4  11  23  46  67 101 137 174 229 281 343 406
#     4  11  24  44  67 101 134 179 231 273 340 404
#     4  11  22  45  71  99 134 177 224 284 336 410
#
# _framework density 21.981487999999999
#
# number of rings (size 3 to 8) (size 9 to 14) (size 15 to 20)
#    0.000    0.727    3.636    6.000    2.545    0.000 
#   11.455    0.000    0.000    0.000    0.000    0.000 
#    0.000    0.000    0.000    0.000    0.000    0.000 
#
# Total GULP energy -272870.201674 kJ/mol
# GULP energy per Si atom -12403.190985 kJ/mol
# Density = 2.193146 g / cm^3
# Si number density = 21.981488 Si / 1000 Ang^3
#
#
#
# Elastic Constant Matrix: (Units=GPa)
#
#
# Indices 1 2 3 4 5 6 
#
# 1 56.6348 12.4303 29.7316 0.0000 13.7477 0.0000
# 2 12.4303 95.4006 47.5943 0.0000 0.3154 0.0000
# 3 29.7316 47.5943 184.9188 0.0000 26.0080 0.0000
# 4 0.0000 0.0000 0.0000 -23.6716 0.0000 33.1365
# 5 13.7477 0.3154 26.0080 0.0000 48.1274 0.0000
# 6 0.0000 0.0000 0.0000 33.1365 0.0000 15.5343
#
#
#
# Elastic Compliance Matrix: (Units=1/GPa)
#
#
# Indices 1 2 3 4 5 6 
#
# 1 0.020269 -0.001516 -0.002225 0.000000 -0.004578 0.000000
# 2 -0.001516 0.012274 -0.003209 0.000000 0.002087 0.000000
# 3 -0.002225 -0.003209 0.007034 0.000000 -0.003144 0.000000
# 4 0.000000 0.000000 0.000000 -0.010598 0.000000 0.022607
# 5 -0.004578 0.002087 -0.003144 0.000000 0.023771 0.000000
# 6 0.000000 0.000000 0.000000 0.022607 0.000000 0.016150
#
#
# Mechanical properties :
#
#
# Convention : Reuss Voigt Hill
#
# Bulk Modulus (GPa) = 38.94523 57.38519 48.16521
# Shear Modulus (GPa) = 54.73046 24.47789 39.60418
#
# Velocity S-wave (km/s) = 4.99525 3.34064 4.24926
# Velocity P-wave (km/s) = 7.14323 6.40645 6.78485
#
# Compressibility (1/GPa) = 0.02567709
#
# Stress axis : x y z
#
# Youngs Moduli (GPa) = 49.33677 81.47628 142.17472
#
# Poissons Ratio (x) = 0.12351 0.31632
# Poissons Ratio (y) = 0.07479 0.45620
# Poissons Ratio (z) = 0.10977 0.26143
#
# Static dielectric constant tensor:
#      x y z
#    x 3.637570 0.000000 0.149070 
#    y 0.000000 3.951300 0.000000 
#    z 0.149070 0.000000 4.686120 
# 
# 
# High freq. dielectric constant tensor:
#      x y z
#    x 1.855890 0.000000 0.011490 
#    y 0.000000 1.858810 0.000000 
#    z 0.011490 0.000000 1.889970 
# 
# From -- ./inp_files/86153.got.cif
#   From: 2010.06.25/outbox.cif.g09.slc.cpg/sg15_44_cif.got.tgz:86153.got - 2010.06.28 07:06:18.
