data_PCOD8147672
_publ_section_title
;
Structure prediction by ZEFSAII (Michael W. Deem and Ramdas Pophale) SiO2 
 PCOD8147672
Probable space group: C 2/C
;
_chemical_formula_sum "Si O2"
_cell_formula_units_Z 48
_cell_length_a 14.435694
_cell_length_b 26.375032
_cell_length_c 8.102391
_cell_angle_alpha 90.000000
_cell_angle_beta 142.134024
_cell_angle_gamma 90.000000
_cell_volume 1893.574625
_symmetry_space_group_name_H-M "C 2/C"
_symmetry_group_IT_number 15
_symmetry_cell_setting 'monoclinic'
loop_
_space_group_symop_operation_xyz
x,y,z
-x,y,1/2-z
-x,-y,-z
x,-y,1/2+z
1/2+x,1/2+y,z
1/2-x,1/2+y,1/2-z
1/2-x,1/2-y,-z
1/2+x,1/2-y,1/2+z
loop_
_atom_site_type_symbol
_atom_site_label
_atom_site_fract_x
_atom_site_fract_y
_atom_site_fract_z
Si Si1 0.676242 0.871074 0.475270
Si Si2 0.000000 0.993723 0.750000
Si Si3 0.500000 0.022434 0.250000
Si Si4 0.809613 0.778681 0.822683
Si Si5 0.149946 0.804325 0.261120
Si Si6 0.874120 0.897316 0.464396
Si Si7 0.294834 0.047939 0.235592
O O1 0.723373 0.812158 0.563389
O O2 0.722888 0.896662 0.365580
O O3 0.755913 0.902014 0.736815
O O4 0.500000 0.878389 0.250000
O O5 0.851500 0.026763 0.568258
O O6 0.053646 0.953713 0.972446
O O7 0.414306 0.059053 0.257868
O O8 0.627043 0.989524 0.522073
O O9 0.743969 0.721223 0.741140
O O10 0.769674 0.799510 0.949687
O O11 0.986293 0.778085 0.034547
O O12 0.146596 0.865162 0.230220
O O13 0.000000 0.867012 0.750000
#
# Coordination Sequence:
#
# PCOD8147672 Si02
#       7
#     8   4   4   8   8   8   8
#     4  12  26  44  64  98 138 180 229 279 337 414
#     4  10  24  42  74 101 128 183 234 276 348 396
#     4  10  24  42  68  93 138 177 222 280 348 394
#     4  10  23  43  68 101 135 174 224 272 347 409
#     4  10  22  44  69  99 136 172 218 287 337 408
#     4  10  23  44  66  98 134 171 228 282 331 405
#     4  11  24  46  67 100 138 180 227 290 336 412
#
# _framework density 25.348883000000001
#
# number of rings (size 3 to 8) (size 9 to 14) (size 15 to 20)
#    0.500    1.000    2.500    1.000    4.667    6.667 
#    0.000    0.000    0.000    0.000    0.000    0.000 
#    0.000    0.000    0.000    0.000    0.000    0.000 
#
# Total GULP energy -297325.459036 kJ/mol
# GULP energy per Si atom -12388.560793 kJ/mol
# Density = 2.529119 g / cm^3
# Si number density = 25.348883 Si / 1000 Ang^3
#
#
#
# Elastic Constant Matrix: (Units=GPa)
#
#
# Indices 1 2 3 4 5 6 
#
# 1 82.2889 -8.0392 21.2045 0.0000 15.7556 0.0000
# 2 -8.0392 63.3934 10.5398 0.0000 9.2357 0.0000
# 3 21.2045 10.5398 90.6858 0.0000 21.9639 0.0000
# 4 0.0000 0.0000 0.0000 28.8251 0.0000 11.2512
# 5 15.7556 9.2357 21.9639 0.0000 38.7946 0.0000
# 6 0.0000 0.0000 0.0000 11.2512 0.0000 8.0307
#
#
#
# Elastic Compliance Matrix: (Units=1/GPa)
#
#
# Indices 1 2 3 4 5 6 
#
# 1 0.014017 0.002909 -0.002398 0.000000 -0.005028 0.000000
# 2 0.002909 0.017042 -0.001613 0.000000 -0.004325 0.000000
# 3 -0.002398 -0.001613 0.013265 0.000000 -0.006152 0.000000
# 4 0.000000 0.000000 0.000000 0.076558 0.000000 -0.107260
# 5 -0.005028 -0.004325 -0.006152 0.000000 0.032332 0.000000
# 6 0.000000 0.000000 0.000000 -0.107260 0.000000 0.274795
#
#
# Mechanical properties :
#
#
# Convention : Reuss Voigt Hill
#
# Bulk Modulus (GPa) = 23.74220 31.53093 27.63657
# Shear Modulus (GPa) = 11.25484 29.30761 20.28123
#
# Velocity S-wave (km/s) = 2.10941 3.40394 2.83164
# Velocity P-wave (km/s) = 3.91399 5.28345 4.64942
#
# Compressibility (1/GPa) = 0.04211910
#
# Stress axis : x y z
#
# Youngs Moduli (GPa) = 71.34207 58.67962 75.38438
#
# Poissons Ratio (x) = -0.17068 0.18076
# Poissons Ratio (y) = -0.20751 0.12161
# Poissons Ratio (z) = 0.17107 0.09467
#
# Static dielectric constant tensor:
#      x y z
#    x 4.485610 0.000000 0.016810 
#    y 0.000000 4.412810 0.000000 
#    z 0.016810 0.000000 4.561830 
# 
# 
# High freq. dielectric constant tensor:
#      x y z
#    x 2.009910 0.000000 0.008370 
#    y 0.000000 1.993870 0.000000 
#    z 0.008370 0.000000 2.009090 
# 
# From -- ./inp_files/43998.got.cif
#   From: 2010.06.25/outbox.cif.g09.slc.cpg/sg15_22_cif.got.tgz:43998.got - 2010.06.28 07:06:18.
