data_PCOD8147691
_publ_section_title
;
Structure prediction by ZEFSAII (Michael W. Deem and Ramdas Pophale) SiO2 
 PCOD8147691
Probable space group: C 2/C
;
_chemical_formula_sum "Si O2"
_cell_formula_units_Z 48
_cell_length_a 9.421279
_cell_length_b 22.847034
_cell_length_c 11.167369
_cell_angle_alpha 90.000000
_cell_angle_beta 73.799542
_cell_angle_gamma 90.000000
_cell_volume 2308.307296
_symmetry_space_group_name_H-M "C 2/C"
_symmetry_group_IT_number 15
_symmetry_cell_setting 'monoclinic'
loop_
_space_group_symop_operation_xyz
x,y,z
-x,y,1/2-z
-x,-y,-z
x,-y,1/2+z
1/2+x,1/2+y,z
1/2-x,1/2+y,1/2-z
1/2-x,1/2-y,-z
1/2+x,1/2-y,1/2+z
loop_
_atom_site_type_symbol
_atom_site_label
_atom_site_fract_x
_atom_site_fract_y
_atom_site_fract_z
Si Si1 0.000000 0.621949 0.750000
Si Si2 0.718818 0.303392 0.359211
Si Si3 0.130087 0.474147 0.392261
Si Si4 0.405386 0.443856 0.480861
Si Si5 0.500000 0.637917 0.750000
Si Si6 0.354076 0.316609 0.861549
Si Si7 0.160465 0.933858 0.750372
O O1 0.874812 0.663077 0.837294
O O2 0.924613 0.582564 0.665706
O O3 0.638971 0.321478 0.253153
O O4 0.619938 0.315977 0.500929
O O5 0.740467 0.233649 0.348634
O O6 0.252565 0.461726 0.460412
O O7 0.206977 0.518905 0.280477
O O8 0.000000 0.500000 0.500000
O O9 0.500000 0.500000 0.500000
O O10 0.489560 0.402295 0.369444
O O11 0.363265 0.408336 0.610726
O O12 0.500000 0.306642 0.750000
O O13 0.289668 0.380670 0.846348
O O14 0.000000 0.961768 0.750000
#
# Coordination Sequence:
#
# PCOD8147691 Si02
#       7
#     4   8   8   8   4   8   8
#     4  12  24  44  63  99 142 178 226 272 350 410
#     4  11  24  44  71  97 133 178 231 282 343 405
#     4  12  25  40  65  99 138 177 218 281 341 409
#     4  12  24  40  64  97 134 174 222 276 331 406
#     4  12  24  44  67 101 128 180 230 276 334 410
#     4  10  22  44  70  96 129 179 227 282 340 406
#     4  11  22  41  66  97 132 178 227 272 338 413
#
# _framework density 20.794457999999999
#
# number of rings (size 3 to 8) (size 9 to 14) (size 15 to 20)
#    0.000    0.667    4.167    5.000    2.333    0.000 
#    0.000    9.167    0.000    0.000    0.000    0.000 
#    0.000    0.000    0.000    0.000    0.000    0.000 
#
# Total GULP energy -297485.517579 kJ/mol
# GULP energy per Si atom -12395.229899 kJ/mol
# Density = 2.074713 g / cm^3
# Si number density = 20.794458 Si / 1000 Ang^3
#
#
#
# Elastic Constant Matrix: (Units=GPa)
#
#
# Indices 1 2 3 4 5 6 
#
# 1 115.0612 30.5915 27.2386 0.0000 5.4144 0.0000
# 2 30.5915 75.2979 11.7845 0.0000 0.3989 0.0000
# 3 27.2386 11.7845 110.1088 0.0000 -2.9995 0.0000
# 4 0.0000 0.0000 0.0000 31.9525 0.0000 3.5217
# 5 5.4144 0.3989 -2.9995 0.0000 40.4483 0.0000
# 6 0.0000 0.0000 0.0000 3.5217 0.0000 28.6074
#
#
#
# Elastic Compliance Matrix: (Units=1/GPa)
#
#
# Indices 1 2 3 4 5 6 
#
# 1 0.010297 -0.003835 -0.002178 0.000000 -0.001502 0.000000
# 2 -0.003835 0.014937 -0.000641 0.000000 0.000318 0.000000
# 3 -0.002178 -0.000641 0.009717 0.000000 0.001018 0.000000
# 4 0.000000 0.000000 0.000000 0.031727 0.000000 -0.003906
# 5 -0.001502 0.000318 0.001018 0.000000 0.024996 0.000000
# 6 0.000000 0.000000 0.000000 -0.003906 0.000000 0.035437
#
#
# Mechanical properties :
#
#
# Convention : Reuss Voigt Hill
#
# Bulk Modulus (GPa) = 46.20296 48.85523 47.52909
# Shear Modulus (GPa) = 33.86780 35.59185 34.72983
#
# Velocity S-wave (km/s) = 4.04009 4.14164 4.09118
# Velocity P-wave (km/s) = 6.63552 6.81295 6.72482
#
# Compressibility (1/GPa) = 0.02164364
#
# Stress axis : x y z
#
# Youngs Moduli (GPa) = 97.11821 66.94725 102.91199
#
# Poissons Ratio (x) = 0.25671 0.22411
# Poissons Ratio (y) = 0.37240 0.06601
# Poissons Ratio (z) = 0.21150 0.04294
#
# Static dielectric constant tensor:
#      x y z
#    x 3.579200 0.000000 0.013760 
#    y 0.000000 4.228250 0.000000 
#    z 0.013760 0.000000 4.064450 
# 
# 
# High freq. dielectric constant tensor:
#      x y z
#    x 1.805330 0.000000 -0.000060 
#    y 0.000000 1.816680 0.000000 
#    z -0.000060 0.000000 1.832400 
# 
# From -- ./inp_files/79429.got.cif
#   From: 2010.06.25/outbox.cif.g09.slc.cpg/sg15_40_cif.got.tgz:79429.got - 2010.06.28 07:06:18.
