data_PCOD8147710
_publ_section_title
;
Structure prediction by ZEFSAII (Michael W. Deem and Ramdas Pophale) SiO2 
 PCOD8147710
Probable space group: C 2/C
;
_chemical_formula_sum "Si O2"
_cell_formula_units_Z 36
_cell_length_a 20.780049
_cell_length_b 6.580703
_cell_length_c 21.718323
_cell_angle_alpha 90.000000
_cell_angle_beta 153.523124
_cell_angle_gamma 90.000000
_cell_volume 1324.100210
_symmetry_space_group_name_H-M "C 2/C"
_symmetry_group_IT_number 15
_symmetry_cell_setting 'monoclinic'
loop_
_space_group_symop_operation_xyz
x,y,z
-x,y,1/2-z
-x,-y,-z
x,-y,1/2+z
1/2+x,1/2+y,z
1/2-x,1/2+y,1/2-z
1/2-x,1/2-y,-z
1/2+x,1/2-y,1/2+z
loop_
_atom_site_type_symbol
_atom_site_label
_atom_site_fract_x
_atom_site_fract_y
_atom_site_fract_z
Si Si1 0.621660 0.817102 0.761347
Si Si2 0.513858 0.310916 0.594944
Si Si3 0.564518 0.768842 0.004865
Si Si4 0.500000 0.521069 0.750000
Si Si5 0.207581 0.736856 0.872596
O O1 0.537522 0.903181 0.628612
O O2 0.767122 0.698282 0.866717
O O3 0.509744 0.660524 0.697865
O O4 0.661684 0.000853 0.841568
O O5 0.483632 0.538893 0.548097
O O6 0.537267 0.175585 0.553127
O O7 0.378153 0.228364 0.518079
O O8 0.651496 0.306746 0.757172
O O9 0.641207 0.373478 0.871559
#
# Coordination Sequence:
#
# PCOD8147710 Si02
#       5
#     8   8   8   4   8
#     4  11  25  44  68 101 130 178 220 268 333 390
#     4  10  22  44  71 102 134 167 218 277 335 392
#     4  10  22  44  71 102 134 167 218 277 335 392
#     4  12  26  48  64  92 144 176 222 276 316 386
#     4  11  25  44  68 101 130 178 220 268 333 390
#
# _framework density 27.188275999999998
#
# number of rings (size 3 to 8) (size 9 to 14) (size 15 to 20)
#    0.000    1.333    2.222    2.000    3.111    2.667 
#    0.000    0.000    0.000    0.000    0.000    0.000 
#    0.000    0.000    0.000    0.000    0.000    0.000 
#
# Total GULP energy -223227.358530 kJ/mol
# GULP energy per Si atom -12401.519918 kJ/mol
# Density = 2.712639 g / cm^3
# Si number density = 27.188276 Si / 1000 Ang^3
#
#
#
# Elastic Constant Matrix: (Units=GPa)
#
#
# Indices 1 2 3 4 5 6 
#
# 1 119.5984 27.9882 -11.2150 0.0000 11.8712 0.0000
# 2 27.9882 69.7541 -10.2479 -0.0001 13.1248 0.0002
# 3 -11.2150 -10.2479 59.9832 0.0000 9.2378 0.0000
# 4 0.0000 -0.0001 0.0000 33.4621 0.0000 -8.2208
# 5 11.8712 13.1248 9.2378 0.0000 27.5250 0.0000
# 6 0.0000 0.0002 0.0000 -8.2208 0.0000 48.4114
#
#
#
# Elastic Compliance Matrix: (Units=1/GPa)
#
#
# Indices 1 2 3 4 5 6 
#
# 1 0.009547 -0.002944 0.001793 0.000000 -0.003316 0.000000
# 2 -0.002944 0.017652 0.003761 0.000000 -0.008410 0.000000
# 3 0.001793 0.003761 0.019028 0.000000 -0.008952 0.000000
# 4 0.000000 0.000000 0.000000 0.031186 0.000000 0.005296
# 5 -0.003316 -0.008410 -0.008952 0.000000 0.044775 0.000000
# 6 0.000000 0.000000 0.000000 0.005296 0.000000 0.021556
#
#
# Mechanical properties :
#
#
# Convention : Reuss Voigt Hill
#
# Bulk Modulus (GPa) = 19.43753 29.15402 24.29577
# Shear Modulus (GPa) = 32.11869 38.06706 35.09287
#
# Velocity S-wave (km/s) = 3.44080 3.74589 3.59658
# Velocity P-wave (km/s) = 4.79064 5.42726 5.11886
#
# Compressibility (1/GPa) = 0.05144688
#
# Stress axis : x y z
#
# Youngs Moduli (GPa) = 104.74063 56.65090 52.55485
#
# Poissons Ratio (x) = 0.16675 -0.09422
# Poissons Ratio (y) = 0.30831 -0.19764
# Poissons Ratio (z) = -0.18778 -0.21304
#
# Static dielectric constant tensor:
#      x y z
#    x 5.009250 0.000000 0.007890 
#    y 0.000000 5.143670 0.000000 
#    z 0.007890 0.000000 4.684320 
# 
# 
# High freq. dielectric constant tensor:
#      x y z
#    x 2.092610 0.000000 -0.001380 
#    y 0.000000 2.123550 0.000000 
#    z -0.001380 0.000000 2.081780 
# 
# From -- ./inp_files/252067.got.cif
#   From: 2010.06.25/outbox.cif.g09.slc.cpg/sg15_127_cif.got.tgz:252067.got - 2010.06.28 07:06:18.
