data_PCOD8147106
_publ_section_title
;
Structure prediction by ZEFSAII (Michael W. Deem and Ramdas Pophale) SiO2 
 PCOD8147106
Probable space group: C 2/C
;
_chemical_formula_sum "Si O2"
_cell_formula_units_Z 44
_cell_length_a 14.201299
_cell_length_b 10.703366
_cell_length_c 14.217615
_cell_angle_alpha 90.000000
_cell_angle_beta 65.346085
_cell_angle_gamma 90.000000
_cell_volume 1964.104255
_symmetry_space_group_name_H-M "C 2/C"
_symmetry_group_IT_number 15
_symmetry_cell_setting 'monoclinic'
loop_
_space_group_symop_operation_xyz
x,y,z
-x,y,1/2-z
-x,-y,-z
x,-y,1/2+z
1/2+x,1/2+y,z
1/2-x,1/2+y,1/2-z
1/2-x,1/2-y,-z
1/2+x,1/2-y,1/2+z
loop_
_atom_site_type_symbol
_atom_site_label
_atom_site_fract_x
_atom_site_fract_y
_atom_site_fract_z
Si Si1 0.871253 0.331188 0.529830
Si Si2 0.599617 0.903168 0.773925
Si Si3 0.923178 0.330492 0.155901
Si Si4 0.287133 0.315445 0.576802
Si Si5 0.000000 0.872253 0.750000
Si Si6 0.166205 0.066137 0.037718
O O1 0.915721 0.345580 0.616180
O O2 0.844710 0.186643 0.523848
O O3 0.773096 0.421965 0.552245
O O4 0.959822 0.371926 0.419162
O O5 0.500000 0.881451 0.750000
O O6 0.695179 0.832259 0.688498
O O7 0.628196 0.049952 0.772893
O O8 0.868100 0.282702 0.085285
O O9 0.918227 0.216031 0.230514
O O10 0.250000 0.250000 0.500000
O O11 0.337239 0.448383 0.530065
O O12 0.069107 0.953476 0.649547
#
# Coordination Sequence:
#
# PCOD8147106 Si02
#       6
#     8   8   8   8   4   8
#     4  10  22  42  73  99 132 181 223 277 350 400
#     4  12  24  42  72  98 137 175 230 284 336 401
#     4  11  23  43  67  99 134 175 228 277 338 410
#     4  12  27  43  65 101 139 176 232 281 333 407
#     4  10  22  42  70  98 132 182 222 276 348 410
#     4  10  23  44  69  99 138 175 226 280 339 410
#
# _framework density 22.402068
#
# number of rings (size 3 to 8) (size 9 to 14) (size 15 to 20)
#    0.000    1.091    0.909    4.909    7.636    2.909 
#    4.909    0.000    0.000    0.000    0.000    0.000 
#    0.000    0.000    0.000    0.000    0.000    0.000 
#
# Total GULP energy -272878.228352 kJ/mol
# GULP energy per Si atom -12403.555834 kJ/mol
# Density = 2.235108 g / cm^3
# Si number density = 22.402068 Si / 1000 Ang^3
#
#
#
# Elastic Constant Matrix: (Units=GPa)
#
#
# Indices 1 2 3 4 5 6 
#
# 1 108.8100 24.3570 13.1772 0.0000 17.6767 0.0000
# 2 24.3570 58.8445 10.1115 0.0000 -5.3117 0.0000
# 3 13.1772 10.1115 70.7837 0.0000 -0.7672 0.0000
# 4 0.0000 0.0000 0.0000 42.9588 0.0000 13.1559
# 5 17.6767 -5.3117 -0.7672 0.0000 45.2583 0.0000
# 6 0.0000 0.0000 0.0000 13.1559 0.0000 23.7194
#
#
#
# Elastic Compliance Matrix: (Units=1/GPa)
#
#
# Indices 1 2 3 4 5 6 
#
# 1 0.011267 -0.004864 -0.001457 0.000000 -0.004996 0.000000
# 2 -0.004864 0.019705 -0.001864 0.000000 0.004181 0.000000
# 3 -0.001457 -0.001864 0.014672 0.000000 0.000599 0.000000
# 4 0.000000 0.000000 0.000000 0.028041 0.000000 -0.015553
# 5 -0.004996 0.004181 0.000599 0.000000 0.024548 0.000000
# 6 0.000000 0.000000 0.000000 -0.015553 0.000000 0.050786
#
#
# Mechanical properties :
#
#
# Convention : Reuss Voigt Hill
#
# Bulk Modulus (GPa) = 34.16062 37.08105 35.62084
# Shear Modulus (GPa) = 28.54745 35.10680 31.82712
#
# Velocity S-wave (km/s) = 3.57364 3.96299 3.77334
# Velocity P-wave (km/s) = 5.68417 6.12607 5.90926
#
# Compressibility (1/GPa) = 0.02927347
#
# Stress axis : x y z
#
# Youngs Moduli (GPa) = 88.75216 50.74814 68.15931
#
# Poissons Ratio (x) = 0.24686 0.09930
# Poissons Ratio (y) = 0.43173 0.12705
# Poissons Ratio (z) = 0.12929 0.09459
#
# Static dielectric constant tensor:
#      x y z
#    x 5.498480 0.000000 0.806420 
#    y 0.000000 4.177860 0.000000 
#    z 0.806420 0.000000 4.416530 
# 
# 
# High freq. dielectric constant tensor:
#      x y z
#    x 1.886510 0.000000 0.007100 
#    y 0.000000 1.875530 0.000000 
#    z 0.007100 0.000000 1.895450 
# 
# From -- ./inp_files/151732.got.cif
#   From: 2010.06.25/outbox.cif.g09.slc.cpg/sg15_76_cif.got.tgz:151732.got - 2010.06.28 07:06:18.
