data_PCOD8147059
_publ_section_title
;
Structure prediction by ZEFSAII (Michael W. Deem and Ramdas Pophale) SiO2 
 PCOD8147059
Probable space group: C 2/C
;
_chemical_formula_sum "Si O2"
_cell_formula_units_Z 40
_cell_length_a 14.609105
_cell_length_b 27.798879
_cell_length_c 13.692810
_cell_angle_alpha 90.000000
_cell_angle_beta 159.505948
_cell_angle_gamma 90.000000
_cell_volume 1946.920269
_symmetry_space_group_name_H-M "C 2/C"
_symmetry_group_IT_number 15
_symmetry_cell_setting 'monoclinic'
loop_
_space_group_symop_operation_xyz
x,y,z
-x,y,1/2-z
-x,-y,-z
x,-y,1/2+z
1/2+x,1/2+y,z
1/2-x,1/2+y,1/2-z
1/2-x,1/2-y,-z
1/2+x,1/2-y,1/2+z
loop_
_atom_site_type_symbol
_atom_site_label
_atom_site_fract_x
_atom_site_fract_y
_atom_site_fract_z
Si Si1 0.009413 0.505425 0.122474
Si Si2 0.995483 0.383007 0.634691
Si Si3 0.014044 0.865621 0.500938
Si Si4 0.513926 0.445661 0.661470
Si Si5 0.525162 0.718890 0.164698
O O1 0.037966 0.560218 0.183486
O O2 0.254268 0.476303 0.403630
O O3 0.000000 0.500000 0.000000
O O4 0.749083 0.483153 0.906944
O O5 0.000000 0.362368 0.750000
O O6 0.725321 0.369659 0.312536
O O7 0.225818 0.358209 0.802570
O O8 0.042410 0.913600 0.593904
O O9 0.968914 0.822029 0.529700
O O10 0.500000 0.415300 0.750000
O O11 0.500000 0.698297 0.250000
O O12 0.816540 0.738693 0.439640
#
# Coordination Sequence:
#
# PCOD8147059 Si02
#       5
#     8   8   8   8   8
#     4  12  22  41  56  83 125 167 209 253 298 344
#     4  12  25  40  61  86 123 172 213 250 293 346
#     4  12  23  41  64  90 124 154 204 255 299 364
#     4  12  23  37  60  88 121 159 201 254 307 356
#     4  10  22  42  69  99 126 153 187 238 317 390
#
# _framework density 20.545269000000001
#
# number of rings (size 3 to 8) (size 9 to 14) (size 15 to 20)
#    0.000    0.400    4.000    6.000    0.000    0.000 
#    0.000    6.000    0.000   12.000    0.000    0.000 
#    0.000    0.000    0.000    0.000    0.000    0.000 
#
# Total GULP energy -247978.244638 kJ/mol
# GULP energy per Si atom -12398.912232 kJ/mol
# Density = 2.049851 g / cm^3
# Si number density = 20.545269 Si / 1000 Ang^3
#
#
#
# Elastic Constant Matrix: (Units=GPa)
#
#
# Indices 1 2 3 4 5 6 
#
# 1 160.0756 25.5526 38.7098 -0.0041 -14.7342 0.0011
# 2 25.5526 58.4122 2.8253 -0.0020 -1.4977 0.0010
# 3 38.7098 2.8253 109.8682 -0.0162 9.6838 0.0086
# 4 -0.0041 -0.0020 -0.0162 17.1190 -0.0038 1.5728
# 5 -14.7342 -1.4977 9.6838 -0.0038 46.4844 0.0026
# 6 0.0011 0.0010 0.0086 1.5728 0.0026 20.9166
#
#
#
# Elastic Compliance Matrix: (Units=1/GPa)
#
#
# Indices 1 2 3 4 5 6 
#
# 1 0.007725 -0.003163 -0.002901 -0.000001 0.002951 0.000001
# 2 -0.003163 0.018456 0.000689 0.000002 -0.000551 -0.000001
# 3 -0.002901 0.000689 0.010376 0.000009 -0.003059 -0.000004
# 4 -0.000001 0.000002 0.000009 0.058821 0.000003 -0.004423
# 5 0.002951 -0.000551 -0.003059 0.000003 0.023067 -0.000002
# 6 0.000001 -0.000001 -0.000004 -0.004423 -0.000002 0.048141
#
#
# Mechanical properties :
#
#
# Convention : Reuss Voigt Hill
#
# Bulk Modulus (GPa) = 38.75051 51.39238 45.07144
# Shear Modulus (GPa) = 26.89049 34.32189 30.60619
#
# Velocity S-wave (km/s) = 3.62172 4.09167 3.86384
# Velocity P-wave (km/s) = 6.03250 6.88410 6.47232
#
# Compressibility (1/GPa) = 0.02580612
#
# Stress axis : x y z
#
# Youngs Moduli (GPa) = 129.44908 54.18261 96.37962
#
# Poissons Ratio (x) = 0.17140 0.27955
# Poissons Ratio (y) = 0.40950 -0.06636
# Poissons Ratio (z) = 0.37547 -0.03731
#
# Static dielectric constant tensor:
#      x y z
#    x 5.275400 0.001140 -1.086700 
#    y 0.001140 3.825830 -0.001180 
#    z -1.086700 -0.001180 4.886000 
# 
# 
# High freq. dielectric constant tensor:
#      x y z
#    x 1.834560 0.000000 -0.003350 
#    y 0.000000 1.765800 0.000000 
#    z -0.003350 0.000000 1.826770 
# 
# From -- ./inp_files/157280.got.cif
#   From: 2010.06.25/outbox.cif.g09.slc.cpg/sg15_79_cif.got.tgz:157280.got - 2010.06.28 07:06:18.
