data_PCOD8147560
_publ_section_title
;
Structure prediction by ZEFSAII (Michael W. Deem and Ramdas Pophale) SiO2 
 PCOD8147560
Probable space group: C 2/C
;
_chemical_formula_sum "Si O2"
_cell_formula_units_Z 56
_cell_length_a 11.236414
_cell_length_b 8.707667
_cell_length_c 28.955555
_cell_angle_alpha 90.000000
_cell_angle_beta 69.164125
_cell_angle_gamma 90.000000
_cell_volume 2647.821336
_symmetry_space_group_name_H-M "C 2/C"
_symmetry_group_IT_number 15
_symmetry_cell_setting 'monoclinic'
loop_
_space_group_symop_operation_xyz
x,y,z
-x,y,1/2-z
-x,-y,-z
x,-y,1/2+z
1/2+x,1/2+y,z
1/2-x,1/2+y,1/2-z
1/2-x,1/2-y,-z
1/2+x,1/2-y,1/2+z
loop_
_atom_site_type_symbol
_atom_site_label
_atom_site_fract_x
_atom_site_fract_y
_atom_site_fract_z
Si Si1 0.530710 0.537278 0.322316
Si Si2 0.303038 0.025738 0.907184
Si Si3 0.678912 0.966521 0.695138
Si Si4 0.849264 0.138851 0.425143
Si Si5 0.500000 0.711425 0.750000
Si Si6 0.937599 0.863968 0.536048
Si Si7 0.129314 0.437731 0.502377
Si Si8 0.500000 0.785569 0.250000
O O1 0.669276 0.536465 0.325852
O O2 0.421100 0.538589 0.376496
O O3 0.515102 0.386594 0.293980
O O4 0.511482 0.687161 0.294403
O O5 0.281223 0.209921 0.914210
O O6 0.376713 0.985620 0.849580
O O7 0.168449 0.943374 0.918021
O O8 0.373871 0.954712 0.941879
O O9 0.626183 0.812879 0.726028
O O10 0.627091 0.111137 0.731180
O O11 0.952905 0.209043 0.446836
O O12 0.748740 0.029413 0.464553
O O13 0.868008 0.741975 0.511926
O O14 0.000000 0.000000 0.500000
O O15 0.000000 0.500000 0.500000
#
# Coordination Sequence:
#
# PCOD8147560 Si02
#       8
#     8   8   8   8   4   8   8   4
#     4  11  23  43  69  96 131 172 220 274 338 392
#     4  12  24  44  67 100 134 177 228 271 334 400
#     4  11  23  43  69  96 131 172 221 275 333 394
#     4  12  25  44  68 101 137 176 228 278 330 403
#     4  10  26  44  66 100 134 166 224 282 326 412
#     4  12  25  44  70  94 138 180 218 281 330 399
#     4  12  26  45  68 100 141 180 222 275 332 397
#     4  10  22  44  66  94 128 172 214 274 342 390
#
# _framework density 21.149464999999999
#
# number of rings (size 3 to 8) (size 9 to 14) (size 15 to 20)
#    0.000    0.571    5.714    2.571    2.000    0.000 
#    2.571    1.429    0.000    0.000    0.000    0.000 
#    0.000    0.000    0.000    0.000    0.000    0.000 
#
# Total GULP energy -347194.512576 kJ/mol
# GULP energy per Si atom -12399.804021 kJ/mol
# Density = 2.110133 g / cm^3
# Si number density = 21.149465 Si / 1000 Ang^3
#
#
#
# Elastic Constant Matrix: (Units=GPa)
#
#
# Indices 1 2 3 4 5 6 
#
# 1 102.8862 25.3559 23.7678 0.0000 0.3094 0.0000
# 2 25.3559 120.2185 22.6745 0.0000 1.4849 0.0000
# 3 23.7678 22.6745 90.7070 0.0000 9.1641 0.0000
# 4 0.0000 0.0000 0.0000 25.9332 0.0000 1.7457
# 5 0.3094 1.4849 9.1641 0.0000 28.9867 0.0000
# 6 0.0000 0.0000 0.0000 1.7457 0.0000 25.1280
#
#
#
# Elastic Compliance Matrix: (Units=1/GPa)
#
#
# Indices 1 2 3 4 5 6 
#
# 1 0.010726 -0.001813 -0.002433 0.000000 0.000748 0.000000
# 2 -0.001813 0.009038 -0.001797 0.000000 0.000124 0.000000
# 3 -0.002433 -0.001797 0.012498 0.000000 -0.003833 0.000000
# 4 0.000000 0.000000 0.000000 0.038742 0.000000 -0.002691
# 5 0.000748 0.000124 -0.003833 0.000000 0.035696 0.000000
# 6 0.000000 0.000000 0.000000 -0.002691 0.000000 0.039983
#
#
# Mechanical properties :
#
#
# Convention : Reuss Voigt Hill
#
# Bulk Modulus (GPa) = 49.56019 50.82313 50.19166
# Shear Modulus (GPa) = 30.21256 32.14381 31.17818
#
# Velocity S-wave (km/s) = 3.78368 3.90274 3.84367
# Velocity P-wave (km/s) = 6.52476 6.66267 6.59408
#
# Compressibility (1/GPa) = 0.02017748
#
# Stress axis : x y z
#
# Youngs Moduli (GPa) = 93.23160 110.64557 80.00987
#
# Poissons Ratio (x) = 0.20056 0.19466
# Poissons Ratio (y) = 0.16899 0.14377
# Poissons Ratio (z) = 0.22683 0.19881
#
# Static dielectric constant tensor:
#      x y z
#    x 1.616540 0.000000 1.074330 
#    y 0.000000 3.923320 0.000000 
#    z 1.074330 0.000000 3.489430 
# 
# 
# High freq. dielectric constant tensor:
#      x y z
#    x 1.826630 0.000000 -0.000230 
#    y 0.000000 1.840170 0.000000 
#    z -0.000230 0.000000 1.841420 
# 
# From -- ./inp_files/291547.got.cif
#   From: 2010.06.25/outbox.cif.g09.slc.cpg/sg15_146_cif.got.tgz:291547.got - 2010.06.28 07:06:18.
