data_PCOD8147516
_publ_section_title
;
Structure prediction by ZEFSAII (Michael W. Deem and Ramdas Pophale) SiO2 
 PCOD8147516
Probable space group: C 2/C
;
_chemical_formula_sum "Si O2"
_cell_formula_units_Z 44
_cell_length_a 17.230632
_cell_length_b 4.972989
_cell_length_c 21.283413
_cell_angle_alpha 90.000000
_cell_angle_beta 106.458651
_cell_angle_gamma 90.000000
_cell_volume 1748.999393
_symmetry_space_group_name_H-M "C 2/C"
_symmetry_group_IT_number 15
_symmetry_cell_setting 'monoclinic'
loop_
_space_group_symop_operation_xyz
x,y,z
-x,y,1/2-z
-x,-y,-z
x,-y,1/2+z
1/2+x,1/2+y,z
1/2-x,1/2+y,1/2-z
1/2-x,1/2-y,-z
1/2+x,1/2-y,1/2+z
loop_
_atom_site_type_symbol
_atom_site_label
_atom_site_fract_x
_atom_site_fract_y
_atom_site_fract_z
Si Si1 0.701426 0.474270 0.666567
Si Si2 0.143775 0.523615 0.218597
Si Si3 0.271850 0.121728 0.940336
Si Si4 0.094970 0.030726 0.887717
Si Si5 0.072553 0.454720 0.468681
Si Si6 0.500000 0.705060 0.750000
O O1 0.793302 0.435307 0.710566
O O2 0.670599 0.781043 0.666375
O O3 0.698317 0.372007 0.595044
O O4 0.642665 0.283249 0.694852
O O5 0.055794 0.597819 0.222147
O O6 0.191041 0.972082 0.895779
O O7 0.250000 0.250000 0.000000
O O8 0.346499 0.919456 0.970078
O O9 0.081463 0.311872 0.919325
O O10 0.056231 0.810874 0.924636
O O11 0.051373 0.020974 0.809811
O O12 0.000000 0.500000 0.500000
#
# Coordination Sequence:
#
# PCOD8147516 Si02
#       6
#     8   8   8   8   8   4
#     4  10  22  44  64  99 126 178 224 268 334 391
#     4  10  24  40  68  93 135 171 220 280 325 395
#     4  10  23  46  70  98 137 179 223 271 335 404
#     4  11  26  45  67 101 133 181 221 275 342 397
#     4  11  26  45  70  98 134 176 228 280 331 397
#     4  12  26  46  70 102 140 174 226 284 338 398
#
# _framework density 25.157240000000002
#
# number of rings (size 3 to 8) (size 9 to 14) (size 15 to 20)
#    0.000    1.455    1.818    1.091    5.091    8.727 
#    0.000    0.000    0.000    0.000    0.000    0.000 
#    0.000    0.000    0.000    0.000    0.000    0.000 
#
# Total GULP energy -272847.281813 kJ/mol
# GULP energy per Si atom -12402.149173 kJ/mol
# Density = 2.509998 g / cm^3
# Si number density = 25.157240 Si / 1000 Ang^3
#
#
#
# Elastic Constant Matrix: (Units=GPa)
#
#
# Indices 1 2 3 4 5 6 
#
# 1 149.9691 -8.7102 35.5423 0.0001 18.1794 0.0000
# 2 -8.7102 64.6099 -3.1845 0.0001 19.5700 0.0000
# 3 35.5423 -3.1845 120.0607 0.0002 23.4235 -0.0001
# 4 0.0001 0.0001 0.0002 26.0956 0.0000 -4.8365
# 5 18.1794 19.5700 23.4235 0.0000 36.4623 0.0000
# 6 0.0000 0.0000 -0.0001 -4.8365 0.0000 14.7150
#
#
#
# Elastic Compliance Matrix: (Units=1/GPa)
#
#
# Indices 1 2 3 4 5 6 
#
# 1 0.007622 0.002193 -0.001403 0.000000 -0.004076 0.000000
# 2 0.002193 0.019958 0.002496 0.000000 -0.013408 0.000000
# 3 -0.001403 0.002496 0.010216 0.000000 -0.007203 0.000000
# 4 0.000000 0.000000 0.000000 0.040806 0.000000 0.013412
# 5 -0.004076 -0.013408 -0.007203 0.000000 0.041282 0.000000
# 6 0.000000 0.000000 0.000000 0.013412 0.000000 0.072366
#
#
# Mechanical properties :
#
#
# Convention : Reuss Voigt Hill
#
# Bulk Modulus (GPa) = 22.53898 42.43722 32.48810
# Shear Modulus (GPa) = 24.94183 36.18739 30.56461
#
# Velocity S-wave (km/s) = 3.15213 3.79680 3.48938
# Velocity P-wave (km/s) = 4.71450 6.01052 5.40152
#
# Compressibility (1/GPa) = 0.04436758
#
# Stress axis : x y z
#
# Youngs Moduli (GPa) = 131.19913 50.10641 97.88602
#
# Poissons Ratio (x) = -0.10988 0.13734
# Poissons Ratio (y) = -0.28771 -0.24434
# Poissons Ratio (z) = 0.18408 -0.12507
#
# Static dielectric constant tensor:
#      x y z
#    x 5.500810 0.000000 0.663410 
#    y 0.000000 4.085480 0.000000 
#    z 0.663410 0.000000 4.913370 
# 
# 
# High freq. dielectric constant tensor:
#      x y z
#    x 2.010780 0.000000 -0.002990 
#    y 0.000000 1.990470 0.000000 
#    z -0.002990 0.000000 2.015710 
# 
# From -- ./inp_files/246510.got.cif
#   From: 2010.06.25/outbox.cif.g09.slc.cpg/sg15_124_cif.got.tgz:246510.got - 2010.06.28 07:06:18.
