data_PCOD8147852
_publ_section_title
;
Structure prediction by ZEFSAII (Michael W. Deem and Ramdas Pophale) SiO2 
 PCOD8147852
Probable space group: C 2/C
;
_chemical_formula_sum "Si O2"
_cell_formula_units_Z 32
_cell_length_a 11.226867
_cell_length_b 9.219308
_cell_length_c 14.678498
_cell_angle_alpha 90.000000
_cell_angle_beta 58.141570
_cell_angle_gamma 90.000000
_cell_volume 1290.409935
_symmetry_space_group_name_H-M "C 2/C"
_symmetry_group_IT_number 15
_symmetry_cell_setting 'monoclinic'
loop_
_space_group_symop_operation_xyz
x,y,z
-x,y,1/2-z
-x,-y,-z
x,-y,1/2+z
1/2+x,1/2+y,z
1/2-x,1/2+y,1/2-z
1/2-x,1/2-y,-z
1/2+x,1/2-y,1/2+z
loop_
_atom_site_type_symbol
_atom_site_label
_atom_site_fract_x
_atom_site_fract_y
_atom_site_fract_z
Si Si1 0.384569 0.298336 0.190201
Si Si2 0.454413 0.019415 0.414737
Si Si3 0.332706 0.235080 0.874613
Si Si4 0.342935 0.443641 0.391798
O O1 0.438548 0.132250 0.173126
O O2 0.264524 0.328682 0.165429
O O3 0.322628 0.335569 0.314300
O O4 0.519124 0.395745 0.108041
O O5 0.290264 0.067677 0.486544
O O6 0.500000 0.000000 0.500000
O O7 0.462498 0.873424 0.347871
O O8 0.377506 0.398790 0.833472
O O9 0.250000 0.250000 0.000000
#
# Coordination Sequence:
#
# PCOD8147852 Si02
#       4
#     8   8   8   8
#     4  11  23  45  69 104 142 176 236 283 351 404
#     4  11  22  47  72  99 138 183 231 282 347 412
#     4  10  22  45  71  99 135 183 235 283 343 412
#     4  10  24  44  68 107 136 183 233 287 346 408
#
# _framework density 24.798323
#
# number of rings (size 3 to 8) (size 9 to 14) (size 15 to 20)
#    0.000    1.500    5.000    0.750    0.000    8.000 
#   13.500    0.000    0.000    0.000    0.000    0.000 
#    0.000    0.000    0.000    0.000    0.000    0.000 
#
# Total GULP energy -198285.433960 kJ/mol
# GULP energy per Si atom -12392.839623 kJ/mol
# Density = 2.474188 g / cm^3
# Si number density = 24.798323 Si / 1000 Ang^3
#
#
#
# Elastic Constant Matrix: (Units=GPa)
#
#
# Indices 1 2 3 4 5 6 
#
# 1 136.8140 57.1068 10.7300 0.0000 32.5634 0.0000
# 2 57.1068 159.9039 33.1677 0.0000 29.8140 0.0000
# 3 10.7300 33.1677 69.0680 0.0000 8.9562 0.0000
# 4 0.0000 0.0000 0.0000 23.8618 0.0000 18.0928
# 5 32.5634 29.8140 8.9562 0.0000 44.0309 0.0000
# 6 0.0000 0.0000 0.0000 18.0928 0.0000 26.4496
#
#
#
# Elastic Compliance Matrix: (Units=1/GPa)
#
#
# Indices 1 2 3 4 5 6 
#
# 1 0.009632 -0.002498 0.000419 0.000000 -0.005517 0.000000
# 2 -0.002498 0.008412 -0.003238 0.000000 -0.003190 0.000000
# 3 0.000419 -0.003238 0.016150 0.000000 -0.001402 0.000000
# 4 0.000000 0.000000 0.000000 0.087066 0.000000 -0.059557
# 5 -0.005517 -0.003190 -0.001402 0.000000 0.029237 0.000000
# 6 0.000000 0.000000 0.000000 -0.059557 0.000000 0.078548
#
#
# Mechanical properties :
#
#
# Convention : Reuss Voigt Hill
#
# Bulk Modulus (GPa) = 42.44503 63.08830 52.76667
# Shear Modulus (GPa) = 20.19927 36.52056 28.35991
#
# Velocity S-wave (km/s) = 2.85711 3.84174 3.38542
# Velocity P-wave (km/s) = 5.29503 6.72119 6.05028
#
# Compressibility (1/GPa) = 0.02355988
#
# Stress axis : x y z
#
# Youngs Moduli (GPa) = 103.81777 118.87318 61.91862
#
# Poissons Ratio (x) = 0.29696 -0.02592
# Poissons Ratio (y) = 0.25935 0.20049
# Poissons Ratio (z) = -0.04347 0.38491
#
# Static dielectric constant tensor:
#      x y z
#    x 4.281040 0.000000 0.122600 
#    y 0.000000 6.458010 0.000000 
#    z 0.122600 0.000000 5.463370 
# 
# 
# High freq. dielectric constant tensor:
#      x y z
#    x 1.989620 0.000000 -0.001210 
#    y 0.000000 1.996240 0.000000 
#    z -0.001210 0.000000 1.985590 
# 
# From -- ./inp_files/140709.got.cif
#   From: 2010.06.25/outbox.cif.g09.slc.cpg/sg15_71_cif.got.tgz:140709.got - 2010.06.28 07:06:18.
