data_PCOD8147108
_publ_section_title
;
Structure prediction by ZEFSAII (Michael W. Deem and Ramdas Pophale) SiO2 
 PCOD8147108
Probable space group: C 2/C
;
_chemical_formula_sum "Si O2"
_cell_formula_units_Z 44
_cell_length_a 26.544899
_cell_length_b 8.281538
_cell_length_c 24.649845
_cell_angle_alpha 90.000000
_cell_angle_beta 21.437840
_cell_angle_gamma 90.000000
_cell_volume 1980.540256
_symmetry_space_group_name_H-M "C 2/C"
_symmetry_group_IT_number 15
_symmetry_cell_setting 'monoclinic'
loop_
_space_group_symop_operation_xyz
x,y,z
-x,y,1/2-z
-x,-y,-z
x,-y,1/2+z
1/2+x,1/2+y,z
1/2-x,1/2+y,1/2-z
1/2-x,1/2-y,-z
1/2+x,1/2-y,1/2+z
loop_
_atom_site_type_symbol
_atom_site_label
_atom_site_fract_x
_atom_site_fract_y
_atom_site_fract_z
Si Si1 0.426242 0.763274 0.708636
Si Si2 0.707598 0.166039 0.363124
Si Si3 0.317498 0.164449 0.482789
Si Si4 0.384436 0.610764 0.641431
Si Si5 0.500000 0.895168 0.250000
Si Si6 0.071907 0.636162 0.791088
O O1 0.560007 0.732098 0.611976
O O2 0.303973 0.644276 0.851430
O O3 0.457018 0.716394 0.615749
O O4 0.377451 0.950134 0.761715
O O5 0.676591 0.271988 0.342004
O O6 0.823352 0.252803 0.282378
O O7 0.575158 0.138933 0.532578
O O8 0.759324 0.993490 0.290654
O O9 0.250000 0.250000 0.500000
O O10 0.378958 0.997206 0.400225
O O11 0.500000 0.500000 0.500000
O O12 0.437698 0.794561 0.261659
#
# Coordination Sequence:
#
# PCOD8147108 Si02
#       6
#     8   8   8   8   4   8
#     4  11  25  40  71 100 137 172 229 282 330 403
#     4  12  27  47  69 100 138 181 231 281 343 409
#     4  11  19  39  66 103 128 173 221 275 331 390
#     4  12  27  44  70 102 134 180 230 279 343 403
#     4  10  22  42  70  98 140 174 226 278 340 400
#     4  11  25  45  70  98 138 179 225 283 339 402
#
# _framework density 22.216159999999999
#
# number of rings (size 3 to 8) (size 9 to 14) (size 15 to 20)
#    0.000    0.727    5.455    3.273    7.636    2.182 
#    0.000    0.000    0.000    0.000    0.000    0.000 
#    0.000    0.000    0.000    0.000    0.000    0.000 
#
# Total GULP energy -272775.111289 kJ/mol
# GULP energy per Si atom -12398.868695 kJ/mol
# Density = 2.216559 g / cm^3
# Si number density = 22.216160 Si / 1000 Ang^3
#
#
#
# Elastic Constant Matrix: (Units=GPa)
#
#
# Indices 1 2 3 4 5 6 
#
# 1 135.1340 -12.9615 25.4082 0.0219 46.5230 -0.0044
# 2 -12.9615 -5.5290 -11.8147 -0.0284 43.8670 0.0135
# 3 25.4082 -11.8147 119.4865 -0.0067 19.1349 0.0054
# 4 0.0219 -0.0284 -0.0067 23.2376 -0.0018 6.2425
# 5 46.5230 43.8670 19.1349 -0.0018 2.1544 -0.0010
# 6 -0.0044 0.0135 0.0054 6.2425 -0.0010 41.3474
#
#
#
# Elastic Compliance Matrix: (Units=1/GPa)
#
#
# Indices 1 2 3 4 5 6 
#
# 1 0.006976 -0.006459 -0.002226 -0.000017 0.000648 0.000006
# 2 -0.006459 0.006417 -0.001406 0.000016 0.021318 -0.000005
# 3 -0.002226 -0.001406 0.008472 0.000003 0.001447 -0.000001
# 4 -0.000017 0.000016 0.000003 0.044853 0.000029 -0.006772
# 5 0.000648 0.021318 0.001447 0.000029 0.003268 -0.000011
# 6 0.000006 -0.000005 -0.000001 -0.006772 -0.000011 0.025208
#
#
# Mechanical properties :
#
#
# Convention : Reuss Voigt Hill
#
# Bulk Modulus (GPa) = 594.36656 27.81729 311.09192
# Shear Modulus (GPa) = 43.12726 29.91184 36.51955
#
# Velocity S-wave (km/s) = 4.41075 3.67331 4.05881
# Velocity P-wave (km/s) = 17.14813 5.52624 12.73966
#
# Compressibility (1/GPa) = 0.00168246
#
# Stress axis : x y z
#
# Youngs Moduli (GPa) = 143.34726 155.84278 118.03939
#
# Poissons Ratio (x) = 1.00664 0.26274
# Poissons Ratio (y) = 0.92593 0.16595
# Poissons Ratio (z) = 0.31907 0.21909
#
# Static dielectric constant tensor:
#      x y z
#    x 4.722250 -0.008400 -0.082400 
#    y -0.008400 9.167990 -0.011320 
#    z -0.082400 -0.011320 4.498720 
# 
# 
# High freq. dielectric constant tensor:
#      x y z
#    x 1.912820 0.000000 0.005530 
#    y 0.000000 1.848660 0.000000 
#    z 0.005530 0.000000 1.883680 
# 
# From -- ./inp_files/303152.got.cif
#   From: 2010.06.25/outbox.cif.g09.slc.cpg/sg15_152_cif.got.tgz:303152.got - 2010.06.28 07:06:18.
