data_PCOD8147714
_publ_section_title
;
Structure prediction by ZEFSAII (Michael W. Deem and Ramdas Pophale) SiO2 
 PCOD8147714
Probable space group: C 2/C
;
_chemical_formula_sum "Si O2"
_cell_formula_units_Z 64
_cell_length_a 10.995947
_cell_length_b 9.408020
_cell_length_c 27.385182
_cell_angle_alpha 90.000000
_cell_angle_beta 83.736487
_cell_angle_gamma 90.000000
_cell_volume 2816.088314
_symmetry_space_group_name_H-M "C 2/C"
_symmetry_group_IT_number 15
_symmetry_cell_setting 'monoclinic'
loop_
_space_group_symop_operation_xyz
x,y,z
-x,y,1/2-z
-x,-y,-z
x,-y,1/2+z
1/2+x,1/2+y,z
1/2-x,1/2+y,1/2-z
1/2-x,1/2-y,-z
1/2+x,1/2-y,1/2+z
loop_
_atom_site_type_symbol
_atom_site_label
_atom_site_fract_x
_atom_site_fract_y
_atom_site_fract_z
Si Si1 0.030213 0.856837 0.935881
Si Si2 0.278585 0.522388 0.677250
Si Si3 0.198991 0.964575 0.073884
Si Si4 0.699758 0.159497 0.100391
Si Si5 0.089376 0.375303 0.505022
Si Si6 0.257884 0.167553 0.154521
Si Si7 0.014091 0.799571 0.831201
Si Si8 0.385583 0.024892 0.725533
O O1 0.170167 0.906356 0.923139
O O2 0.024340 0.764242 0.985459
O O3 0.999695 0.759521 0.889369
O O4 0.933372 0.987821 0.942045
O O5 0.176974 0.427340 0.651611
O O6 0.302915 0.670220 0.647856
O O7 0.407357 0.442924 0.676710
O O8 0.226708 0.553556 0.733113
O O9 0.195031 0.829572 0.111264
O O10 0.278796 0.907910 0.024907
O O11 0.259842 0.094609 0.100791
O O12 0.600176 0.136318 0.062725
O O13 0.000000 0.500000 0.500000
O O14 0.120851 0.167432 0.183640
O O15 0.349656 0.086102 0.185810
O O16 0.078443 0.674829 0.799414
O O17 0.500000 0.960504 0.750000
#
# Coordination Sequence:
#
# PCOD8147714 Si02
#       8
#     8   8   8   8   8   8   8   8
#     4   9  20  42  68  92 123 171 219 266 329 390
#     4  11  24  43  68  95 130 173 222 273 329 391
#     4  10  22  44  71  92 128 177 217 270 333 389
#     4  10  23  43  63  93 132 172 218 271 328 386
#     4  11  24  38  63  99 136 173 212 275 327 393
#     4  11  24  45  69  99 131 171 223 277 329 394
#     4  10  23  47  68  94 134 173 216 274 337 389
#     4  12  24  43  68  94 133 178 213 269 335 399
#
# _framework density 22.726558000000001
#
# number of rings (size 3 to 8) (size 9 to 14) (size 15 to 20)
#    0.000    1.500    1.250    4.500    3.500    3.500 
#   18.000    0.000    0.000    0.000    0.000    0.000 
#    0.000    0.000    0.000    0.000    0.000    0.000 
#
# Total GULP energy -396659.591704 kJ/mol
# GULP energy per Si atom -12395.612241 kJ/mol
# Density = 2.267483 g / cm^3
# Si number density = 22.726558 Si / 1000 Ang^3
#
#
#
# Elastic Constant Matrix: (Units=GPa)
#
#
# Indices 1 2 3 4 5 6 
#
# 1 100.7321 47.6904 13.4435 0.0000 23.3259 0.0000
# 2 47.6904 131.2746 24.1656 0.0000 9.4520 0.0000
# 3 13.4435 24.1656 65.7833 0.0000 12.1387 0.0000
# 4 0.0000 0.0000 0.0000 38.4768 0.0000 4.1150
# 5 23.3259 9.4520 12.1387 0.0000 32.1760 0.0000
# 6 0.0000 0.0000 0.0000 4.1150 0.0000 40.3873
#
#
#
# Elastic Compliance Matrix: (Units=1/GPa)
#
#
# Indices 1 2 3 4 5 6 
#
# 1 0.014128 -0.004565 0.000464 0.000000 -0.009077 0.000000
# 2 -0.004565 0.009701 -0.002919 0.000000 0.001560 0.000000
# 3 0.000464 -0.002919 0.017286 0.000000 -0.006001 0.000000
# 4 0.000000 0.000000 0.000000 0.026276 0.000000 -0.002677
# 5 -0.009077 0.001560 -0.006001 0.000000 0.039464 0.000000
# 6 0.000000 0.000000 0.000000 -0.002677 0.000000 0.025033
#
#
# Mechanical properties :
#
#
# Convention : Reuss Voigt Hill
#
# Bulk Modulus (GPa) = 36.93148 52.04323 44.48736
# Shear Modulus (GPa) = 32.26805 36.37403 34.32104
#
# Velocity S-wave (km/s) = 3.77216 4.00497 3.89031
# Velocity P-wave (km/s) = 5.93784 6.65852 6.30848
#
# Compressibility (1/GPa) = 0.02707717
#
# Stress axis : x y z
#
# Youngs Moduli (GPa) = 70.78051 103.08423 57.85039
#
# Poissons Ratio (x) = 0.47053 -0.02687
# Poissons Ratio (y) = 0.32308 0.16885
# Poissons Ratio (z) = -0.03287 0.30088
#
# Static dielectric constant tensor:
#      x y z
#    x 4.540160 0.000000 -0.540540 
#    y 0.000000 4.185500 0.000000 
#    z -0.540540 0.000000 5.518710 
# 
# 
# High freq. dielectric constant tensor:
#      x y z
#    x 1.893440 0.000000 0.018160 
#    y 0.000000 1.893410 0.000000 
#    z 0.018160 0.000000 1.896920 
# 
# From -- ./inp_files/310330.got.cif
#   From: 2010.06.25/outbox.cif.g09.slc.cpg/sg15_156_cif.got.tgz:310330.got - 2010.06.28 07:06:18.
