data_PCOD8147199
_publ_section_title
;
Structure prediction by ZEFSAII (Michael W. Deem and Ramdas Pophale) SiO2 
 PCOD8147199
Probable space group: C 2/C
;
_chemical_formula_sum "Si O2"
_cell_formula_units_Z 44
_cell_length_a 6.205012
_cell_length_b 27.788771
_cell_length_c 9.897108
_cell_angle_alpha 90.000000
_cell_angle_beta 70.447602
_cell_angle_gamma 90.000000
_cell_volume 1608.147859
_symmetry_space_group_name_H-M "C 2/C"
_symmetry_group_IT_number 15
_symmetry_cell_setting 'monoclinic'
loop_
_space_group_symop_operation_xyz
x,y,z
-x,y,1/2-z
-x,-y,-z
x,-y,1/2+z
1/2+x,1/2+y,z
1/2-x,1/2+y,1/2-z
1/2-x,1/2-y,-z
1/2+x,1/2-y,1/2+z
loop_
_atom_site_type_symbol
_atom_site_label
_atom_site_fract_x
_atom_site_fract_y
_atom_site_fract_z
Si Si1 0.757755 0.227979 0.351496
Si Si2 0.500000 0.530131 0.750000
Si Si3 0.995642 0.361073 0.512844
Si Si4 0.225689 0.558306 0.292183
Si Si5 0.718518 0.668422 0.783548
Si Si6 0.021975 0.100403 0.499803
O O1 0.750000 0.250000 0.500000
O O2 0.579539 0.184406 0.379697
O O3 0.696465 0.274289 0.273439
O O4 0.000000 0.207196 0.250000
O O5 0.725336 0.496919 0.676701
O O6 0.458222 0.560773 0.624601
O O7 0.043999 0.346468 0.343983
O O8 0.236401 0.374628 0.526296
O O9 0.821149 0.406854 0.567063
O O10 0.000000 0.560605 0.250000
O O11 0.449705 0.575311 0.153796
O O12 0.500000 0.645578 0.750000
O O13 0.675249 0.644022 0.944566
#
# Coordination Sequence:
#
# PCOD8147199 Si02
#       6
#     8   4   8   8   8   8
#     4  12  26  42  65 102 137 172 230 279 342 410
#     4  12  22  44  74  98 138 182 234 284 344 414
#     4  10  22  43  63  94 136 175 218 280 336 404
#     4  10  25  41  68 104 136 178 233 286 342 405
#     4  10  22  44  69  90 133 185 218 277 344 409
#     4  10  22  45  68  96 136 177 231 277 343 415
#
# _framework density 27.360666999999999
#
# number of rings (size 3 to 8) (size 9 to 14) (size 15 to 20)
#    0.000    1.455    4.545    0.545    3.818    8.000 
#    0.000    2.727    0.000    0.000    0.000    0.000 
#    0.000    0.000    0.000    0.000    0.000    0.000 
#
# Total GULP energy -272847.744810 kJ/mol
# GULP energy per Si atom -12402.170219 kJ/mol
# Density = 2.729839 g / cm^3
# Si number density = 27.360667 Si / 1000 Ang^3
#
#
#
# Elastic Constant Matrix: (Units=GPa)
#
#
# Indices 1 2 3 4 5 6 
#
# 1 73.3348 41.6102 53.5344 0.0000 -33.5225 0.0000
# 2 41.6102 185.4200 66.6782 0.0000 -23.2219 0.0000
# 3 53.5344 66.6782 167.2118 0.0000 -20.9907 0.0000
# 4 0.0000 0.0000 0.0000 60.4267 0.0000 -16.7251
# 5 -33.5225 -23.2219 -20.9907 0.0000 55.7372 0.0000
# 6 0.0000 0.0000 0.0000 -16.7251 0.0000 37.7132
#
#
#
# Elastic Compliance Matrix: (Units=1/GPa)
#
#
# Indices 1 2 3 4 5 6 
#
# 1 0.024031 -0.001983 -0.005450 0.000000 0.011574 0.000000
# 2 -0.001983 0.006629 -0.001901 0.000000 0.000853 0.000000
# 3 -0.005450 -0.001901 0.008368 0.000000 -0.000918 0.000000
# 4 0.000000 0.000000 0.000000 0.018865 0.000000 0.008366
# 5 0.011574 0.000853 -0.000918 0.000000 0.024912 0.000000
# 6 0.000000 0.000000 0.000000 0.008366 0.000000 0.030226
#
#
# Mechanical properties :
#
#
# Convention : Reuss Voigt Hill
#
# Bulk Modulus (GPa) = 49.11929 83.29024 66.20477
# Shear Modulus (GPa) = 36.10498 48.38501 42.24499
#
# Velocity S-wave (km/s) = 3.63656 4.20981 3.93365
# Velocity P-wave (km/s) = 5.96861 7.35783 6.69933
#
# Compressibility (1/GPa) = 0.02035860
#
# Stress axis : x y z
#
# Youngs Moduli (GPa) = 41.61371 150.85756 119.50159
#
# Poissons Ratio (x) = 0.29921 0.65125
# Poissons Ratio (y) = 0.08254 0.22720
# Poissons Ratio (z) = 0.22678 0.28682
#
# Static dielectric constant tensor:
#      x y z
#    x 5.267530 0.000000 -0.151920 
#    y 0.000000 5.615570 0.000000 
#    z -0.151920 0.000000 5.802410 
# 
# 
# High freq. dielectric constant tensor:
#      x y z
#    x 2.162350 0.000000 -0.007670 
#    y 0.000000 2.105780 0.000000 
#    z -0.007670 0.000000 2.127710 
# 
# From -- ./inp_files/81109.got.cif
#   From: 2010.06.25/outbox.cif.g09.slc.cpg/sg15_41_cif.got.tgz:81109.got - 2010.06.28 07:06:18.
