data_PCOD8147933
_publ_section_title
;
Structure prediction by ZEFSAII (Michael W. Deem and Ramdas Pophale) SiO2 
 PCOD8147933
Probable space group: C 2/C
;
_chemical_formula_sum "Si O2"
_cell_formula_units_Z 44
_cell_length_a 28.824469
_cell_length_b 8.354317
_cell_length_c 22.037066
_cell_angle_alpha 90.000000
_cell_angle_beta 158.326451
_cell_angle_gamma 90.000000
_cell_volume 1959.865425
_symmetry_space_group_name_H-M "C 2/C"
_symmetry_group_IT_number 15
_symmetry_cell_setting 'monoclinic'
loop_
_space_group_symop_operation_xyz
x,y,z
-x,y,1/2-z
-x,-y,-z
x,-y,1/2+z
1/2+x,1/2+y,z
1/2-x,1/2+y,1/2-z
1/2-x,1/2-y,-z
1/2+x,1/2-y,1/2+z
loop_
_atom_site_type_symbol
_atom_site_label
_atom_site_fract_x
_atom_site_fract_y
_atom_site_fract_z
Si Si1 0.734477 0.939148 0.979879
Si Si2 0.612005 0.934612 0.216860
Si Si3 0.539465 0.357935 0.694034
Si Si4 0.104337 0.034836 0.077750
Si Si5 0.000000 0.384568 0.250000
Si Si6 0.362438 0.907268 0.390224
O O1 0.711704 0.981304 0.881944
O O2 0.620907 0.002668 0.884509
O O3 0.750000 0.750000 0.000000
O O4 0.863705 0.022318 0.156422
O O5 0.611736 0.744701 0.230089
O O6 0.645816 0.970931 0.188862
O O7 0.473103 0.006017 0.061430
O O8 0.428728 0.456028 0.527350
O O9 0.477505 0.232216 0.665475
O O10 0.118432 0.220254 0.082252
O O11 0.230455 0.958155 0.259166
O O12 0.000000 0.000000 0.000000
#
# Coordination Sequence:
#
# PCOD8147933 Si02
#       6
#     8   8   8   8   4   8
#     4  11  25  46  69 107 142 180 238 296 349 425
#     4  10  22  46  70  99 139 185 237 282 357 417
#     4  11  24  44  72 104 139 184 235 285 358 422
#     4  12  26  44  70 103 140 183 235 291 354 424
#     4  10  24  44  74 100 140 192 226 292 358 420
#     4  11  25  44  69 100 141 188 233 293 347 422
#
# _framework density 22.450520999999998
#
# number of rings (size 3 to 8) (size 9 to 14) (size 15 to 20)
#    0.000    1.091    1.818    4.364    7.636    3.636 
#    6.545    0.000    0.000    0.000    0.000    0.000 
#    0.000    0.000    0.000    0.000    0.000    0.000 
#
# Total GULP energy -272855.740397 kJ/mol
# GULP energy per Si atom -12402.533654 kJ/mol
# Density = 2.239942 g / cm^3
# Si number density = 22.450521 Si / 1000 Ang^3
#
#
#
# Elastic Constant Matrix: (Units=GPa)
#
#
# Indices 1 2 3 4 5 6 
#
# 1 49.4014 23.5141 5.0591 0.0000 7.8330 0.0000
# 2 23.5141 177.1638 60.2246 0.0000 -2.4972 0.0000
# 3 5.0591 60.2246 106.2944 0.0000 -5.2656 0.0000
# 4 0.0000 0.0000 0.0000 48.1137 0.0000 -3.4251
# 5 7.8330 -2.4972 -5.2656 0.0000 39.8593 0.0000
# 6 0.0000 0.0000 0.0000 -3.4251 0.0000 24.3016
#
#
#
# Elastic Compliance Matrix: (Units=1/GPa)
#
#
# Indices 1 2 3 4 5 6 
#
# 1 0.022442 -0.003224 0.000534 0.000000 -0.004542 0.000000
# 2 -0.003224 0.007454 -0.004042 0.000000 0.000567 0.000000
# 3 0.000534 -0.004042 0.011732 0.000000 0.001192 0.000000
# 4 0.000000 0.000000 0.000000 0.020995 0.000000 0.002959
# 5 -0.004542 0.000567 0.001192 0.000000 0.026174 0.000000
# 6 0.000000 0.000000 0.000000 0.002959 0.000000 0.041567
#
#
# Mechanical properties :
#
#
# Convention : Reuss Voigt Hill
#
# Bulk Modulus (GPa) = 35.50708 56.71723 46.11215
# Shear Modulus (GPa) = 32.63359 38.72573 35.67966
#
# Velocity S-wave (km/s) = 3.81672 4.15774 3.99087
# Velocity P-wave (km/s) = 5.93912 6.95465 6.46685
#
# Compressibility (1/GPa) = 0.02816340
#
# Stress axis : x y z
#
# Youngs Moduli (GPa) = 44.55848 134.14834 85.23969
#
# Poissons Ratio (x) = 0.43250 -0.04548
# Poissons Ratio (y) = 0.14366 0.34454
# Poissons Ratio (z) = -0.02378 0.54223
#
# Static dielectric constant tensor:
#      x y z
#    x 4.196960 0.000000 -0.117420 
#    y 0.000000 4.093100 0.000000 
#    z -0.117420 0.000000 4.134190 
# 
# 
# High freq. dielectric constant tensor:
#      x y z
#    x 1.881080 0.000000 -0.007980 
#    y 0.000000 1.896630 0.000000 
#    z -0.007980 0.000000 1.894970 
# 
# From -- ./inp_files/284474.got.cif
#   From: 2010.06.25/outbox.cif.g09.slc.cpg/sg15_143_cif.got.tgz:284474.got - 2010.06.28 07:06:18.
