data_PCOD8147099
_publ_section_title
;
Structure prediction by ZEFSAII (Michael W. Deem and Ramdas Pophale) SiO2 
 PCOD8147099
Probable space group: C 2/C
;
_chemical_formula_sum "Si O2"
_cell_formula_units_Z 40
_cell_length_a 22.308568
_cell_length_b 8.809683
_cell_length_c 12.379872
_cell_angle_alpha 90.000000
_cell_angle_beta 39.810648
_cell_angle_gamma 90.000000
_cell_volume 1557.755850
_symmetry_space_group_name_H-M "C 2/C"
_symmetry_group_IT_number 15
_symmetry_cell_setting 'monoclinic'
loop_
_space_group_symop_operation_xyz
x,y,z
-x,y,1/2-z
-x,-y,-z
x,-y,1/2+z
1/2+x,1/2+y,z
1/2-x,1/2+y,1/2-z
1/2-x,1/2-y,-z
1/2+x,1/2-y,1/2+z
loop_
_atom_site_type_symbol
_atom_site_label
_atom_site_fract_x
_atom_site_fract_y
_atom_site_fract_z
Si Si1 0.001115 0.705403 0.947451
Si Si2 0.567686 0.080631 0.254070
Si Si3 0.743358 0.566298 0.619399
Si Si4 0.814158 0.252568 0.597602
Si Si5 0.914610 0.032681 0.296246
O O1 0.075768 0.573850 0.814570
O O2 0.038075 0.868592 0.863240
O O3 0.978346 0.710659 0.106812
O O4 0.906385 0.664661 0.014197
O O5 0.500000 0.047337 0.250000
O O6 0.670490 0.125704 0.071631
O O7 0.749828 0.386366 0.638218
O O8 0.740624 0.666270 0.731196
O O9 0.648849 0.591327 0.678349
O O10 0.843622 0.132182 0.466086
O O11 0.000000 0.960515 0.250000
#
# Coordination Sequence:
#
# PCOD8147099 Si02
#       5
#     8   8   8   8   8
#     4  10  22  42  70  96 143 184 240 282 346 424
#     4  11  22  40  70 105 139 188 233 289 341 427
#     4  12  26  42  76 105 141 187 235 291 354 417
#     4  11  25  45  69 107 143 183 233 293 351 423
#     4  10  23  46  70  97 142 191 233 282 358 422
#
# _framework density 25.677965
#
# number of rings (size 3 to 8) (size 9 to 14) (size 15 to 20)
#    0.000    1.200    4.000    1.200    5.600    4.000 
#    0.000    1.000    0.000    0.000    0.000    0.000 
#    0.000    0.000    0.000    0.000    0.000    0.000 
#
# Total GULP energy -248025.890282 kJ/mol
# GULP energy per Si atom -12401.294514 kJ/mol
# Density = 2.561952 g / cm^3
# Si number density = 25.677965 Si / 1000 Ang^3
#
#
#
# Elastic Constant Matrix: (Units=GPa)
#
#
# Indices 1 2 3 4 5 6 
#
# 1 106.3865 12.1335 56.7573 0.0001 -1.3234 0.0000
# 2 12.1335 42.5116 40.7308 -0.0007 6.9013 0.0004
# 3 56.7573 40.7308 186.6724 0.0000 13.3337 0.0000
# 4 0.0001 -0.0007 0.0000 28.3190 0.0001 19.5076
# 5 -1.3234 6.9013 13.3337 0.0001 46.1044 0.0000
# 6 0.0000 0.0004 0.0000 19.5076 0.0000 -2.6212
#
#
#
# Elastic Compliance Matrix: (Units=1/GPa)
#
#
# Indices 1 2 3 4 5 6 
#
# 1 0.011301 -0.000076 -0.003516 0.000000 0.001353 0.000000
# 2 -0.000076 0.030056 -0.006344 0.000000 -0.002666 0.000002
# 3 -0.003516 -0.006344 0.007913 0.000000 -0.001440 0.000000
# 4 0.000000 0.000000 0.000000 0.005764 0.000000 0.042895
# 5 0.001353 -0.002666 -0.001440 0.000000 0.022544 0.000000
# 6 0.000000 0.000002 0.000000 0.042895 0.000000 -0.062270
#
#
# Mechanical properties :
#
#
# Convention : Reuss Voigt Hill
#
# Bulk Modulus (GPa) = 34.01716 61.64595 47.83156
# Shear Modulus (GPa) = 111.15837 29.42370 70.29103
#
# Velocity S-wave (km/s) = 6.58661 3.38875 5.23770
# Velocity P-wave (km/s) = 8.43332 6.27463 7.43276
#
# Compressibility (1/GPa) = 0.02939693
#
# Stress axis : x y z
#
# Youngs Moduli (GPa) = 88.48759 33.27083 126.37165
#
# Poissons Ratio (x) = 0.00254 0.44432
# Poissons Ratio (y) = 0.00676 0.80176
# Poissons Ratio (z) = 0.31112 0.21108
#
# Static dielectric constant tensor:
#      x y z
#    x 4.662480 0.000000 0.096130 
#    y 0.000000 4.159200 0.000000 
#    z 0.096130 0.000000 4.956030 
# 
# 
# High freq. dielectric constant tensor:
#      x y z
#    x 2.021240 0.000000 0.007890 
#    y 0.000000 2.011640 0.000000 
#    z 0.007890 0.000000 2.047060 
# 
# From -- ./inp_files/117390.got.cif
#   From: 2010.06.25/outbox.cif.g09.slc.cpg/sg15_59_cif.got.tgz:117390.got - 2010.06.28 07:06:18.
