data_PCOD8147001
_publ_section_title
;
Structure prediction by ZEFSAII (Michael W. Deem and Ramdas Pophale) SiO2 
 PCOD8147001
Probable space group: C 2/C
;
_chemical_formula_sum "Si O2"
_cell_formula_units_Z 44
_cell_length_a 14.362488
_cell_length_b 9.084845
_cell_length_c 19.413663
_cell_angle_alpha 90.000000
_cell_angle_beta 124.180300
_cell_angle_gamma 90.000000
_cell_volume 2095.578580
_symmetry_space_group_name_H-M "C 2/C"
_symmetry_group_IT_number 15
_symmetry_cell_setting 'monoclinic'
loop_
_space_group_symop_operation_xyz
x,y,z
-x,y,1/2-z
-x,-y,-z
x,-y,1/2+z
1/2+x,1/2+y,z
1/2-x,1/2+y,1/2-z
1/2-x,1/2-y,-z
1/2+x,1/2-y,1/2+z
loop_
_atom_site_type_symbol
_atom_site_label
_atom_site_fract_x
_atom_site_fract_y
_atom_site_fract_z
Si Si1 0.796129 0.134524 0.338254
Si Si2 0.000000 0.062382 0.250000
Si Si3 0.736776 0.469547 0.309364
Si Si4 0.607723 0.924368 0.511287
Si Si5 0.248698 0.911965 0.529323
Si Si6 0.453196 0.376086 0.582169
O O1 0.792838 0.310165 0.327299
O O2 0.735537 0.054148 0.249824
O O3 0.733085 0.088549 0.381407
O O4 0.925135 0.080843 0.397294
O O5 0.103589 0.957809 0.269835
O O6 0.033439 0.162618 0.330319
O O7 0.790990 0.566892 0.392361
O O8 0.591705 0.756708 0.482885
O O9 0.500000 0.000000 0.500000
O O10 0.642876 0.007302 0.456367
O O11 0.250000 0.750000 0.500000
O O12 0.130856 0.987100 0.459670
#
# Coordination Sequence:
#
# PCOD8147001 Si02
#       6
#     8   4   8   8   8   8
#     4  11  25  44  68  99 136 178 228 282 348 412
#     4  10  22  42  68  94 136 174 232 282 352 404
#     4  11  24  46  64  98 139 179 230 286 343 418
#     4  12  24  45  68  97 138 179 230 287 344 420
#     4  12  23  43  69  99 134 175 233 278 346 410
#     4  11  23  42  71  98 134 181 223 284 347 417
#
# _framework density 20.996587000000002
#
# number of rings (size 3 to 8) (size 9 to 14) (size 15 to 20)
#    0.000    0.727    5.455    1.091    2.545    1.455 
#    6.545    0.000    0.000    0.000    0.000    0.000 
#    0.000    0.000    0.000    0.000    0.000    0.000 
#
# Total GULP energy -272816.573894 kJ/mol
# GULP energy per Si atom -12400.753359 kJ/mol
# Density = 2.094880 g / cm^3
# Si number density = 20.996587 Si / 1000 Ang^3
#
#
#
# Elastic Constant Matrix: (Units=GPa)
#
#
# Indices 1 2 3 4 5 6 
#
# 1 132.5934 45.7946 46.1380 0.0000 -15.9436 0.0000
# 2 45.7946 108.7092 56.8352 0.0000 -2.7588 0.0000
# 3 46.1380 56.8352 135.8614 0.0000 -27.9877 0.0000
# 4 0.0000 0.0000 0.0000 38.9455 0.0000 -3.3020
# 5 -15.9436 -2.7588 -27.9877 0.0000 46.2110 0.0000
# 6 0.0000 0.0000 0.0000 -3.3020 0.0000 31.2654
#
#
#
# Elastic Compliance Matrix: (Units=1/GPa)
#
#
# Indices 1 2 3 4 5 6 
#
# 1 0.009389 -0.003160 -0.001415 0.000000 0.002194 0.000000
# 2 -0.003160 0.013119 -0.005116 0.000000 -0.003406 0.000000
# 3 -0.001415 -0.005116 0.011217 0.000000 0.006000 0.000000
# 4 0.000000 0.000000 0.000000 0.025909 0.000000 0.002736
# 5 0.002194 -0.003406 0.006000 0.000000 0.025828 0.000000
# 6 0.000000 0.000000 0.000000 0.002736 0.000000 0.032273
#
#
# Mechanical properties :
#
#
# Convention : Reuss Voigt Hill
#
# Bulk Modulus (GPa) = 69.72051 74.96662 72.34356
# Shear Modulus (GPa) = 35.23658 38.51079 36.87368
#
# Velocity S-wave (km/s) = 4.10103 4.28734 4.19522
# Velocity P-wave (km/s) = 7.46340 7.76467 7.61552
#
# Compressibility (1/GPa) = 0.01434298
#
# Stress axis : x y z
#
# Youngs Moduli (GPa) = 106.50386 76.22789 89.14836
#
# Poissons Ratio (x) = 0.24088 0.12611
# Poissons Ratio (y) = 0.33656 0.45612
# Poissons Ratio (z) = 0.15067 0.39001
#
# Static dielectric constant tensor:
#      x y z
#    x 3.394850 0.000000 -0.131340 
#    y 0.000000 5.384020 0.000000 
#    z -0.131340 0.000000 4.136980 
# 
# 
# High freq. dielectric constant tensor:
#      x y z
#    x 1.840090 0.000000 -0.013730 
#    y 0.000000 1.806300 0.000000 
#    z -0.013730 0.000000 1.835070 
# 
# From -- ./inp_files/202778.got.cif
#   From: 2010.06.25/outbox.cif.g09.slc.cpg/sg15_102_cif.got.tgz:202778.got - 2010.06.28 07:06:18.
