data_PCOD8147260
_publ_section_title
;
Structure prediction by ZEFSAII (Michael W. Deem and Ramdas Pophale) SiO2 
 PCOD8147260
Probable space group: C 2/C
;
_chemical_formula_sum "Si O2"
_cell_formula_units_Z 56
_cell_length_a 8.941423
_cell_length_b 16.405455
_cell_length_c 18.128915
_cell_angle_alpha 90.000000
_cell_angle_beta 78.819049
_cell_angle_gamma 90.000000
_cell_volume 2608.822025
_symmetry_space_group_name_H-M "C 2/C"
_symmetry_group_IT_number 15
_symmetry_cell_setting 'monoclinic'
loop_
_space_group_symop_operation_xyz
x,y,z
-x,y,1/2-z
-x,-y,-z
x,-y,1/2+z
1/2+x,1/2+y,z
1/2-x,1/2+y,1/2-z
1/2-x,1/2-y,-z
1/2+x,1/2-y,1/2+z
loop_
_atom_site_type_symbol
_atom_site_label
_atom_site_fract_x
_atom_site_fract_y
_atom_site_fract_z
Si Si1 0.920787 0.088450 0.012759
Si Si2 0.674939 0.825614 0.465385
Si Si3 0.500000 0.994218 0.250000
Si Si4 0.108139 0.247828 0.959284
Si Si5 0.344031 0.763811 0.717001
Si Si6 0.715901 0.591820 0.316822
Si Si7 0.000000 0.977880 0.250000
Si Si8 0.774585 0.378947 0.193986
O O1 0.765236 0.091258 0.978664
O O2 0.857512 0.116499 0.098532
O O3 0.036399 0.157404 0.972069
O O4 0.000000 0.000000 0.000000
O O5 0.750000 0.750000 0.500000
O O6 0.498298 0.822520 0.503549
O O7 0.684700 0.818301 0.376413
O O8 0.411982 0.940316 0.198101
O O9 0.382426 0.049561 0.308111
O O10 0.137439 0.273236 0.872056
O O11 0.250000 0.250000 0.000000
O O12 0.500000 0.764687 0.750000
O O13 0.231909 0.833294 0.758913
O O14 0.257514 0.677804 0.732494
O O15 0.595043 0.528705 0.298370
O O16 0.117224 0.925238 0.189749
#
# Coordination Sequence:
#
# PCOD8147260 Si02
#       8
#     8   8   4   8   8   8   4   8
#     4  11  24  43  72 100 141 179 227 284 364 421
#     4  10  22  43  65  95 136 180 223 276 352 422
#     4  10  26  42  68 100 134 166 234 294 342 402
#     4  11  27  44  66 101 140 177 234 290 351 421
#     4  12  23  42  72  96 132 185 234 277 345 423
#     4  11  24  44  68  98 138 177 230 280 351 416
#     4  10  24  40  68  98 130 170 228 282 340 410
#     4  11  23  42  71  93 132 173 231 278 343 409
#
# _framework density 21.465627000000001
#
# number of rings (size 3 to 8) (size 9 to 14) (size 15 to 20)
#    0.000    1.143    1.429    5.143    8.000    0.571 
#    0.000    1.429    0.000    0.000    0.000    0.000 
#    0.000    0.000    0.000    0.000    0.000    0.000 
#
# Total GULP energy -347003.991594 kJ/mol
# GULP energy per Si atom -12392.999700 kJ/mol
# Density = 2.141677 g / cm^3
# Si number density = 21.465627 Si / 1000 Ang^3
#
#
#
# Elastic Constant Matrix: (Units=GPa)
#
#
# Indices 1 2 3 4 5 6 
#
# 1 133.5205 47.5951 46.2912 0.0000 -2.9727 0.0000
# 2 47.5951 107.0558 31.4664 0.0000 -12.7765 0.0000
# 3 46.2912 31.4664 153.0210 0.0000 -5.6093 0.0000
# 4 0.0000 0.0000 0.0000 22.6500 0.0000 5.6322
# 5 -2.9727 -12.7765 -5.6093 0.0000 28.9618 0.0000
# 6 0.0000 0.0000 0.0000 5.6322 0.0000 -116.8857
#
#
#
# Elastic Compliance Matrix: (Units=1/GPa)
#
#
# Indices 1 2 3 4 5 6 
#
# 1 0.009547 -0.003740 -0.002159 0.000000 -0.001088 0.000000
# 2 -0.003740 0.011894 -0.001144 0.000000 0.004641 0.000000
# 3 -0.002159 -0.001144 0.007450 0.000000 0.000716 0.000000
# 4 0.000000 0.000000 0.000000 0.043627 0.000000 0.002102
# 5 -0.001088 0.004641 0.000716 0.000000 0.036603 0.000000
# 6 0.000000 0.000000 0.000000 0.002102 0.000000 -0.008454
#
#
# Mechanical properties :
#
#
# Convention : Reuss Voigt Hill
#
# Bulk Modulus (GPa) = 67.54690 71.58919 69.56804
# Shear Modulus (GPa) = 41.77558 4.82819 23.30189
#
# Velocity S-wave (km/s) = 4.41632 1.50138 3.29833
# Velocity P-wave (km/s) = 7.58557 6.03561 6.85454
#
# Compressibility (1/GPa) = 0.01480453
#
# Stress axis : x y z
#
# Youngs Moduli (GPa) = 104.74722 84.07763 134.23289
#
# Poissons Ratio (x) = 0.31442 0.28980
# Poissons Ratio (y) = 0.39171 0.15361
# Poissons Ratio (z) = 0.22614 0.09621
#
# Static dielectric constant tensor:
#      x y z
#    x 3.760210 0.000000 -0.419650 
#    y 0.000000 3.996230 0.000000 
#    z -0.419650 0.000000 4.005330 
# 
# 
# High freq. dielectric constant tensor:
#      x y z
#    x 1.847360 0.000000 -0.009520 
#    y 0.000000 1.843390 0.000000 
#    z -0.009520 0.000000 1.849700 
# 
# From -- ./inp_files/190967.got.cif
#   From: 2010.06.25/outbox.cif.g09.slc.cpg/sg15_96_cif.got.tgz:190967.got - 2010.06.28 07:06:18.
