data_PCOD8147168
_publ_section_title
;
Structure prediction by ZEFSAII (Michael W. Deem and Ramdas Pophale) SiO2 
 PCOD8147168
Probable space group: C 2/C
;
_chemical_formula_sum "Si O2"
_cell_formula_units_Z 36
_cell_length_a 5.215559
_cell_length_b 19.154632
_cell_length_c 17.323618
_cell_angle_alpha 90.000000
_cell_angle_beta 59.213547
_cell_angle_gamma 90.000000
_cell_volume 1486.782216
_symmetry_space_group_name_H-M "C 2/C"
_symmetry_group_IT_number 15
_symmetry_cell_setting 'monoclinic'
loop_
_space_group_symop_operation_xyz
x,y,z
-x,y,1/2-z
-x,-y,-z
x,-y,1/2+z
1/2+x,1/2+y,z
1/2-x,1/2+y,1/2-z
1/2-x,1/2-y,-z
1/2+x,1/2-y,1/2+z
loop_
_atom_site_type_symbol
_atom_site_label
_atom_site_fract_x
_atom_site_fract_y
_atom_site_fract_z
Si Si1 0.911816 0.169959 0.893768
Si Si2 0.715149 0.960201 0.348868
Si Si3 0.137413 0.810916 0.924044
Si Si4 0.500000 0.119245 0.750000
Si Si5 0.755140 0.883814 0.854050
O O1 0.749109 0.094629 0.913784
O O2 0.690783 0.229659 0.894654
O O3 0.209902 0.169237 0.794600
O O4 0.994116 0.184825 0.969617
O O5 0.457059 0.931052 0.331751
O O6 0.000000 0.960323 0.250000
O O7 0.661390 0.037055 0.391296
O O8 0.457821 0.848097 0.868017
O O9 0.887476 0.843957 0.907475
O O10 0.000000 0.883367 0.750000
#
# Coordination Sequence:
#
# PCOD8147168 Si02
#       5
#     8   8   8   4   8
#     4  10  25  44  68  99 138 180 230 279 342 410
#     4   9  22  41  67  97 135 181 230 278 335 416
#     4  11  27  44  69 103 139 175 230 290 336 402
#     4  10  22  42  74  96 136 188 232 278 348 422
#     4  11  26  44  69 100 138 181 226 284 344 401
#
# _framework density 24.213363999999999
#
# number of rings (size 3 to 8) (size 9 to 14) (size 15 to 20)
#    0.000    1.778    0.000    0.667   17.111    7.111 
#    0.000    0.000    0.000    0.000    0.000    0.000 
#    0.000    0.000    0.000    0.000    0.000    0.000 
#
# Total GULP energy -223154.740728 kJ/mol
# GULP energy per Si atom -12397.485596 kJ/mol
# Density = 2.415825 g / cm^3
# Si number density = 24.213364 Si / 1000 Ang^3
#
#
#
# Elastic Constant Matrix: (Units=GPa)
#
#
# Indices 1 2 3 4 5 6 
#
# 1 70.3207 20.6826 9.6919 0.0000 6.9888 0.0000
# 2 20.6826 159.5102 44.0095 0.0000 2.5888 0.0000
# 3 9.6919 44.0095 45.7385 0.0000 0.1103 0.0000
# 4 0.0000 0.0000 0.0000 33.6438 0.0000 9.6549
# 5 6.9888 2.5888 0.1103 0.0000 33.9300 0.0000
# 6 0.0000 0.0000 0.0000 9.6549 0.0000 12.6903
#
#
#
# Elastic Compliance Matrix: (Units=1/GPa)
#
#
# Indices 1 2 3 4 5 6 
#
# 1 0.015190 -0.001409 -0.001856 0.000000 -0.003015 0.000000
# 2 -0.001409 0.008679 -0.008051 0.000000 -0.000346 0.000000
# 3 -0.001856 -0.008051 0.030002 0.000000 0.000899 0.000000
# 4 0.000000 0.000000 0.000000 0.038025 0.000000 -0.028930
# 5 -0.003015 -0.000346 0.000899 0.000000 0.030117 0.000000
# 6 0.000000 0.000000 0.000000 -0.028930 0.000000 0.100811
#
#
# Mechanical properties :
#
#
# Convention : Reuss Voigt Hill
#
# Bulk Modulus (GPa) = 32.01190 47.14861 39.58026
# Shear Modulus (GPa) = 19.54123 29.46519 24.50321
#
# Velocity S-wave (km/s) = 2.84393 3.49219 3.18460
# Velocity P-wave (km/s) = 4.90239 5.98122 5.46847
#
# Compressibility (1/GPa) = 0.03123838
#
# Stress axis : x y z
#
# Youngs Moduli (GPa) = 65.83120 115.22223 33.33144
#
# Poissons Ratio (x) = 0.16230 0.06187
# Poissons Ratio (y) = 0.09273 0.26837
# Poissons Ratio (z) = 0.12220 0.92771
#
# Static dielectric constant tensor:
#      x y z
#    x 4.443100 0.000000 0.087500 
#    y 0.000000 4.849280 0.000000 
#    z 0.087500 0.000000 4.108780 
# 
# 
# High freq. dielectric constant tensor:
#      x y z
#    x 1.960260 0.000000 -0.000660 
#    y 0.000000 1.973100 0.000000 
#    z -0.000660 0.000000 1.952650 
# 
# From -- ./inp_files/184138.got.cif
#   From: 2010.06.25/outbox.cif.g09.slc.cpg/sg15_93_cif.got.tgz:184138.got - 2010.06.28 07:06:18.
