data_PCOD8147413
_publ_section_title
;
Structure prediction by ZEFSAII (Michael W. Deem and Ramdas Pophale) SiO2 
 PCOD8147413
Probable space group: C 2/C
;
_chemical_formula_sum "Si O2"
_cell_formula_units_Z 44
_cell_length_a 8.794875
_cell_length_b 30.953980
_cell_length_c 7.937248
_cell_angle_alpha 90.000000
_cell_angle_beta 113.798942
_cell_angle_gamma 90.000000
_cell_volume 1977.067998
_symmetry_space_group_name_H-M "C 2/C"
_symmetry_group_IT_number 15
_symmetry_cell_setting 'monoclinic'
loop_
_space_group_symop_operation_xyz
x,y,z
-x,y,1/2-z
-x,-y,-z
x,-y,1/2+z
1/2+x,1/2+y,z
1/2-x,1/2+y,1/2-z
1/2-x,1/2-y,-z
1/2+x,1/2-y,1/2+z
loop_
_atom_site_type_symbol
_atom_site_label
_atom_site_fract_x
_atom_site_fract_y
_atom_site_fract_z
Si Si1 0.809205 0.042408 0.690871
Si Si2 0.814943 0.364533 0.381967
Si Si3 0.500000 0.317766 0.750000
Si Si4 0.620991 0.711870 0.953573
Si Si5 0.814944 0.369546 0.985810
Si Si6 0.843268 0.536166 0.554249
O O1 0.738812 0.087264 0.584643
O O2 0.814118 0.039836 0.894121
O O3 0.000000 0.032633 0.750000
O O4 0.676456 0.006541 0.565856
O O5 0.704784 0.333952 0.449268
O O6 0.007279 0.350838 0.495391
O O7 0.778983 0.361198 0.166786
O O8 0.523092 0.289025 0.590508
O O9 0.664780 0.347157 0.821679
O O10 0.500000 0.723735 0.750000
O O11 0.750000 0.750000 0.000000
O O12 0.834394 0.419965 0.941509
O O13 0.000000 0.536863 0.750000
#
# Coordination Sequence:
#
# PCOD8147413 Si02
#       6
#     8   8   4   8   8   8
#     4  11  23  38  63  92 135 187 236 293 349 407
#     4  10  22  47  70  94 146 189 230 299 359 413
#     4  12  28  46  80 110 140 188 238 286 352 424
#     4  12  29  51  77 111 147 181 232 291 354 428
#     4  10  22  43  71 102 138 191 240 288 350 424
#     4  11  22  40  59  97 138 187 237 293 351 406
#
# _framework density 22.255178000000001
#
# number of rings (size 3 to 8) (size 9 to 14) (size 15 to 20)
#    0.000    1.091    5.455    1.636    6.364    3.636 
#    0.000    0.000    0.000    0.000    0.000    0.000 
#    0.000    0.000    0.000    0.000    0.000    0.000 
#
# Total GULP energy -272578.422650 kJ/mol
# GULP energy per Si atom -12389.928302 kJ/mol
# Density = 2.220452 g / cm^3
# Si number density = 22.255178 Si / 1000 Ang^3
#
#
#
# Elastic Constant Matrix: (Units=GPa)
#
#
# Indices 1 2 3 4 5 6 
#
# 1 75.9101 19.1908 39.7009 0.0000 -0.5204 0.0000
# 2 19.1908 112.9660 41.9499 0.0000 -3.8869 0.0000
# 3 39.7009 41.9499 99.9726 0.0000 11.6574 0.0000
# 4 0.0000 0.0000 0.0000 18.3551 0.0000 1.8654
# 5 -0.5204 -3.8869 11.6574 0.0000 46.0637 0.0000
# 6 0.0000 0.0000 0.0000 1.8654 0.0000 51.9858
#
#
#
# Elastic Compliance Matrix: (Units=1/GPa)
#
#
# Indices 1 2 3 4 5 6 
#
# 1 0.016799 -0.000273 -0.006776 0.000000 0.001882 0.000000
# 2 -0.000273 0.010684 -0.004616 0.000000 0.002066 0.000000
# 3 -0.006776 -0.004616 0.015131 0.000000 -0.004295 0.000000
# 4 0.000000 0.000000 0.000000 0.054680 0.000000 -0.001962
# 5 0.001882 0.002066 -0.004295 0.000000 0.022992 0.000000
# 6 0.000000 0.000000 0.000000 -0.001962 0.000000 0.019306
#
#
# Mechanical properties :
#
#
# Convention : Reuss Voigt Hill
#
# Bulk Modulus (GPa) = 51.85384 54.50353 53.17868
# Shear Modulus (GPa) = 29.52455 35.81471 32.66963
#
# Velocity S-wave (km/s) = 3.64625 4.01593 3.83555
# Velocity P-wave (km/s) = 6.40915 6.78580 6.60016
#
# Compressibility (1/GPa) = 0.01928498
#
# Stress axis : x y z
#
# Youngs Moduli (GPa) = 59.52619 93.60057 66.08778
#
# Poissons Ratio (x) = 0.02553 0.44783
# Poissons Ratio (y) = 0.01624 0.30504
# Poissons Ratio (z) = 0.40337 0.43203
#
# Static dielectric constant tensor:
#      x y z
#    x 4.312260 0.000000 -0.239160 
#    y 0.000000 4.056810 0.000000 
#    z -0.239160 0.000000 3.896380 
# 
# 
# High freq. dielectric constant tensor:
#      x y z
#    x 1.903030 0.000000 0.003470 
#    y 0.000000 1.868650 0.000000 
#    z 0.003470 0.000000 1.861000 
# 
# From -- ./inp_files/26280.got.cif
#   From: 2010.06.25/outbox.cif.g09.slc.cpg/sg15_14_cif.got.tgz:26280.got - 2010.06.28 07:06:18.
