data_PCOD8147922
_publ_section_title
;
Structure prediction by ZEFSAII (Michael W. Deem and Ramdas Pophale) SiO2 
 PCOD8147922
Probable space group: C 2/C
;
_chemical_formula_sum "Si O2"
_cell_formula_units_Z 60
_cell_length_a 28.472228
_cell_length_b 10.322384
_cell_length_c 9.178920
_cell_angle_alpha 90.000000
_cell_angle_beta 72.678946
_cell_angle_gamma 90.000000
_cell_volume 2575.359669
_symmetry_space_group_name_H-M "C 2/C"
_symmetry_group_IT_number 15
_symmetry_cell_setting 'monoclinic'
loop_
_space_group_symop_operation_xyz
x,y,z
-x,y,1/2-z
-x,-y,-z
x,-y,1/2+z
1/2+x,1/2+y,z
1/2-x,1/2+y,1/2-z
1/2-x,1/2-y,-z
1/2+x,1/2-y,1/2+z
loop_
_atom_site_type_symbol
_atom_site_label
_atom_site_fract_x
_atom_site_fract_y
_atom_site_fract_z
Si Si1 0.500000 0.305626 0.250000
Si Si2 0.571367 0.694780 0.463849
Si Si3 0.326684 0.227933 0.531543
Si Si4 0.229885 0.326216 0.154515
Si Si5 0.323449 0.306606 0.213198
Si Si6 0.154142 0.431944 0.016596
Si Si7 0.430746 0.404064 0.081951
Si Si8 0.554694 0.809641 0.172100
O O1 0.470417 0.225975 0.403429
O O2 0.457012 0.387959 0.212580
O O3 0.622340 0.700079 0.498915
O O4 0.554275 0.545480 0.487187
O O5 0.576035 0.743215 0.296383
O O6 0.290714 0.268353 0.697828
O O7 0.306630 0.269505 0.392454
O O8 0.334708 0.074692 0.548354
O O9 0.278818 0.391475 0.182554
O O10 0.185976 0.417315 0.136475
O O11 0.250000 0.250000 0.000000
O O12 0.372081 0.393494 0.160475
O O13 0.330787 0.172401 0.118906
O O14 0.094995 0.419952 0.098132
O O15 0.449861 0.297466 0.949590
O O16 0.500000 0.869241 0.250000
#
# Coordination Sequence:
#
# PCOD8147922 Si02
#       8
#     4   8   8   8   8   8   8   8
#     4  12  22  42  64 100 132 172 224 274 326 394
#     4  12  25  40  67  97 137 173 223 276 334 402
#     4  12  23  45  70 101 136 177 225 275 336 404
#     4  10  22  46  69  95 130 174 220 274 332 398
#     4  10  23  43  67  99 135 170 228 281 328 400
#     4  10  23  45  69  97 137 182 223 272 338 405
#     4  11  24  41  64  99 134 173 221 278 336 398
#     4  11  23  42  67  96 136 182 221 272 339 396
#
# _framework density 23.297718
#
# number of rings (size 3 to 8) (size 9 to 14) (size 15 to 20)
#    0.000    1.067    4.000    2.400    1.867    0.000 
#   10.800    0.667    0.000    0.000    0.000    0.000 
#    0.000    0.000    0.000    0.000    0.000    0.000 
#
# Total GULP energy -371715.144525 kJ/mol
# GULP energy per Si atom -12390.504817 kJ/mol
# Density = 2.324469 g / cm^3
# Si number density = 23.297718 Si / 1000 Ang^3
#
#
#
# Elastic Constant Matrix: (Units=GPa)
#
#
# Indices 1 2 3 4 5 6 
#
# 1 146.0315 -8.9723 37.4649 0.0000 8.6525 0.0000
# 2 -8.9723 24.2534 4.0380 0.0000 8.1105 0.0000
# 3 37.4649 4.0380 156.2997 0.0000 -1.7405 0.0000
# 4 0.0000 0.0000 0.0000 14.0339 0.0000 -0.6404
# 5 8.6525 8.1105 -1.7405 0.0000 49.3753 0.0000
# 6 0.0000 0.0000 0.0000 -0.6404 0.0000 13.5315
#
#
#
# Elastic Compliance Matrix: (Units=1/GPa)
#
#
# Indices 1 2 3 4 5 6 
#
# 1 0.007713 0.003870 -0.001972 0.000000 -0.002057 0.000000
# 2 0.003870 0.045798 -0.002203 0.000000 -0.008279 0.000000
# 3 -0.001972 -0.002203 0.006938 0.000000 0.000952 0.000000
# 4 0.000000 0.000000 0.000000 0.071410 0.000000 0.003380
# 5 -0.002057 -0.008279 0.000952 0.000000 0.022007 0.000000
# 6 0.000000 0.000000 0.000000 0.003380 0.000000 0.074062
#
#
# Mechanical properties :
#
#
# Convention : Reuss Voigt Hill
#
# Bulk Modulus (GPa) = 16.71145 43.51620 30.11382
# Shear Modulus (GPa) = 20.12193 34.99172 27.55682
#
# Velocity S-wave (km/s) = 2.94204 3.87969 3.44293
# Velocity P-wave (km/s) = 4.32775 6.22801 5.36272
#
# Compressibility (1/GPa) = 0.05983922
#
# Stress axis : x y z
#
# Youngs Moduli (GPa) = 129.64599 21.83501 144.13155
#
# Poissons Ratio (x) = -0.08449 0.28419
# Poissons Ratio (y) = -0.50167 0.31751
# Poissons Ratio (z) = 0.25563 0.04810
#
# Static dielectric constant tensor:
#      x y z
#    x 4.748120 0.000000 0.087090 
#    y 0.000000 3.521770 0.000000 
#    z 0.087090 0.000000 4.555570 
# 
# 
# High freq. dielectric constant tensor:
#      x y z
#    x 1.952750 0.000000 0.003130 
#    y 0.000000 1.855850 0.000000 
#    z 0.003130 0.000000 1.953570 
# 
# From -- ./inp_files/69358.got.cif
#   From: 2010.06.25/outbox.cif.g09.slc.cpg/sg15_35_cif.got.tgz:69358.got - 2010.06.28 07:06:18.
