data_PCOD8147425
_publ_section_title
;
Structure prediction by ZEFSAII (Michael W. Deem and Ramdas Pophale) SiO2 
 PCOD8147425
Probable space group: C 2/C
;
_chemical_formula_sum "Si O2"
_cell_formula_units_Z 40
_cell_length_a 14.357961
_cell_length_b 13.833241
_cell_length_c 13.624555
_cell_angle_alpha 90.000000
_cell_angle_beta 39.876751
_cell_angle_gamma 90.000000
_cell_volume 1734.965128
_symmetry_space_group_name_H-M "C 2/C"
_symmetry_group_IT_number 15
_symmetry_cell_setting 'monoclinic'
loop_
_space_group_symop_operation_xyz
x,y,z
-x,y,1/2-z
-x,-y,-z
x,-y,1/2+z
1/2+x,1/2+y,z
1/2-x,1/2+y,1/2-z
1/2-x,1/2-y,-z
1/2+x,1/2-y,1/2+z
loop_
_atom_site_type_symbol
_atom_site_label
_atom_site_fract_x
_atom_site_fract_y
_atom_site_fract_z
Si Si1 0.000000 0.639591 0.750000
Si Si2 0.224595 0.923367 0.218533
Si Si3 0.751437 0.628274 0.257964
Si Si4 0.725956 0.474133 0.424784
Si Si5 0.000000 0.949952 0.250000
Si Si6 0.023387 0.714500 0.945174
O O1 0.858096 0.574074 0.874393
O O2 0.998547 0.703591 0.653539
O O3 0.107894 0.885418 0.231768
O O4 0.377403 0.868740 0.084732
O O5 0.245977 0.039831 0.182925
O O6 0.171068 0.909926 0.375216
O O7 0.782024 0.579020 0.339591
O O8 0.597859 0.681705 0.396909
O O9 0.871098 0.707566 0.127619
O O10 0.591163 0.480753 0.605838
#
# Coordination Sequence:
#
# PCOD8147425 Si02
#       6
#     4   8   8   8   4   8
#     4  10  22  43  71  96 128 186 218 263 339 418
#     4   9  23  41  65  94 134 178 214 270 339 394
#     4  10  24  41  67  95 137 171 210 283 329 392
#     4   9  23  39  64  99 130 175 220 269 336 390
#     4  12  20  37  71  94 126 174 228 269 319 396
#     4  11  23  43  69  97 136 170 229 272 335 390
#
# _framework density 23.055219000000001
#
# number of rings (size 3 to 8) (size 9 to 14) (size 15 to 20)
#    1.200    0.800    0.000    2.400    5.600    3.200 
#    0.000    2.000    0.000    0.000    0.000    0.000 
#    0.000    0.000    0.000    0.000    0.000    0.000 
#
# Total GULP energy -247798.330177 kJ/mol
# GULP energy per Si atom -12389.916509 kJ/mol
# Density = 2.300274 g / cm^3
# Si number density = 23.055219 Si / 1000 Ang^3
#
#
#
# Elastic Constant Matrix: (Units=GPa)
#
#
# Indices 1 2 3 4 5 6 
#
# 1 120.9404 -6.4548 4.3427 0.0000 -3.0144 0.0000
# 2 -6.4548 64.2706 -15.3214 0.0000 -3.9038 0.0000
# 3 4.3427 -15.3214 104.1953 0.0000 2.1748 0.0000
# 4 0.0000 0.0000 0.0000 5.7663 0.0000 -16.6045
# 5 -3.0144 -3.9038 2.1748 0.0000 26.8569 0.0000
# 6 0.0000 0.0000 0.0000 -16.6045 0.0000 16.0096
#
#
#
# Elastic Compliance Matrix: (Units=1/GPa)
#
#
# Indices 1 2 3 4 5 6 
#
# 1 0.008349 0.000845 -0.000246 0.000000 0.001080 0.000000
# 2 0.000845 0.016336 0.002319 0.000000 0.002282 0.000000
# 3 -0.000246 0.002319 0.009959 0.000000 -0.000497 0.000000
# 4 0.000000 0.000000 0.000000 -0.087297 0.000000 -0.090541
# 5 0.001080 0.002282 -0.000497 0.000000 0.037727 0.000000
# 6 0.000000 0.000000 0.000000 -0.090541 0.000000 -0.031443
#
#
# Mechanical properties :
#
#
# Convention : Reuss Voigt Hill
#
# Bulk Modulus (GPa) = 24.70303 28.28217 26.49260
# Shear Modulus (GPa) = -129.16201 30.18254 -49.48974
#
# Velocity S-wave (km/s) = -7.49296 3.62213 -4.63814
# Velocity P-wave (km/s) = 8.00758 5.45774 4.14334
#
# Compressibility (1/GPa) = 0.04048087
#
# Stress axis : x y z
#
# Youngs Moduli (GPa) = 119.76884 61.21610 100.41147
#
# Poissons Ratio (x) = -0.05175 0.02472
# Poissons Ratio (y) = -0.10126 -0.23287
# Poissons Ratio (z) = 0.02949 -0.14197
#
# Static dielectric constant tensor:
#      x y z
#    x 4.230620 0.000000 -0.040970 
#    y 0.000000 3.797360 0.000000 
#    z -0.040970 0.000000 3.902890 
# 
# 
# High freq. dielectric constant tensor:
#      x y z
#    x 1.910030 0.000000 -0.006480 
#    y 0.000000 1.887060 0.000000 
#    z -0.006480 0.000000 1.910830 
# 
# From -- ./inp_files/38089.got.cif
#   From: 2010.06.25/outbox.cif.g09.slc.cpg/sg15_20_cif.got.tgz:38089.got - 2010.06.28 07:06:18.
