data_PCOD8147625
_publ_section_title
;
Structure prediction by ZEFSAII (Michael W. Deem and Ramdas Pophale) SiO2 
 PCOD8147625
Probable space group: C 2/C
;
_chemical_formula_sum "Si O2"
_cell_formula_units_Z 64
_cell_length_a 32.639911
_cell_length_b 10.162508
_cell_length_c 20.113656
_cell_angle_alpha 90.000000
_cell_angle_beta 26.815012
_cell_angle_gamma 90.000000
_cell_volume 3009.710184
_symmetry_space_group_name_H-M "C 2/C"
_symmetry_group_IT_number 15
_symmetry_cell_setting 'monoclinic'
loop_
_space_group_symop_operation_xyz
x,y,z
-x,y,1/2-z
-x,-y,-z
x,-y,1/2+z
1/2+x,1/2+y,z
1/2-x,1/2+y,1/2-z
1/2-x,1/2-y,-z
1/2+x,1/2-y,1/2+z
loop_
_atom_site_type_symbol
_atom_site_label
_atom_site_fract_x
_atom_site_fract_y
_atom_site_fract_z
Si Si1 0.698560 0.107095 0.497750
Si Si2 0.315855 0.800024 0.960526
Si Si3 0.840681 0.791217 0.565755
Si Si4 0.956862 0.052593 0.385043
Si Si5 0.664486 0.200234 0.405098
Si Si6 0.494097 0.084055 0.942632
Si Si7 0.388238 0.698092 0.271687
Si Si8 0.003177 0.386609 0.819687
O O1 0.671730 0.109058 0.459283
O O2 0.640664 0.215150 0.622328
O O3 0.804546 0.137688 0.353775
O O4 0.685116 0.957812 0.538836
O O5 0.421403 0.768355 0.789581
O O6 0.250000 0.750000 0.000000
O O7 0.292390 0.726736 0.063548
O O8 0.765196 0.778276 0.731471
O O9 0.906944 0.668709 0.482271
O O10 0.900949 0.922145 0.484143
O O11 0.882659 0.166719 0.501847
O O12 0.000000 0.044484 0.250000
O O13 0.043423 0.080031 0.307107
O O14 0.607801 0.128698 0.428783
O O15 0.559110 0.209538 0.857169
O O16 0.534461 0.001122 0.823249
O O17 0.500000 0.000000 0.000000
O O18 0.000000 0.447749 0.750000
#
# Coordination Sequence:
#
# PCOD8147625 Si02
#       8
#     8   8   8   8   8   8   8   8
#     4  11  23  44  70  99 138 173 236 281 345 416
#     4  11  25  42  71  98 135 178 230 281 343 418
#     4  11  27  42  69 101 137 182 228 287 352 405
#     4  11  23  45  72  98 140 181 238 280 345 424
#     4  11  26  43  69 102 138 180 230 288 354 411
#     4  11  25  42  69  98 138 174 229 281 348 412
#     4  10  24  43  70 103 129 184 228 289 343 412
#     4  10  22  44  68  91 131 183 229 271 347 418
#
# _framework density 21.264506000000001
#
# number of rings (size 3 to 8) (size 9 to 14) (size 15 to 20)
#    0.000    1.250    2.500    2.625   10.500    0.000 
#    0.000    0.625    0.000    0.000    0.000    0.000 
#    0.000    0.000    0.000    0.000    0.000    0.000 
#
# Total GULP energy -396682.029668 kJ/mol
# GULP energy per Si atom -12396.313427 kJ/mol
# Density = 2.121611 g / cm^3
# Si number density = 21.264506 Si / 1000 Ang^3
#
#
#
# Elastic Constant Matrix: (Units=GPa)
#
#
# Indices 1 2 3 4 5 6 
#
# 1 94.5212 23.5207 24.7781 0.0009 -13.4985 -0.0006
# 2 23.5207 71.3547 24.1927 0.0029 -5.7444 -0.0013
# 3 24.7781 24.1927 122.1307 0.0026 -9.1204 -0.0013
# 4 0.0009 0.0029 0.0026 23.7174 -0.0009 2.4771
# 5 -13.4985 -5.7444 -9.1204 -0.0009 27.6461 0.0003
# 6 -0.0006 -0.0013 -0.0013 2.4771 0.0003 35.4239
#
#
#
# Elastic Compliance Matrix: (Units=1/GPa)
#
#
# Indices 1 2 3 4 5 6 
#
# 1 0.012480 -0.003198 -0.001531 0.000000 0.004924 0.000000
# 2 -0.003198 0.015974 -0.002444 -0.000002 0.000951 0.000001
# 3 -0.001531 -0.002444 0.009113 -0.000001 0.001751 0.000000
# 4 0.000000 -0.000002 -0.000001 0.042473 0.000001 -0.002970
# 5 0.004924 0.000951 0.001751 0.000001 0.039351 0.000000
# 6 0.000000 0.000001 0.000000 -0.002970 0.000000 0.028437
#
#
# Mechanical properties :
#
#
# Convention : Reuss Voigt Hill
#
# Bulk Modulus (GPa) = 43.06516 48.10998 45.58757
# Shear Modulus (GPa) = 29.42629 31.72517 30.57573
#
# Velocity S-wave (km/s) = 3.72401 3.86674 3.79605
# Velocity P-wave (km/s) = 6.22793 6.52758 6.37951
#
# Compressibility (1/GPa) = 0.02322063
#
# Stress axis : x y z
#
# Youngs Moduli (GPa) = 80.12842 62.60132 109.72755
#
# Poissons Ratio (x) = 0.20022 0.16796
# Poissons Ratio (y) = 0.25628 0.26821
# Poissons Ratio (z) = 0.12265 0.15302
#
# Static dielectric constant tensor:
#      x y z
#    x 3.847700 0.000000 -0.406300 
#    y 0.000000 3.834280 0.000000 
#    z -0.406300 0.000000 4.058790 
# 
# 
# High freq. dielectric constant tensor:
#      x y z
#    x 1.832030 0.000000 -0.016310 
#    y 0.000000 1.834830 0.000000 
#    z -0.016310 0.000000 1.845480 
# 
# From -- ./inp_files/225146.got.cif
#   From: 2010.06.25/outbox.cif.g09.slc.cpg/sg15_113_cif.got.tgz:225146.got - 2010.06.28 07:06:18.
