data_PCOD8147632
_publ_section_title
;
Structure prediction by ZEFSAII (Michael W. Deem and Ramdas Pophale) SiO2 
 PCOD8147632
Probable space group: C 2/C
;
_chemical_formula_sum "Si O2"
_cell_formula_units_Z 52
_cell_length_a 17.927047
_cell_length_b 22.194260
_cell_length_c 7.946918
_cell_angle_alpha 90.000000
_cell_angle_beta 49.371832
_cell_angle_gamma 90.000000
_cell_volume 2399.728202
_symmetry_space_group_name_H-M "C 2/C"
_symmetry_group_IT_number 15
_symmetry_cell_setting 'monoclinic'
loop_
_space_group_symop_operation_xyz
x,y,z
-x,y,1/2-z
-x,-y,-z
x,-y,1/2+z
1/2+x,1/2+y,z
1/2-x,1/2+y,1/2-z
1/2-x,1/2-y,-z
1/2+x,1/2-y,1/2+z
loop_
_atom_site_type_symbol
_atom_site_label
_atom_site_fract_x
_atom_site_fract_y
_atom_site_fract_z
Si Si1 0.000000 0.618496 0.250000
Si Si2 0.774615 0.566087 0.088096
Si Si3 0.953008 0.188565 0.998042
Si Si4 0.447874 0.557223 0.002767
Si Si5 0.963082 0.697335 0.979542
Si Si6 0.104759 0.473575 0.786318
Si Si7 0.239696 0.301052 0.874455
O O1 0.994231 0.658810 0.426588
O O2 0.091597 0.572469 0.146910
O O3 0.669034 0.544696 0.317118
O O4 0.853077 0.566012 0.123829
O O5 0.772172 0.633730 0.017259
O O6 0.814674 0.523474 0.880957
O O7 0.838685 0.197968 0.122025
O O8 0.970082 0.122176 0.056385
O O9 0.000000 0.200020 0.750000
O O10 0.989923 0.236471 0.079223
O O11 0.500000 0.565933 0.750000
O O12 0.500000 0.500000 0.000000
O O13 0.846123 0.707552 0.138095
O O14 0.000000 0.667499 0.750000
O O15 0.000000 0.500000 0.000000
O O16 0.250000 0.250000 0.000000
#
# Coordination Sequence:
#
# PCOD8147632 Si02
#       7
#     4   8   8   8   8   8   8
#     4  12  26  44  70 108 148 192 240 288 368 428
#     4  11  24  42  69  99 144 182 236 295 355 434
#     4  10  23  45  65  98 138 178 237 294 356 426
#     4  10  22  44  68  94 133 179 236 299 358 417
#     4  12  25  44  73 102 147 187 237 299 360 433
#     4  12  24  42  66 105 145 188 232 290 360 438
#     4  11  24  43  70 101 134 187 237 292 359 428
#
# _framework density 21.669121000000001
#
# number of rings (size 3 to 8) (size 9 to 14) (size 15 to 20)
#    0.000    0.923    5.385    0.923    2.154    1.231 
#    2.769    0.000    0.000    0.000    0.000    0.000 
#    0.000    0.000    0.000    0.000    0.000    0.000 
#
# Total GULP energy -322104.941938 kJ/mol
# GULP energy per Si atom -12388.651613 kJ/mol
# Density = 2.161980 g / cm^3
# Si number density = 21.669121 Si / 1000 Ang^3
#
#
#
# Elastic Constant Matrix: (Units=GPa)
#
#
# Indices 1 2 3 4 5 6 
#
# 1 110.2466 67.6231 44.4080 0.0000 -7.0620 0.0000
# 2 67.6231 159.1766 55.5242 0.0000 -3.6530 0.0000
# 3 44.4080 55.5242 133.1956 0.0000 -16.7334 0.0000
# 4 0.0000 0.0000 0.0000 28.8569 0.0000 1.0080
# 5 -7.0620 -3.6530 -16.7334 0.0000 44.7926 0.0000
# 6 0.0000 0.0000 0.0000 1.0080 0.0000 44.9381
#
#
#
# Elastic Compliance Matrix: (Units=1/GPa)
#
#
# Indices 1 2 3 4 5 6 
#
# 1 0.012896 -0.004676 -0.002249 0.000000 0.000812 0.000000
# 2 -0.004676 0.009061 -0.002327 0.000000 -0.000868 0.000000
# 3 -0.002249 -0.002327 0.009610 0.000000 0.003046 0.000000
# 4 0.000000 0.000000 0.000000 0.034681 0.000000 -0.000778
# 5 0.000812 -0.000868 0.003046 0.000000 0.023520 0.000000
# 6 0.000000 0.000000 0.000000 -0.000778 0.000000 0.022270
#
#
# Mechanical properties :
#
#
# Convention : Reuss Voigt Hill
#
# Bulk Modulus (GPa) = 76.54476 81.96994 79.25735
# Shear Modulus (GPa) = 37.06560 39.38844 38.22702
#
# Velocity S-wave (km/s) = 4.14034 4.26810 4.20470
# Velocity P-wave (km/s) = 7.63266 7.88664 7.76069
#
# Compressibility (1/GPa) = 0.01306425
#
# Stress axis : x y z
#
# Youngs Moduli (GPa) = 77.54137 110.36831 104.05671
#
# Poissons Ratio (x) = 0.51606 0.23398
# Poissons Ratio (y) = 0.36257 0.24215
# Poissons Ratio (z) = 0.17435 0.25684
#
# Static dielectric constant tensor:
#      x y z
#    x 4.027820 0.000000 -0.327520 
#    y 0.000000 4.010670 0.000000 
#    z -0.327520 0.000000 3.759360 
# 
# 
# High freq. dielectric constant tensor:
#      x y z
#    x 1.840990 0.000000 -0.017010 
#    y 0.000000 1.877490 0.000000 
#    z -0.017010 0.000000 1.847840 
# 
# From -- ./inp_files/50593.got.cif
#   From: 2010.06.25/outbox.cif.g09.slc.cpg/sg15_26_cif.got.tgz:50593.got - 2010.06.28 07:06:18.
