data_PCOD8147949
_publ_section_title
;
Structure prediction by ZEFSAII (Michael W. Deem and Ramdas Pophale) SiO2 
 PCOD8147949
Probable space group: C 2/C
;
_chemical_formula_sum "Si O2"
_cell_formula_units_Z 20
_cell_length_a 11.910757
_cell_length_b 9.061497
_cell_length_c 9.590892
_cell_angle_alpha 90.000000
_cell_angle_beta 139.890158
_cell_angle_gamma 90.000000
_cell_volume 666.892946
_symmetry_space_group_name_H-M "C 2/C"
_symmetry_group_IT_number 15
_symmetry_cell_setting 'monoclinic'
loop_
_space_group_symop_operation_xyz
x,y,z
-x,y,1/2-z
-x,-y,-z
x,-y,1/2+z
1/2+x,1/2+y,z
1/2-x,1/2+y,1/2-z
1/2-x,1/2-y,-z
1/2+x,1/2-y,1/2+z
loop_
_atom_site_type_symbol
_atom_site_label
_atom_site_fract_x
_atom_site_fract_y
_atom_site_fract_z
Si Si1 0.500000 0.020658 0.750000
Si Si2 0.845086 0.922379 0.204147
Si Si3 0.182070 0.752137 0.777799
O O1 0.530806 0.125822 0.640760
O O2 0.332141 0.921595 0.556028
O O3 0.829184 0.796354 0.306639
O O4 0.000000 0.874236 0.250000
O O5 0.884756 0.081518 0.315742
O O6 0.250000 0.750000 0.000000
#
# Coordination Sequence:
#
# PCOD8147949 Si02
#       3
#     4   8   8
#     4  10  22  46  72 112 148 198 250 308 376 458
#     4  11  24  48  77 107 155 200 249 315 380 448
#     4  10  23  46  77 111 151 198 255 312 378 454
#
# _framework density 29.989818
#
# number of rings (size 3 to 8) (size 9 to 14) (size 15 to 20)
#    0.000    1.600    2.000    1.200    0.000    6.400 
#    3.600    8.000    0.000    9.600    0.000    0.000 
#    0.000    0.000    0.000    0.000    0.000    0.000 
#
# Total GULP energy -124025.779084 kJ/mol
# GULP energy per Si atom -12402.577908 kJ/mol
# Density = 2.992156 g / cm^3
# Si number density = 29.989818 Si / 1000 Ang^3
#
#
#
# Elastic Constant Matrix: (Units=GPa)
#
#
# Indices 1 2 3 4 5 6 
#
# 1 298.1100 81.7250 55.1549 0.0000 23.9850 0.0000
# 2 81.7250 100.2808 53.5995 0.0000 -17.5267 0.0000
# 3 55.1549 53.5995 121.8313 0.0000 21.5417 0.0000
# 4 0.0000 0.0000 0.0000 -9.4013 0.0000 -6.7358
# 5 23.9850 -17.5267 21.5417 0.0000 41.9691 0.0000
# 6 0.0000 0.0000 0.0000 -6.7358 0.0000 74.9197
#
#
#
# Elastic Compliance Matrix: (Units=1/GPa)
#
#
# Indices 1 2 3 4 5 6 
#
# 1 0.005301 -0.006216 0.001462 0.000000 -0.006376 0.000000
# 2 -0.006216 0.024653 -0.011527 0.000000 0.019764 0.000000
# 3 0.001462 -0.011527 0.014975 0.000000 -0.013336 0.000000
# 4 0.000000 0.000000 0.000000 -0.099931 0.000000 -0.008985
# 5 -0.006376 0.019764 -0.013336 0.000000 0.042569 0.000000
# 6 0.000000 0.000000 0.000000 -0.008985 0.000000 0.012540
#
#
# Mechanical properties :
#
#
# Convention : Reuss Voigt Hill
#
# Bulk Modulus (GPa) = 80.85087 100.13121 90.49104
# Shear Modulus (GPa) = 135.90309 43.48033 89.69171
#
# Velocity S-wave (km/s) = 6.73905 3.81180 5.47470
# Velocity P-wave (km/s) = 9.35794 7.26870 8.37869
#
# Compressibility (1/GPa) = 0.01236845
#
# Stress axis : x y z
#
# Youngs Moduli (GPa) = 188.64379 40.56310 66.77747
#
# Poissons Ratio (x) = 0.25214 -0.09764
# Poissons Ratio (y) = 1.17261 0.76971
# Poissons Ratio (z) = -0.27584 0.46755
#
# Static dielectric constant tensor:
#      x y z
#    x 6.164550 0.000000 0.559310 
#    y 0.000000 6.125060 0.000000 
#    z 0.559310 0.000000 5.429550 
# 
# 
# High freq. dielectric constant tensor:
#      x y z
#    x 2.227720 0.000000 0.016310 
#    y 0.000000 2.226580 0.000000 
#    z 0.016310 0.000000 2.231060 
# 
# From -- ./inp_files/26744.got.cif
#   From: 2010.06.25/outbox.cif.g09.slc.cpg/sg15_14_cif.got.tgz:26744.got - 2010.06.28 07:06:18.
