data_PCOD8147742
_publ_section_title
;
Structure prediction by ZEFSAII (Michael W. Deem and Ramdas Pophale) SiO2 
 PCOD8147742
Probable space group: C 2/C
;
_chemical_formula_sum "Si O2"
_cell_formula_units_Z 56
_cell_length_a 22.838449
_cell_length_b 15.128371
_cell_length_c 9.399916
_cell_angle_alpha 90.000000
_cell_angle_beta 126.274713
_cell_angle_gamma 90.000000
_cell_volume 2618.302827
_symmetry_space_group_name_H-M "C 2/C"
_symmetry_group_IT_number 15
_symmetry_cell_setting 'monoclinic'
loop_
_space_group_symop_operation_xyz
x,y,z
-x,y,1/2-z
-x,-y,-z
x,-y,1/2+z
1/2+x,1/2+y,z
1/2-x,1/2+y,1/2-z
1/2-x,1/2-y,-z
1/2+x,1/2-y,1/2+z
loop_
_atom_site_type_symbol
_atom_site_label
_atom_site_fract_x
_atom_site_fract_y
_atom_site_fract_z
Si Si1 0.340494 0.986750 0.723304
Si Si2 0.922322 0.667415 0.468846
Si Si3 0.993656 0.910184 0.072595
Si Si4 0.412360 0.836871 0.275958
Si Si5 0.863112 0.148054 0.213381
Si Si6 0.125617 0.852913 0.095482
Si Si7 0.240529 0.998580 0.831338
O O1 0.398355 0.909164 0.827762
O O2 0.268103 0.975821 0.714220
O O3 0.379236 0.080409 0.813622
O O4 0.311975 0.976324 0.522246
O O5 0.918810 0.630409 0.623370
O O6 0.862245 0.747234 0.376694
O O7 0.006811 0.691867 0.553535
O O8 0.056598 0.851522 0.098890
O O9 0.000000 0.920880 0.250000
O O10 0.915829 0.872861 0.919738
O O11 0.000000 0.000000 0.000000
O O12 0.355480 0.754625 0.208593
O O13 0.791546 0.090927 0.143283
O O14 0.890990 0.121369 0.093892
O O15 0.186212 0.917346 0.248093
#
# Coordination Sequence:
#
# PCOD8147742 Si02
#       7
#     8   8   8   8   8   8   8
#     4  12  25  46  63  96 135 180 220 271 329 399
#     4  10  22  44  72  98 127 171 229 280 329 388
#     4  12  24  38  64 101 135 174 217 277 335 390
#     4  10  22  44  73  97 125 175 228 277 331 389
#     4  11  23  43  70  98 131 174 225 273 331 400
#     4  11  23  43  69  99 132 173 221 276 336 391
#     4  12  26  41  66  97 138 176 216 266 336 407
#
# _framework density 21.387899999999998
#
# number of rings (size 3 to 8) (size 9 to 14) (size 15 to 20)
#    0.000    0.857    5.714    1.714    2.000    2.286 
#    2.571    0.000    0.000    0.000    0.000    0.000 
#    0.000    0.000    0.000    0.000    0.000    0.000 
#
# Total GULP energy -346931.736286 kJ/mol
# GULP energy per Si atom -12390.419153 kJ/mol
# Density = 2.133922 g / cm^3
# Si number density = 21.387900 Si / 1000 Ang^3
#
#
#
# Elastic Constant Matrix: (Units=GPa)
#
#
# Indices 1 2 3 4 5 6 
#
# 1 71.2816 31.8670 16.2165 0.0000 -7.9882 0.0000
# 2 31.8670 137.6335 46.5894 0.0000 7.7757 0.0000
# 3 16.2165 46.5894 102.8663 0.0000 1.9879 0.0000
# 4 0.0000 0.0000 0.0000 31.2871 0.0000 1.0402
# 5 -7.9882 7.7757 1.9879 0.0000 35.0973 0.0000
# 6 0.0000 0.0000 0.0000 1.0402 0.0000 31.1894
#
#
#
# Elastic Compliance Matrix: (Units=1/GPa)
#
#
# Indices 1 2 3 4 5 6 
#
# 1 0.016441 -0.003733 -0.000991 0.000000 0.004625 0.000000
# 2 -0.003733 0.009529 -0.003674 0.000000 -0.002753 0.000000
# 3 -0.000991 -0.003674 0.011543 0.000000 -0.000065 0.000000
# 4 0.000000 0.000000 0.000000 0.031998 0.000000 -0.001067
# 5 0.004625 -0.002753 -0.000065 0.000000 0.030158 0.000000
# 6 0.000000 0.000000 0.000000 -0.001067 0.000000 0.032098
#
#
# Mechanical properties :
#
#
# Convention : Reuss Voigt Hill
#
# Bulk Modulus (GPa) = 48.26694 55.68079 51.97387
# Shear Modulus (GPa) = 32.16086 33.98865 33.07476
#
# Velocity S-wave (km/s) = 3.88196 3.99074 3.93673
# Velocity P-wave (km/s) = 6.53523 6.87932 6.70948
#
# Compressibility (1/GPa) = 0.02071811
#
# Stress axis : x y z
#
# Youngs Moduli (GPa) = 60.82242 104.94081 86.63319
#
# Poissons Ratio (x) = 0.39171 0.08583
# Poissons Ratio (y) = 0.22703 0.31831
# Poissons Ratio (z) = 0.06026 0.38558
#
# Static dielectric constant tensor:
#      x y z
#    x 2.186240 0.000000 0.980780 
#    y 0.000000 3.873270 0.000000 
#    z 0.980780 0.000000 3.244170 
# 
# 
# High freq. dielectric constant tensor:
#      x y z
#    x 1.828610 0.000000 -0.001090 
#    y 0.000000 1.847760 0.000000 
#    z -0.001090 0.000000 1.832150 
# 
# From -- ./inp_files/55659.got.cif
#   From: 2010.06.25/outbox.cif.g09.slc.cpg/sg15_28_cif.got.tgz:55659.got - 2010.06.28 07:06:18.
