data_PCOD8147832
_publ_section_title
;
Structure prediction by ZEFSAII (Michael W. Deem and Ramdas Pophale) SiO2 
 PCOD8147832
Probable space group: C 2/C
;
_chemical_formula_sum "Si O2"
_cell_formula_units_Z 40
_cell_length_a 21.381001
_cell_length_b 12.723429
_cell_length_c 17.876909
_cell_angle_alpha 90.000000
_cell_angle_beta 159.357455
_cell_angle_gamma 90.000000
_cell_volume 1714.465987
_symmetry_space_group_name_H-M "C 2/C"
_symmetry_group_IT_number 15
_symmetry_cell_setting 'monoclinic'
loop_
_space_group_symop_operation_xyz
x,y,z
-x,y,1/2-z
-x,-y,-z
x,-y,1/2+z
1/2+x,1/2+y,z
1/2-x,1/2+y,1/2-z
1/2-x,1/2-y,-z
1/2+x,1/2-y,1/2+z
loop_
_atom_site_type_symbol
_atom_site_label
_atom_site_fract_x
_atom_site_fract_y
_atom_site_fract_z
Si Si1 0.155799 0.165401 0.578155
Si Si2 0.246044 0.618460 0.120885
Si Si3 0.653738 0.855731 0.865098
Si Si4 0.422040 0.067775 0.980087
Si Si5 0.800924 0.074658 0.024019
O O1 0.147498 0.290107 0.555971
O O2 0.268603 0.144621 0.778662
O O3 0.267215 0.112357 0.633545
O O4 0.959208 0.119321 0.370404
O O5 0.167249 0.508420 0.059220
O O6 0.198990 0.628959 0.979578
O O7 0.500000 0.882793 0.750000
O O8 0.567934 0.857587 0.685074
O O9 0.750000 0.750000 0.000000
O O10 0.796720 0.948866 0.027046
O O11 0.500000 0.000000 0.000000
O O12 0.000000 0.115280 0.250000
#
# Coordination Sequence:
#
# PCOD8147832 Si02
#       5
#     8   8   8   8   8
#     4  11  24  43  72 107 141 187 237 297 362 429
#     4  11  24  44  70 105 142 187 235 293 362 430
#     4  12  26  46  72 100 140 189 239 290 364 434
#     4  12  25  46  70 103 144 186 239 303 355 430
#     4  10  22  45  70 101 140 179 236 291 348 424
#
# _framework density 23.330880000000001
#
# number of rings (size 3 to 8) (size 9 to 14) (size 15 to 20)
#    0.000    0.800    4.000    3.000    0.000    3.200 
#    7.200    0.000    0.000    0.000    0.000    0.000 
#    0.000    0.000    0.000    0.000    0.000    0.000 
#
# Total GULP energy -247921.437491 kJ/mol
# GULP energy per Si atom -12396.071875 kJ/mol
# Density = 2.327778 g / cm^3
# Si number density = 23.330880 Si / 1000 Ang^3
#
#
#
# Elastic Constant Matrix: (Units=GPa)
#
#
# Indices 1 2 3 4 5 6 
#
# 1 98.5474 24.2528 42.0127 0.0012 -12.1260 0.0004
# 2 24.2528 117.7107 33.4539 0.0020 -12.7926 0.0005
# 3 42.0127 33.4539 101.5724 0.0018 -13.3887 0.0011
# 4 0.0012 0.0020 0.0018 41.1273 -0.0001 -1.3605
# 5 -12.1260 -12.7926 -13.3887 -0.0001 33.0271 -0.0010
# 6 0.0004 0.0005 0.0011 -1.3605 -0.0010 36.5353
#
#
#
# Elastic Compliance Matrix: (Units=1/GPa)
#
#
# Indices 1 2 3 4 5 6 
#
# 1 0.012648 -0.001047 -0.004572 0.000000 0.002385 0.000000
# 2 -0.001047 0.009661 -0.002436 0.000000 0.002370 0.000000
# 3 -0.004572 -0.002436 0.012881 0.000000 0.002600 0.000000
# 4 0.000000 0.000000 0.000000 0.024345 0.000000 0.000907
# 5 0.002385 0.002370 0.002600 0.000000 0.033125 0.000001
# 6 0.000000 0.000000 0.000000 0.000907 0.000001 0.027405
#
#
# Mechanical properties :
#
#
# Convention : Reuss Voigt Hill
#
# Bulk Modulus (GPa) = 52.41471 57.47436 54.94454
# Shear Modulus (GPa) = 35.07875 36.67868 35.87872
#
# Velocity S-wave (km/s) = 3.88175 3.96928 3.92576
# Velocity P-wave (km/s) = 6.52727 6.75980 6.64455
#
# Compressibility (1/GPa) = 0.01907861
#
# Stress axis : x y z
#
# Youngs Moduli (GPa) = 79.06538 103.50691 77.63102
#
# Poissons Ratio (x) = 0.10841 0.35494
# Poissons Ratio (y) = 0.08281 0.18914
# Poissons Ratio (z) = 0.36150 0.25219
#
# Static dielectric constant tensor:
#      x y z
#    x 4.566730 0.000000 -0.262760 
#    y 0.000000 4.030510 0.000000 
#    z -0.262760 0.000000 4.377380 
# 
# 
# High freq. dielectric constant tensor:
#      x y z
#    x 1.933220 0.000000 -0.004180 
#    y 0.000000 1.913980 0.000000 
#    z -0.004180 0.000000 1.929030 
# 
# From -- ./inp_files/46242.got.cif
#   From: 2010.06.25/outbox.cif.g09.slc.cpg/sg15_24_cif.got.tgz:46242.got - 2010.06.28 07:06:18.
