data_PCOD8147912
_publ_section_title
;
Structure prediction by ZEFSAII (Michael W. Deem and Ramdas Pophale) SiO2 
 PCOD8147912
Probable space group: C 2/C
;
_chemical_formula_sum "Si O2"
_cell_formula_units_Z 56
_cell_length_a 17.318607
_cell_length_b 8.984943
_cell_length_c 16.167623
_cell_angle_alpha 90.000000
_cell_angle_beta 105.723337
_cell_angle_gamma 90.000000
_cell_volume 2421.653177
_symmetry_space_group_name_H-M "C 2/C"
_symmetry_group_IT_number 15
_symmetry_cell_setting 'monoclinic'
loop_
_space_group_symop_operation_xyz
x,y,z
-x,y,1/2-z
-x,-y,-z
x,-y,1/2+z
1/2+x,1/2+y,z
1/2-x,1/2+y,1/2-z
1/2-x,1/2-y,-z
1/2+x,1/2-y,1/2+z
loop_
_atom_site_type_symbol
_atom_site_label
_atom_site_fract_x
_atom_site_fract_y
_atom_site_fract_z
Si Si1 0.384984 0.583469 0.520217
Si Si2 0.246843 0.592674 0.041480
Si Si3 0.316014 0.989717 0.218126
Si Si4 0.615393 0.921084 0.936349
Si Si5 0.457515 0.835428 0.826030
Si Si6 0.045219 0.004228 0.631265
Si Si7 0.323178 0.358765 0.738389
O O1 0.299336 0.506516 0.494854
O O2 0.366073 0.748948 0.545087
O O3 0.447774 0.499719 0.601267
O O4 0.421947 0.580067 0.439859
O O5 0.287784 0.584984 0.142037
O O6 0.250000 0.750000 0.000000
O O7 0.155950 0.523975 0.019721
O O8 0.316568 0.817429 0.242942
O O9 0.343286 0.012895 0.133101
O O10 0.377041 0.071099 0.297582
O O11 0.228503 0.061867 0.204517
O O12 0.518729 0.932789 0.900995
O O13 0.500000 0.803453 0.750000
O O14 0.432236 0.679643 0.860856
O O15 0.084937 0.917031 0.720956
#
# Coordination Sequence:
#
# PCOD8147912 Si02
#       7
#     8   8   8   8   8   8   8
#     4  10  24  44  71  95 133 174 215 277 329 402
#     4  12  26  42  62  97 133 177 217 275 325 385
#     4  11  24  43  64  98 127 175 220 275 328 389
#     4  10  22  46  68  94 131 174 218 262 340 394
#     4   9  21  41  71  92 131 171 214 273 329 389
#     4  10  23  44  68 102 127 169 226 269 330 393
#     4  12  27  40  68  94 135 173 225 275 325 395
#
# _framework density 23.124700000000001
#
# number of rings (size 3 to 8) (size 9 to 14) (size 15 to 20)
#    0.000    1.429    1.429    2.143   12.000    1.143 
#    2.571    0.714    0.000    0.000    0.000    0.000 
#    0.000    0.000    0.000    0.000    0.000    0.000 
#
# Total GULP energy -347102.118517 kJ/mol
# GULP energy per Si atom -12396.504233 kJ/mol
# Density = 2.307207 g / cm^3
# Si number density = 23.124700 Si / 1000 Ang^3
#
#
#
# Elastic Constant Matrix: (Units=GPa)
#
#
# Indices 1 2 3 4 5 6 
#
# 1 51.4838 35.9909 11.6193 0.0000 25.7637 0.0000
# 2 35.9909 121.5568 25.2338 0.0000 23.5438 0.0000
# 3 11.6193 25.2338 97.0670 0.0000 31.1907 0.0000
# 4 0.0000 0.0000 0.0000 39.4586 0.0000 9.9929
# 5 25.7637 23.5438 31.1907 0.0000 37.9130 0.0000
# 6 0.0000 0.0000 0.0000 9.9929 0.0000 39.1021
#
#
#
# Elastic Compliance Matrix: (Units=1/GPa)
#
#
# Indices 1 2 3 4 5 6 
#
# 1 0.034921 -0.006816 0.005243 0.000000 -0.023811 0.000000
# 2 -0.006816 0.010724 -0.001795 0.000000 -0.000551 0.000000
# 3 0.005243 -0.001795 0.014855 0.000000 -0.014669 0.000000
# 4 0.000000 0.000000 0.000000 0.027097 0.000000 -0.006925
# 5 -0.023811 -0.000551 -0.014669 0.000000 0.054967 0.000000
# 6 0.000000 0.000000 0.000000 -0.006925 0.000000 0.027344
#
#
# Mechanical properties :
#
#
# Convention : Reuss Voigt Hill
#
# Bulk Modulus (GPa) = 18.59983 46.19950 32.39967
# Shear Modulus (GPa) = 25.69842 36.44564 31.07203
#
# Velocity S-wave (km/s) = 3.33723 3.97425 3.66959
# Velocity P-wave (km/s) = 4.78646 6.40948 5.65648
#
# Compressibility (1/GPa) = 0.05376393
#
# Stress axis : x y z
#
# Youngs Moduli (GPa) = 28.63631 93.24835 67.31815
#
# Poissons Ratio (x) = 0.63558 -0.35295
# Poissons Ratio (y) = 0.19518 0.12083
# Poissons Ratio (z) = -0.15014 0.16737
#
# Static dielectric constant tensor:
#      x y z
#    x 4.196210 0.000000 0.628810 
#    y 0.000000 3.021240 0.000000 
#    z 0.628810 0.000000 4.260430 
# 
# 
# High freq. dielectric constant tensor:
#      x y z
#    x 1.910940 0.000000 0.027440 
#    y 0.000000 1.910420 0.000000 
#    z 0.027440 0.000000 1.928210 
# 
# From -- ./inp_files/209645.got.cif
#   From: 2010.06.25/outbox.cif.g09.slc.cpg/sg15_105_cif.got.tgz:209645.got - 2010.06.28 07:06:18.
