data_PCOD8147408
_publ_section_title
;
Structure prediction by ZEFSAII (Michael W. Deem and Ramdas Pophale) SiO2 
 PCOD8147408
Probable space group: C 2/C
;
_chemical_formula_sum "Si O2"
_cell_formula_units_Z 48
_cell_length_a 27.598373
_cell_length_b 8.425543
_cell_length_c 14.660770
_cell_angle_alpha 90.000000
_cell_angle_beta 37.522713
_cell_angle_gamma 90.000000
_cell_volume 2076.393023
_symmetry_space_group_name_H-M "C 2/C"
_symmetry_group_IT_number 15
_symmetry_cell_setting 'monoclinic'
loop_
_space_group_symop_operation_xyz
x,y,z
-x,y,1/2-z
-x,-y,-z
x,-y,1/2+z
1/2+x,1/2+y,z
1/2-x,1/2+y,1/2-z
1/2-x,1/2-y,-z
1/2+x,1/2-y,1/2+z
loop_
_atom_site_type_symbol
_atom_site_label
_atom_site_fract_x
_atom_site_fract_y
_atom_site_fract_z
Si Si1 0.662699 0.423378 0.594883
Si Si2 0.818847 0.906464 0.613889
Si Si3 0.846572 0.581169 0.840108
Si Si4 0.912880 0.388413 0.900979
Si Si5 0.087968 0.068572 0.868562
Si Si6 0.367129 0.907783 0.628769
O O1 0.656769 0.460089 0.496385
O O2 0.752727 0.422443 0.492845
O O3 0.621164 0.254347 0.678530
O O4 0.618422 0.560543 0.718679
O O5 0.854790 0.739859 0.530724
O O6 0.724503 0.878999 0.762924
O O7 0.853847 0.957613 0.658478
O O8 0.879717 0.444646 0.854518
O O9 0.872621 0.542903 0.698099
O O10 0.000000 0.318272 0.750000
O O11 0.916905 0.533980 0.966954
O O12 0.091040 0.248275 0.898520
O O13 0.000000 0.000000 0.000000
#
# Coordination Sequence:
#
# PCOD8147408 Si02
#       6
#     8   8   8   8   8   8
#     4  10  22  43  71 100 133 177 230 277 339 419
#     4  11  24  45  71  98 139 187 232 277 344 431
#     4  10  22  43  72  99 132 178 229 280 336 422
#     4  12  27  41  69 102 141 176 227 290 348 407
#     4  12  27  41  69 102 141 177 228 294 350 406
#     4  11  24  46  72  97 137 187 234 277 346 427
#
# _framework density 23.117010000000001
#
# number of rings (size 3 to 8) (size 9 to 14) (size 15 to 20)
#    0.000    1.000    0.000    6.000    7.000    6.000 
#    0.000    0.000    0.000    0.000    0.000    0.000 
#    0.000    0.000    0.000    0.000    0.000    0.000 
#
# Total GULP energy -297746.897964 kJ/mol
# GULP energy per Si atom -12406.120749 kJ/mol
# Density = 2.306439 g / cm^3
# Si number density = 23.117010 Si / 1000 Ang^3
#
#
#
# Elastic Constant Matrix: (Units=GPa)
#
#
# Indices 1 2 3 4 5 6 
#
# 1 65.8605 16.3657 21.7013 -0.0006 2.8174 0.0001
# 2 16.3657 82.2140 8.3828 -0.0032 -21.5157 0.0017
# 3 21.7013 8.3828 94.1619 -0.0011 3.6862 0.0007
# 4 -0.0006 -0.0032 -0.0011 33.1398 0.0001 2.2218
# 5 2.8174 -21.5157 3.6862 0.0001 18.1423 0.0001
# 6 0.0001 0.0017 0.0007 2.2218 0.0001 38.3436
#
#
#
# Elastic Compliance Matrix: (Units=1/GPa)
#
#
# Indices 1 2 3 4 5 6 
#
# 1 0.018020 -0.005516 -0.003323 0.000000 -0.008665 0.000000
# 2 -0.005516 0.019885 -0.001467 0.000002 0.024737 -0.000001
# 3 -0.003323 -0.001467 0.011657 0.000000 -0.003593 0.000000
# 4 0.000000 0.000002 0.000000 0.030293 0.000002 -0.001755
# 5 -0.008665 0.024737 -0.003593 0.000002 0.086532 -0.000001
# 6 0.000000 -0.000001 0.000000 -0.001755 -0.000001 0.026182
#
#
# Mechanical properties :
#
#
# Convention : Reuss Voigt Hill
#
# Bulk Modulus (GPa) = 34.54279 37.23732 35.89006
# Shear Modulus (GPa) = 22.43869 30.97758 26.70813
#
# Velocity S-wave (km/s) = 3.11892 3.66462 3.40272
# Velocity P-wave (km/s) = 5.28632 5.83516 5.56751
#
# Compressibility (1/GPa) = 0.02894960
#
# Stress axis : x y z
#
# Youngs Moduli (GPa) = 55.49468 50.29000 85.78485
#
# Poissons Ratio (x) = 0.27739 0.28504
# Poissons Ratio (y) = 0.30610 0.12588
# Poissons Ratio (z) = 0.18439 0.07380
#
# Static dielectric constant tensor:
#      x y z
#    x 4.224320 0.000000 0.164040 
#    y 0.000000 4.283800 0.000000 
#    z 0.164040 0.000000 4.134560 
# 
# 
# High freq. dielectric constant tensor:
#      x y z
#    x 1.918090 0.000000 0.012750 
#    y 0.000000 1.919440 0.000000 
#    z 0.012750 0.000000 1.916640 
# 
# From -- ./inp_files/176902.got.cif
#   From: 2010.06.25/outbox.cif.g09.slc.cpg/sg15_89_cif.got.tgz:176902.got - 2010.06.28 07:06:18.
