data_PCOD8147415
_publ_section_title
;
Structure prediction by ZEFSAII (Michael W. Deem and Ramdas Pophale) SiO2 
 PCOD8147415
Probable space group: C 2/C
;
_chemical_formula_sum "Si O2"
_cell_formula_units_Z 56
_cell_length_a 12.001512
_cell_length_b 13.050284
_cell_length_c 16.872964
_cell_angle_alpha 90.000000
_cell_angle_beta 71.446962
_cell_angle_gamma 90.000000
_cell_volume 2505.354403
_symmetry_space_group_name_H-M "C 2/C"
_symmetry_group_IT_number 15
_symmetry_cell_setting 'monoclinic'
loop_
_space_group_symop_operation_xyz
x,y,z
-x,y,1/2-z
-x,-y,-z
x,-y,1/2+z
1/2+x,1/2+y,z
1/2-x,1/2+y,1/2-z
1/2-x,1/2-y,-z
1/2+x,1/2-y,1/2+z
loop_
_atom_site_type_symbol
_atom_site_label
_atom_site_fract_x
_atom_site_fract_y
_atom_site_fract_z
Si Si1 0.740866 0.011385 0.864115
Si Si2 0.450703 0.150212 0.676932
Si Si3 0.899310 0.369976 0.828892
Si Si4 0.823639 0.134614 0.212673
Si Si5 0.840991 0.555298 0.953522
Si Si6 0.952755 0.151046 0.846812
Si Si7 0.605198 0.461076 0.424503
O O1 0.658457 0.077564 0.823567
O O2 0.835469 0.083579 0.887271
O O3 0.809571 0.921627 0.800993
O O4 0.661158 0.960701 0.951144
O O5 0.500000 0.111150 0.750000
O O6 0.411101 0.268368 0.695792
O O7 0.558546 0.139547 0.589662
O O8 0.801812 0.328589 0.789687
O O9 0.868387 0.449741 0.903169
O O10 0.932919 0.269312 0.869308
O O11 0.000000 0.416407 0.750000
O O12 0.864069 0.055057 0.138214
O O13 0.712360 0.587319 0.950724
O O14 0.000000 0.125623 0.750000
O O15 0.058287 0.130743 0.882556
O O16 0.500000 0.500000 0.500000
#
# Coordination Sequence:
#
# PCOD8147415 Si02
#       7
#     8   8   8   8   8   8   8
#     4  12  24  46  72 101 136 185 227 288 343 410
#     4  12  27  45  67 101 137 182 230 284 349 413
#     4  10  22  43  71 103 130 183 232 284 338 411
#     4  11  25  44  69  97 138 184 229 281 350 410
#     4  11  25  45  72  99 144 176 229 287 350 409
#     4  11  22  40  73 101 136 173 236 280 335 405
#     4  11  23  42  70 103 138 181 227 287 342 408
#
# _framework density 22.352129000000001
#
# number of rings (size 3 to 8) (size 9 to 14) (size 15 to 20)
#    0.000    0.857    4.286    3.429    2.000    1.714 
#    0.000    5.714    0.000    0.000    0.000    0.000 
#    0.000    0.000    0.000    0.000    0.000    0.000 
#
# Total GULP energy -347141.816377 kJ/mol
# GULP energy per Si atom -12397.922013 kJ/mol
# Density = 2.230125 g / cm^3
# Si number density = 22.352129 Si / 1000 Ang^3
#
#
#
# Elastic Constant Matrix: (Units=GPa)
#
#
# Indices 1 2 3 4 5 6 
#
# 1 117.8432 39.2551 14.6967 0.0000 0.8372 0.0000
# 2 39.2551 88.3148 29.2730 0.0000 3.7792 0.0000
# 3 14.6967 29.2730 113.1549 0.0000 -7.9923 0.0000
# 4 0.0000 0.0000 0.0000 68.2459 0.0000 9.9334
# 5 0.8372 3.7792 -7.9923 0.0000 42.0026 0.0000
# 6 0.0000 0.0000 0.0000 9.9334 0.0000 37.3188
#
#
#
# Elastic Compliance Matrix: (Units=1/GPa)
#
#
# Indices 1 2 3 4 5 6 
#
# 1 0.009965 -0.004388 -0.000147 0.000000 0.000168 0.000000
# 2 -0.004388 0.014445 -0.003297 0.000000 -0.001840 0.000000
# 3 -0.000147 -0.003297 0.009863 0.000000 0.002176 0.000000
# 4 0.000000 0.000000 0.000000 0.015243 0.000000 -0.004057
# 5 0.000168 -0.001840 0.002176 0.000000 0.024384 0.000000
# 6 0.000000 0.000000 0.000000 -0.004057 0.000000 0.027876
#
#
# Mechanical properties :
#
#
# Convention : Reuss Voigt Hill
#
# Bulk Modulus (GPa) = 53.73704 53.97359 53.85531
# Shear Modulus (GPa) = 40.43898 45.25268 42.84583
#
# Velocity S-wave (km/s) = 4.25806 4.50437 4.38294
# Velocity P-wave (km/s) = 6.94752 7.15904 7.05407
#
# Compressibility (1/GPa) = 0.01860914
#
# Stress axis : x y z
#
# Youngs Moduli (GPa) = 100.35556 69.22876 101.38692
#
# Poissons Ratio (x) = 0.30374 0.01493
# Poissons Ratio (y) = 0.44031 0.33427
# Poissons Ratio (z) = 0.01478 0.22824
#
# Static dielectric constant tensor:
#      x y z
#    x 4.001420 0.000000 1.043020 
#    y 0.000000 3.827480 0.000000 
#    z 1.043020 0.000000 1.844150 
# 
# 
# High freq. dielectric constant tensor:
#      x y z
#    x 1.899220 0.000000 -0.005360 
#    y 0.000000 1.873780 0.000000 
#    z -0.005360 0.000000 1.882590 
# 
# From -- ./inp_files/197774.got.cif
#   From: 2010.06.25/outbox.cif.g09.slc.cpg/sg15_99_cif.got.tgz:197774.got - 2010.06.28 07:06:18.
