data_PCOD8147898
_publ_section_title
;
Structure prediction by ZEFSAII (Michael W. Deem and Ramdas Pophale) SiO2 
 PCOD8147898
Probable space group: C 2/C
;
_chemical_formula_sum "Si O2"
_cell_formula_units_Z 48
_cell_length_a 13.736154
_cell_length_b 11.399967
_cell_length_c 19.181736
_cell_angle_alpha 90.000000
_cell_angle_beta 133.592986
_cell_angle_gamma 90.000000
_cell_volume 2175.449083
_symmetry_space_group_name_H-M "C 2/C"
_symmetry_group_IT_number 15
_symmetry_cell_setting 'monoclinic'
loop_
_space_group_symop_operation_xyz
x,y,z
-x,y,1/2-z
-x,-y,-z
x,-y,1/2+z
1/2+x,1/2+y,z
1/2-x,1/2+y,1/2-z
1/2-x,1/2-y,-z
1/2+x,1/2-y,1/2+z
loop_
_atom_site_type_symbol
_atom_site_label
_atom_site_fract_x
_atom_site_fract_y
_atom_site_fract_z
Si Si1 0.243730 0.496157 0.251450
Si Si2 0.840742 0.612772 0.416799
Si Si3 0.658116 0.171759 0.822364
Si Si4 0.969935 0.676312 0.350496
Si Si5 0.013882 0.060481 0.836175
Si Si6 0.695585 0.001569 0.963309
O O1 0.201942 0.496090 0.148500
O O2 0.199844 0.375560 0.266724
O O3 0.163106 0.607416 0.245611
O O4 0.406466 0.508588 0.332515
O O5 0.713066 0.698532 0.361547
O O6 0.957460 0.680118 0.429871
O O7 0.886021 0.571490 0.515862
O O8 0.500000 0.176650 0.750000
O O9 0.721376 0.085494 0.910968
O O10 0.975275 0.802748 0.319338
O O11 0.105232 0.607986 0.395338
O O12 0.000000 0.016629 0.750000
O O13 0.161530 0.040150 0.938077
#
# Coordination Sequence:
#
# PCOD8147898 Si02
#       6
#     8   8   8   8   8   8
#     4  10  22  46  66  94 132 178 220 272 334 394
#     4  10  23  42  67  97 131 175 225 266 335 392
#     4  12  24  44  69 100 132 180 225 276 333 398
#     4  10  23  42  67  97 131 175 225 266 335 392
#     4  12  24  44  69 100 132 180 225 276 333 398
#     4  12  25  43  66 102 136 174 222 284 328 400
#
# _framework density 22.064409000000001
#
# number of rings (size 3 to 8) (size 9 to 14) (size 15 to 20)
#    1.000    0.000    5.000    1.500    4.667    0.667 
#    0.000    0.000    0.000    0.000    0.000    0.000 
#    0.000    0.000    0.000    0.000    0.000    0.000 
#
# Total GULP energy -297394.707410 kJ/mol
# GULP energy per Si atom -12391.446142 kJ/mol
# Density = 2.201419 g / cm^3
# Si number density = 22.064409 Si / 1000 Ang^3
#
#
#
# Elastic Constant Matrix: (Units=GPa)
#
#
# Indices 1 2 3 4 5 6 
#
# 1 104.5879 19.6402 35.8888 0.0000 13.2197 0.0000
# 2 19.6402 68.0581 30.1460 0.0000 -2.9564 0.0000
# 3 35.8888 30.1460 64.5625 0.0000 10.0774 0.0000
# 4 0.0000 0.0000 0.0000 29.0468 0.0000 3.5528
# 5 13.2197 -2.9564 10.0774 0.0000 37.5853 0.0000
# 6 0.0000 0.0000 0.0000 3.5528 0.0000 33.0459
#
#
#
# Elastic Compliance Matrix: (Units=1/GPa)
#
#
# Indices 1 2 3 4 5 6 
#
# 1 0.012101 -0.001041 -0.005806 0.000000 -0.002781 0.000000
# 2 -0.001041 0.019191 -0.009054 0.000000 0.004303 0.000000
# 3 -0.005806 -0.009054 0.023729 0.000000 -0.005032 0.000000
# 4 0.000000 0.000000 0.000000 0.034886 0.000000 -0.003751
# 5 -0.002781 0.004303 -0.005032 0.000000 0.029272 0.000000
# 6 0.000000 0.000000 0.000000 -0.003751 0.000000 0.030664
#
#
# Mechanical properties :
#
#
# Convention : Reuss Voigt Hill
#
# Bulk Modulus (GPa) = 43.06835 45.39538 44.23187
# Shear Modulus (GPa) = 26.40120 30.03784 28.21952
#
# Velocity S-wave (km/s) = 3.46287 3.69368 3.58014
# Velocity P-wave (km/s) = 5.96242 6.22974 6.09755
#
# Compressibility (1/GPa) = 0.02321891
#
# Stress axis : x y z
#
# Youngs Moduli (GPa) = 82.63921 52.10783 42.14176
#
# Poissons Ratio (x) = 0.05424 0.24469
# Poissons Ratio (y) = 0.08602 0.38154
# Poissons Ratio (z) = 0.47984 0.47177
#
# Static dielectric constant tensor:
#      x y z
#    x 4.345430 0.000000 0.003600 
#    y 0.000000 3.812700 0.000000 
#    z 0.003600 0.000000 3.675320 
# 
# 
# High freq. dielectric constant tensor:
#      x y z
#    x 1.890980 0.000000 0.007830 
#    y 0.000000 1.854320 0.000000 
#    z 0.007830 0.000000 1.839860 
# 
# From -- ./inp_files/243997.got.cif
#   From: 2010.06.25/outbox.cif.g09.slc.cpg/sg15_122_cif.got.tgz:243997.got - 2010.06.28 07:06:18.
