data_PCOD8147529
_publ_section_title
;
Structure prediction by ZEFSAII (Michael W. Deem and Ramdas Pophale) SiO2 
 PCOD8147529
Probable space group: C 2/C
;
_chemical_formula_sum "Si O2"
_cell_formula_units_Z 48
_cell_length_a 8.641725
_cell_length_b 23.640785
_cell_length_c 11.341978
_cell_angle_alpha 90.000000
_cell_angle_beta 81.747833
_cell_angle_gamma 90.000000
_cell_volume 2293.142226
_symmetry_space_group_name_H-M "C 2/C"
_symmetry_group_IT_number 15
_symmetry_cell_setting 'monoclinic'
loop_
_space_group_symop_operation_xyz
x,y,z
-x,y,1/2-z
-x,-y,-z
x,-y,1/2+z
1/2+x,1/2+y,z
1/2-x,1/2+y,1/2-z
1/2-x,1/2-y,-z
1/2+x,1/2-y,1/2+z
loop_
_atom_site_type_symbol
_atom_site_label
_atom_site_fract_x
_atom_site_fract_y
_atom_site_fract_z
Si Si1 0.180890 0.949136 0.715820
Si Si2 0.171653 0.327420 0.208559
Si Si3 0.318185 0.213541 0.259011
Si Si4 0.707329 0.117263 0.076374
Si Si5 0.152544 0.365396 0.949428
Si Si6 0.665311 0.419520 0.176285
O O1 0.282124 0.927389 0.816734
O O2 0.250991 0.922652 0.588037
O O3 0.000000 0.932018 0.750000
O O4 0.200403 0.015713 0.698724
O O5 0.279419 0.279215 0.253996
O O6 0.197318 0.384945 0.276533
O O7 0.000000 0.304250 0.250000
O O8 0.199600 0.340399 0.069704
O O9 0.500000 0.206244 0.250000
O O10 0.242683 0.179840 0.379665
O O11 0.272764 0.181435 0.144805
O O12 0.531380 0.120707 0.044365
O O13 0.828413 0.096059 0.963257
O O14 0.500000 0.400841 0.250000
#
# Coordination Sequence:
#
# PCOD8147529 Si02
#       6
#     8   8   8   8   8   8
#     4  10  24  41  68  95 124 171 215 261 313 379
#     4  12  24  41  62 100 125 163 219 264 313 380
#     4   9  21  43  66  88 125 170 209 262 322 374
#     4  10  22  45  66  92 129 172 208 261 326 376
#     4  10  22  44  65  93 130 166 213 262 317 381
#     4  11  26  42  62  95 132 171 210 264 318 374
#
# _framework density 20.931975999999999
#
# number of rings (size 3 to 8) (size 9 to 14) (size 15 to 20)
#    0.000    1.667    1.667    2.500    4.667    6.667 
#    3.000    0.000    0.000    0.000    0.000    0.000 
#    0.000    0.000    0.000    0.000    0.000    0.000 
#
# Total GULP energy -297520.025676 kJ/mol
# GULP energy per Si atom -12396.667736 kJ/mol
# Density = 2.088433 g / cm^3
# Si number density = 20.931976 Si / 1000 Ang^3
#
#
#
# Elastic Constant Matrix: (Units=GPa)
#
#
# Indices 1 2 3 4 5 6 
#
# 1 28.7694 34.0769 22.9598 0.0000 -1.2186 0.0000
# 2 34.0769 126.5136 59.7564 0.0000 1.8860 0.0000
# 3 22.9598 59.7564 137.2469 0.0000 -4.4996 0.0000
# 4 0.0000 0.0000 0.0000 21.3054 0.0000 -1.6118
# 5 -1.2186 1.8860 -4.4996 0.0000 34.3501 0.0000
# 6 0.0000 0.0000 0.0000 -1.6118 0.0000 23.0362
#
#
#
# Elastic Compliance Matrix: (Units=1/GPa)
#
#
# Indices 1 2 3 4 5 6 
#
# 1 0.052351 -0.012626 -0.003191 0.000000 0.002132 0.000000
# 2 -0.012626 0.013039 -0.003618 0.000000 -0.001638 0.000000
# 3 -0.003191 -0.003618 0.009439 0.000000 0.001322 0.000000
# 4 0.000000 0.000000 0.000000 0.047186 0.000000 0.003302
# 5 0.002132 -0.001638 0.001322 0.000000 0.029451 0.000000
# 6 0.000000 0.000000 0.000000 0.003302 0.000000 0.043641
#
#
# Mechanical properties :
#
#
# Convention : Reuss Voigt Hill
#
# Bulk Modulus (GPa) = 27.80987 58.45734 43.13361
# Shear Modulus (GPa) = 20.32840 27.45414 23.89127
#
# Velocity S-wave (km/s) = 3.11973 3.62551 3.38209
# Velocity P-wave (km/s) = 5.12754 6.74639 5.99189
#
# Compressibility (1/GPa) = 0.03595846
#
# Stress axis : x y z
#
# Youngs Moduli (GPa) = 19.10198 76.69540 105.94678
#
# Poissons Ratio (x) = 0.96833 0.33804
# Poissons Ratio (y) = 0.24117 0.38337
# Poissons Ratio (z) = 0.06095 0.27752
#
# Static dielectric constant tensor:
#      x y z
#    x 3.661580 0.000000 -0.049810 
#    y 0.000000 3.754980 0.000000 
#    z -0.049810 0.000000 3.963290 
# 
# 
# High freq. dielectric constant tensor:
#      x y z
#    x 1.812570 0.000000 -0.000120 
#    y 0.000000 1.825160 0.000000 
#    z -0.000120 0.000000 1.828850 
# 
# From -- ./inp_files/79149.got.cif
#   From: 2010.06.25/outbox.cif.g09.slc.cpg/sg15_40_cif.got.tgz:79149.got - 2010.06.28 07:06:18.
