data_PCOD8147502
_publ_section_title
;
Structure prediction by ZEFSAII (Michael W. Deem and Ramdas Pophale) SiO2 
 PCOD8147502
Probable space group: C 2/C
;
_chemical_formula_sum "Si O2"
_cell_formula_units_Z 64
_cell_length_a 11.177041
_cell_length_b 9.105953
_cell_length_c 28.567339
_cell_angle_alpha 90.000000
_cell_angle_beta 84.711960
_cell_angle_gamma 90.000000
_cell_volume 2895.140980
_symmetry_space_group_name_H-M "C 2/C"
_symmetry_group_IT_number 15
_symmetry_cell_setting 'monoclinic'
loop_
_space_group_symop_operation_xyz
x,y,z
-x,y,1/2-z
-x,-y,-z
x,-y,1/2+z
1/2+x,1/2+y,z
1/2-x,1/2+y,1/2-z
1/2-x,1/2-y,-z
1/2+x,1/2-y,1/2+z
loop_
_atom_site_type_symbol
_atom_site_label
_atom_site_fract_x
_atom_site_fract_y
_atom_site_fract_z
Si Si1 0.031250 0.778292 0.930306
Si Si2 0.273529 0.471198 0.675655
Si Si3 0.189812 0.024280 0.072698
Si Si4 0.696592 0.188655 0.095104
Si Si5 0.152013 0.380077 0.501793
Si Si6 0.246333 0.209407 0.159299
Si Si7 0.019875 0.747842 0.827922
Si Si8 0.382880 0.972276 0.729629
O O1 0.163599 0.846908 0.920929
O O2 0.034520 0.666473 0.975031
O O3 0.003739 0.692807 0.882513
O O4 0.934415 0.907184 0.941828
O O5 0.177258 0.375310 0.648087
O O6 0.293230 0.625916 0.648919
O O7 0.402367 0.395553 0.676029
O O8 0.220066 0.499659 0.728671
O O9 0.167012 0.862139 0.095199
O O10 0.283287 0.017817 0.025796
O O11 0.249214 0.123957 0.110319
O O12 0.618925 0.098661 0.058131
O O13 0.250000 0.250000 0.500000
O O14 0.112307 0.213734 0.186693
O O15 0.337491 0.136215 0.191816
O O16 0.083919 0.627674 0.794242
O O17 0.500000 0.902269 0.750000
#
# Coordination Sequence:
#
# PCOD8147502 Si02
#       8
#     8   8   8   8   8   8   8   8
#     4   8  15  30  57  87 111 150 200 241 292 359
#     4  11  23  41  62  87 123 158 203 253 303 358
#     4   9  17  33  61  84 116 161 197 242 303 352
#     4   9  19  34  52  87 124 159 197 249 294 352
#     4   8  15  28  53  86 121 157 198 242 294 352
#     4  11  23  42  64  92 121 158 203 254 304 365
#     4  10  22  44  64  89 122 159 200 253 307 359
#     4  12  24  43  64  86 119 160 202 249 308 366
#
# _framework density 22.106007000000002
#
# number of rings (size 3 to 8) (size 9 to 14) (size 15 to 20)
#    0.000    2.500    1.250    3.000    0.000    4.500 
#   11.250    0.625    0.000    3.000    0.000    0.000 
#    0.000    0.000    0.000    0.000    0.000    0.000 
#
# Total GULP energy -396534.799907 kJ/mol
# GULP energy per Si atom -12391.712497 kJ/mol
# Density = 2.205569 g / cm^3
# Si number density = 22.106007 Si / 1000 Ang^3
#
#
#
# Elastic Constant Matrix: (Units=GPa)
#
#
# Indices 1 2 3 4 5 6 
#
# 1 109.3091 53.5096 29.9263 0.0000 27.8738 0.0000
# 2 53.5096 90.0858 30.7647 0.0000 9.8264 0.0000
# 3 29.9263 30.7647 74.5588 0.0000 21.5169 0.0000
# 4 0.0000 0.0000 0.0000 26.4020 0.0000 1.8253
# 5 27.8738 9.8264 21.5169 0.0000 30.3821 0.0000
# 6 0.0000 0.0000 0.0000 1.8253 0.0000 35.1982
#
#
#
# Elastic Compliance Matrix: (Units=1/GPa)
#
#
# Indices 1 2 3 4 5 6 
#
# 1 0.016426 -0.008580 0.000623 0.000000 -0.012736 0.000000
# 2 -0.008580 0.017409 -0.005513 0.000000 0.006145 0.000000
# 3 0.000623 -0.005513 0.018963 0.000000 -0.012218 0.000000
# 4 0.000000 0.000000 0.000000 0.038012 0.000000 -0.001971
# 5 -0.012736 0.006145 -0.012218 0.000000 0.051264 0.000000
# 6 0.000000 0.000000 0.000000 -0.001971 0.000000 0.028513
#
#
# Mechanical properties :
#
#
# Convention : Reuss Voigt Hill
#
# Bulk Modulus (GPa) = 38.67395 55.81720 47.24557
# Shear Modulus (GPa) = 24.25459 29.04667 26.65063
#
# Velocity S-wave (km/s) = 3.31599 3.62881 3.47592
# Velocity P-wave (km/s) = 5.67396 6.54693 6.12601
#
# Compressibility (1/GPa) = 0.02585720
#
# Stress axis : x y z
#
# Youngs Moduli (GPa) = 60.88065 57.44033 52.73388
#
# Poissons Ratio (x) = 0.49284 -0.03284
# Poissons Ratio (y) = 0.52236 0.29073
# Poissons Ratio (z) = -0.03792 0.31668
#
# Static dielectric constant tensor:
#      x y z
#    x 3.953100 0.000000 0.454640 
#    y 0.000000 3.853680 0.000000 
#    z 0.454640 0.000000 5.062710 
# 
# 
# High freq. dielectric constant tensor:
#      x y z
#    x 1.855530 0.000000 0.023070 
#    y 0.000000 1.850550 0.000000 
#    z 0.023070 0.000000 1.887390 
# 
# From -- ./inp_files/310329.got.cif
#   From: 2010.06.25/outbox.cif.g09.slc.cpg/sg15_156_cif.got.tgz:310329.got - 2010.06.28 07:06:18.
