data_PCOD8147307
_publ_section_title
;
Structure prediction by ZEFSAII (Michael W. Deem and Ramdas Pophale) SiO2 
 PCOD8147307
Probable space group: C 2/C
;
_chemical_formula_sum "Si O2"
_cell_formula_units_Z 60
_cell_length_a 11.515679
_cell_length_b 26.555328
_cell_length_c 9.892044
_cell_angle_alpha 90.000000
_cell_angle_beta 90.532191
_cell_angle_gamma 90.000000
_cell_volume 3024.882609
_symmetry_space_group_name_H-M "C 2/C"
_symmetry_group_IT_number 15
_symmetry_cell_setting 'monoclinic'
loop_
_space_group_symop_operation_xyz
x,y,z
-x,y,1/2-z
-x,-y,-z
x,-y,1/2+z
1/2+x,1/2+y,z
1/2-x,1/2+y,1/2-z
1/2-x,1/2-y,-z
1/2+x,1/2-y,1/2+z
loop_
_atom_site_type_symbol
_atom_site_label
_atom_site_fract_x
_atom_site_fract_y
_atom_site_fract_z
Si Si1 0.000000 0.880713 0.250000
Si Si2 0.619030 0.147920 0.983962
Si Si3 0.255739 0.543492 0.379722
Si Si4 0.505865 0.559007 0.016625
Si Si5 0.246051 0.947951 0.925764
Si Si6 0.647375 0.140851 0.479672
Si Si7 0.770976 0.821965 0.240300
Si Si8 0.633668 0.785541 0.735974
O O1 0.965510 0.915997 0.125864
O O2 0.108487 0.846298 0.210476
O O3 0.659513 0.093511 0.035580
O O4 0.481263 0.147280 0.964402
O O5 0.657567 0.190918 0.089477
O O6 0.670521 0.160777 0.839511
O O7 0.384180 0.569322 0.385011
O O8 0.246980 0.492410 0.464927
O O9 0.226344 0.530940 0.223560
O O10 0.164696 0.582546 0.441910
O O11 0.500000 0.500000 0.000000
O O12 0.382458 0.577755 0.073993
O O13 0.739684 0.159727 0.590384
O O14 0.668038 0.172863 0.345478
O O15 0.782551 0.761845 0.242640
O O16 0.500000 0.768880 0.750000
#
# Coordination Sequence:
#
# PCOD8147307 Si02
#       8
#     4   8   8   8   8   8   8   8
#     4  12  22  38  64 100 118 168 210 268 308 380
#     4  11  24  42  65  92 131 168 208 257 314 380
#     4  11  24  40  65  94 128 168 210 260 312 372
#     4  10  23  36  62  90 130 162 210 256 322 359
#     4  11  24  40  65  94 128 168 210 260 312 372
#     4  11  24  42  65  92 131 168 208 257 314 380
#     4  12  23  42  66  95 124 163 218 261 315 369
#     4  10  22  43  67  91 124 170 209 259 320 366
#
# _framework density 19.835481000000001
#
# number of rings (size 3 to 8) (size 9 to 14) (size 15 to 20)
#    0.000    1.067    4.667    1.600    9.333    0.533 
#    0.000    0.000    2.933    0.000    0.000    0.000 
#    0.000    0.000    0.000    0.000    0.000    0.000 
#
# Total GULP energy -372101.814704 kJ/mol
# GULP energy per Si atom -12403.393823 kJ/mol
# Density = 1.979033 g / cm^3
# Si number density = 19.835481 Si / 1000 Ang^3
#
#
#
# Elastic Constant Matrix: (Units=GPa)
#
#
# Indices 1 2 3 4 5 6 
#
# 1 64.1553 25.3324 8.8583 0.0000 -1.0833 0.0000
# 2 25.3324 87.8141 19.4782 0.0000 -1.2979 0.0000
# 3 8.8583 19.4782 83.9299 0.0000 1.8352 0.0000
# 4 0.0000 0.0000 0.0000 27.2960 0.0000 -2.3951
# 5 -1.0833 -1.2979 1.8352 0.0000 27.3177 0.0000
# 6 0.0000 0.0000 0.0000 -2.3951 0.0000 27.4129
#
#
#
# Elastic Compliance Matrix: (Units=1/GPa)
#
#
# Indices 1 2 3 4 5 6 
#
# 1 0.017639 -0.004919 -0.000731 0.000000 0.000515 0.000000
# 2 -0.004919 0.013393 -0.002603 0.000000 0.000616 0.000000
# 3 -0.000731 -0.002603 0.012618 0.000000 -0.001000 0.000000
# 4 0.000000 0.000000 0.000000 0.036918 0.000000 0.003226
# 5 0.000515 0.000616 -0.001000 0.000000 0.036723 0.000000
# 6 0.000000 0.000000 0.000000 0.003226 0.000000 0.036761
#
#
# Mechanical properties :
#
#
# Convention : Reuss Voigt Hill
#
# Bulk Modulus (GPa) = 36.83980 38.13746 37.48863
# Shear Modulus (GPa) = 27.83874 28.55401 28.19638
#
# Velocity S-wave (km/s) = 3.75037 3.79825 3.77438
# Velocity P-wave (km/s) = 6.11283 6.20517 6.15918
#
# Compressibility (1/GPa) = 0.02714455
#
# Stress axis : x y z
#
# Youngs Moduli (GPa) = 56.69243 74.66594 79.25335
#
# Poissons Ratio (x) = 0.36725 0.05797
# Poissons Ratio (y) = 0.27885 0.20626
# Poissons Ratio (z) = 0.04147 0.19432
#
# Static dielectric constant tensor:
#      x y z
#    x 3.897650 0.000000 0.011350 
#    y 0.000000 3.349490 0.000000 
#    z 0.011350 0.000000 3.579820 
# 
# 
# High freq. dielectric constant tensor:
#      x y z
#    x 1.775410 0.000000 0.000660 
#    y 0.000000 1.770450 0.000000 
#    z 0.000660 0.000000 1.782000 
# 
# From -- ./inp_files/34294.got.cif
#   From: 2010.06.25/outbox.cif.g09.slc.cpg/sg15_18_cif.got.tgz:34294.got - 2010.06.28 07:06:18.
