data_PCOD8147826
_publ_section_title
;
Structure prediction by ZEFSAII (Michael W. Deem and Ramdas Pophale) SiO2 
 PCOD8147826
Probable space group: C 2/C
;
_chemical_formula_sum "Si O2"
_cell_formula_units_Z 48
_cell_length_a 16.515909
_cell_length_b 11.750789
_cell_length_c 11.409475
_cell_angle_alpha 90.000000
_cell_angle_beta 78.796943
_cell_angle_gamma 90.000000
_cell_volume 2172.099600
_symmetry_space_group_name_H-M "C 2/C"
_symmetry_group_IT_number 15
_symmetry_cell_setting 'monoclinic'
loop_
_space_group_symop_operation_xyz
x,y,z
-x,y,1/2-z
-x,-y,-z
x,-y,1/2+z
1/2+x,1/2+y,z
1/2-x,1/2+y,1/2-z
1/2-x,1/2-y,-z
1/2+x,1/2-y,1/2+z
loop_
_atom_site_type_symbol
_atom_site_label
_atom_site_fract_x
_atom_site_fract_y
_atom_site_fract_z
Si Si1 0.189215 0.847787 0.289437
Si Si2 0.943328 0.264898 0.067835
Si Si3 0.367176 0.911954 0.275316
Si Si4 0.409303 0.830958 0.821510
Si Si5 0.905937 0.928281 0.737367
Si Si6 0.127847 0.224209 0.045895
O O1 0.280057 0.893783 0.232351
O O2 0.162132 0.747706 0.211023
O O3 0.190412 0.799520 0.422217
O O4 0.125245 0.949739 0.291870
O O5 0.939209 0.360299 0.171970
O O6 0.893937 0.154241 0.128421
O O7 0.036206 0.224624 0.017249
O O8 0.903691 0.315495 0.962253
O O9 0.360448 0.848745 0.401755
O O10 0.387384 0.042059 0.291017
O O11 0.500000 0.797121 0.750000
O O12 0.857031 0.873530 0.860773
O O13 0.000000 0.938116 0.750000
#
# Coordination Sequence:
#
# PCOD8147826 Si02
#       6
#     8   8   8   8   8   8
#     4  12  26  41  69 102 138 173 231 279 341 405
#     4  10  23  46  70  94 135 176 231 276 336 404
#     4  11  27  43  66  99 141 178 216 288 352 387
#     4  12  26  44  73 102 132 182 238 274 329 414
#     4   9  22  41  68  96 130 175 221 281 340 392
#     4  10  22  45  69  94 132 179 227 275 334 406
#
# _framework density 22.098436
#
# number of rings (size 3 to 8) (size 9 to 14) (size 15 to 20)
#    0.000    1.333    1.667    3.500    9.333    4.667 
#    0.000    0.000    0.000    0.000    0.000    0.000 
#    0.000    0.000    0.000    0.000    0.000    0.000 
#
# Total GULP energy -297661.647907 kJ/mol
# GULP energy per Si atom -12402.568663 kJ/mol
# Density = 2.204814 g / cm^3
# Si number density = 22.098436 Si / 1000 Ang^3
#
#
#
# Elastic Constant Matrix: (Units=GPa)
#
#
# Indices 1 2 3 4 5 6 
#
# 1 41.7668 -1.0334 16.7792 0.0000 -0.3277 0.0000
# 2 -1.0334 123.0713 25.6785 0.0000 15.8045 0.0000
# 3 16.7792 25.6785 92.4821 0.0000 11.6561 0.0000
# 4 0.0000 0.0000 0.0000 22.3740 0.0000 10.4718
# 5 -0.3277 15.8045 11.6561 0.0000 28.2022 0.0000
# 6 0.0000 0.0000 0.0000 10.4718 0.0000 31.9619
#
#
#
# Elastic Compliance Matrix: (Units=1/GPa)
#
#
# Indices 1 2 3 4 5 6 
#
# 1 0.026102 0.001078 -0.005272 0.000000 0.001878 0.000000
# 2 0.001078 0.009133 -0.002203 0.000000 -0.004195 0.000000
# 3 -0.005272 -0.002203 0.012905 0.000000 -0.004161 0.000000
# 4 0.000000 0.000000 0.000000 0.052790 0.000000 -0.017296
# 5 0.001878 -0.004195 -0.004161 0.000000 0.039551 0.000000
# 6 0.000000 0.000000 0.000000 -0.017296 0.000000 0.036954
#
#
# Mechanical properties :
#
#
# Convention : Reuss Voigt Hill
#
# Bulk Modulus (GPa) = 28.29093 37.79652 33.04373
# Shear Modulus (GPa) = 24.75137 30.90069 27.82603
#
# Velocity S-wave (km/s) = 3.35035 3.74347 3.55235
# Velocity P-wave (km/s) = 5.27223 5.98545 5.64013
#
# Compressibility (1/GPa) = 0.03534702
#
# Stress axis : x y z
#
# Youngs Moduli (GPa) = 38.31169 109.49645 77.48731
#
# Poissons Ratio (x) = -0.11803 0.40849
# Poissons Ratio (y) = -0.04130 0.17068
# Poissons Ratio (z) = 0.20197 0.24118
#
# Static dielectric constant tensor:
#      x y z
#    x 3.986410 0.000000 -0.008000 
#    y 0.000000 3.995990 0.000000 
#    z -0.008000 0.000000 3.950070 
# 
# 
# High freq. dielectric constant tensor:
#      x y z
#    x 1.871360 0.000000 0.004080 
#    y 0.000000 1.873080 0.000000 
#    z 0.004080 0.000000 1.867340 
# 
# From -- ./inp_files/103667.got.cif
#   From: 2010.06.25/outbox.cif.g09.slc.cpg/sg15_52_cif.got.tgz:103667.got - 2010.06.28 07:06:18.
