data_PCOD8147638
_publ_section_title
;
Structure prediction by ZEFSAII (Michael W. Deem and Ramdas Pophale) SiO2 
 PCOD8147638
Probable space group: C 2/C
;
_chemical_formula_sum "Si O2"
_cell_formula_units_Z 52
_cell_length_a 11.539778
_cell_length_b 8.645364
_cell_length_c 28.211812
_cell_angle_alpha 90.000000
_cell_angle_beta 117.724153
_cell_angle_gamma 90.000000
_cell_volume 2491.448663
_symmetry_space_group_name_H-M "C 2/C"
_symmetry_group_IT_number 15
_symmetry_cell_setting 'monoclinic'
loop_
_space_group_symop_operation_xyz
x,y,z
-x,y,1/2-z
-x,-y,-z
x,-y,1/2+z
1/2+x,1/2+y,z
1/2-x,1/2+y,1/2-z
1/2-x,1/2-y,-z
1/2+x,1/2-y,1/2+z
loop_
_atom_site_type_symbol
_atom_site_label
_atom_site_fract_x
_atom_site_fract_y
_atom_site_fract_z
Si Si1 0.064901 0.885754 0.083661
Si Si2 0.769090 0.878889 0.042706
Si Si3 0.871095 0.724388 0.307543
Si Si4 0.280348 0.893681 0.293315
Si Si5 0.877713 0.687243 0.499124
Si Si6 0.362890 0.728719 0.400262
Si Si7 0.500000 0.630203 0.750000
O O1 0.113920 0.782906 0.136405
O O2 0.915506 0.942863 0.063375
O O3 0.145710 0.043829 0.095162
O O4 0.085360 0.784924 0.040566
O O5 0.754792 0.799391 0.091121
O O6 0.750000 0.750000 0.000000
O O7 0.655339 0.008623 0.018472
O O8 0.738092 0.799192 0.259536
O O9 0.873765 0.539247 0.307072
O O10 0.992442 0.766786 0.296538
O O11 0.339859 0.771114 0.341349
O O12 0.136316 0.963260 0.281396
O O13 0.750000 0.750000 0.500000
O O14 0.998998 0.698121 0.557742
#
# Coordination Sequence:
#
# PCOD8147638 Si02
#       7
#     8   8   8   8   8   8   4
#     4  12  25  45  68  98 139 178 225 281 334 402
#     4  12  25  42  69  96 137 181 222 278 337 393
#     4  10  22  44  69  94 131 172 219 274 337 392
#     4  10  22  44  68  95 130 171 220 274 333 401
#     4  12  25  46  65 101 140 179 229 272 333 405
#     4  12  24  44  69  98 138 178 227 277 338 398
#     4   8  22  44  68  90 136 158 224 274 334 390
#
# _framework density 20.871392
#
# number of rings (size 3 to 8) (size 9 to 14) (size 15 to 20)
#    0.923    0.000    3.077    4.615    2.154    0.000 
#    2.769    0.769    0.000    0.000    0.000    0.000 
#    0.000    0.000    0.000    0.000    0.000    0.000 
#
# Total GULP energy -322231.019588 kJ/mol
# GULP energy per Si atom -12393.500753 kJ/mol
# Density = 2.082389 g / cm^3
# Si number density = 20.871392 Si / 1000 Ang^3
#
#
#
# Elastic Constant Matrix: (Units=GPa)
#
#
# Indices 1 2 3 4 5 6 
#
# 1 82.5608 0.9693 13.9767 0.0000 -7.0610 0.0000
# 2 0.9693 94.3749 6.0243 0.0000 2.7130 0.0000
# 3 13.9767 6.0243 110.1887 0.0000 6.0970 0.0000
# 4 0.0000 0.0000 0.0000 35.7879 0.0000 0.2217
# 5 -7.0610 2.7130 6.0970 0.0000 20.0704 0.0000
# 6 0.0000 0.0000 0.0000 0.2217 0.0000 29.9228
#
#
#
# Elastic Compliance Matrix: (Units=1/GPa)
#
#
# Indices 1 2 3 4 5 6 
#
# 1 0.012876 -0.000158 -0.001909 0.000000 0.005131 0.000000
# 2 -0.000158 0.010668 -0.000489 0.000000 -0.001349 0.000000
# 3 -0.001909 -0.000489 0.009538 0.000000 -0.003503 0.000000
# 4 0.000000 0.000000 0.000000 0.027944 0.000000 -0.000207
# 5 0.005131 -0.001349 -0.003503 0.000000 0.052876 0.000000
# 6 0.000000 0.000000 0.000000 -0.000207 0.000000 0.033421
#
#
# Mechanical properties :
#
#
# Convention : Reuss Voigt Hill
#
# Bulk Modulus (GPa) = 35.75044 36.56277 36.15660
# Shear Modulus (GPa) = 30.91067 34.89982 32.90525
#
# Velocity S-wave (km/s) = 3.85256 4.09361 3.97491
# Velocity P-wave (km/s) = 6.07912 6.31662 6.19901
#
# Compressibility (1/GPa) = 0.02797168
#
# Stress axis : x y z
#
# Youngs Moduli (GPa) = 77.66343 93.74152 104.84429
#
# Poissons Ratio (x) = 0.01480 0.20010
# Poissons Ratio (y) = 0.01226 0.05122
# Poissons Ratio (z) = 0.14822 0.04580
#
# Static dielectric constant tensor:
#      x y z
#    x 3.997730 0.000000 -0.010250 
#    y 0.000000 3.749990 0.000000 
#    z -0.010250 0.000000 3.810570 
# 
# 
# High freq. dielectric constant tensor:
#      x y z
#    x 1.812650 0.000000 -0.003170 
#    y 0.000000 1.816340 0.000000 
#    z -0.003170 0.000000 1.826660 
# 
# From -- ./inp_files/291127.got.cif
#   From: 2010.06.25/outbox.cif.g09.slc.cpg/sg15_146_cif.got.tgz:291127.got - 2010.06.28 07:06:18.
