data_PCOD8147581
_publ_section_title
;
Structure prediction by ZEFSAII (Michael W. Deem and Ramdas Pophale) SiO2 
 PCOD8147581
Probable space group: C 2/C
;
_chemical_formula_sum "Si O2"
_cell_formula_units_Z 44
_cell_length_a 8.474913
_cell_length_b 23.163939
_cell_length_c 11.842678
_cell_angle_alpha 90.000000
_cell_angle_beta 57.375438
_cell_angle_gamma 90.000000
_cell_volume 1958.050242
_symmetry_space_group_name_H-M "C 2/C"
_symmetry_group_IT_number 15
_symmetry_cell_setting 'monoclinic'
loop_
_space_group_symop_operation_xyz
x,y,z
-x,y,1/2-z
-x,-y,-z
x,-y,1/2+z
1/2+x,1/2+y,z
1/2-x,1/2+y,1/2-z
1/2-x,1/2-y,-z
1/2+x,1/2-y,1/2+z
loop_
_atom_site_type_symbol
_atom_site_label
_atom_site_fract_x
_atom_site_fract_y
_atom_site_fract_z
Si Si1 0.101387 0.153422 0.592217
Si Si2 0.319042 0.472049 0.385347
Si Si3 0.564384 0.930133 0.039050
Si Si4 0.178412 0.233093 0.902816
Si Si5 0.012463 0.655526 0.375981
Si Si6 0.500000 0.841844 0.250000
O O1 0.108602 0.083511 0.570615
O O2 0.315771 0.174156 0.508783
O O3 0.000000 0.167925 0.750000
O O4 0.998122 0.188469 0.531170
O O5 0.500000 0.497117 0.250000
O O6 0.225670 0.521880 0.499386
O O7 0.148112 0.454717 0.366040
O O8 0.592715 0.879658 0.116981
O O9 0.591071 0.902591 0.904328
O O10 0.336075 0.199635 0.769501
O O11 0.147402 0.290734 0.843756
O O12 0.250000 0.250000 0.000000
O O13 0.000000 0.640561 0.250000
#
# Coordination Sequence:
#
# PCOD8147581 Si02
#       6
#     8   8   8   8   8   4
#     4  10  22  44  73  98 134 189 240 277 351 434
#     4   9  19  43  71  96 135 175 241 281 344 428
#     4  10  22  44  67 100 138 183 226 292 356 412
#     4  12  25  40  67 102 140 182 233 291 351 418
#     4  11  24  44  68  99 138 187 239 291 346 429
#     4  12  24  44  66  98 144 180 222 288 358 420
#
# _framework density 22.471333000000001
#
# number of rings (size 3 to 8) (size 9 to 14) (size 15 to 20)
#    0.000    1.455    1.818    4.364    2.545    0.000 
#   19.636    1.818    0.000    0.000    0.000    0.000 
#    0.000    0.000    0.000    0.000    0.000    0.000 
#
# Total GULP energy -272625.619980 kJ/mol
# GULP energy per Si atom -12392.073635 kJ/mol
# Density = 2.242019 g / cm^3
# Si number density = 22.471333 Si / 1000 Ang^3
#
#
#
# Elastic Constant Matrix: (Units=GPa)
#
#
# Indices 1 2 3 4 5 6 
#
# 1 76.1279 57.6063 32.2998 0.0000 -3.4991 0.0000
# 2 57.6063 129.7055 46.6902 0.0000 0.0765 0.0000
# 3 32.2998 46.6902 102.1558 0.0000 5.9592 0.0000
# 4 0.0000 0.0000 0.0000 27.9777 0.0000 -14.1880
# 5 -3.4991 0.0765 5.9592 0.0000 44.0193 0.0000
# 6 0.0000 0.0000 0.0000 -14.1880 0.0000 44.6889
#
#
#
# Elastic Compliance Matrix: (Units=1/GPa)
#
#
# Indices 1 2 3 4 5 6 
#
# 1 0.020599 -0.008094 -0.002933 0.000000 0.002049 0.000000
# 2 -0.008094 0.012422 -0.003104 0.000000 -0.000245 0.000000
# 3 -0.002933 -0.003104 0.012245 0.000000 -0.001885 0.000000
# 4 0.000000 0.000000 0.000000 0.042602 0.000000 0.013525
# 5 0.002049 -0.000245 -0.001885 0.000000 0.023136 0.000000
# 6 0.000000 0.000000 0.000000 0.013525 0.000000 0.026671
#
#
# Mechanical properties :
#
#
# Convention : Reuss Voigt Hill
#
# Bulk Modulus (GPa) = 58.81048 64.57576 61.69312
# Shear Modulus (GPa) = 29.13655 34.76336 31.94996
#
# Velocity S-wave (km/s) = 3.60475 3.93747 3.77478
# Velocity P-wave (km/s) = 6.59953 7.03356 6.82000
#
# Compressibility (1/GPa) = 0.01700377
#
# Stress axis : x y z
#
# Youngs Moduli (GPa) = 48.54523 80.50143 81.66542
#
# Poissons Ratio (x) = 0.65159 0.23954
# Poissons Ratio (y) = 0.39293 0.25349
# Poissons Ratio (z) = 0.14239 0.24988
#
# Static dielectric constant tensor:
#      x y z
#    x 4.174570 0.000000 -0.271480 
#    y 0.000000 4.303780 0.000000 
#    z -0.271480 0.000000 3.778740 
# 
# 
# High freq. dielectric constant tensor:
#      x y z
#    x 1.882850 0.000000 -0.020570 
#    y 0.000000 1.901970 0.000000 
#    z -0.020570 0.000000 1.858160 
# 
# From -- ./inp_files/79671.got.cif
#   From: 2010.06.25/outbox.cif.g09.slc.cpg/sg15_40_cif.got.tgz:79671.got - 2010.06.28 07:06:18.
