data_PCOD8147073
_publ_section_title
;
Structure prediction by ZEFSAII (Michael W. Deem and Ramdas Pophale) SiO2 
 PCOD8147073
Probable space group: C 2/C
;
_chemical_formula_sum "Si O2"
_cell_formula_units_Z 40
_cell_length_a 13.054133
_cell_length_b 29.711133
_cell_length_c 12.618379
_cell_angle_alpha 90.000000
_cell_angle_beta 22.582839
_cell_angle_gamma 90.000000
_cell_volume 1879.417594
_symmetry_space_group_name_H-M "C 2/C"
_symmetry_group_IT_number 15
_symmetry_cell_setting 'monoclinic'
loop_
_space_group_symop_operation_xyz
x,y,z
-x,y,1/2-z
-x,-y,-z
x,-y,1/2+z
1/2+x,1/2+y,z
1/2-x,1/2+y,1/2-z
1/2-x,1/2-y,-z
1/2+x,1/2-y,1/2+z
loop_
_atom_site_type_symbol
_atom_site_label
_atom_site_fract_x
_atom_site_fract_y
_atom_site_fract_z
Si Si1 0.126914 0.386160 0.242440
Si Si2 0.761687 0.924948 0.553986
Si Si3 0.986040 0.777644 0.139615
Si Si4 0.151923 0.861616 0.840006
Si Si5 0.227450 0.510923 0.701699
O O1 0.178206 0.438792 0.209778
O O2 0.000000 0.376795 0.250000
O O3 0.936618 0.361303 0.509389
O O4 0.419171 0.364300 0.974348
O O5 0.500000 0.902770 0.750000
O O6 0.836608 0.905381 0.596786
O O7 0.712783 0.978348 0.613627
O O8 0.000000 0.913599 0.250000
O O9 0.000000 0.790293 0.250000
O O10 0.678482 0.763314 0.417773
O O11 0.087878 0.819278 0.974274
O O12 0.500000 0.500000 0.500000
O O13 0.000000 0.500000 0.000000
#
# Coordination Sequence:
#
# PCOD8147073 Si02
#       5
#     8   8   8   8   8
#     4  12  25  43  66  91 129 182 228 272 318 371
#     4  12  24  38  62  93 127 167 209 265 329 381
#     4  10  22  42  70 103 134 165 200 253 338 418
#     4  12  24  43  67  96 133 165 219 272 320 394
#     4  12  22  42  61  86 129 173 220 271 320 371
#
# _framework density 21.283189
#
# number of rings (size 3 to 8) (size 9 to 14) (size 15 to 20)
#    0.000    0.400    4.000    5.400    0.000    4.000 
#    0.000    0.000    0.000   12.000    0.000    0.000 
#    0.000    0.000    0.000    0.000    0.000    0.000 
#
# Total GULP energy -247904.494571 kJ/mol
# GULP energy per Si atom -12395.224729 kJ/mol
# Density = 2.123475 g / cm^3
# Si number density = 21.283189 Si / 1000 Ang^3
#
#
#
# Elastic Constant Matrix: (Units=GPa)
#
#
# Indices 1 2 3 4 5 6 
#
# 1 95.0919 21.9481 37.5081 0.0005 -11.7037 0.0008
# 2 21.9481 86.2355 14.4345 -0.0018 5.6865 0.0020
# 3 37.5081 14.4345 132.1232 -0.0012 -11.3469 -0.0090
# 4 0.0005 -0.0018 -0.0012 36.2230 0.0000 11.3728
# 5 -11.7037 5.6865 -11.3469 0.0000 40.4432 0.0018
# 6 0.0008 0.0020 -0.0090 11.3728 0.0018 28.0529
#
#
#
# Elastic Compliance Matrix: (Units=1/GPa)
#
#
# Indices 1 2 3 4 5 6 
#
# 1 0.012798 -0.002966 -0.003028 0.000000 0.003271 -0.000001
# 2 -0.002966 0.012672 -0.000788 0.000001 -0.002861 -0.000001
# 3 -0.003028 -0.000788 0.008657 -0.000001 0.001663 0.000003
# 4 0.000000 0.000001 -0.000001 0.031633 0.000000 -0.012824
# 5 0.003271 -0.002861 0.001663 0.000000 0.026542 -0.000001
# 6 -0.000001 -0.000001 0.000003 -0.012824 -0.000001 0.040846
#
#
# Mechanical properties :
#
#
# Convention : Reuss Voigt Hill
#
# Bulk Modulus (GPa) = 48.63308 51.24800 49.94054
# Shear Modulus (GPa) = 32.55934 36.91450 34.73692
#
# Velocity S-wave (km/s) = 3.91553 4.16918 4.04434
# Velocity P-wave (km/s) = 6.58346 6.87804 6.73236
#
# Compressibility (1/GPa) = 0.02056214
#
# Stress axis : x y z
#
# Youngs Moduli (GPa) = 78.13891 78.91655 115.50946
#
# Poissons Ratio (x) = 0.23407 0.34978
# Poissons Ratio (y) = 0.23176 0.09103
# Poissons Ratio (z) = 0.23662 0.06219
#
# Static dielectric constant tensor:
#      x y z
#    x 3.833780 -0.000010 -0.166480 
#    y -0.000010 3.653740 0.000010 
#    z -0.166480 0.000010 4.178720 
# 
# 
# High freq. dielectric constant tensor:
#      x y z
#    x 1.832170 0.000000 -0.008310 
#    y 0.000000 1.818040 0.000000 
#    z -0.008310 0.000000 1.861110 
# 
# From -- ./inp_files/157146.got.cif
#   From: 2010.06.25/outbox.cif.g09.slc.cpg/sg15_79_cif.got.tgz:157146.got - 2010.06.28 07:06:18.
