data_PCOD8147036
_publ_section_title
;
Structure prediction by ZEFSAII (Michael W. Deem and Ramdas Pophale) SiO2 
 PCOD8147036
Probable space group: C 2/C
;
_chemical_formula_sum "Si O2"
_cell_formula_units_Z 40
_cell_length_a 22.890776
_cell_length_b 15.751329
_cell_length_c 14.002364
_cell_angle_alpha 90.000000
_cell_angle_beta 19.863517
_cell_angle_gamma 90.000000
_cell_volume 1715.449184
_symmetry_space_group_name_H-M "C 2/C"
_symmetry_group_IT_number 15
_symmetry_cell_setting 'monoclinic'
loop_
_space_group_symop_operation_xyz
x,y,z
-x,y,1/2-z
-x,-y,-z
x,-y,1/2+z
1/2+x,1/2+y,z
1/2-x,1/2+y,1/2-z
1/2-x,1/2-y,-z
1/2+x,1/2-y,1/2+z
loop_
_atom_site_type_symbol
_atom_site_label
_atom_site_fract_x
_atom_site_fract_y
_atom_site_fract_z
Si Si1 0.623692 0.572709 0.180011
Si Si2 0.027309 0.410843 0.312529
Si Si3 0.263887 0.540224 0.705288
Si Si4 0.861001 0.284582 0.042048
Si Si5 0.981236 0.246206 0.065125
O O1 0.447506 0.520812 0.476868
O O2 0.598267 0.669870 0.252466
O O3 0.795255 0.532310 0.966874
O O4 0.668939 0.572291 0.999002
O O5 0.000000 0.372821 0.250000
O O6 0.860450 0.459314 0.608956
O O7 0.085180 0.336541 0.294480
O O8 0.154725 0.614073 0.922982
O O9 0.000000 0.261737 0.750000
O O10 0.922504 0.238646 0.045222
O O11 0.684832 0.247362 0.271191
#
# Coordination Sequence:
#
# PCOD8147036 Si02
#       5
#     8   8   8   8   8
#     4  10  22  42  69  91 135 177 221 277 336 396
#     4  12  24  39  67 103 134 174 229 282 331 405
#     4  10  23  42  65  96 133 178 216 276 349 394
#     4  11  23  43  65  94 137 178 222 280 345 400
#     4  11  24  41  71 100 131 178 236 275 333 406
#
# _framework density 23.317506999999999
#
# number of rings (size 3 to 8) (size 9 to 14) (size 15 to 20)
#    0.000    1.200    2.000    3.600    5.600    0.800 
#    3.600    2.000    0.000    0.000    0.000    0.000 
#    0.000    0.000    0.000    0.000    0.000    0.000 
#
# Total GULP energy -247793.458486 kJ/mol
# GULP energy per Si atom -12389.672924 kJ/mol
# Density = 2.326443 g / cm^3
# Si number density = 23.317507 Si / 1000 Ang^3
#
#
#
# Elastic Constant Matrix: (Units=GPa)
#
#
# Indices 1 2 3 4 5 6 
#
# 1 108.0384 8.3046 64.0490 -0.0013 -13.4749 0.0010
# 2 8.3046 61.2452 49.0467 -0.0076 -0.6455 0.0061
# 3 64.0490 49.0467 195.9860 -0.0069 -26.3615 0.0084
# 4 -0.0013 -0.0076 -0.0069 19.7709 0.0035 -19.0086
# 5 -13.4749 -0.6455 -26.3615 0.0035 51.8133 -0.0032
# 6 0.0010 0.0061 0.0084 -19.0086 -0.0032 30.9636
#
#
#
# Elastic Compliance Matrix: (Units=1/GPa)
#
#
# Indices 1 2 3 4 5 6 
#
# 1 0.011687 0.001726 -0.004122 0.000001 0.000964 0.000001
# 2 0.001726 0.020986 -0.006141 0.000009 -0.002414 0.000003
# 3 -0.004122 -0.006141 0.008407 -0.000002 0.003129 -0.000002
# 4 0.000001 0.000009 -0.000002 0.123433 -0.000004 0.075776
# 5 0.000964 -0.002414 0.003129 -0.000004 0.021113 -0.000001
# 6 0.000001 0.000003 -0.000002 0.075776 -0.000001 0.078815
#
#
# Mechanical properties :
#
#
# Convention : Reuss Voigt Hill
#
# Bulk Modulus (GPa) = 41.65357 67.56335 54.60846
# Shear Modulus (GPa) = 17.27026 36.76751 27.01889
#
# Velocity S-wave (km/s) = 2.72445 3.97523 3.40772
# Velocity P-wave (km/s) = 5.27250 7.07871 6.24129
#
# Compressibility (1/GPa) = 0.02400755
#
# Stress axis : x y z
#
# Youngs Moduli (GPa) = 85.56528 47.65108 118.94870
#
# Poissons Ratio (x) = -0.08226 0.49027
# Poissons Ratio (y) = -0.14770 0.73042
# Poissons Ratio (z) = 0.35267 0.29261
#
# Static dielectric constant tensor:
#      x y z
#    x 4.539690 -0.000010 -0.667840 
#    y -0.000010 3.650660 0.000010 
#    z -0.667840 0.000010 4.857450 
# 
# 
# High freq. dielectric constant tensor:
#      x y z
#    x 1.935160 0.000000 -0.022240 
#    y 0.000000 1.882870 0.000000 
#    z -0.022240 0.000000 1.958750 
# 
# From -- ./inp_files/174048.got.cif
#   From: 2010.06.25/outbox.cif.g09.slc.cpg/sg15_88_cif.got.tgz:174048.got - 2010.06.28 07:06:18.
