data_PCOD8147586
_publ_section_title
;
Structure prediction by ZEFSAII (Michael W. Deem and Ramdas Pophale) SiO2 
 PCOD8147586
Probable space group: C 2/C
;
_chemical_formula_sum "Si O2"
_cell_formula_units_Z 48
_cell_length_a 12.115345
_cell_length_b 23.188638
_cell_length_c 8.225329
_cell_angle_alpha 90.000000
_cell_angle_beta 110.448905
_cell_angle_gamma 90.000000
_cell_volume 2165.192613
_symmetry_space_group_name_H-M "C 2/C"
_symmetry_group_IT_number 15
_symmetry_cell_setting 'monoclinic'
loop_
_space_group_symop_operation_xyz
x,y,z
-x,y,1/2-z
-x,-y,-z
x,-y,1/2+z
1/2+x,1/2+y,z
1/2-x,1/2+y,1/2-z
1/2-x,1/2-y,-z
1/2+x,1/2-y,1/2+z
loop_
_atom_site_type_symbol
_atom_site_label
_atom_site_fract_x
_atom_site_fract_y
_atom_site_fract_z
Si Si1 0.589477 0.807291 0.148162
Si Si2 0.435590 0.929343 0.482038
Si Si3 0.164028 0.473146 0.733694
Si Si4 0.540851 0.693235 0.956142
Si Si5 0.373878 0.602339 0.269735
Si Si6 0.793153 0.187748 0.974445
O O1 0.500000 0.793648 0.250000
O O2 0.547570 0.860803 0.019697
O O3 0.715684 0.829429 0.279316
O O4 0.608616 0.752466 0.038190
O O5 0.570892 0.950928 0.549718
O O6 0.367209 0.946205 0.610350
O O7 0.358721 0.957301 0.292498
O O8 0.299827 0.456506 0.761580
O O9 0.500000 0.689761 0.750000
O O10 0.428538 0.694267 0.010161
O O11 0.612132 0.636335 0.050568
O O12 0.500000 0.587200 0.250000
O O13 0.286592 0.641315 0.115169
O O14 0.750000 0.250000 0.000000
#
# Coordination Sequence:
#
# PCOD8147586 Si02
#       6
#     8   8   8   8   8   8
#     4  12  23  38  64  92 127 168 208 255 322 382
#     4  10  25  39  66  97 123 165 212 267 325 372
#     4  10  23  45  63  92 130 162 215 268 318 375
#     4  11  25  39  60  98 133 165 211 258 317 382
#     4  10  22  44  67  90 129 175 213 261 318 385
#     4  11  21  39  62  89 125 168 210 250 313 387
#
# _framework density 22.16893
#
# number of rings (size 3 to 8) (size 9 to 14) (size 15 to 20)
#    0.000    1.333    3.333    1.500   11.667    0.667 
#    0.000    0.833    0.000    0.000    0.000    0.000 
#    0.000    0.000    0.000    0.000    0.000    0.000 
#
# Total GULP energy -297355.193436 kJ/mol
# GULP energy per Si atom -12389.799726 kJ/mol
# Density = 2.211847 g / cm^3
# Si number density = 22.168930 Si / 1000 Ang^3
#
#
#
# Elastic Constant Matrix: (Units=GPa)
#
#
# Indices 1 2 3 4 5 6 
#
# 1 78.7167 26.1875 16.6910 0.0000 12.3754 0.0000
# 2 26.1875 74.5067 19.6425 0.0000 3.3665 0.0000
# 3 16.6910 19.6425 118.3421 0.0000 4.4228 0.0000
# 4 0.0000 0.0000 0.0000 27.5555 0.0000 6.4305
# 5 12.3754 3.3665 4.4228 0.0000 34.7665 0.0000
# 6 0.0000 0.0000 0.0000 6.4305 0.0000 30.5368
#
#
#
# Elastic Compliance Matrix: (Units=1/GPa)
#
#
# Indices 1 2 3 4 5 6 
#
# 1 0.015330 -0.004860 -0.001175 0.000000 -0.004837 0.000000
# 2 -0.004860 0.015616 -0.001924 0.000000 0.000463 0.000000
# 3 -0.001175 -0.001924 0.008955 0.000000 -0.000535 0.000000
# 4 0.000000 0.000000 0.000000 0.038166 0.000000 -0.008037
# 5 -0.004837 0.000463 -0.000535 0.000000 0.030508 0.000000
# 6 0.000000 0.000000 0.000000 -0.008037 0.000000 0.034440
#
#
# Mechanical properties :
#
#
# Convention : Reuss Voigt Hill
#
# Bulk Modulus (GPa) = 41.69405 44.06749 42.88077
# Shear Modulus (GPa) = 29.95322 32.50806 31.23064
#
# Velocity S-wave (km/s) = 3.67977 3.83349 3.75741
# Velocity P-wave (km/s) = 6.07474 6.28612 6.18134
#
# Compressibility (1/GPa) = 0.02398424
#
# Stress axis : x y z
#
# Youngs Moduli (GPa) = 65.23115 64.03664 111.66866
#
# Poissons Ratio (x) = 0.31122 0.13118
# Poissons Ratio (y) = 0.31702 0.21483
# Poissons Ratio (z) = 0.07663 0.12319
#
# Static dielectric constant tensor:
#      x y z
#    x 4.115600 0.000000 0.583880 
#    y 0.000000 3.898230 0.000000 
#    z 0.583880 0.000000 5.112020 
# 
# 
# High freq. dielectric constant tensor:
#      x y z
#    x 1.860760 0.000000 0.011630 
#    y 0.000000 1.867160 0.000000 
#    z 0.011630 0.000000 1.875590 
# 
# From -- ./inp_files/32640.got.cif
#   From: 2010.06.25/outbox.cif.g09.slc.cpg/sg15_17_cif.got.tgz:32640.got - 2010.06.28 07:06:18.
