data_PCOD8147250
_publ_section_title
;
Structure prediction by ZEFSAII (Michael W. Deem and Ramdas Pophale) SiO2 
 PCOD8147250
Probable space group: C 2/C
;
_chemical_formula_sum "Si O2"
_cell_formula_units_Z 52
_cell_length_a 16.435020
_cell_length_b 27.027481
_cell_length_c 9.860458
_cell_angle_alpha 90.000000
_cell_angle_beta 33.943684
_cell_angle_gamma 90.000000
_cell_volume 2445.687801
_symmetry_space_group_name_H-M "C 2/C"
_symmetry_group_IT_number 15
_symmetry_cell_setting 'monoclinic'
loop_
_space_group_symop_operation_xyz
x,y,z
-x,y,1/2-z
-x,-y,-z
x,-y,1/2+z
1/2+x,1/2+y,z
1/2-x,1/2+y,1/2-z
1/2-x,1/2-y,-z
1/2+x,1/2-y,1/2+z
loop_
_atom_site_type_symbol
_atom_site_label
_atom_site_fract_x
_atom_site_fract_y
_atom_site_fract_z
Si Si1 0.665718 0.696693 0.973856
Si Si2 0.278329 0.806750 0.613113
Si Si3 0.500000 0.122192 0.750000
Si Si4 0.187107 0.897236 0.270651
Si Si5 0.592006 0.614779 0.491974
Si Si6 0.144616 0.553357 0.743666
Si Si7 0.333427 0.940652 0.809341
O O1 0.694283 0.751307 0.873374
O O2 0.707267 0.659120 0.795325
O O3 0.500000 0.690009 0.250000
O O4 0.768752 0.689865 0.962276
O O5 0.414828 0.841181 0.470925
O O6 0.137847 0.830930 0.876525
O O7 0.627922 0.088389 0.636665
O O8 0.218055 0.932537 0.354790
O O9 0.020006 0.909212 0.461251
O O10 0.298796 0.908868 0.992239
O O11 0.500000 0.627516 0.750000
O O12 0.724152 0.576715 0.340177
O O13 0.180468 0.498851 0.640032
O O14 0.999028 0.564179 0.031987
#
# Coordination Sequence:
#
# PCOD8147250 Si02
#       7
#     8   8   4   8   8   8   8
#     4  11  22  39  65  95 125 169 219 276 327 390
#     4  11  22  40  65  94 131 168 222 273 330 388
#     4  12  22  38  66 100 126 168 226 272 320 384
#     4  11  23  42  64  96 132 171 219 269 329 397
#     4  10  22  43  65  93 135 174 214 273 333 395
#     4  11  24  40  66  95 130 175 221 270 323 387
#     4  10  24  42  64  93 131 175 220 269 328 390
#
# _framework density 21.261911000000001
#
# number of rings (size 3 to 8) (size 9 to 14) (size 15 to 20)
#    0.000    1.231    5.385    0.462    4.308    0.615 
#    0.000   10.000    0.000    0.000    0.000    0.000 
#    0.000    0.000    0.000    0.000    0.000    0.000 
#
# Total GULP energy -322229.778735 kJ/mol
# GULP energy per Si atom -12393.453028 kJ/mol
# Density = 2.121352 g / cm^3
# Si number density = 21.261911 Si / 1000 Ang^3
#
#
#
# Elastic Constant Matrix: (Units=GPa)
#
#
# Indices 1 2 3 4 5 6 
#
# 1 108.8281 53.2144 23.9375 0.0000 -12.5033 0.0000
# 2 53.2144 169.2192 59.4204 0.0000 2.5389 0.0000
# 3 23.9375 59.4204 81.6609 -0.0001 0.0793 0.0001
# 4 0.0000 0.0000 -0.0001 37.3053 0.0001 3.7162
# 5 -12.5033 2.5389 0.0793 0.0001 20.6829 0.0000
# 6 0.0000 0.0000 0.0001 3.7162 0.0000 32.0805
#
#
#
# Elastic Compliance Matrix: (Units=1/GPa)
#
#
# Indices 1 2 3 4 5 6 
#
# 1 0.012026 -0.003569 -0.000936 0.000000 0.007711 0.000000
# 2 -0.003569 0.009016 -0.005511 0.000000 -0.003243 0.000000
# 3 -0.000936 -0.005511 0.016530 0.000000 0.000047 0.000000
# 4 0.000000 0.000000 0.000000 0.027119 0.000000 -0.003141
# 5 0.007711 -0.003243 0.000047 0.000000 0.053409 0.000000
# 6 0.000000 0.000000 0.000000 -0.003141 0.000000 0.031535
#
#
# Mechanical properties :
#
#
# Convention : Reuss Voigt Hill
#
# Bulk Modulus (GPa) = 57.01148 70.31695 63.66421
# Shear Modulus (GPa) = 28.48810 32.88947 30.68879
#
# Velocity S-wave (km/s) = 3.66439 3.93730 3.80329
# Velocity P-wave (km/s) = 6.69147 7.33576 7.02101
#
# Compressibility (1/GPa) = 0.01754033
#
# Stress axis : x y z
#
# Youngs Moduli (GPa) = 83.15543 110.91948 60.49613
#
# Poissons Ratio (x) = 0.39585 0.05661
# Poissons Ratio (y) = 0.29677 0.33339
# Poissons Ratio (z) = 0.07781 0.61126
#
# Static dielectric constant tensor:
#      x y z
#    x 4.140020 0.000000 -0.252450 
#    y 0.000000 3.944690 0.000000 
#    z -0.252450 0.000000 3.769550 
# 
# 
# High freq. dielectric constant tensor:
#      x y z
#    x 1.833860 0.000000 -0.017310 
#    y 0.000000 1.836910 0.000000 
#    z -0.017310 0.000000 1.826390 
# 
# From -- ./inp_files/108325.got.cif
#   From: 2010.06.25/outbox.cif.g09.slc.cpg/sg15_55_cif.got.tgz:108325.got - 2010.06.28 07:06:18.
