data_PCOD8147536
_publ_section_title
;
Structure prediction by ZEFSAII (Michael W. Deem and Ramdas Pophale) SiO2 
 PCOD8147536
Probable space group: C 2/C
;
_chemical_formula_sum "Si O2"
_cell_formula_units_Z 44
_cell_length_a 23.341174
_cell_length_b 9.284971
_cell_length_c 22.774271
_cell_angle_alpha 90.000000
_cell_angle_beta 22.918792
_cell_angle_gamma 90.000000
_cell_volume 1922.085686
_symmetry_space_group_name_H-M "C 2/C"
_symmetry_group_IT_number 15
_symmetry_cell_setting 'monoclinic'
loop_
_space_group_symop_operation_xyz
x,y,z
-x,y,1/2-z
-x,-y,-z
x,-y,1/2+z
1/2+x,1/2+y,z
1/2-x,1/2+y,1/2-z
1/2-x,1/2-y,-z
1/2+x,1/2-y,1/2+z
loop_
_atom_site_type_symbol
_atom_site_label
_atom_site_fract_x
_atom_site_fract_y
_atom_site_fract_z
Si Si1 0.095078 0.282681 0.909133
Si Si2 0.567461 0.674388 0.063776
Si Si3 0.707408 0.432907 0.000415
Si Si4 0.500000 0.786925 0.750000
Si Si5 0.300509 0.078436 0.645765
Si Si6 0.729627 0.422933 0.602287
O O1 0.168539 0.171301 0.795773
O O2 0.198035 0.420183 0.825723
O O3 0.057998 0.196233 0.003232
O O4 0.950068 0.336801 0.014054
O O5 0.664132 0.531587 0.985973
O O6 0.404308 0.662777 0.242368
O O7 0.635692 0.813102 0.031192
O O8 0.589314 0.302964 0.116378
O O9 0.685030 0.522364 0.081006
O O10 0.876801 0.382789 0.832676
O O11 0.274775 0.058855 0.600333
#
# Coordination Sequence:
#
# PCOD8147536 Si02
#       6
#     8   8   8   4   8   8
#     4  10  22  44  65  96 132 176 228 281 340 401
#     4  11  23  42  69  95 131 174 231 282 333 408
#     4  11  23  45  65 100 136 176 222 276 339 417
#     4  10  24  44  64  94 146 172 224 268 344 416
#     4  10  23  43  65  98 135 173 229 282 341 407
#     4  11  24  41  68  98 131 176 225 285 343 404
#
# _framework density 22.8918
#
# number of rings (size 3 to 8) (size 9 to 14) (size 15 to 20)
#    0.000    1.455    1.818    2.727    2.545    4.364 
#    6.545    0.000    0.000    0.000    0.000    0.000 
#    0.000    0.000    0.000    0.000    0.000    0.000 
#
# Total GULP energy -272875.926901 kJ/mol
# GULP energy per Si atom -12403.451223 kJ/mol
# Density = 2.283970 g / cm^3
# Si number density = 22.891800 Si / 1000 Ang^3
#
#
#
# Elastic Constant Matrix: (Units=GPa)
#
#
# Indices 1 2 3 4 5 6 
#
# 1 62.3368 47.8872 38.5598 0.0004 -15.7312 -0.0002
# 2 47.8872 109.7057 66.4921 -0.0002 3.4571 0.0004
# 3 38.5598 66.4921 126.2110 0.0007 -18.4073 -0.0004
# 4 0.0004 -0.0002 0.0007 43.8549 0.0001 -9.6922
# 5 -15.7312 3.4571 -18.4073 0.0001 22.8668 0.0001
# 6 -0.0002 0.0004 -0.0004 -9.6922 0.0001 51.1374
#
#
#
# Elastic Compliance Matrix: (Units=1/GPa)
#
#
# Indices 1 2 3 4 5 6 
#
# 1 0.035919 -0.018563 0.003194 -0.000001 0.030088 0.000000
# 2 -0.018563 0.024721 -0.011059 0.000001 -0.025410 0.000000
# 3 0.003194 -0.011059 0.015112 0.000000 0.016034 0.000000
# 4 -0.000001 0.000001 0.000000 0.023799 -0.000001 0.004511
# 5 0.030088 -0.025410 0.016034 -0.000001 0.081179 0.000000
# 6 0.000000 0.000000 0.000000 0.004511 0.000000 0.020410
#
#
# Mechanical properties :
#
#
# Convention : Reuss Voigt Hill
#
# Bulk Modulus (GPa) = 43.67355 67.12575 55.39965
# Shear Modulus (GPa) = 19.11100 33.25943 26.18521
#
# Velocity S-wave (km/s) = 2.89250 3.81582 3.38578
# Velocity P-wave (km/s) = 5.50228 6.98575 6.28792
#
# Compressibility (1/GPa) = 0.02289716
#
# Stress axis : x y z
#
# Youngs Moduli (GPa) = 27.84022 40.45077 66.17227
#
# Poissons Ratio (x) = 0.75088 -0.21133
# Poissons Ratio (y) = 0.51679 0.73178
# Poissons Ratio (z) = -0.08891 0.44733
#
# Static dielectric constant tensor:
#      x y z
#    x 4.085600 0.000000 -0.278760 
#    y 0.000000 4.346900 0.000000 
#    z -0.278760 0.000000 4.070370 
# 
# 
# High freq. dielectric constant tensor:
#      x y z
#    x 1.899190 0.000000 -0.020200 
#    y 0.000000 1.914520 0.000000 
#    z -0.020200 0.000000 1.907710 
# 
# From -- ./inp_files/303157.got.cif
#   From: 2010.06.25/outbox.cif.g09.slc.cpg/sg15_152_cif.got.tgz:303157.got - 2010.06.28 07:06:18.
