data_PCOD8147226
_publ_section_title
;
Structure prediction by ZEFSAII (Michael W. Deem and Ramdas Pophale) SiO2 
 PCOD8147226
Probable space group: C 2/C
;
_chemical_formula_sum "Si O2"
_cell_formula_units_Z 56
_cell_length_a 24.384356
_cell_length_b 9.674664
_cell_length_c 17.406043
_cell_angle_alpha 90.000000
_cell_angle_beta 41.384960
_cell_angle_gamma 90.000000
_cell_volume 2714.714764
_symmetry_space_group_name_H-M "C 2/C"
_symmetry_group_IT_number 15
_symmetry_cell_setting 'monoclinic'
loop_
_space_group_symop_operation_xyz
x,y,z
-x,y,1/2-z
-x,-y,-z
x,-y,1/2+z
1/2+x,1/2+y,z
1/2-x,1/2+y,1/2-z
1/2-x,1/2-y,-z
1/2+x,1/2-y,1/2+z
loop_
_atom_site_type_symbol
_atom_site_label
_atom_site_fract_x
_atom_site_fract_y
_atom_site_fract_z
Si Si1 0.082614 0.515492 0.204118
Si Si2 0.833256 0.951560 0.565151
Si Si3 0.682531 0.542412 0.235007
Si Si4 0.720008 0.815604 0.109769
Si Si5 0.827965 0.649200 0.528107
Si Si6 0.491882 0.114306 0.443253
Si Si7 0.986724 0.920425 0.089375
O O1 0.134426 0.387153 0.178963
O O2 0.135015 0.620162 0.095471
O O3 0.000000 0.456886 0.250000
O O4 0.055465 0.597329 0.307174
O O5 0.817035 0.966255 0.673169
O O6 0.796895 0.807637 0.569606
O O7 0.932568 0.945552 0.441019
O O8 0.789423 0.078980 0.568770
O O9 0.698511 0.701398 0.196194
O O10 0.598434 0.479488 0.284837
O O11 0.753146 0.452458 0.122047
O O12 0.750000 0.750000 0.000000
O O13 0.896400 0.612242 0.519475
O O14 0.518127 0.266542 0.441005
O O15 0.500000 0.000000 0.500000
O O16 0.000000 0.000000 0.000000
#
# Coordination Sequence:
#
# PCOD8147226 Si02
#       7
#     8   8   8   8   8   8   8
#     4  10  24  44  63  95 134 170 223 275 338 404
#     4  10  24  42  68  96 135 176 228 276 338 404
#     4  11  23  42  67  98 135 173 231 277 335 399
#     4  12  26  43  66 101 134 177 227 277 342 401
#     4  10  22  43  64  94 134 175 219 280 337 400
#     4  10  23  39  70  98 126 174 224 273 337 405
#     4   9  22  42  61 100 132 170 217 279 336 394
#
# _framework density 20.628318
#
# number of rings (size 3 to 8) (size 9 to 14) (size 15 to 20)
#    0.000    1.714    1.429    0.857   10.000    5.143 
#    0.000    1.429    0.000    0.000    0.000    0.000 
#    0.000    0.000    0.000    0.000    0.000    0.000 
#
# Total GULP energy -347024.330568 kJ/mol
# GULP energy per Si atom -12393.726092 kJ/mol
# Density = 2.058137 g / cm^3
# Si number density = 20.628318 Si / 1000 Ang^3
#
#
#
# Elastic Constant Matrix: (Units=GPa)
#
#
# Indices 1 2 3 4 5 6 
#
# 1 98.3255 79.9085 54.2416 -0.0006 -1.3153 0.0003
# 2 79.9085 176.7300 61.2872 -0.0011 -10.4293 0.0006
# 3 54.2416 61.2872 115.0272 -0.0004 -8.9049 0.0004
# 4 -0.0006 -0.0011 -0.0004 35.1699 0.0004 -1.6983
# 5 -1.3153 -10.4293 -8.9049 0.0004 34.1768 -0.0002
# 6 0.0003 0.0006 0.0004 -1.6983 -0.0002 44.1853
#
#
#
# Elastic Compliance Matrix: (Units=1/GPa)
#
#
# Indices 1 2 3 4 5 6 
#
# 1 0.018529 -0.006668 -0.005396 0.000000 -0.002728 0.000000
# 2 -0.006668 0.009387 -0.001689 0.000000 0.002168 0.000000
# 3 -0.005396 -0.001689 0.012331 0.000000 0.002490 0.000000
# 4 0.000000 0.000000 0.000000 0.028486 0.000000 0.001095
# 5 -0.002728 0.002168 0.002490 0.000000 0.030465 0.000000
# 6 0.000000 0.000000 0.000000 0.001095 0.000000 0.022674
#
#
# Mechanical properties :
#
#
# Convention : Reuss Voigt Hill
#
# Bulk Modulus (GPa) = 78.48807 86.77303 82.63055
# Shear Modulus (GPa) = 32.54650 35.68275 34.11462
#
# Velocity S-wave (km/s) = 3.97641 4.16359 4.07108
# Velocity P-wave (km/s) = 7.69505 8.07900 7.88936
#
# Compressibility (1/GPa) = 0.01274079
#
# Stress axis : x y z
#
# Youngs Moduli (GPa) = 53.96802 106.53074 81.09594
#
# Poissons Ratio (x) = 0.71032 0.43761
# Poissons Ratio (y) = 0.35985 0.13700
# Poissons Ratio (z) = 0.29122 0.17997
#
# Static dielectric constant tensor:
#      x y z
#    x 2.701300 0.000000 0.645710 
#    y 0.000000 3.675980 0.000000 
#    z 0.645710 0.000000 3.253350 
# 
# 
# High freq. dielectric constant tensor:
#      x y z
#    x 1.805250 0.000000 -0.011970 
#    y 0.000000 1.818030 0.000000 
#    z -0.011970 0.000000 1.818140 
# 
# From -- ./inp_files/222015.got.cif
#   From: 2010.06.25/outbox.cif.g09.slc.cpg/sg15_112_cif.got.tgz:222015.got - 2010.06.28 07:06:18.
