data_PCOD8147362
_publ_section_title
;
Structure prediction by ZEFSAII (Michael W. Deem and Ramdas Pophale) SiO2 
 PCOD8147362
Probable space group: C 2/C
;
_chemical_formula_sum "Si O2"
_cell_formula_units_Z 44
_cell_length_a 9.322699
_cell_length_b 17.841710
_cell_length_c 12.264842
_cell_angle_alpha 90.000000
_cell_angle_beta 78.473984
_cell_angle_gamma 90.000000
_cell_volume 1998.907217
_symmetry_space_group_name_H-M "C 2/C"
_symmetry_group_IT_number 15
_symmetry_cell_setting 'monoclinic'
loop_
_space_group_symop_operation_xyz
x,y,z
-x,y,1/2-z
-x,-y,-z
x,-y,1/2+z
1/2+x,1/2+y,z
1/2-x,1/2+y,1/2-z
1/2-x,1/2-y,-z
1/2+x,1/2-y,1/2+z
loop_
_atom_site_type_symbol
_atom_site_label
_atom_site_fract_x
_atom_site_fract_y
_atom_site_fract_z
Si Si1 0.776053 0.913850 0.210577
Si Si2 0.162685 0.927670 0.724027
Si Si3 0.000000 0.797213 0.250000
Si Si4 0.260553 0.809178 0.872888
Si Si5 0.878212 0.434969 0.494254
Si Si6 0.880015 0.333546 0.075839
O O1 0.899022 0.848480 0.184927
O O2 0.687488 0.934618 0.116064
O O3 0.660874 0.891474 0.322044
O O4 0.858384 0.990150 0.225248
O O5 0.262382 0.874755 0.784517
O O6 0.240703 0.934938 0.595846
O O7 0.000000 0.891905 0.750000
O O8 0.901679 0.744650 0.340510
O O9 0.120911 0.752930 0.882441
O O10 0.264558 0.844209 0.993478
O O11 0.000000 0.500000 0.500000
O O12 0.960270 0.355199 0.493095
#
# Coordination Sequence:
#
# PCOD8147362 Si02
#       6
#     8   8   4   8   8   8
#     4  11  24  43  71 103 143 184 246 293 364 434
#     4  12  27  44  68 107 143 187 246 306 363 429
#     4  10  22  46  70 102 144 204 232 302 368 444
#     4  10  23  43  71  99 150 186 241 295 375 432
#     4  12  25  42  72 105 142 187 241 303 364 432
#     4  10  22  43  69 103 134 192 232 290 361 440
#
# _framework density 22.012028000000001
#
# number of rings (size 3 to 8) (size 9 to 14) (size 15 to 20)
#    0.000    1.091    2.727    2.727    0.000    9.455 
#    0.000    5.455    0.000    0.000    0.000    0.000 
#    0.000    0.000    0.000    0.000    0.000    0.000 
#
# Total GULP energy -272629.404409 kJ/mol
# GULP energy per Si atom -12392.245655 kJ/mol
# Density = 2.196193 g / cm^3
# Si number density = 22.012028 Si / 1000 Ang^3
#
#
#
# Elastic Constant Matrix: (Units=GPa)
#
#
# Indices 1 2 3 4 5 6 
#
# 1 112.0154 37.5546 63.0290 0.0000 -10.0535 0.0000
# 2 37.5546 93.0909 62.0892 0.0000 -0.5463 0.0000
# 3 63.0290 62.0892 143.2756 0.0000 11.9791 0.0000
# 4 0.0000 0.0000 0.0000 19.8689 0.0000 7.3993
# 5 -10.0535 -0.5463 11.9791 0.0000 40.6856 0.0000
# 6 0.0000 0.0000 0.0000 7.3993 0.0000 34.7590
#
#
#
# Elastic Compliance Matrix: (Units=1/GPa)
#
#
# Indices 1 2 3 4 5 6 
#
# 1 0.012922 -0.001587 -0.005395 0.000000 0.004760 0.000000
# 2 -0.001587 0.015496 -0.006153 0.000000 0.001628 0.000000
# 3 -0.005395 -0.006153 0.012444 0.000000 -0.005080 0.000000
# 4 0.000000 0.000000 0.000000 0.054664 0.000000 -0.011637
# 5 0.004760 0.001628 -0.005080 0.000000 0.027272 0.000000
# 6 0.000000 0.000000 0.000000 -0.011637 0.000000 0.031247
#
#
# Mechanical properties :
#
#
# Convention : Reuss Voigt Hill
#
# Bulk Modulus (GPa) = 68.52998 74.85862 71.69430
# Shear Modulus (GPa) = 27.00084 31.44331 29.22207
#
# Velocity S-wave (km/s) = 3.50614 3.78360 3.64751
# Velocity P-wave (km/s) = 6.89864 7.29173 7.09791
#
# Compressibility (1/GPa) = 0.01459215
#
# Stress axis : x y z
#
# Youngs Moduli (GPa) = 77.38577 64.53290 80.35889
#
# Poissons Ratio (x) = 0.10240 0.43354
# Poissons Ratio (y) = 0.12280 0.49447
# Poissons Ratio (z) = 0.41750 0.39709
#
# Static dielectric constant tensor:
#      x y z
#    x 3.977930 0.000000 -0.120050 
#    y 0.000000 4.156910 0.000000 
#    z -0.120050 0.000000 3.958170 
# 
# 
# High freq. dielectric constant tensor:
#      x y z
#    x 1.857680 0.000000 -0.005690 
#    y 0.000000 1.876190 0.000000 
#    z -0.005690 0.000000 1.868350 
# 
# From -- ./inp_files/78182.got.cif
#   From: 2010.06.25/outbox.cif.g09.slc.cpg/sg15_40_cif.got.tgz:78182.got - 2010.06.28 07:06:18.
