data_PCOD8147605
_publ_section_title
;
Structure prediction by ZEFSAII (Michael W. Deem and Ramdas Pophale) SiO2 
 PCOD8147605
Probable space group: C 2/C
;
_chemical_formula_sum "Si O2"
_cell_formula_units_Z 48
_cell_length_a 15.824547
_cell_length_b 9.057714
_cell_length_c 28.763973
_cell_angle_alpha 90.000000
_cell_angle_beta 146.444566
_cell_angle_gamma 90.000000
_cell_volume 2278.885051
_symmetry_space_group_name_H-M "C 2/C"
_symmetry_group_IT_number 15
_symmetry_cell_setting 'monoclinic'
loop_
_space_group_symop_operation_xyz
x,y,z
-x,y,1/2-z
-x,-y,-z
x,-y,1/2+z
1/2+x,1/2+y,z
1/2-x,1/2+y,1/2-z
1/2-x,1/2-y,-z
1/2+x,1/2-y,1/2+z
loop_
_atom_site_type_symbol
_atom_site_label
_atom_site_fract_x
_atom_site_fract_y
_atom_site_fract_z
Si Si1 0.688935 0.329790 0.517136
Si Si2 0.846481 0.182272 0.157581
Si Si3 0.328057 0.942550 0.314152
Si Si4 0.179532 0.135786 0.841078
Si Si5 0.347205 0.132156 0.571391
Si Si6 0.835189 0.778676 0.342253
O O1 0.750000 0.250000 0.500000
O O2 0.754642 0.260843 0.594780
O O3 0.741719 0.498012 0.538856
O O4 0.507454 0.322474 0.432213
O O5 0.904819 0.281877 0.142704
O O6 0.746222 0.285121 0.145097
O O7 0.000000 0.121176 0.250000
O O8 0.772335 0.021384 0.112138
O O9 0.263355 0.857102 0.329450
O O10 0.508405 0.913257 0.393176
O O11 0.236347 0.895640 0.226141
O O12 0.308483 0.117404 0.308760
O O13 0.000000 0.166059 0.750000
O O14 0.250000 0.250000 0.500000
#
# Coordination Sequence:
#
# PCOD8147605 Si02
#       6
#     8   8   8   8   8   8
#     4  12  25  44  68 101 132 175 228 277 326 402
#     4  10  22  44  67  97 133 180 218 272 338 400
#     4  11  25  45  69 100 134 182 220 279 339 403
#     4  10  24  44  70  97 137 178 226 274 334 401
#     4  12  27  43  68  98 139 175 223 282 339 394
#     4  11  25  43  72  98 135 177 229 275 337 406
#
# _framework density 21.062930999999999
#
# number of rings (size 3 to 8) (size 9 to 14) (size 15 to 20)
#    0.000    1.000    3.333    2.000    4.667    4.000 
#    0.000    0.000    0.000    0.000    0.000    0.000 
#    0.000    0.000    0.000    0.000    0.000    0.000 
#
# Total GULP energy -297550.983376 kJ/mol
# GULP energy per Si atom -12397.957641 kJ/mol
# Density = 2.101499 g / cm^3
# Si number density = 21.062931 Si / 1000 Ang^3
#
#
#
# Elastic Constant Matrix: (Units=GPa)
#
#
# Indices 1 2 3 4 5 6 
#
# 1 115.0212 28.9739 32.4009 0.0000 15.9264 0.0000
# 2 28.9739 108.1365 42.8411 0.0000 -11.2037 0.0000
# 3 32.4009 42.8411 114.1622 0.0004 12.5836 -0.0003
# 4 0.0000 0.0000 0.0004 -12.0018 0.0000 28.3002
# 5 15.9264 -11.2037 12.5836 0.0000 34.5919 0.0000
# 6 0.0000 0.0000 -0.0003 28.3002 0.0000 13.0869
#
#
#
# Elastic Compliance Matrix: (Units=1/GPa)
#
#
# Indices 1 2 3 4 5 6 
#
# 1 0.010515 -0.002832 -0.001340 0.000000 -0.005271 0.000000
# 2 -0.002832 0.012608 -0.004710 0.000000 0.007101 0.000000
# 3 -0.001340 -0.004710 0.011467 0.000000 -0.005080 0.000000
# 4 0.000000 0.000000 0.000000 -0.013661 0.000000 0.029542
# 5 -0.005271 0.007101 -0.005080 0.000000 0.035483 0.000000
# 6 0.000000 0.000000 0.000000 0.029542 0.000000 0.012528
#
#
# Mechanical properties :
#
#
# Convention : Reuss Voigt Hill
#
# Bulk Modulus (GPa) = 59.43724 60.63908 60.03816
# Shear Modulus (GPa) = 54.16194 22.67566 38.41880
#
# Velocity S-wave (km/s) = 5.07643 3.28467 4.27547
# Velocity P-wave (km/s) = 7.91457 6.57551 7.27591
#
# Compressibility (1/GPa) = 0.01682447
#
# Stress axis : x y z
#
# Youngs Moduli (GPa) = 95.10249 79.31259 87.20333
#
# Poissons Ratio (x) = 0.22465 0.11689
# Poissons Ratio (y) = 0.26937 0.41075
# Poissons Ratio (z) = 0.12747 0.37359
#
# Static dielectric constant tensor:
#      x y z
#    x 3.899520 0.000000 0.102060 
#    y 0.000000 5.124990 0.000000 
#    z 0.102060 0.000000 3.687080 
# 
# 
# High freq. dielectric constant tensor:
#      x y z
#    x 1.841930 0.000000 0.005470 
#    y 0.000000 1.832490 0.000000 
#    z 0.005470 0.000000 1.829210 
# 
# From -- ./inp_files/315767.got.cif
#   From: 2010.06.25/outbox.cif.g09.slc.cpg/sg15_158_cif.got.tgz:315767.got - 2010.06.28 07:06:18.
