data_PCOD8147736
_publ_section_title
;
Structure prediction by ZEFSAII (Michael W. Deem and Ramdas Pophale) SiO2 
 PCOD8147736
Probable space group: C 2/C
;
_chemical_formula_sum "Si O2"
_cell_formula_units_Z 44
_cell_length_a 10.253360
_cell_length_b 26.655732
_cell_length_c 9.366247
_cell_angle_alpha 90.000000
_cell_angle_beta 58.165583
_cell_angle_gamma 90.000000
_cell_volume 2174.826731
_symmetry_space_group_name_H-M "C 2/C"
_symmetry_group_IT_number 15
_symmetry_cell_setting 'monoclinic'
loop_
_space_group_symop_operation_xyz
x,y,z
-x,y,1/2-z
-x,-y,-z
x,-y,1/2+z
1/2+x,1/2+y,z
1/2-x,1/2+y,1/2-z
1/2-x,1/2-y,-z
1/2+x,1/2-y,1/2+z
loop_
_atom_site_type_symbol
_atom_site_label
_atom_site_fract_x
_atom_site_fract_y
_atom_site_fract_z
Si Si1 0.832902 0.978950 0.559241
Si Si2 0.000000 0.248753 0.750000
Si Si3 0.173312 0.894446 0.152581
Si Si4 0.677424 0.917595 0.140966
Si Si5 0.340393 0.394238 0.774543
Si Si6 0.704781 0.313382 0.924522
O O1 0.827446 0.950890 0.409537
O O2 0.780895 0.939149 0.708324
O O3 0.711720 0.023370 0.616108
O O4 0.000000 0.000000 0.500000
O O5 0.148907 0.280970 0.711251
O O6 0.062797 0.217638 0.576279
O O7 0.236994 0.892950 0.274781
O O8 0.000000 0.873887 0.250000
O O9 0.267801 0.854557 0.002438
O O10 0.500000 0.908608 0.250000
O O11 0.723984 0.887952 0.971893
O O12 0.500000 0.411544 0.750000
O O13 0.358986 0.342342 0.677835
#
# Coordination Sequence:
#
# PCOD8147736 Si02
#       6
#     8   4   8   8   8   8
#     4  11  21  38  61  91 125 181 224 250 293 367
#     4  10  22  44  72  92 118 154 214 268 322 402
#     4  11  21  39  67  90 128 174 215 255 312 386
#     4  12  26  38  60  99 138 168 215 272 313 353
#     4  11  23  41  65  92 131 170 214 256 315 386
#     4  10  23  42  69  94 120 160 211 259 327 390
#
# _framework density 20.231496
#
# number of rings (size 3 to 8) (size 9 to 14) (size 15 to 20)
#    0.000    1.091    4.545    2.182    2.545    2.909 
#    3.273    0.909    0.000    0.000    0.000    0.000 
#    0.000    0.000    0.000    0.000    0.000    0.000 
#
# Total GULP energy -272745.715158 kJ/mol
# GULP energy per Si atom -12397.532507 kJ/mol
# Density = 2.018545 g / cm^3
# Si number density = 20.231496 Si / 1000 Ang^3
#
#
#
# Elastic Constant Matrix: (Units=GPa)
#
#
# Indices 1 2 3 4 5 6 
#
# 1 85.7038 28.0416 63.4805 0.0000 0.6478 0.0000
# 2 28.0416 95.1136 49.4498 0.0000 6.2296 0.0000
# 3 63.4805 49.4498 150.2496 0.0000 2.3738 0.0000
# 4 0.0000 0.0000 0.0000 35.9761 0.0000 4.2798
# 5 0.6478 6.2296 2.3738 0.0000 41.8375 0.0000
# 6 0.0000 0.0000 0.0000 4.2798 0.0000 8.8804
#
#
#
# Elastic Compliance Matrix: (Units=1/GPa)
#
#
# Indices 1 2 3 4 5 6 
#
# 1 0.017177 -0.001582 -0.006742 0.000000 0.000352 0.000000
# 2 -0.001582 0.012945 -0.003565 0.000000 -0.001701 0.000000
# 3 -0.006742 -0.003565 0.010677 0.000000 0.000029 0.000000
# 4 0.000000 0.000000 0.000000 0.029487 0.000000 -0.014211
# 5 0.000352 -0.001701 0.000029 0.000000 0.024148 0.000000
# 6 0.000000 0.000000 0.000000 -0.014211 0.000000 0.119456
#
#
# Mechanical properties :
#
#
# Convention : Reuss Voigt Hill
#
# Bulk Modulus (GPa) = 58.75290 68.11232 63.43261
# Shear Modulus (GPa) = 20.54723 30.01181 25.27952
#
# Velocity S-wave (km/s) = 3.19032 3.85570 3.53868
# Velocity P-wave (km/s) = 6.53255 7.31857 6.93670
#
# Compressibility (1/GPa) = 0.01702044
#
# Stress axis : x y z
#
# Youngs Moduli (GPa) = 58.21761 77.24934 93.65859
#
# Poissons Ratio (x) = 0.12220 0.63146
# Poissons Ratio (y) = 0.09210 0.33391
# Poissons Ratio (z) = 0.39251 0.27541
#
# Static dielectric constant tensor:
#      x y z
#    x 3.419520 0.000000 0.064300 
#    y 0.000000 3.915270 0.000000 
#    z 0.064300 0.000000 3.957780 
# 
# 
# High freq. dielectric constant tensor:
#      x y z
#    x 1.767380 0.000000 0.006330 
#    y 0.000000 1.789780 0.000000 
#    z 0.006330 0.000000 1.804770 
# 
# From -- ./inp_files/34023.got.cif
#   From: 2010.06.25/outbox.cif.g09.slc.cpg/sg15_18_cif.got.tgz:34023.got - 2010.06.28 07:06:18.
