data_PCOD8147091
_publ_section_title
;
Structure prediction by ZEFSAII (Michael W. Deem and Ramdas Pophale) SiO2 
 PCOD8147091
Probable space group: C 2/C
;
_chemical_formula_sum "Si O2"
_cell_formula_units_Z 44
_cell_length_a 24.288713
_cell_length_b 5.424435
_cell_length_c 17.206790
_cell_angle_alpha 90.000000
_cell_angle_beta 118.967314
_cell_angle_gamma 90.000000
_cell_volume 1983.423117
_symmetry_space_group_name_H-M "C 2/C"
_symmetry_group_IT_number 15
_symmetry_cell_setting 'monoclinic'
loop_
_space_group_symop_operation_xyz
x,y,z
-x,y,1/2-z
-x,-y,-z
x,-y,1/2+z
1/2+x,1/2+y,z
1/2-x,1/2+y,1/2-z
1/2-x,1/2-y,-z
1/2+x,1/2-y,1/2+z
loop_
_atom_site_type_symbol
_atom_site_label
_atom_site_fract_x
_atom_site_fract_y
_atom_site_fract_z
Si Si1 0.732237 0.465525 0.194785
Si Si2 0.597918 0.577500 0.053706
Si Si3 0.090241 0.635266 0.401088
Si Si4 0.278179 0.002432 0.554897
Si Si5 0.000486 0.750172 0.596690
Si Si6 0.000000 0.055285 0.750000
O O1 0.747318 0.703283 0.257092
O O2 0.657360 0.449020 0.133577
O O3 0.768464 0.503425 0.139521
O O4 0.565292 0.770875 0.091965
O O5 0.621739 0.707055 0.991397
O O6 0.549380 0.367298 0.996397
O O7 0.146588 0.467601 0.407896
O O8 0.063373 0.790808 0.310528
O O9 0.028517 0.506889 0.395706
O O10 0.250000 0.750000 0.500000
O O11 0.250000 0.250000 0.500000
O O12 0.016052 0.900561 0.684814
#
# Coordination Sequence:
#
# PCOD8147091 Si02
#       6
#     8   8   8   8   8   4
#     4  12  28  46  70 109 147 189 239 299 358 422
#     4  10  23  43  68  96 134 180 234 284 352 424
#     4  11  23  42  70  97 137 177 238 284 355 422
#     4  12  26  48  77 102 141 194 244 292 357 433
#     4  10  22  42  70  95 135 177 228 290 352 411
#     4  10  24  38  62 108 130 176 222 290 350 412
#
# _framework density 22.183871
#
# number of rings (size 3 to 8) (size 9 to 14) (size 15 to 20)
#    0.000    1.091    1.818    3.273    7.636    2.909 
#    0.000    0.000    0.000    0.000    0.000    0.000 
#    0.000    0.000    0.000    0.000    0.000    0.000 
#
# Total GULP energy -272729.982946 kJ/mol
# GULP energy per Si atom -12396.817407 kJ/mol
# Density = 2.213338 g / cm^3
# Si number density = 22.183871 Si / 1000 Ang^3
#
#
#
# Elastic Constant Matrix: (Units=GPa)
#
#
# Indices 1 2 3 4 5 6 
#
# 1 88.6350 -12.7040 29.7914 0.0002 1.1554 0.0000
# 2 -12.7040 76.1095 23.3413 -0.0004 7.7337 0.0009
# 3 29.7914 23.3413 123.8290 -0.0001 5.0902 0.0000
# 4 0.0002 -0.0004 -0.0001 -7.0343 -0.0001 -0.1513
# 5 1.1554 7.7337 5.0902 -0.0001 25.8821 0.0000
# 6 0.0000 0.0009 0.0000 -0.1513 0.0000 28.9171
#
#
#
# Elastic Compliance Matrix: (Units=1/GPa)
#
#
# Indices 1 2 3 4 5 6 
#
# 1 0.013042 0.003413 -0.003745 0.000000 -0.000866 0.000000
# 2 0.003413 0.015195 -0.003521 -0.000001 -0.004000 0.000000
# 3 -0.003745 -0.003521 0.009668 0.000000 -0.000682 0.000000
# 4 0.000000 -0.000001 0.000000 -0.142145 0.000000 -0.000744
# 5 -0.000866 -0.004000 -0.000682 0.000000 0.040005 0.000000
# 6 0.000000 0.000000 0.000000 -0.000744 0.000000 0.034578
#
#
# Mechanical properties :
#
#
# Convention : Reuss Voigt Hill
#
# Bulk Modulus (GPa) = 33.11344 41.04788 37.08066
# Shear Modulus (GPa) = -420.69277 26.09598 -197.29839
#
# Velocity S-wave (km/s) = -13.78589 3.43352 -9.44091
# Velocity P-wave (km/s) = 15.44156 5.85341 10.10394
#
# Compressibility (1/GPa) = 0.03019921
#
# Stress axis : x y z
#
# Youngs Moduli (GPa) = 76.67734 65.81097 103.42867
#
# Poissons Ratio (x) = -0.22465 0.38739
# Poissons Ratio (y) = -0.26174 0.36417
# Poissons Ratio (z) = 0.28719 0.23172
#
# Static dielectric constant tensor:
#      x y z
#    x 4.235090 0.000010 -0.195160 
#    y 0.000010 5.555270 -0.000010 
#    z -0.195160 -0.000010 4.223640 
# 
# 
# High freq. dielectric constant tensor:
#      x y z
#    x 1.883290 0.000000 -0.006000 
#    y 0.000000 1.867340 0.000000 
#    z -0.006000 0.000000 1.888280 
# 
# From -- ./inp_files/217705.got.cif
#   From: 2010.06.25/outbox.cif.g09.slc.cpg/sg15_109_cif.got.tgz:217705.got - 2010.06.28 07:06:18.
