data_PCOD8147227
_publ_section_title
;
Structure prediction by ZEFSAII (Michael W. Deem and Ramdas Pophale) SiO2 
 PCOD8147227
Probable space group: C 2/C
;
_chemical_formula_sum "Si O2"
_cell_formula_units_Z 48
_cell_length_a 13.710564
_cell_length_b 27.285485
_cell_length_c 9.370730
_cell_angle_alpha 90.000000
_cell_angle_beta 139.280142
_cell_angle_gamma 90.000000
_cell_volume 2286.906956
_symmetry_space_group_name_H-M "C 2/C"
_symmetry_group_IT_number 15
_symmetry_cell_setting 'monoclinic'
loop_
_space_group_symop_operation_xyz
x,y,z
-x,y,1/2-z
-x,-y,-z
x,-y,1/2+z
1/2+x,1/2+y,z
1/2-x,1/2+y,1/2-z
1/2-x,1/2-y,-z
1/2+x,1/2-y,1/2+z
loop_
_atom_site_type_symbol
_atom_site_label
_atom_site_fract_x
_atom_site_fract_y
_atom_site_fract_z
Si Si1 0.945266 0.701905 0.841939
Si Si2 0.898051 0.197712 0.006493
Si Si3 0.634857 0.366196 0.304968
Si Si4 0.151574 0.018904 0.840988
Si Si5 0.841852 0.526153 0.311229
Si Si6 0.087858 0.627127 0.213770
O O1 0.768981 0.710429 0.628825
O O2 0.000000 0.681164 0.750000
O O3 0.024198 0.753271 0.966476
O O4 0.985386 0.665072 0.014241
O O5 0.000000 0.177107 0.250000
O O6 0.881864 0.156905 0.868370
O O7 0.500000 0.348121 0.250000
O O8 0.635270 0.424440 0.280068
O O9 0.773422 0.346668 0.553707
O O10 0.000000 0.999517 0.750000
O O11 0.203598 0.987646 0.761946
O O12 0.290163 0.010905 0.098050
O O13 0.861907 0.584929 0.341045
O O14 0.000000 0.500000 0.500000
O O15 0.000000 0.602898 0.250000
#
# Coordination Sequence:
#
# PCOD8147227 Si02
#       6
#     8   8   8   8   8   8
#     4  11  25  42  68  96 138 169 219 270 328 392
#     4  11  24  44  67  96 137 172 217 269 330 394
#     4  10  23  41  67  95 131 173 220 268 327 387
#     4  10  22  43  64  95 132 174 221 274 324 393
#     4  11  22  39  69  92 133 171 220 270 336 386
#     4  11  23  44  65  98 133 171 218 279 323 393
#
# _framework density 20.989046999999999
#
# number of rings (size 3 to 8) (size 9 to 14) (size 15 to 20)
#    0.000    1.333    1.667    5.000    4.667    2.667 
#    0.000    0.833    0.000    0.000    0.000    0.000 
#    0.000    0.000    0.000    0.000    0.000    0.000 
#
# Total GULP energy -297449.518064 kJ/mol
# GULP energy per Si atom -12393.729919 kJ/mol
# Density = 2.094127 g / cm^3
# Si number density = 20.989047 Si / 1000 Ang^3
#
#
#
# Elastic Constant Matrix: (Units=GPa)
#
#
# Indices 1 2 3 4 5 6 
#
# 1 142.5063 51.2696 45.8425 0.0000 13.2132 0.0000
# 2 51.2696 77.7591 61.0223 0.0000 -10.4062 0.0000
# 3 45.8425 61.0223 151.2148 0.0000 11.4235 0.0000
# 4 0.0000 0.0000 0.0000 35.2236 0.0000 -4.1862
# 5 13.2132 -10.4062 11.4235 0.0000 42.0098 0.0000
# 6 0.0000 0.0000 0.0000 -4.1862 0.0000 52.6779
#
#
#
# Elastic Compliance Matrix: (Units=1/GPa)
#
#
# Indices 1 2 3 4 5 6 
#
# 1 0.010142 -0.007731 0.000440 0.000000 -0.005225 0.000000
# 2 -0.007731 0.026878 -0.009382 0.000000 0.011641 0.000000
# 3 0.000440 -0.009382 0.010671 0.000000 -0.005364 0.000000
# 4 0.000000 0.000000 0.000000 0.028661 0.000000 0.002278
# 5 -0.005225 0.011641 -0.005364 0.000000 0.029790 0.000000
# 6 0.000000 0.000000 0.000000 0.002278 0.000000 0.019164
#
#
# Mechanical properties :
#
#
# Convention : Reuss Voigt Hill
#
# Bulk Modulus (GPa) = 69.71468 76.41655 73.06562
# Shear Modulus (GPa) = 30.59337 40.20533 35.39935
#
# Velocity S-wave (km/s) = 3.82198 4.38144 4.11123
# Velocity P-wave (km/s) = 7.26385 7.87927 7.57781
#
# Compressibility (1/GPa) = 0.01434418
#
# Stress axis : x y z
#
# Youngs Moduli (GPa) = 98.60410 37.20447 93.71069
#
# Poissons Ratio (x) = 0.28764 -0.04124
# Poissons Ratio (y) = 0.76233 0.87922
# Poissons Ratio (z) = -0.04339 0.34906
#
# Static dielectric constant tensor:
#      x y z
#    x 4.008370 0.000000 0.193240 
#    y 0.000000 3.509910 0.000000 
#    z 0.193240 0.000000 4.015900 
# 
# 
# High freq. dielectric constant tensor:
#      x y z
#    x 1.837920 0.000000 0.011430 
#    y 0.000000 1.798830 0.000000 
#    z 0.011430 0.000000 1.844820 
# 
# From -- ./inp_files/43925.got.cif
#   From: 2010.06.25/outbox.cif.g09.slc.cpg/sg15_22_cif.got.tgz:43925.got - 2010.06.28 07:06:18.
