data_PCOD8147385
_publ_section_title
;
Structure prediction by ZEFSAII (Michael W. Deem and Ramdas Pophale) SiO2 
 PCOD8147385
Probable space group: C 2/C
;
_chemical_formula_sum "Si O2"
_cell_formula_units_Z 48
_cell_length_a 8.183589
_cell_length_b 16.383638
_cell_length_c 22.155361
_cell_angle_alpha 90.000000
_cell_angle_beta 137.508548
_cell_angle_gamma 90.000000
_cell_volume 2006.529786
_symmetry_space_group_name_H-M "C 2/C"
_symmetry_group_IT_number 15
_symmetry_cell_setting 'monoclinic'
loop_
_space_group_symop_operation_xyz
x,y,z
-x,y,1/2-z
-x,-y,-z
x,-y,1/2+z
1/2+x,1/2+y,z
1/2-x,1/2+y,1/2-z
1/2-x,1/2-y,-z
1/2+x,1/2-y,1/2+z
loop_
_atom_site_type_symbol
_atom_site_label
_atom_site_fract_x
_atom_site_fract_y
_atom_site_fract_z
Si Si1 0.079565 0.368703 0.439030
Si Si2 0.585761 0.305217 0.606632
Si Si3 0.661247 0.443288 0.705019
Si Si4 0.777580 0.410286 0.154121
Si Si5 0.284207 0.658998 0.491171
Si Si6 0.864845 0.534209 0.390636
O O1 0.304074 0.331038 0.536005
O O2 0.159728 0.411202 0.398940
O O3 0.888688 0.293197 0.379764
O O4 0.960249 0.445822 0.441213
O O5 0.719151 0.350006 0.699316
O O6 0.690783 0.343637 0.574070
O O7 0.743420 0.499229 0.671449
O O8 0.374241 0.447772 0.637018
O O9 0.806481 0.469988 0.803372
O O10 0.000000 0.365806 0.250000
O O11 0.524763 0.364893 0.093391
O O12 0.250000 0.750000 0.500000
O O13 0.061986 0.604881 0.454146
#
# Coordination Sequence:
#
# PCOD8147385 Si02
#       6
#     8   8   8   8   8   8
#     4  10  22  43  69  99 134 177 230 282 343 412
#     4  10  24  42  68 100 135 179 226 288 347 401
#     4  11  25  44  70 101 139 183 226 289 345 415
#     4  11  23  44  72  97 138 182 235 280 352 411
#     4  11  27  45  69 106 138 184 237 289 347 419
#     4  11  25  45  68 105 139 178 236 281 349 416
#
# _framework density 23.921896
#
# number of rings (size 3 to 8) (size 9 to 14) (size 15 to 20)
#    0.000    1.333    1.667    2.000    9.333    5.333 
#    0.000    0.000    0.000    0.000    0.000    0.000 
#    0.000    0.000    0.000    0.000    0.000    0.000 
#
# Total GULP energy -297504.595218 kJ/mol
# GULP energy per Si atom -12396.024801 kJ/mol
# Density = 2.386745 g / cm^3
# Si number density = 23.921896 Si / 1000 Ang^3
#
#
#
# Elastic Constant Matrix: (Units=GPa)
#
#
# Indices 1 2 3 4 5 6 
#
# 1 62.1179 21.5567 19.1704 0.0004 6.6250 0.0001
# 2 21.5567 174.1817 35.8280 0.0001 10.1516 0.0001
# 3 19.1704 35.8280 80.4385 0.0015 27.5015 0.0007
# 4 0.0004 0.0001 0.0015 21.3051 0.0007 -4.9895
# 5 6.6250 10.1516 27.5015 0.0007 36.4339 0.0004
# 6 0.0001 0.0001 0.0007 -4.9895 0.0004 35.6163
#
#
#
# Elastic Compliance Matrix: (Units=1/GPa)
#
#
# Indices 1 2 3 4 5 6 
#
# 1 0.017707 -0.001459 -0.003516 0.000000 -0.000160 0.000000
# 2 -0.001459 0.006447 -0.002696 0.000000 0.000504 0.000000
# 3 -0.003516 -0.002696 0.018863 -0.000001 -0.012848 0.000000
# 4 0.000000 0.000000 -0.000001 0.048529 0.000000 0.006798
# 5 -0.000160 0.000504 -0.012848 0.000000 0.037034 0.000000
# 6 0.000000 0.000000 0.000000 0.006798 0.000000 0.029029
#
#
# Mechanical properties :
#
#
# Convention : Reuss Voigt Hill
#
# Bulk Modulus (GPa) = 36.13297 52.20539 44.16918
# Shear Modulus (GPa) = 27.44602 34.68325 31.06464
#
# Velocity S-wave (km/s) = 3.39088 3.81183 3.60750
# Velocity P-wave (km/s) = 5.51979 6.42215 5.98799
#
# Compressibility (1/GPa) = 0.02767556
#
# Stress axis : x y z
#
# Youngs Moduli (GPa) = 56.47589 155.11351 53.01300
#
# Poissons Ratio (x) = 0.22630 0.18637
# Poissons Ratio (y) = 0.08240 0.14293
# Poissons Ratio (z) = 0.19854 0.41821
#
# Static dielectric constant tensor:
#      x y z
#    x 5.272340 0.000000 -0.017720 
#    y 0.000000 4.480360 0.000000 
#    z -0.017720 0.000000 5.004970 
# 
# 
# High freq. dielectric constant tensor:
#      x y z
#    x 1.965460 0.000000 -0.000400 
#    y 0.000000 1.947480 0.000000 
#    z -0.000400 0.000000 1.945000 
# 
# From -- ./inp_files/289131.got.cif
#   From: 2010.06.25/outbox.cif.g09.slc.cpg/sg15_145_cif.got.tgz:289131.got - 2010.06.28 07:06:18.
