data_PCOD8147451
_publ_section_title
;
Structure prediction by ZEFSAII (Michael W. Deem and Ramdas Pophale) SiO2 
 PCOD8147451
Probable space group: C 2/C
;
_chemical_formula_sum "Si O2"
_cell_formula_units_Z 60
_cell_length_a 14.824534
_cell_length_b 13.777539
_cell_length_c 21.581228
_cell_angle_alpha 90.000000
_cell_angle_beta 38.774198
_cell_angle_gamma 90.000000
_cell_volume 2760.441356
_symmetry_space_group_name_H-M "C 2/C"
_symmetry_group_IT_number 15
_symmetry_cell_setting 'monoclinic'
loop_
_space_group_symop_operation_xyz
x,y,z
-x,y,1/2-z
-x,-y,-z
x,-y,1/2+z
1/2+x,1/2+y,z
1/2-x,1/2+y,1/2-z
1/2-x,1/2-y,-z
1/2+x,1/2-y,1/2+z
loop_
_atom_site_type_symbol
_atom_site_label
_atom_site_fract_x
_atom_site_fract_y
_atom_site_fract_z
Si Si1 0.801081 0.390526 0.526970
Si Si2 0.256219 0.708807 0.850049
Si Si3 0.000000 0.645954 0.250000
Si Si4 0.004276 0.873122 0.629009
Si Si5 0.289122 0.494003 0.806485
Si Si6 0.956878 0.773681 0.007914
Si Si7 0.693697 0.204023 0.740254
Si Si8 0.548407 0.994898 0.334341
O O1 0.673385 0.363283 0.549644
O O2 0.731773 0.414935 0.629738
O O3 0.907362 0.299818 0.479796
O O4 0.892854 0.477659 0.448266
O O5 0.363250 0.782252 0.827683
O O6 0.299115 0.596733 0.836362
O O7 0.252218 0.720546 0.778066
O O8 0.098468 0.728365 0.964844
O O9 0.975288 0.579154 0.203180
O O10 0.989858 0.866492 0.561574
O O11 0.915758 0.791305 0.715001
O O12 0.937855 0.975129 0.688927
O O13 0.157322 0.474865 0.830288
O O14 0.833928 0.797228 0.122058
O O15 0.611793 0.103254 0.770043
#
# Coordination Sequence:
#
# PCOD8147451 Si02
#       8
#     8   8   4   8   8   8   8   8
#     4  12  23  38  71 103 132 172 233 283 338 418
#     4  10  25  48  66 100 134 189 232 285 336 423
#     4  12  28  46  72  94 152 178 240 288 348 406
#     4  11  23  38  66 110 132 165 227 293 339 397
#     4  11  23  45  72  94 137 187 233 276 351 411
#     4  11  22  42  71 100 141 177 220 286 353 420
#     4  10  22  43  73  97 142 179 220 282 362 404
#     4  11  25  45  66 100 135 190 221 285 350 421
#
# _framework density 21.735654
#
# number of rings (size 3 to 8) (size 9 to 14) (size 15 to 20)
#    0.000    1.067    5.333    2.800    3.733    0.000 
#    4.800    4.667    0.000    0.000    0.000    0.000 
#    0.000    0.000    0.000    0.000    0.000    0.000 
#
# Total GULP energy -371882.900811 kJ/mol
# GULP energy per Si atom -12396.096694 kJ/mol
# Density = 2.168618 g / cm^3
# Si number density = 21.735654 Si / 1000 Ang^3
#
#
#
# Elastic Constant Matrix: (Units=GPa)
#
#
# Indices 1 2 3 4 5 6 
#
# 1 68.4704 30.4710 13.1339 -0.0001 -18.7724 0.0000
# 2 30.4710 64.7794 8.0821 0.0001 -3.4295 0.0000
# 3 13.1339 8.0821 110.2360 0.0000 -14.0886 0.0000
# 4 -0.0001 0.0001 0.0000 24.6567 0.0001 -7.8310
# 5 -18.7724 -3.4295 -14.0886 0.0001 39.1795 0.0000
# 6 0.0000 0.0000 0.0000 -7.8310 0.0000 42.4930
#
#
#
# Elastic Compliance Matrix: (Units=1/GPa)
#
#
# Indices 1 2 3 4 5 6 
#
# 1 0.021514 -0.009546 -0.000684 0.000000 0.009226 0.000000
# 2 -0.009546 0.019853 -0.000713 0.000000 -0.003093 0.000000
# 3 -0.000684 -0.000713 0.009596 0.000000 0.003061 0.000000
# 4 0.000000 0.000000 0.000000 0.043078 0.000000 0.007939
# 5 0.009226 -0.003093 0.003061 0.000000 0.030774 0.000000
# 6 0.000000 0.000000 0.000000 0.007939 0.000000 0.024996
#
#
# Mechanical properties :
#
#
# Convention : Reuss Voigt Hill
#
# Bulk Modulus (GPa) = 34.39292 38.53998 36.46645
# Shear Modulus (GPa) = 27.56483 34.05242 30.80863
#
# Velocity S-wave (km/s) = 3.56502 3.96240 3.76895
# Velocity P-wave (km/s) = 5.72743 6.22125 5.97944
#
# Compressibility (1/GPa) = 0.02907576
#
# Stress axis : x y z
#
# Youngs Moduli (GPa) = 46.48166 50.37142 104.20563
#
# Poissons Ratio (x) = 0.48084 0.07129
# Poissons Ratio (y) = 0.44371 0.07434
# Poissons Ratio (z) = 0.03180 0.03594
#
# Static dielectric constant tensor:
#      x y z
#    x 3.789450 0.000000 -0.180970 
#    y 0.000000 4.066740 0.000000 
#    z -0.180970 0.000000 3.890770 
# 
# 
# High freq. dielectric constant tensor:
#      x y z
#    x 1.841730 0.000000 -0.014120 
#    y 0.000000 1.851620 0.000000 
#    z -0.014120 0.000000 1.862750 
# 
# From -- ./inp_files/244684.got.cif
#   From: 2010.06.25/outbox.cif.g09.slc.cpg/sg15_123_cif.got.tgz:244684.got - 2010.06.28 07:06:18.
