data_PCOD8147845
_publ_section_title
;
Structure prediction by ZEFSAII (Michael W. Deem and Ramdas Pophale) SiO2 
 PCOD8147845
Probable space group: C 2/C
;
_chemical_formula_sum "Si O2"
_cell_formula_units_Z 64
_cell_length_a 8.706231
_cell_length_b 15.385101
_cell_length_c 28.885076
_cell_angle_alpha 90.000000
_cell_angle_beta 45.808462
_cell_angle_gamma 90.000000
_cell_volume 2774.159477
_symmetry_space_group_name_H-M "C 2/C"
_symmetry_group_IT_number 15
_symmetry_cell_setting 'monoclinic'
loop_
_space_group_symop_operation_xyz
x,y,z
-x,y,1/2-z
-x,-y,-z
x,-y,1/2+z
1/2+x,1/2+y,z
1/2-x,1/2+y,1/2-z
1/2-x,1/2-y,-z
1/2+x,1/2-y,1/2+z
loop_
_atom_site_type_symbol
_atom_site_label
_atom_site_fract_x
_atom_site_fract_y
_atom_site_fract_z
Si Si1 0.488417 0.685120 0.418075
Si Si2 0.655393 0.924220 0.952537
Si Si3 0.435499 0.753821 0.001095
Si Si4 0.446937 0.871143 0.814757
Si Si5 0.845307 0.540243 0.696071
Si Si6 0.420938 0.450698 0.338907
Si Si7 0.005335 0.777345 0.369937
Si Si8 0.822473 0.308579 0.375214
O O1 0.290357 0.618177 0.466667
O O2 0.510273 0.753605 0.455094
O O3 0.692812 0.622820 0.372245
O O4 0.456090 0.737651 0.376309
O O5 0.831663 0.960120 0.879388
O O6 0.512895 0.845380 0.962141
O O7 0.500000 0.000000 0.000000
O O8 0.173151 0.741350 0.053838
O O9 0.586060 0.675694 0.948982
O O10 0.500000 0.879570 0.750000
O O11 0.522105 0.778674 0.819667
O O12 0.553336 0.944591 0.824517
O O13 0.730046 0.567065 0.673142
O O14 0.670847 0.541823 0.773614
O O15 0.040630 0.605989 0.662733
O O16 0.407318 0.371321 0.377680
O O17 0.245166 0.776203 0.340449
#
# Coordination Sequence:
#
# PCOD8147845 Si02
#       8
#     8   8   8   8   8   8   8   8
#     4  10  24  44  69 103 140 183 228 282 350 421
#     4  11  21  37  73  99 134 177 227 283 346 397
#     4  10  22  45  71 101 145 179 233 279 356 419
#     4  11  26  47  70  95 142 180 231 286 351 409
#     4  11  27  46  70  98 136 186 237 289 341 421
#     4  11  26  47  69  97 141 182 238 284 354 409
#     4  11  25  45  71 105 138 183 228 289 345 423
#     4  11  24  42  72 101 141 182 231 280 350 416
#
# _framework density 23.070050999999999
#
# number of rings (size 3 to 8) (size 9 to 14) (size 15 to 20)
#    0.000    1.250    1.250    4.125   12.250    0.000 
#    0.000    2.500    0.000    0.000    0.000    0.000 
#    0.000    0.000    0.000    0.000    0.000    0.000 
#
# Total GULP energy -396525.846565 kJ/mol
# GULP energy per Si atom -12391.432705 kJ/mol
# Density = 2.301754 g / cm^3
# Si number density = 23.070051 Si / 1000 Ang^3
#
#
#
# Elastic Constant Matrix: (Units=GPa)
#
#
# Indices 1 2 3 4 5 6 
#
# 1 131.4694 55.6924 38.0230 -0.0009 -23.9823 0.0018
# 2 55.6924 118.6440 52.6283 -0.0009 -13.1971 0.0013
# 3 38.0230 52.6283 107.9507 0.0001 -19.1467 0.0002
# 4 -0.0009 -0.0009 0.0001 40.7679 -0.0002 -4.3377
# 5 -23.9823 -13.1971 -19.1467 -0.0002 31.9203 -0.0006
# 6 0.0018 0.0013 0.0002 -4.3377 -0.0006 33.0012
#
#
#
# Elastic Compliance Matrix: (Units=1/GPa)
#
#
# Indices 1 2 3 4 5 6 
#
# 1 0.010577 -0.003983 -0.000746 0.000000 0.005853 0.000000
# 2 -0.003983 0.012315 -0.004732 0.000000 -0.000740 0.000000
# 3 -0.000746 -0.004732 0.012742 0.000000 0.005127 0.000000
# 4 0.000000 0.000000 0.000000 0.024877 0.000000 0.003270
# 5 0.005853 -0.000740 0.005127 0.000000 0.038495 0.000000
# 6 0.000000 0.000000 0.000000 0.003270 0.000000 0.030732
#
#
# Mechanical properties :
#
#
# Convention : Reuss Voigt Hill
#
# Bulk Modulus (GPa) = 59.83422 72.30571 66.06997
# Shear Modulus (GPa) = 32.41906 35.25255 33.83581
#
# Velocity S-wave (km/s) = 3.75273 3.91329 3.83385
# Velocity P-wave (km/s) = 6.69100 7.19919 6.94974
#
# Compressibility (1/GPa) = 0.01671284
#
# Stress axis : x y z
#
# Youngs Moduli (GPa) = 94.54564 81.20108 78.47840
#
# Poissons Ratio (x) = 0.32344 0.05851
# Poissons Ratio (y) = 0.37659 0.37136
# Poissons Ratio (z) = 0.07049 0.38425
#
# Static dielectric constant tensor:
#      x y z
#    x 4.525770 -0.000010 -0.117670 
#    y -0.000010 4.028350 0.000010 
#    z -0.117670 0.000010 4.346700 
# 
# 
# High freq. dielectric constant tensor:
#      x y z
#    x 1.942030 0.000000 -0.010160 
#    y 0.000000 1.895040 0.000000 
#    z -0.010160 0.000000 1.910700 
# 
# From -- ./inp_files/308230.got.cif
#   From: 2010.06.25/outbox.cif.g09.slc.cpg/sg15_155_cif.got.tgz:308230.got - 2010.06.28 07:06:18.
