data_PCOD8147365
_publ_section_title
;
Structure prediction by ZEFSAII (Michael W. Deem and Ramdas Pophale) SiO2 
 PCOD8147365
Probable space group: C 2/C
;
_chemical_formula_sum "Si O2"
_cell_formula_units_Z 44
_cell_length_a 13.899366
_cell_length_b 8.451509
_cell_length_c 20.205720
_cell_angle_alpha 90.000000
_cell_angle_beta 134.192947
_cell_angle_gamma 90.000000
_cell_volume 1701.847214
_symmetry_space_group_name_H-M "C 2/C"
_symmetry_group_IT_number 15
_symmetry_cell_setting 'monoclinic'
loop_
_space_group_symop_operation_xyz
x,y,z
-x,y,1/2-z
-x,-y,-z
x,-y,1/2+z
1/2+x,1/2+y,z
1/2-x,1/2+y,1/2-z
1/2-x,1/2-y,-z
1/2+x,1/2-y,1/2+z
loop_
_atom_site_type_symbol
_atom_site_label
_atom_site_fract_x
_atom_site_fract_y
_atom_site_fract_z
Si Si1 0.099536 0.923316 0.956452
Si Si2 0.769071 0.169429 0.203471
Si Si3 0.012701 0.769331 0.467958
Si Si4 0.248856 0.817275 0.331148
Si Si5 0.617843 0.165379 0.870652
Si Si6 0.000000 0.608870 0.250000
O O1 0.040243 0.814249 0.868283
O O2 0.052280 0.868886 0.004795
O O3 0.258772 0.896303 0.026121
O O4 0.062594 0.109409 0.933661
O O5 0.809554 0.231269 0.295619
O O6 0.839884 0.280923 0.183096
O O7 0.813023 0.987607 0.216222
O O8 0.605774 0.164967 0.119821
O O9 0.136014 0.667528 0.556930
O O10 0.131214 0.711914 0.304239
O O11 0.522191 0.011538 0.822437
#
# Coordination Sequence:
#
# PCOD8147365 Si02
#       6
#     8   8   8   8   8   4
#     4   9  20  40  75 102 142 181 239 284 353 424
#     4  11  27  46  74 102 143 191 239 295 362 423
#     4  10  22  45  74 106 141 190 236 301 352 426
#     4  12  27  48  69 108 143 187 243 298 356 434
#     4  10  22  43  69 108 139 189 226 291 357 423
#     4  12  26  44  70 106 148 182 238 302 352 424
#
# _framework density 25.85426
#
# number of rings (size 3 to 8) (size 9 to 14) (size 15 to 20)
#    0.000    1.455    1.818    1.636   10.182    2.182 
#    3.273    1.818    0.000    0.000    0.000    0.000 
#    0.000    0.000    0.000    0.000    0.000    0.000 
#
# Total GULP energy -272730.205373 kJ/mol
# GULP energy per Si atom -12396.827517 kJ/mol
# Density = 2.579541 g / cm^3
# Si number density = 25.854260 Si / 1000 Ang^3
#
#
#
# Elastic Constant Matrix: (Units=GPa)
#
#
# Indices 1 2 3 4 5 6 
#
# 1 70.4026 27.5278 17.4939 0.0000 0.5389 0.0000
# 2 27.5278 138.1345 16.8002 0.0000 -0.1152 0.0000
# 3 17.4939 16.8002 72.9519 0.0000 -7.0990 0.0000
# 4 0.0000 0.0000 0.0000 30.8001 0.0000 -7.1667
# 5 0.5389 -0.1152 -7.0990 0.0000 27.3246 0.0000
# 6 0.0000 0.0000 0.0000 -7.1667 0.0000 34.9861
#
#
#
# Elastic Compliance Matrix: (Units=1/GPa)
#
#
# Indices 1 2 3 4 5 6 
#
# 1 0.016143 -0.002812 -0.003340 0.000000 -0.001198 0.000000
# 2 -0.002812 0.007942 -0.001176 0.000000 -0.000217 0.000000
# 3 -0.003340 -0.001176 0.015169 0.000000 0.004002 0.000000
# 4 0.000000 0.000000 0.000000 0.034092 0.000000 0.006984
# 5 -0.001198 -0.000217 0.004002 0.000000 0.037659 0.000000
# 6 0.000000 0.000000 0.000000 0.006984 0.000000 0.030013
#
#
# Mechanical properties :
#
#
# Convention : Reuss Voigt Hill
#
# Bulk Modulus (GPa) = 40.65287 45.01476 42.83382
# Shear Modulus (GPa) = 30.51127 33.26664 31.88895
#
# Velocity S-wave (km/s) = 3.43902 3.59095 3.51581
# Velocity P-wave (km/s) = 5.61491 5.88574 5.75192
#
# Compressibility (1/GPa) = 0.02459851
#
# Stress axis : x y z
#
# Youngs Moduli (GPa) = 61.94817 125.90525 65.92467
#
# Poissons Ratio (x) = 0.35401 0.22019
# Poissons Ratio (y) = 0.17418 0.07752
# Poissons Ratio (z) = 0.20691 0.14805
#
# Static dielectric constant tensor:
#      x y z
#    x 4.544970 0.000000 0.280040 
#    y 0.000000 4.600490 0.000000 
#    z 0.280040 0.000000 5.071760 
# 
# 
# High freq. dielectric constant tensor:
#      x y z
#    x 2.024270 0.000000 0.018730 
#    y 0.000000 2.031900 0.000000 
#    z 0.018730 0.000000 2.049400 
# 
# From -- ./inp_files/272934.got.cif
#   From: 2010.06.25/outbox.cif.g09.slc.cpg/sg15_137_cif.got.tgz:272934.got - 2010.06.28 07:06:18.
