data_PCOD8147495
_publ_section_title
;
Structure prediction by ZEFSAII (Michael W. Deem and Ramdas Pophale) SiO2 
 PCOD8147495
Probable space group: C 2/C
;
_chemical_formula_sum "Si O2"
_cell_formula_units_Z 36
_cell_length_a 12.821534
_cell_length_b 10.949698
_cell_length_c 14.133407
_cell_angle_alpha 90.000000
_cell_angle_beta 49.317014
_cell_angle_gamma 90.000000
_cell_volume 1504.686604
_symmetry_space_group_name_H-M "C 2/C"
_symmetry_group_IT_number 15
_symmetry_cell_setting 'monoclinic'
loop_
_space_group_symop_operation_xyz
x,y,z
-x,y,1/2-z
-x,-y,-z
x,-y,1/2+z
1/2+x,1/2+y,z
1/2-x,1/2+y,1/2-z
1/2-x,1/2-y,-z
1/2+x,1/2-y,1/2+z
loop_
_atom_site_type_symbol
_atom_site_label
_atom_site_fract_x
_atom_site_fract_y
_atom_site_fract_z
Si Si1 0.000000 0.610046 0.250000
Si Si2 0.894155 0.236962 0.968428
Si Si3 0.677041 0.109016 0.607476
Si Si4 0.042008 0.023235 0.122072
Si Si5 0.418022 0.767568 0.163590
O O1 0.990674 0.692804 0.161214
O O2 0.136726 0.527697 0.163786
O O3 0.945269 0.096486 0.951151
O O4 0.750000 0.250000 0.000000
O O5 0.879657 0.302853 0.078862
O O6 0.815939 0.101395 0.465004
O O7 0.697072 0.188440 0.692475
O O8 0.559973 0.167077 0.610354
O O9 0.000000 0.975382 0.250000
O O10 0.926424 0.120054 0.159700
#
# Coordination Sequence:
#
# PCOD8147495 Si02
#       5
#     4   8   8   8   8
#     4  10  22  44  64 100 138 180 222 272 350 396
#     4  12  25  45  65 103 142 177 222 281 343 405
#     4  10  23  46  70  99 136 176 235 275 336 412
#     4  12  23  45  70 102 136 176 229 286 336 399
#     4  10  24  44  70  98 132 182 225 279 335 400
#
# _framework density 23.925249000000001
#
# number of rings (size 3 to 8) (size 9 to 14) (size 15 to 20)
#    0.000    1.333    5.556    1.333    0.000    5.333 
#    4.000    0.000    0.000    0.000    0.000    0.000 
#    0.000    0.000    0.000    0.000    0.000    0.000 
#
# Total GULP energy -223114.369490 kJ/mol
# GULP energy per Si atom -12395.242749 kJ/mol
# Density = 2.387079 g / cm^3
# Si number density = 23.925249 Si / 1000 Ang^3
#
#
#
# Elastic Constant Matrix: (Units=GPa)
#
#
# Indices 1 2 3 4 5 6 
#
# 1 66.8470 24.4517 51.1086 0.0000 42.7388 0.0000
# 2 24.4517 134.0242 38.6419 0.0000 7.7730 0.0000
# 3 51.1086 38.6419 159.9474 0.0000 25.1010 0.0000
# 4 0.0000 0.0000 0.0000 49.5742 0.0000 0.9596
# 5 42.7388 7.7730 25.1010 0.0000 45.2143 0.0000
# 6 0.0000 0.0000 0.0000 0.9596 0.0000 13.5776
#
#
#
# Elastic Compliance Matrix: (Units=1/GPa)
#
#
# Indices 1 2 3 4 5 6 
#
# 1 0.049019 -0.004196 -0.008206 0.000000 -0.041058 0.000000
# 2 -0.004196 0.008384 -0.001184 0.000000 0.003182 0.000000
# 3 -0.008206 -0.001184 0.008666 0.000000 0.003149 0.000000
# 4 0.000000 0.000000 0.000000 0.020199 0.000000 -0.001428
# 5 -0.041058 0.003182 0.003149 0.000000 0.058632 0.000000
# 6 0.000000 0.000000 0.000000 -0.001428 0.000000 0.073751
#
#
# Mechanical properties :
#
#
# Convention : Reuss Voigt Hill
#
# Bulk Modulus (GPa) = 25.70928 65.46924 45.58926
# Shear Modulus (GPa) = 19.32074 38.11433 28.71753
#
# Velocity S-wave (km/s) = 2.84482 3.99564 3.46830
# Velocity P-wave (km/s) = 4.64324 6.97928 5.92748
#
# Compressibility (1/GPa) = 0.03889646
#
# Stress axis : x y z
#
# Youngs Moduli (GPa) = 20.40017 119.27923 115.39312
#
# Poissons Ratio (x) = 0.50049 0.94694
# Poissons Ratio (y) = 0.08560 0.13664
# Poissons Ratio (z) = 0.16741 0.14124
#
# Static dielectric constant tensor:
#      x y z
#    x 3.647860 0.000000 0.046350 
#    y 0.000000 4.661240 0.000000 
#    z 0.046350 0.000000 4.735600 
# 
# 
# High freq. dielectric constant tensor:
#      x y z
#    x 1.898950 0.000000 0.006580 
#    y 0.000000 1.968010 0.000000 
#    z 0.006580 0.000000 1.969500 
# 
# From -- ./inp_files/141608.got.cif
#   From: 2010.06.25/outbox.cif.g09.slc.cpg/sg15_71_cif.got.tgz:141608.got - 2010.06.28 07:06:18.
