data_PCOD8147378
_publ_section_title
;
Structure prediction by ZEFSAII (Michael W. Deem and Ramdas Pophale) SiO2 
 PCOD8147378
Probable space group: C 2/C
;
_chemical_formula_sum "Si O2"
_cell_formula_units_Z 60
_cell_length_a 23.946058
_cell_length_b 10.285741
_cell_length_c 17.464655
_cell_angle_alpha 90.000000
_cell_angle_beta 39.994921
_cell_angle_gamma 90.000000
_cell_volume 2764.720531
_symmetry_space_group_name_H-M "C 2/C"
_symmetry_group_IT_number 15
_symmetry_cell_setting 'monoclinic'
loop_
_space_group_symop_operation_xyz
x,y,z
-x,y,1/2-z
-x,-y,-z
x,-y,1/2+z
1/2+x,1/2+y,z
1/2-x,1/2+y,1/2-z
1/2-x,1/2-y,-z
1/2+x,1/2-y,1/2+z
loop_
_atom_site_type_symbol
_atom_site_label
_atom_site_fract_x
_atom_site_fract_y
_atom_site_fract_z
Si Si1 0.632263 0.956518 0.474962
Si Si2 0.041430 0.494428 0.784281
Si Si3 0.291578 0.888778 0.951890
Si Si4 0.188849 0.221935 0.328660
Si Si5 0.500000 0.579826 0.250000
Si Si6 0.654199 0.494694 0.992281
Si Si7 0.367188 0.753620 0.572639
Si Si8 0.057716 0.762957 0.837258
O O1 0.631171 0.111185 0.472759
O O2 0.533341 0.911688 0.594711
O O3 0.700574 0.930797 0.469424
O O4 0.661936 0.871977 0.371451
O O5 0.115964 0.389670 0.688241
O O6 0.076302 0.611951 0.799903
O O7 0.000000 0.554148 0.750000
O O8 0.231431 0.989205 0.971214
O O9 0.250000 0.750000 0.000000
O O10 0.157884 0.123812 0.427704
O O11 0.294845 0.221967 0.214859
O O12 0.139303 0.181710 0.301511
O O13 0.434151 0.487133 0.365578
O O14 0.451298 0.664791 0.235386
O O15 0.668378 0.634822 0.939741
O O16 0.469186 0.721724 0.483141
#
# Coordination Sequence:
#
# PCOD8147378 Si02
#       8
#     8   8   8   8   4   8   8   8
#     4  10  23  42  64  96 127 170 225 265 333 392
#     4   9  19  38  68  94 125 167 228 275 317 394
#     4  11  22  40  64  96 132 172 215 278 334 384
#     4  12  24  42  65  99 137 174 218 277 350 400
#     4  10  24  44  64  98 136 174 228 272 336 408
#     4  11  25  43  65 100 134 178 224 273 338 399
#     4  10  24  43  67  96 131 171 229 277 320 406
#     4  10  22  43  69  97 131 179 225 279 330 392
#
# _framework density 21.702010999999999
#
# number of rings (size 3 to 8) (size 9 to 14) (size 15 to 20)
#    0.000    1.600    2.000    1.600    3.733    6.933 
#    2.400    0.000    0.000    0.000    0.000    0.000 
#    0.000    0.000    0.000    0.000    0.000    0.000 
#
# Total GULP energy -371642.662946 kJ/mol
# GULP energy per Si atom -12388.088765 kJ/mol
# Density = 2.165262 g / cm^3
# Si number density = 21.702011 Si / 1000 Ang^3
#
#
#
# Elastic Constant Matrix: (Units=GPa)
#
#
# Indices 1 2 3 4 5 6 
#
# 1 80.5594 18.3080 23.1351 -0.0001 3.0942 0.0001
# 2 18.3080 92.1728 34.3199 -0.0002 -4.3892 0.0003
# 3 23.1351 34.3199 146.6648 -0.0002 -7.3405 0.0002
# 4 -0.0001 -0.0002 -0.0002 36.8587 0.0000 1.8706
# 5 3.0942 -4.3892 -7.3405 0.0000 26.4144 -0.0001
# 6 0.0001 0.0003 0.0002 1.8706 -0.0001 19.4288
#
#
#
# Elastic Compliance Matrix: (Units=1/GPa)
#
#
# Indices 1 2 3 4 5 6 
#
# 1 0.013496 -0.002145 -0.001748 0.000000 -0.002423 0.000000
# 2 -0.002145 0.012264 -0.002451 0.000000 0.001608 0.000000
# 3 -0.001748 -0.002451 0.007765 0.000000 0.001956 0.000000
# 4 0.000000 0.000000 0.000000 0.027264 0.000000 -0.002625
# 5 -0.002423 0.001608 0.001956 0.000000 0.038953 0.000000
# 6 0.000000 0.000000 0.000000 -0.002625 0.000000 0.051723
#
#
# Mechanical properties :
#
#
# Convention : Reuss Voigt Hill
#
# Bulk Modulus (GPa) = 47.99138 52.32479 50.15809
# Shear Modulus (GPa) = 29.22279 32.78264 31.00272
#
# Velocity S-wave (km/s) = 3.67351 3.89084 3.78374
# Velocity P-wave (km/s) = 6.33678 6.65941 6.50009
#
# Compressibility (1/GPa) = 0.02083707
#
# Stress axis : x y z
#
# Youngs Moduli (GPa) = 74.09704 81.53628 128.77551
#
# Poissons Ratio (x) = 0.17490 0.22512
# Poissons Ratio (y) = 0.15895 0.31564
# Poissons Ratio (z) = 0.12953 0.19985
#
# Static dielectric constant tensor:
#      x y z
#    x 3.711420 0.000000 -0.050930 
#    y 0.000000 3.531320 0.000000 
#    z -0.050930 0.000000 4.392800 
# 
# 
# High freq. dielectric constant tensor:
#      x y z
#    x 1.845910 0.000000 -0.008620 
#    y 0.000000 1.844240 0.000000 
#    z -0.008620 0.000000 1.865250 
# 
# From -- ./inp_files/219305.got.cif
#   From: 2010.06.25/outbox.cif.g09.slc.cpg/sg15_110_cif.got.tgz:219305.got - 2010.06.28 07:06:18.
