data_PCOD8147807
_publ_section_title
;
Structure prediction by ZEFSAII (Michael W. Deem and Ramdas Pophale) SiO2 
 PCOD8147807
Probable space group: C 2/C
;
_chemical_formula_sum "Si O2"
_cell_formula_units_Z 28
_cell_length_a 8.038491
_cell_length_b 10.777798
_cell_length_c 13.790487
_cell_angle_alpha 90.000000
_cell_angle_beta 113.106575
_cell_angle_gamma 90.000000
_cell_volume 1098.920986
_symmetry_space_group_name_H-M "C 2/C"
_symmetry_group_IT_number 15
_symmetry_cell_setting 'monoclinic'
loop_
_space_group_symop_operation_xyz
x,y,z
-x,y,1/2-z
-x,-y,-z
x,-y,1/2+z
1/2+x,1/2+y,z
1/2-x,1/2+y,1/2-z
1/2-x,1/2-y,-z
1/2+x,1/2-y,1/2+z
loop_
_atom_site_type_symbol
_atom_site_label
_atom_site_fract_x
_atom_site_fract_y
_atom_site_fract_z
Si Si1 0.763585 0.443058 0.923116
Si Si2 0.410571 0.949493 0.630887
Si Si3 0.291919 0.295663 0.175305
Si Si4 0.000000 0.781578 0.750000
O O1 0.755328 0.591265 0.905064
O O2 0.583199 0.369896 0.853740
O O3 0.928459 0.389851 0.897216
O O4 0.810343 0.436924 0.049819
O O5 0.500000 0.002645 0.750000
O O6 0.268201 0.839067 0.619696
O O7 0.500000 0.310500 0.250000
O O8 0.155777 0.301717 0.236277
#
# Coordination Sequence:
#
# PCOD8147807 Si02
#       4
#     8   8   8   4
#     4  11  23  43  71  95 134 176 213 273 332 379
#     4  10  22  45  67  96 135 170 220 273 320 393
#     4  11  23  42  67  98 137 167 219 272 321 391
#     4  12  24  40  70 104 124 178 226 252 338 400
#
# _framework density 25.479537000000001
#
# number of rings (size 3 to 8) (size 9 to 14) (size 15 to 20)
#    0.000    1.143    7.143    0.857    2.000    1.143 
#    0.000    5.714    0.000    0.000    0.000    0.000 
#    0.000    0.000    0.000    0.000    0.000    0.000 
#
# Total GULP energy -173516.324886 kJ/mol
# GULP energy per Si atom -12394.023206 kJ/mol
# Density = 2.542154 g / cm^3
# Si number density = 25.479537 Si / 1000 Ang^3
#
#
#
# Elastic Constant Matrix: (Units=GPa)
#
#
# Indices 1 2 3 4 5 6 
#
# 1 143.4460 22.9254 30.7328 0.0000 -3.4559 0.0000
# 2 22.9254 52.6387 20.5239 0.0000 -3.9916 0.0000
# 3 30.7328 20.5239 143.5637 0.0000 -5.0589 0.0000
# 4 0.0000 0.0000 0.0000 -3.5763 0.0000 -8.5083
# 5 -3.4559 -3.9916 -5.0589 0.0000 37.7664 0.0000
# 6 0.0000 0.0000 0.0000 -8.5083 0.0000 23.5772
#
#
#
# Elastic Compliance Matrix: (Units=1/GPa)
#
#
# Indices 1 2 3 4 5 6 
#
# 1 0.007697 -0.002854 -0.001231 0.000000 0.000238 0.000000
# 2 -0.002854 0.021293 -0.002374 0.000000 0.001671 0.000000
# 3 -0.001231 -0.002374 0.007592 0.000000 0.000653 0.000000
# 4 0.000000 0.000000 0.000000 -0.150450 0.000000 -0.054293
# 5 0.000238 0.001671 0.000653 0.000000 0.026764 0.000000
# 6 0.000000 0.000000 0.000000 -0.054293 0.000000 0.022821
#
#
# Mechanical properties :
#
#
# Convention : Reuss Voigt Hill
#
# Bulk Modulus (GPa) = 42.26133 54.22362 48.24247
# Shear Modulus (GPa) = -115.00473 29.25121 -42.87676
#
# Velocity S-wave (km/s) = -6.72563 3.39193 -4.10663
# Velocity P-wave (km/s) = 6.60982 6.05539 1.87377
#
# Compressibility (1/GPa) = 0.02366230
#
# Stress axis : x y z
#
# Youngs Moduli (GPa) = 129.92202 46.96403 131.72510
#
# Poissons Ratio (x) = 0.13404 0.16219
# Poissons Ratio (y) = 0.37081 0.31274
# Poissons Ratio (z) = 0.15997 0.11150
#
# Static dielectric constant tensor:
#      x y z
#    x 4.520130 0.000000 0.058740 
#    y 0.000000 4.555980 0.000000 
#    z 0.058740 0.000000 4.766290 
# 
# 
# High freq. dielectric constant tensor:
#      x y z
#    x 2.015690 0.000000 0.003570 
#    y 0.000000 2.005120 0.000000 
#    z 0.003570 0.000000 2.021540 
# 
# From -- ./inp_files/131587.got.cif
#   From: 2010.06.25/outbox.cif.g09.slc.cpg/sg15_66_cif.got.tgz:131587.got - 2010.06.28 07:06:18.
