data_PCOD8147392
_publ_section_title
;
Structure prediction by ZEFSAII (Michael W. Deem and Ramdas Pophale) SiO2 
 PCOD8147392
Probable space group: C 2/C
;
_chemical_formula_sum "Si O2"
_cell_formula_units_Z 44
_cell_length_a 12.888464
_cell_length_b 20.082347
_cell_length_c 9.195621
_cell_angle_alpha 90.000000
_cell_angle_beta 117.661637
_cell_angle_gamma 90.000000
_cell_volume 2108.072905
_symmetry_space_group_name_H-M "C 2/C"
_symmetry_group_IT_number 15
_symmetry_cell_setting 'monoclinic'
loop_
_space_group_symop_operation_xyz
x,y,z
-x,y,1/2-z
-x,-y,-z
x,-y,1/2+z
1/2+x,1/2+y,z
1/2-x,1/2+y,1/2-z
1/2-x,1/2-y,-z
1/2+x,1/2-y,1/2+z
loop_
_atom_site_type_symbol
_atom_site_label
_atom_site_fract_x
_atom_site_fract_y
_atom_site_fract_z
Si Si1 0.500000 0.126921 0.250000
Si Si2 0.808142 0.934249 0.342447
Si Si3 0.253546 0.932644 0.532316
Si Si4 0.315872 0.810277 0.116720
Si Si5 0.983021 0.284996 0.458940
Si Si6 0.027622 0.855439 0.428849
O O1 0.615963 0.081146 0.322378
O O2 0.513140 0.176175 0.390824
O O3 0.757623 0.877227 0.415052
O O4 0.946427 0.919164 0.413165
O O5 0.792012 0.000804 0.422257
O O6 0.746442 0.938951 0.143549
O O7 0.164709 0.874785 0.528305
O O8 0.354042 0.790102 0.304843
O O9 0.427381 0.822851 0.087809
O O10 0.250000 0.750000 0.000000
O O11 0.007163 0.206119 0.490318
O O12 0.000000 0.830070 0.250000
#
# Coordination Sequence:
#
# PCOD8147392 Si02
#       6
#     4   8   8   8   8   8
#     4  12  26  44  68 102 138 184 230 272 342 412
#     4  11  24  47  67  99 136 178 231 281 337 405
#     4  11  27  43  69  97 138 185 225 278 338 409
#     4  11  24  43  67 101 136 174 226 282 343 398
#     4  11  24  41  69 102 136 177 225 287 340 402
#     4  10  22  43  70 101 132 172 228 287 340 394
#
# _framework density 20.872143000000001
#
# number of rings (size 3 to 8) (size 9 to 14) (size 15 to 20)
#    0.000    1.091    4.545    0.545    5.091    2.909 
#    0.000    0.000    0.000    0.000    0.000    0.000 
#    0.000    0.000    0.000    0.000    0.000    0.000 
#
# Total GULP energy -272729.730468 kJ/mol
# GULP energy per Si atom -12396.805930 kJ/mol
# Density = 2.082464 g / cm^3
# Si number density = 20.872143 Si / 1000 Ang^3
#
#
#
# Elastic Constant Matrix: (Units=GPa)
#
#
# Indices 1 2 3 4 5 6 
#
# 1 103.3678 31.2084 36.2724 0.0000 7.1777 0.0000
# 2 31.2084 83.1388 26.1308 0.0000 -11.8055 0.0000
# 3 36.2724 26.1308 98.9108 0.0000 -3.5835 0.0000
# 4 0.0000 0.0000 0.0000 25.7722 0.0000 -12.2657
# 5 7.1777 -11.8055 -3.5835 0.0000 38.7160 0.0000
# 6 0.0000 0.0000 0.0000 -12.2657 0.0000 38.8519
#
#
#
# Elastic Compliance Matrix: (Units=1/GPa)
#
#
# Indices 1 2 3 4 5 6 
#
# 1 0.012451 -0.004086 -0.003627 0.000000 -0.003890 0.000000
# 2 -0.004086 0.015006 -0.002280 0.000000 0.005122 0.000000
# 3 -0.003627 -0.002280 0.012082 0.000000 0.001096 0.000000
# 4 0.000000 0.000000 0.000000 0.045662 0.000000 0.014416
# 5 -0.003890 0.005122 0.001096 0.000000 0.028214 0.000000
# 6 0.000000 0.000000 0.000000 0.014416 0.000000 0.030290
#
#
# Mechanical properties :
#
#
# Convention : Reuss Voigt Hill
#
# Bulk Modulus (GPa) = 51.14653 52.51562 51.83108
# Shear Modulus (GPa) = 29.37551 33.45509 31.41530
#
# Velocity S-wave (km/s) = 3.75561 4.00791 3.88381
# Velocity P-wave (km/s) = 6.58513 6.82884 6.70810
#
# Compressibility (1/GPa) = 0.01955167
#
# Stress axis : x y z
#
# Youngs Moduli (GPa) = 80.31602 66.64037 82.76449
#
# Poissons Ratio (x) = 0.27229 0.30022
# Poissons Ratio (y) = 0.32817 0.18873
# Poissons Ratio (z) = 0.29134 0.15196
#
# Static dielectric constant tensor:
#      x y z
#    x 4.175790 0.000000 0.122870 
#    y 0.000000 3.495590 0.000000 
#    z 0.122870 0.000000 3.650380 
# 
# 
# High freq. dielectric constant tensor:
#      x y z
#    x 1.826770 0.000000 -0.000280 
#    y 0.000000 1.813240 0.000000 
#    z -0.000280 0.000000 1.826360 
# 
# From -- ./inp_files/31004.got.cif
#   From: 2010.06.25/outbox.cif.g09.slc.cpg/sg15_16_cif.got.tgz:31004.got - 2010.06.28 07:06:18.
