data_PCOD8147490
_publ_section_title
;
Structure prediction by ZEFSAII (Michael W. Deem and Ramdas Pophale) SiO2 
 PCOD8147490
Probable space group: C 2/C
;
_chemical_formula_sum "Si O2"
_cell_formula_units_Z 44
_cell_length_a 17.811317
_cell_length_b 8.675029
_cell_length_c 14.577825
_cell_angle_alpha 90.000000
_cell_angle_beta 62.668217
_cell_angle_gamma 90.000000
_cell_volume 2001.013432
_symmetry_space_group_name_H-M "C 2/C"
_symmetry_group_IT_number 15
_symmetry_cell_setting 'monoclinic'
loop_
_space_group_symop_operation_xyz
x,y,z
-x,y,1/2-z
-x,-y,-z
x,-y,1/2+z
1/2+x,1/2+y,z
1/2-x,1/2+y,1/2-z
1/2-x,1/2-y,-z
1/2+x,1/2-y,1/2+z
loop_
_atom_site_type_symbol
_atom_site_label
_atom_site_fract_x
_atom_site_fract_y
_atom_site_fract_z
Si Si1 0.624799 0.978282 0.796600
Si Si2 0.438404 0.603779 0.430498
Si Si3 0.511352 0.284181 0.406374
Si Si4 0.764551 0.046549 0.075394
Si Si5 0.344108 0.127278 0.527702
Si Si6 0.000000 0.319473 0.250000
O O1 0.641257 0.025138 0.891514
O O2 0.552767 0.081563 0.791823
O O3 0.593086 0.798987 0.815537
O O4 0.711930 0.002178 0.694016
O O5 0.493952 0.452250 0.372524
O O6 0.483384 0.696397 0.486933
O O7 0.344994 0.562259 0.517514
O O8 0.435097 0.712142 0.343537
O O9 0.432694 0.171236 0.430866
O O10 0.791524 0.220722 0.080712
O O11 0.706886 0.027051 0.017733
#
# Coordination Sequence:
#
# PCOD8147490 Si02
#       6
#     8   8   8   8   8   4
#     4  12  25  40  72 101 132 177 234 285 346 401
#     4  10  24  45  67  99 138 177 228 283 343 419
#     4  10  22  45  69  90 135 183 221 278 346 413
#     4  10  25  42  65 100 138 177 226 282 357 404
#     4  10  22  44  63  96 137 175 224 285 338 420
#     4  12  26  42  70 106 128 182 240 278 340 422
#
# _framework density 21.988859000000001
#
# number of rings (size 3 to 8) (size 9 to 14) (size 15 to 20)
#    0.000    1.455    1.818    1.636    5.091    7.273 
#    0.000    0.000    0.000    0.000    0.000    0.000 
#    0.000    0.000    0.000    0.000    0.000    0.000 
#
# Total GULP energy -272852.537353 kJ/mol
# GULP energy per Si atom -12402.388061 kJ/mol
# Density = 2.193881 g / cm^3
# Si number density = 21.988859 Si / 1000 Ang^3
#
#
#
# Elastic Constant Matrix: (Units=GPa)
#
#
# Indices 1 2 3 4 5 6 
#
# 1 91.6615 27.6381 13.3011 0.0000 1.7914 0.0000
# 2 27.6381 89.1355 40.2357 0.0000 -3.8375 0.0000
# 3 13.3011 40.2357 76.8141 0.0000 -14.0377 0.0000
# 4 0.0000 0.0000 0.0000 21.2510 0.0000 -2.5747
# 5 1.7914 -3.8375 -14.0377 0.0000 33.4213 0.0000
# 6 0.0000 0.0000 0.0000 -2.5747 0.0000 18.6294
#
#
#
# Elastic Compliance Matrix: (Units=1/GPa)
#
#
# Indices 1 2 3 4 5 6 
#
# 1 0.012084 -0.003606 -0.000431 0.000000 -0.001243 0.000000
# 2 -0.003606 0.015856 -0.007921 0.000000 -0.001313 0.000000
# 3 -0.000431 -0.007921 0.018500 0.000000 0.006884 0.000000
# 4 0.000000 0.000000 0.000000 0.047858 0.000000 0.006614
# 5 -0.001243 -0.001313 0.006884 0.000000 0.032728 0.000000
# 6 0.000000 0.000000 0.000000 0.006614 0.000000 0.054593
#
#
# Mechanical properties :
#
#
# Convention : Reuss Voigt Hill
#
# Bulk Modulus (GPa) = 44.39585 46.66231 45.52908
# Shear Modulus (GPa) = 23.46953 26.42277 24.94615
#
# Velocity S-wave (km/s) = 3.27056 3.47023 3.37187
# Velocity P-wave (km/s) = 5.87333 6.10931 5.99248
#
# Compressibility (1/GPa) = 0.02252463
#
# Stress axis : x y z
#
# Youngs Moduli (GPa) = 82.75584 63.06780 54.05353
#
# Poissons Ratio (x) = 0.22741 0.02328
# Poissons Ratio (y) = 0.29840 0.42816
# Poissons Ratio (z) = 0.03565 0.49956
#
# Static dielectric constant tensor:
#      x y z
#    x 4.130840 0.000000 -0.030020 
#    y 0.000000 4.009310 0.000000 
#    z -0.030020 0.000000 3.730910 
# 
# 
# High freq. dielectric constant tensor:
#      x y z
#    x 1.872770 0.000000 0.002400 
#    y 0.000000 1.866340 0.000000 
#    z 0.002400 0.000000 1.858690 
# 
# From -- ./inp_files/159208.got.cif
#   From: 2010.06.25/outbox.cif.g09.slc.cpg/sg15_80_cif.got.tgz:159208.got - 2010.06.28 07:06:18.
