data_PCOD8147277
_publ_section_title
;
Structure prediction by ZEFSAII (Michael W. Deem and Ramdas Pophale) SiO2 
 PCOD8147277
Probable space group: C 2/C
;
_chemical_formula_sum "Si O2"
_cell_formula_units_Z 48
_cell_length_a 16.817869
_cell_length_b 10.162874
_cell_length_c 30.154658
_cell_angle_alpha 90.000000
_cell_angle_beta 25.671587
_cell_angle_gamma 90.000000
_cell_volume 2232.762756
_symmetry_space_group_name_H-M "C 2/C"
_symmetry_group_IT_number 15
_symmetry_cell_setting 'monoclinic'
loop_
_space_group_symop_operation_xyz
x,y,z
-x,y,1/2-z
-x,-y,-z
x,-y,1/2+z
1/2+x,1/2+y,z
1/2-x,1/2+y,1/2-z
1/2-x,1/2-y,-z
1/2+x,1/2-y,1/2+z
loop_
_atom_site_type_symbol
_atom_site_label
_atom_site_fract_x
_atom_site_fract_y
_atom_site_fract_z
Si Si1 0.135891 0.531358 0.365757
Si Si2 0.469718 0.202264 0.003422
Si Si3 0.636862 0.051518 0.074183
Si Si4 0.160981 0.750728 0.138826
Si Si5 0.811480 0.716212 0.919803
Si Si6 0.447667 0.506755 0.351125
O O1 0.018730 0.412206 0.444200
O O2 0.336220 0.481196 0.249988
O O3 0.148090 0.646775 0.396073
O O4 0.023429 0.584146 0.380018
O O5 0.649743 0.275091 0.930947
O O6 0.352587 0.305160 0.033272
O O7 0.659789 0.180717 0.092118
O O8 0.580249 0.922953 0.132229
O O9 0.834725 0.020300 0.952857
O O10 0.132451 0.907869 0.146048
O O11 0.000000 0.692165 0.250000
O O12 0.928577 0.842097 0.844010
O O13 0.750000 0.750000 0.000000
#
# Coordination Sequence:
#
# PCOD8147277 Si02
#       6
#     8   8   8   8   8   8
#     4  11  22  39  72  99 128 174 229 268 330 397
#     4  11  21  40  67  98 130 174 223 276 324 399
#     4  11  25  46  64 101 142 167 217 290 330 388
#     4  12  25  42  68 100 140 176 222 274 334 395
#     4  10  22  43  66  92 132 171 216 277 330 387
#     4  11  22  41  73  96 125 182 226 266 327 405
#
# _framework density 21.498028999999999
#
# number of rings (size 3 to 8) (size 9 to 14) (size 15 to 20)
#    0.000    1.000    6.667    1.500    0.000    4.667 
#    3.000    0.000    0.000    0.000    0.000    0.000 
#    0.000    0.000    0.000    0.000    0.000    0.000 
#
# Total GULP energy -297581.442620 kJ/mol
# GULP energy per Si atom -12399.226776 kJ/mol
# Density = 2.144910 g / cm^3
# Si number density = 21.498029 Si / 1000 Ang^3
#
#
#
# Elastic Constant Matrix: (Units=GPa)
#
#
# Indices 1 2 3 4 5 6 
#
# 1 161.1529 32.3029 32.1504 0.0008 -10.5655 -0.0046
# 2 32.3029 68.4120 11.7144 0.0013 0.7347 -0.0044
# 3 32.1504 11.7144 96.6860 -0.0052 -4.8551 0.0030
# 4 0.0008 0.0013 -0.0052 12.8256 -0.0039 0.5409
# 5 -10.5655 0.7347 -4.8551 -0.0039 22.4210 0.0021
# 6 -0.0046 -0.0044 0.0030 0.5409 0.0021 36.5791
#
#
#
# Elastic Compliance Matrix: (Units=1/GPa)
#
#
# Indices 1 2 3 4 5 6 
#
# 1 0.007444 -0.003220 -0.001925 0.000000 0.003197 0.000001
# 2 -0.003220 0.016337 -0.001023 -0.000003 -0.002274 0.000002
# 3 -0.001925 -0.001023 0.011184 0.000005 0.001548 -0.000001
# 4 0.000000 -0.000003 0.000005 0.078018 0.000015 -0.001154
# 5 0.003197 -0.002274 0.001548 0.000015 0.046517 -0.000003
# 6 0.000001 0.000002 -0.000001 -0.001154 -0.000003 0.027355
#
#
# Mechanical properties :
#
#
# Convention : Reuss Voigt Hill
#
# Bulk Modulus (GPa) = 44.18721 53.17624 48.68172
# Shear Modulus (GPa) = 24.18557 31.03735 27.61146
#
# Velocity S-wave (km/s) = 3.35776 3.80377 3.58770
# Velocity P-wave (km/s) = 5.96921 6.63932 6.31316
#
# Compressibility (1/GPa) = 0.02263098
#
# Stress axis : x y z
#
# Youngs Moduli (GPa) = 134.33153 61.20988 89.40956
#
# Poissons Ratio (x) = 0.19708 0.17209
# Poissons Ratio (y) = 0.43252 0.09146
# Poissons Ratio (z) = 0.25856 0.06261
#
# Static dielectric constant tensor:
#      x y z
#    x 3.878320 0.000000 0.000470 
#    y 0.000000 4.121860 0.000010 
#    z 0.000470 0.000010 3.864290 
# 
# 
# High freq. dielectric constant tensor:
#      x y z
#    x 1.852620 0.000000 -0.002340 
#    y 0.000000 1.827680 0.000000 
#    z -0.002340 0.000000 1.828720 
# 
# From -- ./inp_files/296028.got.cif
#   From: 2010.06.25/outbox.cif.g09.slc.cpg/sg15_149_cif.got.tgz:296028.got - 2010.06.28 07:06:18.
