data_PCOD8147032
_publ_section_title
;
Structure prediction by ZEFSAII (Michael W. Deem and Ramdas Pophale) SiO2 
 PCOD8147032
Probable space group: C 2/C
;
_chemical_formula_sum "Si O2"
_cell_formula_units_Z 24
_cell_length_a 9.280520
_cell_length_b 9.519333
_cell_length_c 13.934029
_cell_angle_alpha 90.000000
_cell_angle_beta 40.378547
_cell_angle_gamma 90.000000
_cell_volume 797.479922
_symmetry_space_group_name_H-M "C 2/C"
_symmetry_group_IT_number 15
_symmetry_cell_setting 'monoclinic'
loop_
_space_group_symop_operation_xyz
x,y,z
-x,y,1/2-z
-x,-y,-z
x,-y,1/2+z
1/2+x,1/2+y,z
1/2-x,1/2+y,1/2-z
1/2-x,1/2-y,-z
1/2+x,1/2-y,1/2+z
loop_
_atom_site_type_symbol
_atom_site_label
_atom_site_fract_x
_atom_site_fract_y
_atom_site_fract_z
Si Si1 0.309749 0.562299 0.420506
Si Si2 0.246342 0.511632 0.156809
Si Si3 0.847759 0.329047 0.124579
O O1 0.500000 0.612797 0.250000
O O2 0.400897 0.541607 0.485670
O O3 0.196309 0.411460 0.453037
O O4 0.112216 0.678480 0.514886
O O5 0.244797 0.676676 0.177754
O O6 0.000000 0.468852 0.250000
O O7 0.703447 0.579477 0.773670
#
# Coordination Sequence:
#
# PCOD8147032 Si02
#       3
#     8   8   8
#     4  10  22  42  69 103 141 183 231 288 352 419
#     4  10  22  45  73 102 138 182 234 291 349 416
#     4  10  22  43  72 102 137 187 235 283 353 419
#
# _framework density 30.094798999999998
#
# number of rings (size 3 to 8) (size 9 to 14) (size 15 to 20)
#    0.000    2.000    0.000    2.000    0.000    6.667 
#    0.000   20.000    0.000    0.000    0.000    2.333 
#    0.000    0.000    0.000    0.000    0.000    0.000 
#
# Total GULP energy -148938.588698 kJ/mol
# GULP energy per Si atom -12411.549058 kJ/mol
# Density = 3.002630 g / cm^3
# Si number density = 30.094799 Si / 1000 Ang^3
#
#
#
# Elastic Constant Matrix: (Units=GPa)
#
#
# Indices 1 2 3 4 5 6 
#
# 1 146.2523 3.3415 13.8664 -0.0001 33.4324 0.0000
# 2 3.3415 94.0782 9.5289 -0.0002 19.7804 0.0001
# 3 13.8664 9.5289 187.1179 -0.0010 12.5435 0.0003
# 4 -0.0001 -0.0002 -0.0010 42.9115 0.0003 -15.7022
# 5 33.4324 19.7804 12.5435 0.0003 51.9381 -0.0001
# 6 0.0000 0.0001 0.0003 -15.7022 -0.0001 16.6211
#
#
#
# Elastic Compliance Matrix: (Units=1/GPa)
#
#
# Indices 1 2 3 4 5 6 
#
# 1 0.008097 0.000894 -0.000278 0.000000 -0.005486 0.000000
# 2 0.000894 0.011670 -0.000329 0.000000 -0.004940 0.000000
# 3 -0.000278 -0.000329 0.005449 0.000000 -0.001012 0.000000
# 4 0.000000 0.000000 0.000000 0.035616 0.000000 0.033647
# 5 -0.005486 -0.004940 -0.001012 0.000000 0.024911 0.000000
# 6 0.000000 0.000000 0.000000 0.033647 0.000000 0.091951
#
#
# Mechanical properties :
#
#
# Convention : Reuss Voigt Hill
#
# Bulk Modulus (GPa) = 38.77468 53.43577 46.10522
# Shear Modulus (GPa) = 26.92259 49.00823 37.96541
#
# Velocity S-wave (km/s) = 2.99422 4.03980 3.55565
# Velocity P-wave (km/s) = 4.98658 6.28922 5.67540
#
# Compressibility (1/GPa) = 0.02579003
#
# Stress axis : x y z
#
# Youngs Moduli (GPa) = 123.49651 85.69136 183.50602
#
# Poissons Ratio (x) = -0.07660 0.05099
# Poissons Ratio (y) = -0.11040 0.06044
# Poissons Ratio (z) = 0.03431 0.02822
#
# Static dielectric constant tensor:
#      x y z
#    x 6.507110 0.000000 -0.097010 
#    y 0.000000 4.958570 0.000000 
#    z -0.097010 0.000000 6.435710 
# 
# 
# High freq. dielectric constant tensor:
#      x y z
#    x 2.275180 0.000000 -0.024610 
#    y 0.000000 2.225460 0.000000 
#    z -0.024610 0.000000 2.264310 
# 
# From -- ./inp_files/27069.got.cif
#   From: 2010.06.25/outbox.cif.g09.slc.cpg/sg15_14_cif.got.tgz:27069.got - 2010.06.28 07:06:18.
