data_PCOD8147637
_publ_section_title
;
Structure prediction by ZEFSAII (Michael W. Deem and Ramdas Pophale) SiO2 
 PCOD8147637
Probable space group: C 2/C
;
_chemical_formula_sum "Si O2"
_cell_formula_units_Z 52
_cell_length_a 20.194617
_cell_length_b 11.937746
_cell_length_c 11.879474
_cell_angle_alpha 90.000000
_cell_angle_beta 62.728485
_cell_angle_gamma 90.000000
_cell_volume 2545.547881
_symmetry_space_group_name_H-M "C 2/C"
_symmetry_group_IT_number 15
_symmetry_cell_setting 'monoclinic'
loop_
_space_group_symop_operation_xyz
x,y,z
-x,y,1/2-z
-x,-y,-z
x,-y,1/2+z
1/2+x,1/2+y,z
1/2-x,1/2+y,1/2-z
1/2-x,1/2-y,-z
1/2+x,1/2-y,1/2+z
loop_
_atom_site_type_symbol
_atom_site_label
_atom_site_fract_x
_atom_site_fract_y
_atom_site_fract_z
Si Si1 0.833642 0.977413 0.942104
Si Si2 0.000000 0.230865 0.750000
Si Si3 0.577219 0.710103 0.246151
Si Si4 0.555742 0.595171 0.494958
Si Si5 0.749872 0.845327 0.366590
Si Si6 0.847983 0.651848 0.347008
Si Si7 0.192437 0.405685 0.170388
O O1 0.896502 0.901122 0.837910
O O2 0.811399 0.071179 0.869305
O O3 0.762302 0.902869 0.030922
O O4 0.866303 0.038841 0.027557
O O5 0.019076 0.154806 0.629483
O O6 0.068066 0.309037 0.732279
O O7 0.500000 0.748109 0.250000
O O8 0.570049 0.684605 0.384544
O O9 0.635014 0.809871 0.180066
O O10 0.500000 0.500000 0.500000
O O11 0.790386 0.725567 0.317267
O O12 0.678142 0.834941 0.503245
O O13 0.721292 0.890750 0.272593
O O14 0.847412 0.525314 0.304672
#
# Coordination Sequence:
#
# PCOD8147637 Si02
#       7
#     8   4   8   8   8   8   8
#     4  11  23  44  69  99 129 174 227 278 328 395
#     4  12  24  44  68  98 132 178 228 264 334 402
#     4  12  26  44  65 100 140 170 217 279 340 396
#     4  12  24  43  69 102 135 173 224 283 331 384
#     4  10  22  44  68  95 128 172 230 278 322 391
#     4  10  24  43  65  94 132 175 221 270 329 404
#     4  11  26  42  69  95 136 179 216 275 335 405
#
# _framework density 20.427821999999999
#
# number of rings (size 3 to 8) (size 9 to 14) (size 15 to 20)
#    0.000    0.923    3.077    3.231    9.692    0.000 
#    5.538    1.538    0.000    0.000    0.000    0.000 
#    0.000    0.000    0.000    0.000    0.000    0.000 
#
# Total GULP energy -322544.356369 kJ/mol
# GULP energy per Si atom -12405.552168 kJ/mol
# Density = 2.038133 g / cm^3
# Si number density = 20.427822 Si / 1000 Ang^3
#
#
#
# Elastic Constant Matrix: (Units=GPa)
#
#
# Indices 1 2 3 4 5 6 
#
# 1 108.3042 41.6861 34.3336 0.0000 2.4219 0.0000
# 2 41.6861 98.0551 39.1616 0.0000 -4.6321 0.0000
# 3 34.3336 39.1616 89.5470 0.0000 3.6221 0.0000
# 4 0.0000 0.0000 0.0000 31.9537 0.0000 -7.4055
# 5 2.4219 -4.6321 3.6221 0.0000 33.1361 0.0000
# 6 0.0000 0.0000 0.0000 -7.4055 0.0000 24.1386
#
#
#
# Elastic Compliance Matrix: (Units=1/GPa)
#
#
# Indices 1 2 3 4 5 6 
#
# 1 0.011620 -0.003914 -0.002699 0.000000 -0.001101 0.000000
# 2 -0.003914 0.013856 -0.004670 0.000000 0.002734 0.000000
# 3 -0.002699 -0.004670 0.014326 0.000000 -0.002022 0.000000
# 4 0.000000 0.000000 0.000000 0.033691 0.000000 0.010336
# 5 -0.001101 0.002734 -0.002022 0.000000 0.030862 0.000000
# 6 0.000000 0.000000 0.000000 0.010336 0.000000 0.044598
#
#
# Mechanical properties :
#
#
# Convention : Reuss Voigt Hill
#
# Bulk Modulus (GPa) = 58.01458 58.47433 58.24446
# Shear Modulus (GPa) = 28.20631 29.89401 29.05016
#
# Velocity S-wave (km/s) = 3.71992 3.82959 3.77515
# Velocity P-wave (km/s) = 6.84922 6.94560 6.89758
#
# Compressibility (1/GPa) = 0.01723705
#
# Stress axis : x y z
#
# Youngs Moduli (GPa) = 86.05832 72.16838 69.80257
#
# Poissons Ratio (x) = 0.28248 0.18840
# Poissons Ratio (y) = 0.33684 0.32596
# Poissons Ratio (z) = 0.23227 0.33700
#
# Static dielectric constant tensor:
#      x y z
#    x 3.408060 0.000000 0.197250 
#    y 0.000000 3.883340 0.000000 
#    z 0.197250 0.000000 3.564020 
# 
# 
# High freq. dielectric constant tensor:
#      x y z
#    x 1.810840 0.000000 -0.004830 
#    y 0.000000 1.806890 0.000000 
#    z -0.004830 0.000000 1.797360 
# 
# From -- ./inp_files/111518.got.cif
#   From: 2010.06.25/outbox.cif.g09.slc.cpg/sg15_56_cif.got.tgz:111518.got - 2010.06.28 07:06:18.
