data_PCOD8147705
_publ_section_title
;
Structure prediction by ZEFSAII (Michael W. Deem and Ramdas Pophale) SiO2 
 PCOD8147705
Probable space group: C 2/C
;
_chemical_formula_sum "Si O2"
_cell_formula_units_Z 56
_cell_length_a 21.228073
_cell_length_b 27.276205
_cell_length_c 8.619595
_cell_angle_alpha 90.000000
_cell_angle_beta 31.993570
_cell_angle_gamma 90.000000
_cell_volume 2644.314332
_symmetry_space_group_name_H-M "C 2/C"
_symmetry_group_IT_number 15
_symmetry_cell_setting 'monoclinic'
loop_
_space_group_symop_operation_xyz
x,y,z
-x,y,1/2-z
-x,-y,-z
x,-y,1/2+z
1/2+x,1/2+y,z
1/2-x,1/2+y,1/2-z
1/2-x,1/2-y,-z
1/2+x,1/2-y,1/2+z
loop_
_atom_site_type_symbol
_atom_site_label
_atom_site_fract_x
_atom_site_fract_y
_atom_site_fract_z
Si Si1 0.500000 0.903823 0.250000
Si Si2 0.689694 0.450433 0.129302
Si Si3 0.361851 0.301416 0.573988
Si Si4 0.730424 0.043973 0.380024
Si Si5 0.500000 0.420673 0.750000
Si Si6 0.802305 0.350960 0.840826
Si Si7 0.692037 0.627882 0.053203
Si Si8 0.361335 0.192889 0.524013
O O1 0.404363 0.939320 0.368614
O O2 0.431163 0.867853 0.510165
O O3 0.774877 0.490815 0.029981
O O4 0.560561 0.453439 0.485367
O O5 0.688431 0.458772 0.945689
O O6 0.742186 0.396964 0.052539
O O7 0.282542 0.332280 0.619026
O O8 0.353902 0.325310 0.758042
O O9 0.315169 0.245569 0.680624
O O10 0.500000 0.302849 0.250000
O O11 0.790004 0.081465 0.374265
O O12 0.402570 0.385527 0.879245
O O13 0.822385 0.308869 0.925032
O O14 0.811964 0.646491 0.721623
O O15 0.500000 0.188330 0.250000
#
# Coordination Sequence:
#
# PCOD8147705 Si02
#       8
#     4   8   8   8   4   8   8   8
#     4  10  22  44  71 100 134 174 219 274 334 392
#     4  11  24  44  65 102 130 180 217 274 328 406
#     4  11  24  44  69  96 135 176 226 279 337 395
#     4  11  25  43  71  98 139 174 225 268 339 400
#     4  12  26  44  71  98 138 172 229 272 344 390
#     4  11  22  46  69  99 136 175 224 276 337 398
#     4  12  24  44  68 101 136 177 222 282 333 401
#     4  11  25  43  68  99 134 175 229 276 334 397
#
# _framework density 21.177513000000001
#
# number of rings (size 3 to 8) (size 9 to 14) (size 15 to 20)
#    0.000    0.857    4.286    3.429    0.000    4.571 
#    1.286    0.000    0.000    0.000    0.000    0.000 
#    0.000    0.000    0.000    0.000    0.000    0.000 
#
# Total GULP energy -347140.265449 kJ/mol
# GULP energy per Si atom -12397.866623 kJ/mol
# Density = 2.112931 g / cm^3
# Si number density = 21.177513 Si / 1000 Ang^3
#
#
#
# Elastic Constant Matrix: (Units=GPa)
#
#
# Indices 1 2 3 4 5 6 
#
# 1 115.1642 57.7343 42.3122 0.0000 5.7851 -0.0031
# 2 57.7343 104.3051 36.1426 -0.0001 -0.7556 -0.0003
# 3 42.3122 36.1426 113.7725 0.0000 6.4629 -0.0031
# 4 0.0000 -0.0001 0.0000 30.8045 0.0000 -4.0892
# 5 5.7851 -0.7556 6.4629 0.0000 29.4256 0.0022
# 6 -0.0031 -0.0003 -0.0031 -4.0892 0.0022 -18.5217
#
#
#
# Elastic Compliance Matrix: (Units=1/GPa)
#
#
# Indices 1 2 3 4 5 6 
#
# 1 0.012899 -0.006219 -0.002702 0.000000 -0.002102 -0.000002
# 2 -0.006219 0.013803 -0.002189 0.000000 0.002058 0.000001
# 3 -0.002702 -0.002189 0.010595 0.000000 -0.001852 -0.000001
# 4 0.000000 0.000000 0.000000 0.031539 0.000001 -0.006963
# 5 -0.002102 0.002058 -0.001852 0.000001 0.034857 0.000005
# 6 -0.000002 0.000001 -0.000001 -0.006963 0.000005 -0.052454
#
#
# Mechanical properties :
#
#
# Convention : Reuss Voigt Hill
#
# Bulk Modulus (GPa) = 66.32563 67.29109 66.80836
# Shear Modulus (GPa) = 63.70652 21.47853 42.59253
#
# Velocity S-wave (km/s) = 5.49067 3.18813 4.48952
# Velocity P-wave (km/s) = 8.46070 6.73765 7.64786
#
# Compressibility (1/GPa) = 0.01507713
#
# Stress axis : x y z
#
# Youngs Moduli (GPa) = 77.52338 72.44881 94.38393
#
# Poissons Ratio (x) = 0.45055 0.25505
# Poissons Ratio (y) = 0.48210 0.20660
# Poissons Ratio (z) = 0.20949 0.15858
#
# Static dielectric constant tensor:
#      x y z
#    x 3.928020 0.000000 0.301080 
#    y 0.000000 4.028040 0.000000 
#    z 0.301080 0.000000 4.201620 
# 
# 
# High freq. dielectric constant tensor:
#      x y z
#    x 1.836480 0.000000 0.010190 
#    y 0.000000 1.838530 0.000000 
#    z 0.010190 0.000000 1.836010 
# 
# From -- ./inp_files/59360.got.cif
#   From: 2010.06.25/outbox.cif.g09.slc.cpg/sg15_30_cif.got.tgz:59360.got - 2010.06.28 07:06:18.
