data_PCOD8147951
_publ_section_title
;
Structure prediction by ZEFSAII (Michael W. Deem and Ramdas Pophale) SiO2 
 PCOD8147951
Probable space group: C 2/C
;
_chemical_formula_sum "Si O2"
_cell_formula_units_Z 44
_cell_length_a 14.420020
_cell_length_b 10.366589
_cell_length_c 14.090929
_cell_angle_alpha 90.000000
_cell_angle_beta 72.166778
_cell_angle_gamma 90.000000
_cell_volume 2005.194070
_symmetry_space_group_name_H-M "C 2/C"
_symmetry_group_IT_number 15
_symmetry_cell_setting 'monoclinic'
loop_
_space_group_symop_operation_xyz
x,y,z
-x,y,1/2-z
-x,-y,-z
x,-y,1/2+z
1/2+x,1/2+y,z
1/2-x,1/2+y,1/2-z
1/2-x,1/2-y,-z
1/2+x,1/2-y,1/2+z
loop_
_atom_site_type_symbol
_atom_site_label
_atom_site_fract_x
_atom_site_fract_y
_atom_site_fract_z
Si Si1 0.926722 0.584683 0.466362
Si Si2 0.447477 0.320773 0.041955
Si Si3 0.000000 0.381120 0.750000
Si Si4 0.690063 0.793091 0.786960
Si Si5 0.043500 0.025049 0.138500
Si Si6 0.244263 0.941870 0.150468
O O1 0.818703 0.562084 0.538963
O O2 0.000000 0.500000 0.500000
O O3 0.957262 0.732443 0.472648
O O4 0.942765 0.540157 0.350985
O O5 0.341827 0.258809 0.099628
O O6 0.463520 0.442476 0.106351
O O7 0.433521 0.353934 0.935761
O O8 0.915700 0.294895 0.730567
O O9 0.756732 0.689844 0.709023
O O10 0.740022 0.933354 0.785065
O O11 0.140101 0.944359 0.132858
O O12 0.000000 0.079051 0.250000
#
# Coordination Sequence:
#
# PCOD8147951 Si02
#       6
#     8   8   4   8   8   8
#     4  11  23  45  66 104 131 177 226 281 341 399
#     4  10  23  45  69  94 141 177 227 285 340 407
#     4  10  22  46  72  92 144 184 216 288 342 408
#     4  11  24  44  69 103 138 179 230 279 341 410
#     4  11  24  44  69  99 138 183 224 283 345 407
#     4  12  25  43  72 104 137 180 235 276 343 410
#
# _framework density 21.943014999999999
#
# number of rings (size 3 to 8) (size 9 to 14) (size 15 to 20)
#    0.000    1.091    5.455    2.182    3.818    5.091 
#    4.909    0.000    0.000    0.000    0.000    0.000 
#    0.000    0.000    0.000    0.000    0.000    0.000 
#
# Total GULP energy -272597.993122 kJ/mol
# GULP energy per Si atom -12390.817869 kJ/mol
# Density = 2.189307 g / cm^3
# Si number density = 21.943015 Si / 1000 Ang^3
#
#
#
# Elastic Constant Matrix: (Units=GPa)
#
#
# Indices 1 2 3 4 5 6 
#
# 1 51.8116 11.8736 34.8008 0.0000 -17.0161 0.0000
# 2 11.8736 87.8305 50.4869 0.0000 0.1035 0.0000
# 3 34.8008 50.4869 192.4714 0.0000 -18.8766 0.0000
# 4 0.0000 0.0000 0.0000 35.0707 0.0000 -6.6227
# 5 -17.0161 0.1035 -18.8766 0.0000 34.9157 0.0000
# 6 0.0000 0.0000 0.0000 -6.6227 0.0000 27.6435
#
#
#
# Elastic Compliance Matrix: (Units=1/GPa)
#
#
# Indices 1 2 3 4 5 6 
#
# 1 0.025248 -0.001650 -0.003089 0.000000 0.010639 0.000000
# 2 -0.001650 0.013655 -0.003555 0.000000 -0.002767 0.000000
# 3 -0.003089 -0.003555 0.006906 0.000000 0.002239 0.000000
# 4 0.000000 0.000000 0.000000 0.029865 0.000000 0.007155
# 5 0.010639 -0.002767 0.002239 0.000000 0.035044 0.000000
# 6 0.000000 0.000000 0.000000 0.007155 0.000000 0.037889
#
#
# Mechanical properties :
#
#
# Convention : Reuss Voigt Hill
#
# Bulk Modulus (GPa) = 34.22137 58.49290 46.35714
# Shear Modulus (GPa) = 28.58198 35.18946 31.88572
#
# Velocity S-wave (km/s) = 3.61301 4.00894 3.81611
# Velocity P-wave (km/s) = 5.74757 6.93854 6.37094
#
# Compressibility (1/GPa) = 0.02922151
#
# Stress axis : x y z
#
# Youngs Moduli (GPa) = 39.60756 73.23148 144.79953
#
# Poissons Ratio (x) = 0.12085 0.44724
# Poissons Ratio (y) = 0.06536 0.51474
# Poissons Ratio (z) = 0.12234 0.26033
#
# Static dielectric constant tensor:
#      x y z
#    x 3.407310 0.000000 0.425980 
#    y 0.000000 3.802300 0.000000 
#    z 0.425980 0.000000 3.197120 
# 
# 
# High freq. dielectric constant tensor:
#      x y z
#    x 1.846580 0.000000 -0.010170 
#    y 0.000000 1.849360 0.000000 
#    z -0.010170 0.000000 1.883120 
# 
# From -- ./inp_files/95003.got.cif
#   From: 2010.06.25/outbox.cif.g09.slc.cpg/sg15_48_cif.got.tgz:95003.got - 2010.06.28 07:06:18.
