data_PCOD8147464
_publ_section_title
;
Structure prediction by ZEFSAII (Michael W. Deem and Ramdas Pophale) SiO2 
 PCOD8147464
Probable space group: C 2/C
;
_chemical_formula_sum "Si O2"
_cell_formula_units_Z 48
_cell_length_a 13.588421
_cell_length_b 11.656071
_cell_length_c 27.442705
_cell_angle_alpha 90.000000
_cell_angle_beta 33.471636
_cell_angle_gamma 90.000000
_cell_volume 2397.245957
_symmetry_space_group_name_H-M "C 2/C"
_symmetry_group_IT_number 15
_symmetry_cell_setting 'monoclinic'
loop_
_space_group_symop_operation_xyz
x,y,z
-x,y,1/2-z
-x,-y,-z
x,-y,1/2+z
1/2+x,1/2+y,z
1/2-x,1/2+y,1/2-z
1/2-x,1/2-y,-z
1/2+x,1/2-y,1/2+z
loop_
_atom_site_type_symbol
_atom_site_label
_atom_site_fract_x
_atom_site_fract_y
_atom_site_fract_z
Si Si1 0.330321 0.205555 0.719869
Si Si2 0.513004 0.619953 0.690125
Si Si3 0.846137 0.874267 0.114652
Si Si4 0.007291 0.935543 0.612473
Si Si5 0.173230 0.438883 0.086341
Si Si6 0.238340 0.802208 0.951398
O O1 0.174931 0.174627 0.746798
O O2 0.256092 0.209153 0.805751
O O3 0.400637 0.330700 0.678638
O O4 0.481483 0.109503 0.651207
O O5 0.500000 0.571211 0.750000
O O6 0.567741 0.517905 0.631455
O O7 0.665636 0.717651 0.625979
O O8 0.723227 0.893003 0.118995
O O9 0.882828 0.996134 0.125727
O O10 0.032511 0.817468 0.020947
O O11 0.184209 0.892759 0.511875
O O12 0.161365 0.576133 0.090762
O O13 0.250000 0.750000 0.000000
#
# Coordination Sequence:
#
# PCOD8147464 Si02
#       6
#     8   8   8   8   8   8
#     4  11  24  40  63  92 130 162 208 265 309 369
#     4  11  26  40  63  93 124 169 211 253 312 376
#     4  10  23  40  66  98 120 163 217 259 313 371
#     4  10  22  44  59  92 132 159 203 267 312 372
#     4  11  23  40  69  95 121 166 212 258 323 367
#     4  11  20  42  66  92 127 162 208 264 307 367
#
# _framework density 20.022977000000001
#
# number of rings (size 3 to 8) (size 9 to 14) (size 15 to 20)
#    0.000    1.333    5.000    3.000    9.333    1.333 
#    0.000    0.833    0.000    0.000    0.000    0.000 
#    0.000    0.000    0.000    0.000    0.000    0.000 
#
# Total GULP energy -297691.908658 kJ/mol
# GULP energy per Si atom -12403.829527 kJ/mol
# Density = 1.997740 g / cm^3
# Si number density = 20.022977 Si / 1000 Ang^3
#
#
#
# Elastic Constant Matrix: (Units=GPa)
#
#
# Indices 1 2 3 4 5 6 
#
# 1 79.3521 39.6223 43.2448 0.0000 15.3938 0.0000
# 2 39.6223 79.0582 54.1593 0.0001 -3.0500 0.0000
# 3 43.2448 54.1593 128.2880 -0.0001 0.1170 0.0002
# 4 0.0000 0.0001 -0.0001 38.8886 0.0000 -4.0684
# 5 15.3938 -3.0500 0.1170 0.0000 29.8305 0.0000
# 6 0.0000 0.0000 0.0002 -4.0684 0.0000 12.0402
#
#
#
# Elastic Compliance Matrix: (Units=1/GPa)
#
#
# Indices 1 2 3 4 5 6 
#
# 1 0.021081 -0.008664 -0.003438 0.000000 -0.011751 0.000000
# 2 -0.008664 0.021459 -0.006145 0.000000 0.006689 0.000000
# 3 -0.003438 -0.006145 0.011547 0.000000 0.001101 0.000000
# 4 0.000000 0.000000 0.000000 0.026657 0.000000 0.009007
# 5 -0.011751 0.006689 0.001101 0.000000 0.040266 0.000000
# 6 0.000000 0.000000 0.000000 0.009007 0.000000 0.086098
#
#
# Mechanical properties :
#
#
# Convention : Reuss Voigt Hill
#
# Bulk Modulus (GPa) = 56.83788 62.30567 59.57178
# Shear Modulus (GPa) = 20.04279 26.12999 23.08639
#
# Velocity S-wave (km/s) = 3.16727 3.61640 3.39926
# Velocity P-wave (km/s) = 6.46711 6.97298 6.72480
#
# Compressibility (1/GPa) = 0.01759390
#
# Stress axis : x y z
#
# Youngs Moduli (GPa) = 47.43531 46.60155 86.60204
#
# Poissons Ratio (x) = 0.40374 0.29775
# Poissons Ratio (y) = 0.41096 0.53215
# Poissons Ratio (z) = 0.16309 0.28636
#
# Static dielectric constant tensor:
#      x y z
#    x 3.507730 0.000000 -0.041280 
#    y 0.000000 3.728990 0.000000 
#    z -0.041280 0.000000 4.058500 
# 
# 
# High freq. dielectric constant tensor:
#      x y z
#    x 1.772180 0.000000 0.001760 
#    y 0.000000 1.775980 0.000000 
#    z 0.001760 0.000000 1.801520 
# 
# From -- ./inp_files/237422.got.cif
#   From: 2010.06.25/outbox.cif.g09.slc.cpg/sg15_119_cif.got.tgz:237422.got - 2010.06.28 07:06:18.
