data_PCOD8147563
_publ_section_title
;
Structure prediction by ZEFSAII (Michael W. Deem and Ramdas Pophale) SiO2 
 PCOD8147563
Probable space group: C 2/C
;
_chemical_formula_sum "Si O2"
_cell_formula_units_Z 56
_cell_length_a 8.698315
_cell_length_b 26.284654
_cell_length_c 20.019048
_cell_angle_alpha 90.000000
_cell_angle_beta 147.458284
_cell_angle_gamma 90.000000
_cell_volume 2462.029654
_symmetry_space_group_name_H-M "C 2/C"
_symmetry_group_IT_number 15
_symmetry_cell_setting 'monoclinic'
loop_
_space_group_symop_operation_xyz
x,y,z
-x,y,1/2-z
-x,-y,-z
x,-y,1/2+z
1/2+x,1/2+y,z
1/2-x,1/2+y,1/2-z
1/2-x,1/2-y,-z
1/2+x,1/2-y,1/2+z
loop_
_atom_site_type_symbol
_atom_site_label
_atom_site_fract_x
_atom_site_fract_y
_atom_site_fract_z
Si Si1 0.023121 0.486165 0.897162
Si Si2 0.000000 0.957431 0.250000
Si Si3 0.558159 0.594272 0.909147
Si Si4 0.576460 0.707841 0.663510
Si Si5 0.487294 0.755200 0.495472
Si Si6 0.341217 0.179092 0.550652
Si Si7 0.500000 0.946009 0.750000
Si Si8 0.111153 0.076987 0.510174
O O1 0.899061 0.479224 0.776880
O O2 0.294348 0.523784 0.987700
O O3 0.780620 0.507006 0.858641
O O4 0.133567 0.432578 0.967613
O O5 0.942173 0.923104 0.294184
O O6 0.576121 0.655303 0.915687
O O7 0.350455 0.578061 0.894923
O O8 0.623293 0.744536 0.617370
O O9 0.877589 0.698889 0.808166
O O10 0.354752 0.737265 0.629989
O O11 0.627272 0.806674 0.515816
O O12 0.559616 0.707168 0.474959
O O13 0.310812 0.119179 0.548985
O O14 0.223691 0.912571 0.628097
#
# Coordination Sequence:
#
# PCOD8147563 Si02
#       8
#     8   4   8   8   8   8   4   8
#     4  11  23  42  65  98 140 175 222 268 326 401
#     4  12  24  38  64 101 140 179 212 276 332 378
#     4  11  24  40  67  98 130 177 224 266 324 397
#     4  11  23  44  69  95 136 171 218 278 329 399
#     4  10  24  43  65  99 131 167 223 276 335 386
#     4  11  23  44  70 102 126 173 223 274 330 399
#     4  10  22  44  66  95 142 181 216 280 332 388
#     4  11  23  43  69 100 133 175 230 267 330 406
#
# _framework density 22.745462
#
# number of rings (size 3 to 8) (size 9 to 14) (size 15 to 20)
#    0.000    1.143    1.429    5.571    4.000    1.143 
#    5.143    2.857    0.000    0.000    0.000    0.000 
#    0.000    0.000    0.000    0.000    0.000    0.000 
#
# Total GULP energy -347104.183662 kJ/mol
# GULP energy per Si atom -12396.577988 kJ/mol
# Density = 2.269369 g / cm^3
# Si number density = 22.745462 Si / 1000 Ang^3
#
#
#
# Elastic Constant Matrix: (Units=GPa)
#
#
# Indices 1 2 3 4 5 6 
#
# 1 128.5155 54.3838 41.8553 0.0025 5.3789 -0.0008
# 2 54.3838 96.6629 51.3526 -0.0015 -4.4366 0.0003
# 3 41.8553 51.3526 105.9862 0.0269 6.5796 -0.0035
# 4 0.0025 -0.0015 0.0269 31.3319 -0.0007 2.4807
# 5 5.3789 -4.4366 6.5796 -0.0007 31.3958 0.0001
# 6 -0.0008 0.0003 -0.0035 2.4807 0.0001 35.9802
#
#
#
# Elastic Compliance Matrix: (Units=1/GPa)
#
#
# Indices 1 2 3 4 5 6 
#
# 1 0.010590 -0.005270 -0.001489 0.000000 -0.002247 0.000000
# 2 -0.005270 0.016928 -0.006409 0.000007 0.004638 -0.000001
# 3 -0.001489 -0.006409 0.013342 -0.000012 -0.003447 0.000002
# 4 0.000000 0.000007 -0.000012 0.032092 0.000004 -0.002213
# 5 -0.002247 0.004638 -0.003447 0.000004 0.033614 -0.000001
# 6 0.000000 -0.000001 0.000002 -0.002213 -0.000001 0.027946
#
#
# Mechanical properties :
#
#
# Convention : Reuss Voigt Hill
#
# Bulk Modulus (GPa) = 68.84916 69.59423 69.22169
# Shear Modulus (GPa) = 30.17694 31.97977 31.07835
#
# Velocity S-wave (km/s) = 3.64637 3.75371 3.70043
# Velocity P-wave (km/s) = 6.93276 7.03211 6.98261
#
# Compressibility (1/GPa) = 0.01452450
#
# Stress axis : x y z
#
# Youngs Moduli (GPa) = 94.42460 59.07440 74.94941
#
# Poissons Ratio (x) = 0.31134 0.11162
# Poissons Ratio (y) = 0.49765 0.48031
# Poissons Ratio (z) = 0.14062 0.37858
#
# Static dielectric constant tensor:
#      x y z
#    x 4.421310 0.000000 -0.055870 
#    y 0.000000 4.007820 0.000010 
#    z -0.055870 0.000010 3.794350 
# 
# 
# High freq. dielectric constant tensor:
#      x y z
#    x 1.917090 0.000000 0.000840 
#    y 0.000000 1.884430 0.000000 
#    z 0.000840 0.000000 1.880230 
# 
# From -- ./inp_files/234995.got.cif
#   From: 2010.06.25/outbox.cif.g09.slc.cpg/sg15_118_cif.got.tgz:234995.got - 2010.06.28 07:06:18.
