data_PCOD8147421
_publ_section_title
;
Structure prediction by ZEFSAII (Michael W. Deem and Ramdas Pophale) SiO2 
 PCOD8147421
Probable space group: C 2/C
;
_chemical_formula_sum "Si O2"
_cell_formula_units_Z 52
_cell_length_a 12.351108
_cell_length_b 13.776817
_cell_length_c 14.099445
_cell_angle_alpha 90.000000
_cell_angle_beta 105.608064
_cell_angle_gamma 90.000000
_cell_volume 2310.677584
_symmetry_space_group_name_H-M "C 2/C"
_symmetry_group_IT_number 15
_symmetry_cell_setting 'monoclinic'
loop_
_space_group_symop_operation_xyz
x,y,z
-x,y,1/2-z
-x,-y,-z
x,-y,1/2+z
1/2+x,1/2+y,z
1/2-x,1/2+y,1/2-z
1/2-x,1/2-y,-z
1/2+x,1/2-y,1/2+z
loop_
_atom_site_type_symbol
_atom_site_label
_atom_site_fract_x
_atom_site_fract_y
_atom_site_fract_z
Si Si1 0.031417 0.663145 0.428628
Si Si2 0.899267 0.075380 0.089461
Si Si3 0.801810 0.559532 0.331221
Si Si4 0.000000 0.771610 0.750000
Si Si5 0.744992 0.651927 0.124361
Si Si6 0.529773 0.619044 0.947000
Si Si7 0.644392 0.842119 0.147759
O O1 0.140146 0.620924 0.400141
O O2 0.013636 0.775940 0.395420
O O3 0.046412 0.648873 0.544992
O O4 0.926043 0.601665 0.369428
O O5 0.768933 0.081261 0.089912
O O6 0.966105 0.160941 0.155399
O O7 0.950631 0.967509 0.124907
O O8 0.916923 0.095158 0.981400
O O9 0.737681 0.606379 0.227297
O O10 0.803263 0.444870 0.314808
O O11 0.097872 0.702092 0.734500
O O12 0.740254 0.769844 0.129121
O O13 0.638814 0.614494 0.040919
#
# Coordination Sequence:
#
# PCOD8147421 Si02
#       7
#     8   8   8   4   8   8   8
#     4  11  23  43  66  98 134 175 224 271 334 402
#     4  11  21  44  68  99 128 171 225 270 336 394
#     4  12  25  41  66 104 133 170 229 280 326 401
#     4  12  22  46  68  94 138 174 226 276 338 402
#     4  11  22  44  66  95 134 177 222 269 336 400
#     4  10  22  43  71  92 130 179 218 277 333 398
#     4  11  24  45  67  92 134 186 212 276 343 395
#
# _framework density 22.504221999999999
#
# number of rings (size 3 to 8) (size 9 to 14) (size 15 to 20)
#    0.000    0.923    4.615    4.615    2.154    0.615 
#   11.077    0.000    0.000    0.000    0.000    0.000 
#    0.000    0.000    0.000    0.000    0.000    0.000 
#
# Total GULP energy -322403.965181 kJ/mol
# GULP energy per Si atom -12400.152507 kJ/mol
# Density = 2.245300 g / cm^3
# Si number density = 22.504222 Si / 1000 Ang^3
#
#
#
# Elastic Constant Matrix: (Units=GPa)
#
#
# Indices 1 2 3 4 5 6 
#
# 1 144.5491 31.1864 19.4943 0.0000 -18.0307 0.0000
# 2 31.1864 116.2584 21.9794 0.0000 5.0406 0.0000
# 3 19.4943 21.9794 53.5547 0.0000 -4.0554 0.0000
# 4 0.0000 0.0000 0.0000 23.5817 0.0000 -9.6548
# 5 -18.0307 5.0406 -4.0554 0.0000 28.6334 0.0000
# 6 0.0000 0.0000 0.0000 -9.6548 0.0000 34.8779
#
#
#
# Elastic Compliance Matrix: (Units=1/GPa)
#
#
# Indices 1 2 3 4 5 6 
#
# 1 0.008276 -0.002123 -0.001737 0.000000 0.005340 0.000000
# 2 -0.002123 0.010010 -0.003609 0.000000 -0.003610 0.000000
# 3 -0.001737 -0.003609 0.020976 0.000000 0.002512 0.000000
# 4 0.000000 0.000000 0.000000 0.047826 0.000000 0.013239
# 5 0.005340 -0.003610 0.002512 0.000000 0.039278 0.000000
# 6 0.000000 0.000000 0.000000 0.013239 0.000000 0.032336
#
#
# Mechanical properties :
#
#
# Convention : Reuss Voigt Hill
#
# Bulk Modulus (GPa) = 41.11062 51.07580 46.09321
# Shear Modulus (GPa) = 27.51053 33.53209 30.52131
#
# Velocity S-wave (km/s) = 3.50016 3.86429 3.68672
# Velocity P-wave (km/s) = 5.88579 6.53113 6.21684
#
# Compressibility (1/GPa) = 0.02432462
#
# Stress axis : x y z
#
# Youngs Moduli (GPa) = 120.82485 99.90148 47.67350
#
# Poissons Ratio (x) = 0.21212 0.08281
# Poissons Ratio (y) = 0.25655 0.17204
# Poissons Ratio (z) = 0.20986 0.36051
#
# Static dielectric constant tensor:
#      x y z
#    x 4.103100 0.000000 -0.268720 
#    y 0.000000 4.270490 0.000000 
#    z -0.268720 0.000000 3.768520 
# 
# 
# High freq. dielectric constant tensor:
#      x y z
#    x 1.894830 0.000000 -0.023520 
#    y 0.000000 1.902760 0.000000 
#    z -0.023520 0.000000 1.854170 
# 
# From -- ./inp_files/144343.got.cif
#   From: 2010.06.25/outbox.cif.g09.slc.cpg/sg15_73_cif.got.tgz:144343.got - 2010.06.28 07:06:18.
