data_PCOD8147549
_publ_section_title
;
Structure prediction by ZEFSAII (Michael W. Deem and Ramdas Pophale) SiO2 
 PCOD8147549
Probable space group: C 2/C
;
_chemical_formula_sum "Si O2"
_cell_formula_units_Z 52
_cell_length_a 11.234745
_cell_length_b 26.422095
_cell_length_c 8.554811
_cell_angle_alpha 90.000000
_cell_angle_beta 76.135656
_cell_angle_gamma 90.000000
_cell_volume 2465.472071
_symmetry_space_group_name_H-M "C 2/C"
_symmetry_group_IT_number 15
_symmetry_cell_setting 'monoclinic'
loop_
_space_group_symop_operation_xyz
x,y,z
-x,y,1/2-z
-x,-y,-z
x,-y,1/2+z
1/2+x,1/2+y,z
1/2-x,1/2+y,1/2-z
1/2-x,1/2-y,-z
1/2+x,1/2-y,1/2+z
loop_
_atom_site_type_symbol
_atom_site_label
_atom_site_fract_x
_atom_site_fract_y
_atom_site_fract_z
Si Si1 0.409609 0.471579 0.916934
Si Si2 0.852080 0.135466 0.558922
Si Si3 0.000000 0.515523 0.250000
Si Si4 0.000000 0.807243 0.250000
Si Si5 0.500000 0.692339 0.250000
Si Si6 0.376447 0.140513 0.708776
Si Si7 0.622189 0.756090 0.454707
Si Si8 0.828352 0.459064 0.065502
O O1 0.500000 0.453189 0.750000
O O2 0.296927 0.508126 0.901161
O O3 0.500000 0.500000 0.000000
O O4 0.353506 0.424826 0.031378
O O5 0.900011 0.153879 0.714202
O O6 0.927626 0.158340 0.394088
O O7 0.711141 0.154481 0.615408
O O8 0.074433 0.482290 0.347585
O O9 0.896373 0.547496 0.376008
O O10 0.973329 0.768410 0.397527
O O11 0.606617 0.725760 0.297129
O O12 0.500000 0.120747 0.750000
O O13 0.403615 0.185741 0.579006
O O14 0.303084 0.097424 0.635105
O O15 0.750000 0.750000 0.500000
#
# Coordination Sequence:
#
# PCOD8147549 Si02
#       8
#     8   8   4   4   4   8   8   8
#     4  12  26  43  69 101 138 180 233 287 348 419
#     4  11  24  45  68  99 137 185 228 287 357 414
#     4  10  22  44  66  86 142 174 222 274 342 392
#     4  10  24  43  73  98 142 181 233 300 344 420
#     4  10  24  45  71  96 140 179 237 292 356 412
#     4  12  25  43  71 100 139 182 231 283 357 418
#     4  11  23  44  67 103 134 180 229 291 351 416
#     4  11  24  44  66 100 133 183 228 283 337 418
#
# _framework density 21.091296
#
# number of rings (size 3 to 8) (size 9 to 14) (size 15 to 20)
#    0.000    0.923    3.846    2.769    5.385    2.462 
#    2.769    0.000    0.000    0.000    0.000    0.000 
#    0.000    0.000    0.000    0.000    0.000    0.000 
#
# Total GULP energy -322091.963889 kJ/mol
# GULP energy per Si atom -12388.152457 kJ/mol
# Density = 2.104329 g / cm^3
# Si number density = 21.091296 Si / 1000 Ang^3
#
#
#
# Elastic Constant Matrix: (Units=GPa)
#
#
# Indices 1 2 3 4 5 6 
#
# 1 135.4945 46.2968 40.3454 0.0000 1.3884 0.0000
# 2 46.2968 137.2970 40.4802 0.0000 8.6384 0.0000
# 3 40.3454 40.4802 100.4025 0.0000 -6.8199 0.0000
# 4 0.0000 0.0000 0.0000 29.8985 0.0000 3.7032
# 5 1.3884 8.6384 -6.8199 0.0000 40.1840 0.0000
# 6 0.0000 0.0000 0.0000 3.7032 0.0000 34.1877
#
#
#
# Elastic Compliance Matrix: (Units=1/GPa)
#
#
# Indices 1 2 3 4 5 6 
#
# 1 0.008946 -0.002192 -0.002731 0.000000 -0.000301 0.000000
# 2 -0.002192 0.009033 -0.002921 0.000000 -0.002362 0.000000
# 3 -0.002731 -0.002921 0.012428 0.000000 0.002832 0.000000
# 4 0.000000 0.000000 0.000000 0.033901 0.000000 -0.003672
# 5 -0.000301 -0.002362 0.002832 0.000000 0.025884 0.000000
# 6 0.000000 0.000000 0.000000 -0.003672 0.000000 0.029648
#
#
# Mechanical properties :
#
#
# Convention : Reuss Voigt Hill
#
# Bulk Modulus (GPa) = 67.95202 69.71542 68.83372
# Shear Modulus (GPa) = 35.60371 37.25881 36.43126
#
# Velocity S-wave (km/s) = 4.11308 4.20759 4.16060
# Velocity P-wave (km/s) = 7.40571 7.53200 7.46912
#
# Compressibility (1/GPa) = 0.01471626
#
# Stress axis : x y z
#
# Youngs Moduli (GPa) = 111.78379 110.70989 80.46616
#
# Poissons Ratio (x) = 0.24271 0.21978
# Poissons Ratio (y) = 0.24506 0.23506
# Poissons Ratio (z) = 0.30532 0.32341
#
# Static dielectric constant tensor:
#      x y z
#    x 3.948110 0.000000 0.183320 
#    y 0.000000 4.504510 0.000000 
#    z 0.183320 0.000000 3.783100 
# 
# 
# High freq. dielectric constant tensor:
#      x y z
#    x 1.837130 0.000000 -0.002090 
#    y 0.000000 1.825960 0.000000 
#    z -0.002090 0.000000 1.838500 
# 
# From -- ./inp_files/33604.got.cif
#   From: 2010.06.25/outbox.cif.g09.slc.cpg/sg15_17_cif.got.tgz:33604.got - 2010.06.28 07:06:18.
