data_PCOD8147958
_publ_section_title
;
Structure prediction by ZEFSAII (Michael W. Deem and Ramdas Pophale) SiO2 
 PCOD8147958
Probable space group: C 2/C
;
_chemical_formula_sum "Si O2"
_cell_formula_units_Z 32
_cell_length_a 22.761179
_cell_length_b 6.837581
_cell_length_c 18.860956
_cell_angle_alpha 90.000000
_cell_angle_beta 158.438460
_cell_angle_gamma 90.000000
_cell_volume 1078.744767
_symmetry_space_group_name_H-M "C 2/C"
_symmetry_group_IT_number 15
_symmetry_cell_setting 'monoclinic'
loop_
_space_group_symop_operation_xyz
x,y,z
-x,y,1/2-z
-x,-y,-z
x,-y,1/2+z
1/2+x,1/2+y,z
1/2-x,1/2+y,1/2-z
1/2-x,1/2-y,-z
1/2+x,1/2-y,1/2+z
loop_
_atom_site_type_symbol
_atom_site_label
_atom_site_fract_x
_atom_site_fract_y
_atom_site_fract_z
Si Si1 0.760423 0.364443 0.340499
Si Si2 0.691684 0.039284 0.457890
Si Si3 0.301204 0.563002 0.934496
Si Si4 0.472621 0.806156 0.028327
O O1 0.729036 0.500724 0.375470
O O2 0.596777 0.327898 0.113684
O O3 0.889405 0.479328 0.437154
O O4 0.836188 0.162279 0.453857
O O5 0.500000 0.027162 0.250000
O O6 0.750000 0.250000 0.500000
O O7 0.761419 0.900474 0.473091
O O8 0.452277 0.691663 0.080518
O O9 0.158678 0.652240 0.725465
#
# Coordination Sequence:
#
# PCOD8147958 Si02
#       4
#     8   8   8   8
#     4  11  24  44  75 105 145 190 239 301 362 428
#     4  10  22  46  73  99 142 193 237 290 363 430
#     4  11  26  47  71 109 147 193 241 298 366 435
#     4  12  25  44  76 109 147 185 247 301 362 432
#
# _framework density 29.664106
#
# number of rings (size 3 to 8) (size 9 to 14) (size 15 to 20)
#    0.000    1.000    5.000    0.750    0.000    4.000 
#    4.500    0.000    0.000    0.000    0.000    0.000 
#    0.000    0.000    0.000    0.000    0.000    0.000 
#
# Total GULP energy -198298.308603 kJ/mol
# GULP energy per Si atom -12393.644288 kJ/mol
# Density = 2.959659 g / cm^3
# Si number density = 29.664106 Si / 1000 Ang^3
#
#
#
# Elastic Constant Matrix: (Units=GPa)
#
#
# Indices 1 2 3 4 5 6 
#
# 1 101.7751 15.6929 39.1359 0.0001 -17.2774 0.0001
# 2 15.6929 61.0515 29.6466 0.0001 4.7863 0.0000
# 3 39.1359 29.6466 72.7679 0.0002 -10.9381 0.0002
# 4 0.0001 0.0001 0.0002 46.8485 0.0001 -3.6956
# 5 -17.2774 4.7863 -10.9381 0.0001 48.4354 0.0001
# 6 0.0001 0.0000 0.0002 -3.6956 0.0001 75.5418
#
#
#
# Elastic Compliance Matrix: (Units=1/GPa)
#
#
# Indices 1 2 3 4 5 6 
#
# 1 0.012842 -0.000545 -0.006199 0.000000 0.003235 0.000000
# 2 -0.000545 0.021233 -0.009008 0.000000 -0.004327 0.000000
# 3 -0.006199 -0.009008 0.021270 0.000000 0.003482 0.000000
# 4 0.000000 0.000000 0.000000 0.021428 0.000000 0.001048
# 5 0.003235 -0.004327 0.003482 0.000000 0.023014 0.000000
# 6 0.000000 0.000000 0.000000 0.001048 0.000000 0.013289
#
#
# Mechanical properties :
#
#
# Convention : Reuss Voigt Hill
#
# Bulk Modulus (GPa) = 41.94245 44.94948 43.44596
# Shear Modulus (GPa) = 32.78119 44.23975 38.51047
#
# Velocity S-wave (km/s) = 3.32788 3.86600 3.60699
# Velocity P-wave (km/s) = 5.37924 5.92568 5.65906
#
# Compressibility (1/GPa) = 0.02384219
#
# Stress axis : x y z
#
# Youngs Moduli (GPa) = 77.86742 47.09612 47.01545
#
# Poissons Ratio (x) = 0.02565 0.29144
# Poissons Ratio (y) = 0.04240 0.42352
# Poissons Ratio (z) = 0.48268 0.42425
#
# Static dielectric constant tensor:
#      x y z
#    x 6.379560 0.000000 -0.610140 
#    y 0.000000 7.427090 0.000000 
#    z -0.610140 0.000000 5.187150 
# 
# 
# High freq. dielectric constant tensor:
#      x y z
#    x 2.240720 0.000000 -0.019430 
#    y 0.000000 2.228170 0.000000 
#    z -0.019430 0.000000 2.177630 
# 
# From -- ./inp_files/102238.got.cif
#   From: 2010.06.25/outbox.cif.g09.slc.cpg/sg15_52_cif.got.tgz:102238.got - 2010.06.28 07:06:18.
