data_PCOD8147809
_publ_section_title
;
Structure prediction by ZEFSAII (Michael W. Deem and Ramdas Pophale) SiO2 
 PCOD8147809
Probable space group: C 2/C
;
_chemical_formula_sum "Si O2"
_cell_formula_units_Z 56
_cell_length_a 28.485623
_cell_length_b 6.239856
_cell_length_c 13.276226
_cell_angle_alpha 90.000000
_cell_angle_beta 90.392003
_cell_angle_gamma 90.000000
_cell_volume 2359.743300
_symmetry_space_group_name_H-M "C 2/C"
_symmetry_group_IT_number 15
_symmetry_cell_setting 'monoclinic'
loop_
_space_group_symop_operation_xyz
x,y,z
-x,y,1/2-z
-x,-y,-z
x,-y,1/2+z
1/2+x,1/2+y,z
1/2-x,1/2+y,1/2-z
1/2-x,1/2-y,-z
1/2+x,1/2-y,1/2+z
loop_
_atom_site_type_symbol
_atom_site_label
_atom_site_fract_x
_atom_site_fract_y
_atom_site_fract_z
Si Si1 0.106613 0.007342 0.303790
Si Si2 0.744156 0.459882 0.597350
Si Si3 0.693701 0.238902 0.238005
Si Si4 0.459994 0.239555 0.065317
Si Si5 0.051723 0.948871 0.108243
Si Si6 0.599717 0.856091 0.463242
Si Si7 0.814428 0.567880 0.935833
O O1 0.114748 0.234126 0.360715
O O2 0.154417 0.913677 0.260592
O O3 0.084838 0.835676 0.378791
O O4 0.070741 0.045680 0.211889
O O5 0.732229 0.662858 0.663745
O O6 0.782053 0.314884 0.656694
O O7 0.769106 0.532840 0.493538
O O8 0.696595 0.321732 0.575062
O O9 0.676203 0.031086 0.175226
O O10 0.507737 0.288400 0.127393
O O11 0.449319 0.985445 0.054750
O O12 0.465432 0.346370 0.955500
O O13 0.092445 0.817142 0.051283
O O14 0.639532 0.025921 0.495847
#
# Coordination Sequence:
#
# PCOD8147809 Si02
#       7
#     8   8   8   8   8   8   8
#     4  11  25  41  68 103 136 175 227 288 335 409
#     4  11  26  42  68  99 134 186 236 285 345 424
#     4  12  24  44  69  98 139 183 228 290 346 408
#     4  10  23  43  68  98 141 177 224 274 341 416
#     4  10  22  45  67  99 139 180 220 281 346 402
#     4  11  24  42  72 103 132 180 233 282 342 418
#     4  11  25  45  66  99 140 178 231 289 352 407
#
# _framework density 23.731394999999999
#
# number of rings (size 3 to 8) (size 9 to 14) (size 15 to 20)
#    0.000    1.143    2.857    2.143    4.000    4.571 
#    0.000    4.286    0.000    0.000    0.000    0.000 
#    0.000    0.000    0.000    0.000    0.000    0.000 
#
# Total GULP energy -347209.758121 kJ/mol
# GULP energy per Si atom -12400.348504 kJ/mol
# Density = 2.367738 g / cm^3
# Si number density = 23.731395 Si / 1000 Ang^3
#
#
#
# Elastic Constant Matrix: (Units=GPa)
#
#
# Indices 1 2 3 4 5 6 
#
# 1 87.0663 24.4220 25.9858 0.0000 12.7029 0.0000
# 2 24.4220 47.6007 26.7873 0.0000 1.9418 0.0000
# 3 25.9858 26.7873 103.2423 0.0000 13.2665 0.0000
# 4 0.0000 0.0000 0.0000 38.3956 0.0000 -8.3766
# 5 12.7029 1.9418 13.2665 0.0000 41.5825 0.0000
# 6 0.0000 0.0000 0.0000 -8.3766 0.0000 36.5682
#
#
#
# Elastic Compliance Matrix: (Units=1/GPa)
#
#
# Indices 1 2 3 4 5 6 
#
# 1 0.014221 -0.006317 -0.001481 0.000000 -0.003577 0.000000
# 2 -0.006317 0.027440 -0.005853 0.000000 0.002516 0.000000
# 3 -0.001481 -0.005853 0.011975 0.000000 -0.003095 0.000000
# 4 0.000000 0.000000 0.000000 0.027415 0.000000 0.006280
# 5 -0.003577 0.002516 -0.003095 0.000000 0.026011 0.000000
# 6 0.000000 0.000000 0.000000 0.006280 0.000000 0.028785
#
#
# Mechanical properties :
#
#
# Convention : Reuss Voigt Hill
#
# Bulk Modulus (GPa) = 37.97252 43.58881 40.78067
# Shear Modulus (GPa) = 29.08209 34.02353 31.55281
#
# Velocity S-wave (km/s) = 3.50447 3.79052 3.65030
# Velocity P-wave (km/s) = 5.69304 6.12902 5.91505
#
# Compressibility (1/GPa) = 0.02633484
#
# Stress axis : x y z
#
# Youngs Moduli (GPa) = 70.31709 36.44277 83.50774
#
# Poissons Ratio (x) = 0.23021 0.12365
# Poissons Ratio (y) = 0.44420 0.48876
# Poissons Ratio (z) = 0.10412 0.21330
#
# Static dielectric constant tensor:
#      x y z
#    x 4.142300 0.000000 -0.031970 
#    y 0.000000 4.033170 0.000000 
#    z -0.031970 0.000000 4.404710 
# 
# 
# High freq. dielectric constant tensor:
#      x y z
#    x 1.939140 0.000000 -0.004410 
#    y 0.000000 1.928120 0.000000 
#    z -0.004410 0.000000 1.948460 
# 
# From -- ./inp_files/180126.got.cif
#   From: 2010.06.25/outbox.cif.g09.slc.cpg/sg15_91_cif.got.tgz:180126.got - 2010.06.28 07:06:18.
