data_PCOD8147530
_publ_section_title
;
Structure prediction by ZEFSAII (Michael W. Deem and Ramdas Pophale) SiO2 
 PCOD8147530
Probable space group: C 2/C
;
_chemical_formula_sum "Si O2"
_cell_formula_units_Z 60
_cell_length_a 6.457669
_cell_length_b 19.235904
_cell_length_c 24.692087
_cell_angle_alpha 90.000000
_cell_angle_beta 61.797181
_cell_angle_gamma 90.000000
_cell_volume 2703.088056
_symmetry_space_group_name_H-M "C 2/C"
_symmetry_group_IT_number 15
_symmetry_cell_setting 'monoclinic'
loop_
_space_group_symop_operation_xyz
x,y,z
-x,y,1/2-z
-x,-y,-z
x,-y,1/2+z
1/2+x,1/2+y,z
1/2-x,1/2+y,1/2-z
1/2-x,1/2-y,-z
1/2+x,1/2-y,1/2+z
loop_
_atom_site_type_symbol
_atom_site_label
_atom_site_fract_x
_atom_site_fract_y
_atom_site_fract_z
Si Si1 0.255642 0.713067 0.697265
Si Si2 0.496807 0.668432 0.051450
Si Si3 0.015614 0.351822 0.855325
Si Si4 0.838819 0.939223 0.888759
Si Si5 0.000000 0.110394 0.750000
Si Si6 0.594123 0.059948 0.872693
Si Si7 0.665045 0.194811 0.584796
Si Si8 0.149771 0.520175 0.183112
O O1 0.418012 0.780301 0.681396
O O2 0.369676 0.654753 0.720321
O O3 0.241922 0.686873 0.637213
O O4 0.000000 0.732687 0.750000
O O5 0.611590 0.596229 0.059205
O O6 0.546641 0.731032 0.087503
O O7 0.217865 0.658827 0.079069
O O8 0.602103 0.685569 0.979984
O O9 0.230818 0.378639 0.864978
O O10 0.965168 0.404927 0.813512
O O11 0.080569 0.969014 0.833720
O O12 0.662567 0.005710 0.912448
O O13 0.809680 0.063293 0.803900
O O14 0.524987 0.134583 0.905939
O O15 0.371457 0.028525 0.867437
O O16 0.000000 0.485135 0.250000
#
# Coordination Sequence:
#
# PCOD8147530 Si02
#       8
#     8   8   8   8   4   8   8   8
#     4  12  26  41  67 102 136 173 217 279 338 410
#     4  10  23  48  68  98 131 176 225 286 329 407
#     4  10  23  40  65  97 131 172 229 269 331 393
#     4  10  22  44  65  94 134 173 226 274 333 401
#     4  12  26  42  66  98 142 174 218 268 350 410
#     4  11  24  41  64 100 128 180 217 276 336 409
#     4  11  24  45  70  96 138 171 226 281 342 393
#     4  10  23  38  65  92 134 175 221 275 328 398
#
# _framework density 22.196833999999999
#
# number of rings (size 3 to 8) (size 9 to 14) (size 15 to 20)
#    0.000    1.333    2.667    1.600    6.533    2.133 
#    2.400    6.000    0.000    0.000    0.000    0.000 
#    0.000    0.000    0.000    0.000    0.000    0.000 
#
# Total GULP energy -372024.062904 kJ/mol
# GULP energy per Si atom -12400.802097 kJ/mol
# Density = 2.214631 g / cm^3
# Si number density = 22.196834 Si / 1000 Ang^3
#
#
#
# Elastic Constant Matrix: (Units=GPa)
#
#
# Indices 1 2 3 4 5 6 
#
# 1 115.4270 32.7835 38.6073 0.0000 -9.7050 0.0000
# 2 32.7835 114.1005 20.1211 0.0000 0.9379 0.0000
# 3 38.6073 20.1211 86.0042 0.0000 -2.5604 0.0000
# 4 0.0000 0.0000 0.0000 23.5115 0.0000 -5.1217
# 5 -9.7050 0.9379 -2.5604 0.0000 27.6751 0.0000
# 6 0.0000 0.0000 0.0000 -5.1217 0.0000 23.6295
#
#
#
# Elastic Compliance Matrix: (Units=1/GPa)
#
#
# Indices 1 2 3 4 5 6 
#
# 1 0.011102 -0.002461 -0.004301 0.000000 0.003579 0.000000
# 2 -0.002461 0.009694 -0.001202 0.000000 -0.001303 0.000000
# 3 -0.004301 -0.001202 0.013834 0.000000 -0.000188 0.000000
# 4 0.000000 0.000000 0.000000 0.044640 0.000000 0.009676
# 5 0.003579 -0.001303 -0.000188 0.000000 0.037415 0.000000
# 6 0.000000 0.000000 0.000000 0.009676 0.000000 0.044417
#
#
# Mechanical properties :
#
#
# Convention : Reuss Voigt Hill
#
# Bulk Modulus (GPa) = 53.47231 55.39506 54.43369
# Shear Modulus (GPa) = 27.28294 29.89787 28.59041
#
# Velocity S-wave (km/s) = 3.50971 3.67405 3.59282
# Velocity P-wave (km/s) = 6.36918 6.55810 6.46433
#
# Compressibility (1/GPa) = 0.01870127
#
# Stress axis : x y z
#
# Youngs Moduli (GPa) = 90.07392 103.15755 72.28615
#
# Poissons Ratio (x) = 0.25384 0.31094
# Poissons Ratio (y) = 0.22165 0.08690
# Poissons Ratio (z) = 0.38745 0.12401
#
# Static dielectric constant tensor:
#      x y z
#    x 4.093880 0.000000 -0.134220 
#    y 0.000000 4.176290 0.000000 
#    z -0.134220 0.000000 3.696460 
# 
# 
# High freq. dielectric constant tensor:
#      x y z
#    x 1.880770 0.000000 -0.008440 
#    y 0.000000 1.891350 0.000000 
#    z -0.008440 0.000000 1.849320 
# 
# From -- ./inp_files/286488.got.cif
#   From: 2010.06.25/outbox.cif.g09.slc.cpg/sg15_144_cif.got.tgz:286488.got - 2010.06.28 07:06:18.
