data_PCOD8147037
_publ_section_title
;
Structure prediction by ZEFSAII (Michael W. Deem and Ramdas Pophale) SiO2 
 PCOD8147037
Probable space group: C 2/C
;
_chemical_formula_sum "Si O2"
_cell_formula_units_Z 64
_cell_length_a 24.205886
_cell_length_b 17.155981
_cell_length_c 21.052468
_cell_angle_alpha 90.000000
_cell_angle_beta 21.368089
_cell_angle_gamma 90.000000
_cell_volume 3185.430055
_symmetry_space_group_name_H-M "C 2/C"
_symmetry_group_IT_number 15
_symmetry_cell_setting 'monoclinic'
loop_
_space_group_symop_operation_xyz
x,y,z
-x,y,1/2-z
-x,-y,-z
x,-y,1/2+z
1/2+x,1/2+y,z
1/2-x,1/2+y,1/2-z
1/2-x,1/2-y,-z
1/2+x,1/2-y,1/2+z
loop_
_atom_site_type_symbol
_atom_site_label
_atom_site_fract_x
_atom_site_fract_y
_atom_site_fract_z
Si Si1 0.667590 0.043790 0.752393
Si Si2 0.601983 0.770334 0.695385
Si Si3 0.968192 0.054928 0.354755
Si Si4 0.832061 0.368499 0.750291
Si Si5 0.595958 0.327465 0.816554
Si Si6 0.989974 0.887478 0.143167
Si Si7 0.930570 0.673377 0.009718
Si Si8 0.103824 0.075988 0.884855
O O1 0.792344 0.061026 0.564160
O O2 0.740703 0.063371 0.743205
O O3 0.603284 0.956108 0.819425
O O4 0.518683 0.094145 0.900099
O O5 0.500000 0.810918 0.750000
O O6 0.750000 0.750000 0.500000
O O7 0.622408 0.827329 0.732762
O O8 0.534052 0.688071 0.789313
O O9 0.000000 0.083945 0.250000
O O10 0.071145 0.112060 0.286242
O O11 0.018718 0.964867 0.304939
O O12 0.899546 0.319541 0.618905
O O13 0.651991 0.377743 0.935491
O O14 0.773315 0.326435 0.640910
O O15 0.537604 0.240298 0.865868
O O16 0.492967 0.352525 0.985501
O O17 0.863203 0.900072 0.223546
O O18 0.000000 0.000000 0.000000
#
# Coordination Sequence:
#
# PCOD8147037 Si02
#       8
#     8   8   8   8   8   8   8   8
#     4  10  23  41  65  97 130 165 212 271 324 383
#     4  12  26  43  61  93 136 180 221 255 302 382
#     4  10  22  42  69  92 122 170 218 258 318 387
#     4  11  23  40  65  93 132 169 211 267 322 377
#     4  11  22  39  63  96 127 167 207 266 320 387
#     4  11  21  40  69  93 126 173 218 259 315 375
#     4  12  24  42  65  96 132 160 212 273 337 376
#     4  11  17  37  65  98 125 159 216 263 322 386
#
# _framework density 20.091477999999999
#
# number of rings (size 3 to 8) (size 9 to 14) (size 15 to 20)
#    0.000    1.000    6.250    3.000    1.750    1.000 
#    2.250    3.125    0.000    0.000    0.000    0.000 
#    0.000    0.000    0.000    0.000    0.000    0.000 
#
# Total GULP energy -396696.652906 kJ/mol
# GULP energy per Si atom -12396.770403 kJ/mol
# Density = 2.004575 g / cm^3
# Si number density = 20.091478 Si / 1000 Ang^3
#
#
#
# Elastic Constant Matrix: (Units=GPa)
#
#
# Indices 1 2 3 4 5 6 
#
# 1 126.6983 43.1414 42.1770 0.0029 -3.4787 -0.0021
# 2 43.1414 126.4047 37.0762 -0.0086 -17.4724 0.0069
# 3 42.1770 37.0762 72.5796 -0.0002 -15.3716 0.0010
# 4 0.0029 -0.0086 -0.0002 33.0622 0.0017 -4.7625
# 5 -3.4787 -17.4724 -15.3716 0.0017 30.3858 -0.0014
# 6 -0.0021 0.0069 0.0010 -4.7625 -0.0014 25.6955
#
#
#
# Elastic Compliance Matrix: (Units=1/GPa)
#
#
# Indices 1 2 3 4 5 6 
#
# 1 0.010442 -0.002361 -0.005483 -0.000001 -0.002936 0.000001
# 2 -0.002361 0.010144 -0.002948 0.000002 0.004072 -0.000002
# 3 -0.005483 -0.002948 0.020136 -0.000001 0.007864 0.000000
# 4 -0.000001 0.000002 -0.000001 0.031076 -0.000001 0.005760
# 5 -0.002936 0.004072 0.007864 -0.000001 0.038893 0.000000
# 6 0.000001 -0.000002 0.000000 0.005760 0.000000 0.039985
#
#
# Mechanical properties :
#
#
# Convention : Reuss Voigt Hill
#
# Bulk Modulus (GPa) = 52.25460 63.38576 57.82018
# Shear Modulus (GPa) = 27.98945 31.38124 29.68534
#
# Velocity S-wave (km/s) = 3.73648 3.95640 3.84801
# Velocity P-wave (km/s) = 6.68429 7.24485 6.97021
#
# Compressibility (1/GPa) = 0.01913707
#
# Stress axis : x y z
#
# Youngs Moduli (GPa) = 95.77141 98.57705 49.66317
#
# Poissons Ratio (x) = 0.23276 0.27232
# Poissons Ratio (y) = 0.22613 0.14639
# Poissons Ratio (z) = 0.52516 0.29057
#
# Static dielectric constant tensor:
#      x y z
#    x 4.644640 -0.000330 -0.259270 
#    y -0.000330 4.017910 -0.000080 
#    z -0.259270 -0.000080 3.587760 
# 
# 
# High freq. dielectric constant tensor:
#      x y z
#    x 1.778450 0.000000 -0.003840 
#    y 0.000000 1.795430 0.000000 
#    z -0.003840 0.000000 1.774320 
# 
# From -- ./inp_files/255974.got.cif
#   From: 2010.06.25/outbox.cif.g09.slc.cpg/sg15_128_cif.got.tgz:255974.got - 2010.06.28 07:06:18.
