data_PCOD8147600
_publ_section_title
;
Structure prediction by ZEFSAII (Michael W. Deem and Ramdas Pophale) SiO2 
 PCOD8147600
Probable space group: C 2/C
;
_chemical_formula_sum "Si O2"
_cell_formula_units_Z 52
_cell_length_a 23.933160
_cell_length_b 8.160433
_cell_length_c 15.120291
_cell_angle_alpha 90.000000
_cell_angle_beta 124.238776
_cell_angle_gamma 90.000000
_cell_volume 2441.300986
_symmetry_space_group_name_H-M "C 2/C"
_symmetry_group_IT_number 15
_symmetry_cell_setting 'monoclinic'
loop_
_space_group_symop_operation_xyz
x,y,z
-x,y,1/2-z
-x,-y,-z
x,-y,1/2+z
1/2+x,1/2+y,z
1/2-x,1/2+y,1/2-z
1/2-x,1/2-y,-z
1/2+x,1/2-y,1/2+z
loop_
_atom_site_type_symbol
_atom_site_label
_atom_site_fract_x
_atom_site_fract_y
_atom_site_fract_z
Si Si1 0.678810 0.461865 0.442413
Si Si2 0.925302 0.937925 0.919233
Si Si3 0.068823 0.821118 0.772349
Si Si4 0.707174 0.396061 0.144330
Si Si5 0.779430 0.481072 0.877714
Si Si6 0.099942 0.681805 0.453858
Si Si7 0.500000 0.994544 0.250000
O O1 0.629624 0.619839 0.389092
O O2 0.720195 0.489057 0.570272
O O3 0.727781 0.445656 0.403244
O O4 0.636004 0.293879 0.411260
O O5 0.914084 0.882990 0.809467
O O6 0.870019 0.078703 0.890844
O O7 0.916104 0.783842 0.973648
O O8 0.000000 0.000000 0.000000
O O9 0.000000 0.902602 0.750000
O O10 0.060149 0.622758 0.765200
O O11 0.761254 0.444834 0.266385
O O12 0.722968 0.213039 0.129174
O O13 0.853800 0.532079 0.973603
O O14 0.030479 0.608808 0.353518
#
# Coordination Sequence:
#
# PCOD8147600 Si02
#       7
#     8   8   8   8   8   8   4
#     4  11  23  44  74  96 136 185 221 278 345 404
#     4  11  24  44  70  95 135 183 226 279 345 406
#     4  10  22  44  67  96 137 174 228 275 342 395
#     4  11  24  44  70 102 134 181 226 278 339 407
#     4  12  25  46  67 102 141 174 229 280 340 407
#     4  11  26  44  67 103 136 174 232 280 340 410
#     4  10  26  42  66 102 138 172 226 288 332 404
#
# _framework density 21.300118000000001
#
# number of rings (size 3 to 8) (size 9 to 14) (size 15 to 20)
#    0.462    0.615    1.538    5.538    5.385    0.615 
#    2.769    0.000    0.000    0.000    0.000    0.000 
#    0.000    0.000    0.000    0.000    0.000    0.000 
#
# Total GULP energy -322443.704212 kJ/mol
# GULP energy per Si atom -12401.680931 kJ/mol
# Density = 2.125164 g / cm^3
# Si number density = 21.300118 Si / 1000 Ang^3
#
#
#
# Elastic Constant Matrix: (Units=GPa)
#
#
# Indices 1 2 3 4 5 6 
#
# 1 49.8997 1.3221 28.6823 0.0000 -10.1164 0.0000
# 2 1.3221 75.8134 24.7765 0.0000 -1.2519 0.0000
# 3 28.6823 24.7765 133.7475 0.0000 -2.0323 0.0000
# 4 0.0000 0.0000 0.0000 34.0955 0.0000 9.4846
# 5 -10.1164 -1.2519 -2.0323 0.0000 42.7712 0.0000
# 6 0.0000 0.0000 0.0000 9.4846 0.0000 30.7948
#
#
#
# Elastic Compliance Matrix: (Units=1/GPa)
#
#
# Indices 1 2 3 4 5 6 
#
# 1 0.024207 0.001424 -0.005371 0.000000 0.005512 0.000000
# 2 0.001424 0.014128 -0.002913 0.000000 0.000612 0.000000
# 3 -0.005371 -0.002913 0.009154 0.000000 -0.000921 0.000000
# 4 0.000000 0.000000 0.000000 0.032078 0.000000 -0.009880
# 5 0.005512 0.000612 -0.000921 0.000000 0.024658 0.000000
# 6 0.000000 0.000000 0.000000 -0.009880 0.000000 0.035516
#
#
# Mechanical properties :
#
#
# Convention : Reuss Voigt Hill
#
# Bulk Modulus (GPa) = 29.61321 41.00247 35.30784
# Shear Modulus (GPa) = 30.35489 35.17761 32.76625
#
# Velocity S-wave (km/s) = 3.77915 4.06830 3.92639
# Velocity P-wave (km/s) = 5.74244 6.43116 6.09653
#
# Compressibility (1/GPa) = 0.03376871
#
# Stress axis : x y z
#
# Youngs Moduli (GPa) = 41.30965 70.78326 109.23759
#
# Poissons Ratio (x) = -0.10082 0.58676
# Poissons Ratio (y) = -0.05884 0.31824
# Poissons Ratio (z) = 0.22189 0.20621
#
# Static dielectric constant tensor:
#      x y z
#    x 3.869040 0.000000 0.156210 
#    y 0.000000 3.816490 0.000000 
#    z 0.156210 0.000000 4.036530 
# 
# 
# High freq. dielectric constant tensor:
#      x y z
#    x 1.829040 0.000000 -0.001370 
#    y 0.000000 1.833970 0.000000 
#    z -0.001370 0.000000 1.854420 
# 
# From -- ./inp_files/176271.got.cif
#   From: 2010.06.25/outbox.cif.g09.slc.cpg/sg15_89_cif.got.tgz:176271.got - 2010.06.28 07:06:18.
