data_PCOD8147496
_publ_section_title
;
Structure prediction by ZEFSAII (Michael W. Deem and Ramdas Pophale) SiO2 
 PCOD8147496
Probable space group: C 2/C
;
_chemical_formula_sum "Si O2"
_cell_formula_units_Z 64
_cell_length_a 24.703063
_cell_length_b 16.495483
_cell_length_c 14.845053
_cell_angle_alpha 90.000000
_cell_angle_beta 150.914451
_cell_angle_gamma 90.000000
_cell_volume 2940.604403
_symmetry_space_group_name_H-M "C 2/C"
_symmetry_group_IT_number 15
_symmetry_cell_setting 'monoclinic'
loop_
_space_group_symop_operation_xyz
x,y,z
-x,y,1/2-z
-x,-y,-z
x,-y,1/2+z
1/2+x,1/2+y,z
1/2-x,1/2+y,1/2-z
1/2-x,1/2-y,-z
1/2+x,1/2-y,1/2+z
loop_
_atom_site_type_symbol
_atom_site_label
_atom_site_fract_x
_atom_site_fract_y
_atom_site_fract_z
Si Si1 0.357585 0.220342 0.352420
Si Si2 0.305487 0.831303 0.302293
Si Si3 0.120159 0.131066 0.397024
Si Si4 0.376414 0.448726 0.077250
Si Si5 0.120768 0.448967 0.949918
Si Si6 0.791166 0.660702 0.076822
Si Si7 0.234196 0.089604 0.271199
Si Si8 0.592510 0.294039 0.677623
O O1 0.242872 0.273772 0.187955
O O2 0.369517 0.167887 0.278754
O O3 0.334989 0.155062 0.400431
O O4 0.461881 0.281978 0.512025
O O5 0.378735 0.902791 0.452752
O O6 0.375293 0.788535 0.325214
O O7 0.197672 0.864292 0.095714
O O8 0.157232 0.186566 0.365544
O O9 0.000000 0.163602 0.250000
O O10 0.116348 0.036628 0.365588
O O11 0.500000 0.412392 0.250000
O O12 0.316630 0.393015 0.062537
O O13 0.311336 0.448986 0.887442
O O14 0.142051 0.380803 0.906020
O O15 0.000000 0.486376 0.750000
O O16 0.212350 0.520415 0.086972
O O17 0.750000 0.750000 0.000000
O O18 0.126439 0.130804 0.162185
#
# Coordination Sequence:
#
# PCOD8147496 Si02
#       8
#     8   8   8   8   8   8   8   8
#     4  10  22  44  64 101 133 168 220 276 325 385
#     4  11  22  42  65  95 134 169 220 272 314 396
#     4  11  21  41  65  94 134 171 212 274 327 384
#     4  10  23  41  66  99 132 172 215 269 336 383
#     4  12  25  46  67  96 135 179 220 268 338 392
#     4  11  23  40  66  98 134 171 224 270 317 397
#     4  10  24  45  67  95 138 171 221 274 323 406
#     4  11  23  41  69  96 127 177 219 264 336 376
#
# _framework density 21.764232
#
# number of rings (size 3 to 8) (size 9 to 14) (size 15 to 20)
#    0.000    1.250    3.750    1.875    1.750    0.500 
#    9.000    4.375    0.000    0.000    0.000    0.000 
#    0.000    0.000    0.000    0.000    0.000    0.000 
#
# Total GULP energy -396472.270140 kJ/mol
# GULP energy per Si atom -12389.758442 kJ/mol
# Density = 2.171470 g / cm^3
# Si number density = 21.764232 Si / 1000 Ang^3
#
#
#
# Elastic Constant Matrix: (Units=GPa)
#
#
# Indices 1 2 3 4 5 6 
#
# 1 89.2564 33.6893 32.4361 0.0000 -1.9338 0.0000
# 2 33.6893 81.8497 24.3493 0.0000 5.1460 0.0000
# 3 32.4361 24.3493 104.9564 0.0000 2.7055 0.0000
# 4 0.0000 0.0000 0.0000 37.1602 0.0000 2.4626
# 5 -1.9338 5.1460 2.7055 0.0000 27.9432 0.0000
# 6 0.0000 0.0000 0.0000 2.4626 0.0000 29.5893
#
#
#
# Elastic Compliance Matrix: (Units=1/GPa)
#
#
# Indices 1 2 3 4 5 6 
#
# 1 0.014374 -0.005069 -0.003324 0.000000 0.002250 0.000000
# 2 -0.005069 0.015038 -0.001846 0.000000 -0.002941 0.000000
# 3 -0.003324 -0.001846 0.011008 0.000000 -0.000956 0.000000
# 4 0.000000 0.000000 0.000000 0.027060 0.000000 -0.002252
# 5 0.002250 -0.002941 -0.000956 0.000000 0.036577 0.000000
# 6 0.000000 0.000000 0.000000 -0.002252 0.000000 0.033983
#
#
# Mechanical properties :
#
#
# Convention : Reuss Voigt Hill
#
# Bulk Modulus (GPa) = 50.14786 50.77909 50.46348
# Shear Modulus (GPa) = 30.27268 31.31106 30.79187
#
# Velocity S-wave (km/s) = 3.73357 3.79707 3.76545
# Velocity P-wave (km/s) = 6.45581 6.52730 6.49166
#
# Compressibility (1/GPa) = 0.01994103
#
# Stress axis : x y z
#
# Youngs Moduli (GPa) = 69.57198 66.49811 90.84237
#
# Poissons Ratio (x) = 0.33706 0.30197
# Poissons Ratio (y) = 0.35264 0.16774
# Poissons Ratio (z) = 0.23127 0.12279
#
# Static dielectric constant tensor:
#      x y z
#    x 4.201920 0.000000 -0.307880 
#    y 0.000000 4.198720 0.000000 
#    z -0.307880 0.000000 4.203210 
# 
# 
# High freq. dielectric constant tensor:
#      x y z
#    x 1.860970 0.000000 -0.004940 
#    y 0.000000 1.856590 0.000000 
#    z -0.004940 0.000000 1.840960 
# 
# From -- ./inp_files/174266.got.cif
#   From: 2010.06.25/outbox.cif.g09.slc.cpg/sg15_88_cif.got.tgz:174266.got - 2010.06.28 07:06:18.
