data_PCOD8147666
_publ_section_title
;
Structure prediction by ZEFSAII (Michael W. Deem and Ramdas Pophale) SiO2 
 PCOD8147666
Probable space group: C 2/C
;
_chemical_formula_sum "Si O2"
_cell_formula_units_Z 60
_cell_length_a 26.608205
_cell_length_b 8.985360
_cell_length_c 11.316602
_cell_angle_alpha 90.000000
_cell_angle_beta 82.755119
_cell_angle_gamma 90.000000
_cell_volume 2684.020790
_symmetry_space_group_name_H-M "C 2/C"
_symmetry_group_IT_number 15
_symmetry_cell_setting 'monoclinic'
loop_
_space_group_symop_operation_xyz
x,y,z
-x,y,1/2-z
-x,-y,-z
x,-y,1/2+z
1/2+x,1/2+y,z
1/2-x,1/2+y,1/2-z
1/2-x,1/2-y,-z
1/2+x,1/2-y,1/2+z
loop_
_atom_site_type_symbol
_atom_site_label
_atom_site_fract_x
_atom_site_fract_y
_atom_site_fract_z
Si Si1 0.832495 0.529378 0.018061
Si Si2 0.000000 0.540902 0.250000
Si Si3 0.476888 0.277150 0.453849
Si Si4 0.538243 0.590174 0.135432
Si Si5 0.147342 0.209775 0.151763
Si Si6 0.591125 0.116074 0.849395
Si Si7 0.277557 0.179373 0.381286
Si Si8 0.732637 0.508941 0.702753
O O1 0.884521 0.512192 0.076360
O O2 0.783572 0.515621 0.114227
O O3 0.834780 0.693701 0.964396
O O4 0.828453 0.402759 0.914717
O O5 0.010697 0.634874 0.129491
O O6 0.049307 0.441945 0.267166
O O7 0.461382 0.412050 0.374540
O O8 0.525287 0.327604 0.516461
O O9 0.432245 0.240094 0.557960
O O10 0.500000 0.641203 0.250000
O O11 0.594281 0.631460 0.150631
O O12 0.139797 0.314664 0.268292
O O13 0.188222 0.083337 0.156810
O O14 0.250000 0.250000 0.500000
O O15 0.285781 0.317352 0.287447
O O16 0.242768 0.051055 0.332060
#
# Coordination Sequence:
#
# PCOD8147666 Si02
#       8
#     8   4   8   8   8   8   8   8
#     4  11  24  44  68 102 140 184 236 291 351 424
#     4  12  24  44  74 106 138 184 242 292 362 434
#     4  11  24  43  71  98 140 182 235 291 363 417
#     4  11  23  47  68 100 142 185 232 300 346 431
#     4  12  24  43  69  99 140 183 237 286 356 416
#     4  12  24  42  70 102 141 183 233 296 358 416
#     4  10  22  44  69  97 143 177 233 291 347 413
#     4  11  24  44  69 101 139 190 232 293 350 420
#
# _framework density 22.354521999999999
#
# number of rings (size 3 to 8) (size 9 to 14) (size 15 to 20)
#    0.000    0.800    2.000    6.400    1.867    1.067 
#    2.400    0.000    0.000    0.000    0.000    0.000 
#    0.000    0.000    0.000    0.000    0.000    0.000 
#
# Total GULP energy -371977.994742 kJ/mol
# GULP energy per Si atom -12399.266491 kJ/mol
# Density = 2.230364 g / cm^3
# Si number density = 22.354522 Si / 1000 Ang^3
#
#
#
# Elastic Constant Matrix: (Units=GPa)
#
#
# Indices 1 2 3 4 5 6 
#
# 1 116.9872 38.7149 26.4222 0.0000 21.8578 0.0000
# 2 38.7149 89.8107 36.5984 0.0000 21.1425 0.0000
# 3 26.4222 36.5984 83.6190 0.0000 12.9828 0.0000
# 4 0.0000 0.0000 0.0000 62.8749 0.0000 -2.7566
# 5 21.8578 21.1425 12.9828 0.0000 34.8201 0.0000
# 6 0.0000 0.0000 0.0000 -2.7566 0.0000 31.1197
#
#
#
# Elastic Compliance Matrix: (Units=1/GPa)
#
#
# Indices 1 2 3 4 5 6 
#
# 1 0.010670 -0.003013 -0.001376 0.000000 -0.004355 0.000000
# 2 -0.003013 0.015887 -0.005092 0.000000 -0.005856 0.000000
# 3 -0.001376 -0.005092 0.014869 0.000000 -0.001588 0.000000
# 4 0.000000 0.000000 0.000000 0.015967 0.000000 0.001414
# 5 -0.004355 -0.005856 -0.001588 0.000000 0.035601 0.000000
# 6 0.000000 0.000000 0.000000 0.001414 0.000000 0.032259
#
#
# Mechanical properties :
#
#
# Convention : Reuss Voigt Hill
#
# Bulk Modulus (GPa) = 44.51873 54.87641 49.69757
# Shear Modulus (GPa) = 32.95892 38.34170 35.65031
#
# Velocity S-wave (km/s) = 3.84392 4.14595 3.99779
# Velocity P-wave (km/s) = 6.29755 6.89348 6.60224
#
# Compressibility (1/GPa) = 0.02246246
#
# Stress axis : x y z
#
# Youngs Moduli (GPa) = 93.72353 62.94369 67.25303
#
# Poissons Ratio (x) = 0.18967 0.09257
# Poissons Ratio (y) = 0.28242 0.34246
# Poissons Ratio (z) = 0.12900 0.32051
#
# Static dielectric constant tensor:
#      x y z
#    x 3.451630 0.000000 0.934670 
#    y 0.000000 7.409840 0.000000 
#    z 0.934670 0.000000 3.365700 
# 
# 
# High freq. dielectric constant tensor:
#      x y z
#    x 1.873770 0.000000 0.014640 
#    y 0.000000 1.892680 0.000000 
#    z 0.014640 0.000000 1.889730 
# 
# From -- ./inp_files/121966.got.cif
#   From: 2010.06.25/outbox.cif.g09.slc.cpg/sg15_61_cif.got.tgz:121966.got - 2010.06.28 07:06:18.
