data_PCOD8147867
_publ_section_title
;
Structure prediction by ZEFSAII (Michael W. Deem and Ramdas Pophale) SiO2 
 PCOD8147867
Probable space group: C 2/C
;
_chemical_formula_sum "Si O2"
_cell_formula_units_Z 48
_cell_length_a 10.977279
_cell_length_b 11.262282
_cell_length_c 21.337686
_cell_angle_alpha 90.000000
_cell_angle_beta 53.073868
_cell_angle_gamma 90.000000
_cell_volume 2108.814568
_symmetry_space_group_name_H-M "C 2/C"
_symmetry_group_IT_number 15
_symmetry_cell_setting 'monoclinic'
loop_
_space_group_symop_operation_xyz
x,y,z
-x,y,1/2-z
-x,-y,-z
x,-y,1/2+z
1/2+x,1/2+y,z
1/2-x,1/2+y,1/2-z
1/2-x,1/2-y,-z
1/2+x,1/2-y,1/2+z
loop_
_atom_site_type_symbol
_atom_site_label
_atom_site_fract_x
_atom_site_fract_y
_atom_site_fract_z
Si Si1 0.364898 0.201859 0.410934
Si Si2 0.364254 0.644414 0.680104
Si Si3 0.633970 0.033090 0.661337
Si Si4 0.587882 0.462715 0.666406
Si Si5 0.904141 0.742537 0.916213
Si Si6 0.713623 0.842084 0.352494
O O1 0.250000 0.250000 0.500000
O O2 0.539273 0.241180 0.376080
O O3 0.320099 0.253155 0.357427
O O4 0.352191 0.059925 0.401358
O O5 0.292180 0.558513 0.649376
O O6 0.490062 0.576468 0.680207
O O7 0.237070 0.681644 0.770580
O O8 0.500000 0.991973 0.750000
O O9 0.596549 0.160271 0.644266
O O10 0.500000 0.395520 0.750000
O O11 0.586497 0.378489 0.607812
O O12 0.752085 0.520161 0.637140
O O13 0.039244 0.696948 0.920021
O O14 0.750000 0.750000 0.000000
#
# Coordination Sequence:
#
# PCOD8147867 Si02
#       6
#     8   8   8   8   8   8
#     4  11  26  43  73 103 138 180 231 300 361 413
#     4  10  22  45  73  95 131 181 237 289 341 417
#     4  12  25  45  69 103 137 184 240 283 351 433
#     4   9  21  42  68  91 125 180 227 279 344 414
#     4  12  27  40  64 101 143 177 222 291 353 414
#     4  10  22  46  67  95 133 181 236 278 347 427
#
# _framework density 22.761603000000001
#
# number of rings (size 3 to 8) (size 9 to 14) (size 15 to 20)
#    0.000    1.333    1.667    4.000    7.000    2.667 
#    0.000    0.000    0.000    0.000    0.000    0.000 
#    0.000    0.000    0.000    0.000    0.000    0.000 
#
# Total GULP energy -297313.238950 kJ/mol
# GULP energy per Si atom -12388.051623 kJ/mol
# Density = 2.270980 g / cm^3
# Si number density = 22.761603 Si / 1000 Ang^3
#
#
#
# Elastic Constant Matrix: (Units=GPa)
#
#
# Indices 1 2 3 4 5 6 
#
# 1 119.2661 38.9394 36.8653 0.0000 -21.9270 0.0000
# 2 38.9394 82.5099 35.4995 0.0000 -7.4972 0.0000
# 3 36.8653 35.4995 74.0857 0.0000 -20.3118 0.0000
# 4 0.0000 0.0000 0.0000 29.7282 0.0000 4.6125
# 5 -21.9270 -7.4972 -20.3118 0.0000 32.2380 0.0000
# 6 0.0000 0.0000 0.0000 4.6125 0.0000 37.6001
#
#
#
# Elastic Compliance Matrix: (Units=1/GPa)
#
#
# Indices 1 2 3 4 5 6 
#
# 1 0.011352 -0.003870 -0.002326 0.000000 0.005355 0.000000
# 2 -0.003870 0.016630 -0.006895 0.000000 -0.003109 0.000000
# 3 -0.002326 -0.006895 0.020654 0.000000 0.009827 0.000000
# 4 0.000000 0.000000 0.000000 0.034291 0.000000 -0.004207
# 5 0.005355 -0.003109 0.009827 0.000000 0.040131 0.000000
# 6 0.000000 0.000000 0.000000 -0.004207 0.000000 0.027112
#
#
# Mechanical properties :
#
#
# Convention : Reuss Voigt Hill
#
# Bulk Modulus (GPa) = 44.53752 55.38557 49.96155
# Shear Modulus (GPa) = 27.19816 30.88376 29.04096
#
# Velocity S-wave (km/s) = 3.46050 3.68752 3.57581
# Velocity P-wave (km/s) = 5.96458 6.52044 6.24869
#
# Compressibility (1/GPa) = 0.02245298
#
# Stress axis : x y z
#
# Youngs Moduli (GPa) = 88.09276 60.13110 48.41735
#
# Poissons Ratio (x) = 0.23270 0.11262
# Poissons Ratio (y) = 0.34091 0.33386
# Poissons Ratio (z) = 0.20490 0.41463
#
# Static dielectric constant tensor:
#      x y z
#    x 4.232170 0.000000 -0.464630 
#    y 0.000000 3.334870 0.000000 
#    z -0.464630 0.000000 3.459310 
# 
# 
# High freq. dielectric constant tensor:
#      x y z
#    x 1.903600 0.000000 -0.004490 
#    y 0.000000 1.896040 0.000000 
#    z -0.004490 0.000000 1.886130 
# 
# From -- ./inp_files/237429.got.cif
#   From: 2010.06.25/outbox.cif.g09.slc.cpg/sg15_119_cif.got.tgz:237429.got - 2010.06.28 07:06:18.
