data_PCOD8147687
_publ_section_title
;
Structure prediction by ZEFSAII (Michael W. Deem and Ramdas Pophale) SiO2 
 PCOD8147687
Probable space group: C 2/C
;
_chemical_formula_sum "Si O2"
_cell_formula_units_Z 36
_cell_length_a 16.770237
_cell_length_b 8.545004
_cell_length_c 16.653179
_cell_angle_alpha 90.000000
_cell_angle_beta 147.687906
_cell_angle_gamma 90.000000
_cell_volume 1275.619998
_symmetry_space_group_name_H-M "C 2/C"
_symmetry_group_IT_number 15
_symmetry_cell_setting 'monoclinic'
loop_
_space_group_symop_operation_xyz
x,y,z
-x,y,1/2-z
-x,-y,-z
x,-y,1/2+z
1/2+x,1/2+y,z
1/2-x,1/2+y,1/2-z
1/2-x,1/2-y,-z
1/2+x,1/2-y,1/2+z
loop_
_atom_site_type_symbol
_atom_site_label
_atom_site_fract_x
_atom_site_fract_y
_atom_site_fract_z
Si Si1 0.696633 0.464278 0.635685
Si Si2 0.034357 0.518478 0.903837
Si Si3 0.783437 0.865378 0.195315
Si Si4 0.395704 0.662329 0.092885
Si Si5 0.000000 0.275779 0.750000
O O1 0.668093 0.277856 0.616072
O O2 0.624813 0.567860 0.647768
O O3 0.642960 0.529362 0.504397
O O4 0.875596 0.461388 0.799713
O O5 0.003228 0.697978 0.855247
O O6 0.093845 0.398333 0.884800
O O7 0.171912 0.510289 0.082790
O O8 0.894007 0.830391 0.215729
O O9 0.500000 0.582060 0.250000
O O10 0.250000 0.750000 0.000000
#
# Coordination Sequence:
#
# PCOD8147687 Si02
#       5
#     8   8   8   8   4
#     4  11  25  47  73 116 149 203 257 321 382 461
#     4  11  22  47  75 104 155 204 251 316 385 455
#     4  11  24  47  76 112 159 199 255 321 387 457
#     4  12  23  48  76 110 156 205 257 317 392 460
#     4  10  22  44  70 114 148 198 256 306 382 460
#
# _framework density 28.221568999999999
#
# number of rings (size 3 to 8) (size 9 to 14) (size 15 to 20)
#    0.000    0.889    3.333    4.000    0.000    1.778 
#   12.000    5.556    0.000    1.333    0.000    0.000 
#    0.000    0.000    0.000    0.000    0.000    0.000 
#
# Total GULP energy -223070.505844 kJ/mol
# GULP energy per Si atom -12392.805880 kJ/mol
# Density = 2.815734 g / cm^3
# Si number density = 28.221569 Si / 1000 Ang^3
#
#
#
# Elastic Constant Matrix: (Units=GPa)
#
#
# Indices 1 2 3 4 5 6 
#
# 1 129.8540 36.6201 29.2456 0.0000 -24.5712 0.0000
# 2 36.6201 121.9860 23.0241 0.0000 -21.3025 0.0000
# 3 29.2456 23.0241 120.4398 0.0000 -37.1506 0.0000
# 4 0.0000 0.0000 0.0000 24.5087 0.0000 13.0224
# 5 -24.5712 -21.3025 -37.1506 0.0000 42.8266 0.0000
# 6 0.0000 0.0000 0.0000 13.0224 0.0000 26.0647
#
#
#
# Elastic Compliance Matrix: (Units=1/GPa)
#
#
# Indices 1 2 3 4 5 6 
#
# 1 0.009102 -0.001964 -0.000717 0.000000 0.003623 0.000000
# 2 -0.001964 0.009420 -0.000309 0.000000 0.003291 0.000000
# 3 -0.000717 -0.000309 0.011417 0.000000 0.009338 0.000000
# 4 0.000000 0.000000 0.000000 0.055548 0.000000 -0.027753
# 5 0.003623 0.003291 0.009338 0.000000 0.035166 0.000000
# 6 0.000000 0.000000 0.000000 -0.027753 0.000000 0.052232
#
#
# Mechanical properties :
#
#
# Convention : Reuss Voigt Hill
#
# Bulk Modulus (GPa) = 41.73893 61.11770 51.42831
# Shear Modulus (GPa) = 26.75922 37.57267 32.16595
#
# Velocity S-wave (km/s) = 3.08260 3.65272 3.37970
# Velocity P-wave (km/s) = 5.24326 6.28436 5.78727
#
# Compressibility (1/GPa) = 0.02395845
#
# Stress axis : x y z
#
# Youngs Moduli (GPa) = 109.86619 106.15331 87.59179
#
# Poissons Ratio (x) = 0.20852 0.06281
# Poissons Ratio (y) = 0.21582 0.02704
# Poissons Ratio (z) = 0.07879 0.03277
#
# Static dielectric constant tensor:
#      x y z
#    x 5.342520 0.000000 -0.402120 
#    y 0.000000 6.505640 0.000000 
#    z -0.402120 0.000000 5.261660 
# 
# 
# High freq. dielectric constant tensor:
#      x y z
#    x 2.134000 0.000000 -0.003960 
#    y 0.000000 2.156000 0.000000 
#    z -0.003960 0.000000 2.152040 
# 
# From -- ./inp_files/214380.got.cif
#   From: 2010.06.25/outbox.cif.g09.slc.cpg/sg15_108_cif.got.tgz:214380.got - 2010.06.28 07:06:18.
