data_PCOD8147699
_publ_section_title
;
Structure prediction by ZEFSAII (Michael W. Deem and Ramdas Pophale) SiO2 
 PCOD8147699
Probable space group: C 2/C
;
_chemical_formula_sum "Si O2"
_cell_formula_units_Z 60
_cell_length_a 11.290996
_cell_length_b 8.663612
_cell_length_c 31.902047
_cell_angle_alpha 90.000000
_cell_angle_beta 67.927160
_cell_angle_gamma 90.000000
_cell_volume 2891.959325
_symmetry_space_group_name_H-M "C 2/C"
_symmetry_group_IT_number 15
_symmetry_cell_setting 'monoclinic'
loop_
_space_group_symop_operation_xyz
x,y,z
-x,y,1/2-z
-x,-y,-z
x,-y,1/2+z
1/2+x,1/2+y,z
1/2-x,1/2+y,1/2-z
1/2-x,1/2-y,-z
1/2+x,1/2-y,1/2+z
loop_
_atom_site_type_symbol
_atom_site_label
_atom_site_fract_x
_atom_site_fract_y
_atom_site_fract_z
Si Si1 0.082869 0.151021 0.776619
Si Si2 0.759155 0.850827 0.558809
Si Si3 0.677110 0.023621 0.270275
Si Si4 0.000000 0.297293 0.250000
Si Si5 0.211297 0.855593 0.665329
Si Si6 0.379043 0.365454 0.091002
Si Si7 0.449629 0.149615 0.482677
Si Si8 0.092404 0.895124 0.124857
O O1 0.194833 0.029534 0.771042
O O2 0.143721 0.312629 0.754022
O O3 0.000000 0.081808 0.750000
O O4 0.996928 0.181200 0.828345
O O5 0.653985 0.901011 0.538431
O O6 0.883680 0.772284 0.522269
O O7 0.699311 0.729917 0.599344
O O8 0.802275 0.004222 0.576767
O O9 0.565993 0.901396 0.276774
O O10 0.695645 0.038120 0.318296
O O11 0.099097 0.193177 0.211606
O O12 0.285909 0.707028 0.638396
O O13 0.158640 0.950124 0.632794
O O14 0.425862 0.230385 0.053730
O O15 0.505119 0.438088 0.096323
O O16 0.500000 0.000000 0.500000
#
# Coordination Sequence:
#
# PCOD8147699 Si02
#       8
#     8   8   8   4   8   8   8   8
#     4  12  24  41  65  87 124 175 217 273 324 374
#     4  10  24  42  67  99 129 166 207 261 321 386
#     4  12  24  40  61  87 121 164 220 266 324 374
#     4  12  26  38  64  88 124 166 228 272 322 378
#     4  12  25  41  60  92 125 169 217 269 321 378
#     4  11  24  41  67  97 132 166 214 261 318 388
#     4  10  22  44  70  98 132 165 205 256 319 389
#     4  11  24  41  63  90 130 166 215 265 321 378
#
# _framework density 20.747178999999999
#
# number of rings (size 3 to 8) (size 9 to 14) (size 15 to 20)
#    0.000    0.800    4.667    2.000    1.867    3.733 
#    0.000    0.000    0.000    0.000    0.000    0.000 
#    0.000    0.000    0.000    0.000    0.000    0.000 
#
# Total GULP energy -372094.627771 kJ/mol
# GULP energy per Si atom -12403.154259 kJ/mol
# Density = 2.069996 g / cm^3
# Si number density = 20.747179 Si / 1000 Ang^3
#
#
#
# Elastic Constant Matrix: (Units=GPa)
#
#
# Indices 1 2 3 4 5 6 
#
# 1 108.4617 62.2430 38.7053 0.0000 12.7202 0.0000
# 2 62.2430 102.9940 41.1888 0.0000 13.5209 0.0000
# 3 38.7053 41.1888 105.0808 0.0000 -2.9415 0.0000
# 4 0.0000 0.0000 0.0000 35.4813 0.0000 14.7058
# 5 12.7202 13.5209 -2.9415 0.0000 37.7945 0.0000
# 6 0.0000 0.0000 0.0000 14.7058 0.0000 35.4624
#
#
#
# Elastic Compliance Matrix: (Units=1/GPa)
#
#
# Indices 1 2 3 4 5 6 
#
# 1 0.014766 -0.007589 -0.002533 0.000000 -0.002452 0.000000
# 2 -0.007589 0.016225 -0.003663 0.000000 -0.003535 0.000000
# 3 -0.002533 -0.003663 0.011972 0.000000 0.003095 0.000000
# 4 0.000000 0.000000 0.000000 0.034033 0.000000 -0.014113
# 5 -0.002452 -0.003535 0.003095 0.000000 0.028790 0.000000
# 6 0.000000 0.000000 0.000000 -0.014113 0.000000 0.034051
#
#
# Mechanical properties :
#
#
# Convention : Reuss Voigt Hill
#
# Bulk Modulus (GPa) = 64.96632 66.75676 65.86154
# Shear Modulus (GPa) = 28.97892 33.37426 31.17659
#
# Velocity S-wave (km/s) = 3.74139 4.01511 3.88066
# Velocity P-wave (km/s) = 7.07427 7.33082 7.20369
#
# Compressibility (1/GPa) = 0.01539259
#
# Stress axis : x y z
#
# Youngs Moduli (GPa) = 67.72103 61.63426 83.52805
#
# Poissons Ratio (x) = 0.46774 0.21158
# Poissons Ratio (y) = 0.51394 0.30599
# Poissons Ratio (z) = 0.17154 0.22578
#
# Static dielectric constant tensor:
#      x y z
#    x 4.078240 0.000000 0.036850 
#    y 0.000000 3.661580 0.000000 
#    z 0.036850 0.000000 3.813900 
# 
# 
# High freq. dielectric constant tensor:
#      x y z
#    x 1.829700 0.000000 -0.001360 
#    y 0.000000 1.811560 0.000000 
#    z -0.001360 0.000000 1.809610 
# 
# From -- ./inp_files/309995.got.cif
#   From: 2010.06.25/outbox.cif.g09.slc.cpg/sg15_155_cif.got.tgz:309995.got - 2010.06.28 07:06:18.
