data_PCOD8147964
_publ_section_title
;
Structure prediction by ZEFSAII (Michael W. Deem and Ramdas Pophale) SiO2 
 PCOD8147964
Probable space group: C 2/C
;
_chemical_formula_sum "Si O2"
_cell_formula_units_Z 40
_cell_length_a 13.738526
_cell_length_b 5.028879
_cell_length_c 22.150591
_cell_angle_alpha 90.000000
_cell_angle_beta 75.769634
_cell_angle_gamma 90.000000
_cell_volume 1483.411594
_symmetry_space_group_name_H-M "C 2/C"
_symmetry_group_IT_number 15
_symmetry_cell_setting 'monoclinic'
loop_
_space_group_symop_operation_xyz
x,y,z
-x,y,1/2-z
-x,-y,-z
x,-y,1/2+z
1/2+x,1/2+y,z
1/2-x,1/2+y,1/2-z
1/2-x,1/2-y,-z
1/2+x,1/2-y,1/2+z
loop_
_atom_site_type_symbol
_atom_site_label
_atom_site_fract_x
_atom_site_fract_y
_atom_site_fract_z
Si Si1 0.617108 0.532449 0.250883
Si Si2 0.021231 0.957000 0.124371
Si Si3 0.944303 0.458527 0.071165
Si Si4 0.234702 0.176644 0.071179
Si Si5 0.708157 0.029727 0.182160
O O1 0.504515 0.498894 0.299196
O O2 0.655262 0.316261 0.195678
O O3 0.686380 0.502228 0.299782
O O4 0.628582 0.823617 0.222258
O O5 0.957926 0.159895 0.092570
O O6 0.137389 0.995038 0.092964
O O7 0.991424 0.656994 0.113072
O O8 0.825784 0.501629 0.083181
O O9 0.000000 0.500000 0.000000
O O10 0.224660 0.452491 0.109666
O O11 0.250000 0.250000 0.000000
#
# Coordination Sequence:
#
# PCOD8147964 Si02
#       5
#     8   8   8   8   8
#     4  10  22  46  77 104 146 204 252 312 385 441
#     4  12  27  49  80 114 154 206 260 322 393 460
#     4  12  27  49  76 114 163 204 256 317 390 471
#     4  12  28  50  80 120 157 206 261 320 397 475
#     4  10  23  44  77 107 146 201 253 312 378 460
#
# _framework density 26.964867999999999
#
# number of rings (size 3 to 8) (size 9 to 14) (size 15 to 20)
#    0.000    0.800    4.000    1.800    5.600    4.800 
#    0.000    2.000    0.000    0.000    0.000    0.000 
#    0.000    0.000    0.000    0.000    0.000    0.000 
#
# Total GULP energy -248221.741787 kJ/mol
# GULP energy per Si atom -12411.087089 kJ/mol
# Density = 2.690349 g / cm^3
# Si number density = 26.964868 Si / 1000 Ang^3
#
#
#
# Elastic Constant Matrix: (Units=GPa)
#
#
# Indices 1 2 3 4 5 6 
#
# 1 181.5478 19.7173 30.4628 0.0017 -29.0067 0.0006
# 2 19.7173 78.4861 0.5497 0.0055 -2.0987 0.0006
# 3 30.4628 0.5497 192.6785 0.0022 -5.2443 0.0007
# 4 0.0017 0.0055 0.0022 42.6975 0.0010 1.4848
# 5 -29.0067 -2.0987 -5.2443 0.0010 46.9622 0.0007
# 6 0.0006 0.0006 0.0007 1.4848 0.0007 37.8614
#
#
#
# Elastic Compliance Matrix: (Units=1/GPa)
#
#
# Indices 1 2 3 4 5 6 
#
# 1 0.006432 -0.001508 -0.000909 0.000000 0.003804 0.000000
# 2 -0.001508 0.013110 0.000192 -0.000002 -0.000324 0.000000
# 3 -0.000909 0.000192 0.005334 0.000000 0.000043 0.000000
# 4 0.000000 -0.000002 0.000000 0.023453 -0.000001 -0.000920
# 5 0.003804 -0.000324 0.000043 -0.000001 0.023634 0.000000
# 6 0.000000 0.000000 0.000000 -0.000920 0.000000 0.026448
#
#
# Mechanical properties :
#
#
# Convention : Reuss Voigt Hill
#
# Bulk Modulus (GPa) = 48.95488 61.57467 55.26477
# Shear Modulus (GPa) = 45.59153 52.30305 48.94729
#
# Velocity S-wave (km/s) = 4.11636 4.40895 4.26517
# Velocity P-wave (km/s) = 6.38648 6.98593 6.69292
#
# Compressibility (1/GPa) = 0.02042697
#
# Stress axis : x y z
#
# Youngs Moduli (GPa) = 155.46557 76.27825 187.46457
#
# Poissons Ratio (x) = 0.11502 0.17043
# Poissons Ratio (y) = 0.23442 -0.03603
# Poissons Ratio (z) = 0.14134 -0.01466
#
# Static dielectric constant tensor:
#      x y z
#    x 5.556950 -0.000010 0.150740 
#    y -0.000010 4.742440 0.000010 
#    z 0.150740 0.000010 5.399510 
# 
# 
# High freq. dielectric constant tensor:
#      x y z
#    x 2.129350 0.000000 0.005610 
#    y 0.000000 2.080650 0.000000 
#    z 0.005610 0.000000 2.113890 
# 
# From -- ./inp_files/271826.got.cif
#   From: 2010.06.25/outbox.cif.g09.slc.cpg/sg15_136_cif.got.tgz:271826.got - 2010.06.28 07:06:18.
