data_PCOD8147038
_publ_section_title
;
Structure prediction by ZEFSAII (Michael W. Deem and Ramdas Pophale) SiO2 
 PCOD8147038
Probable space group: C 2/C
;
_chemical_formula_sum "Si O2"
_cell_formula_units_Z 60
_cell_length_a 31.172965
_cell_length_b 10.836894
_cell_length_c 11.638482
_cell_angle_alpha 90.000000
_cell_angle_beta 131.328629
_cell_angle_gamma 90.000000
_cell_volume 2952.440766
_symmetry_space_group_name_H-M "C 2/C"
_symmetry_group_IT_number 15
_symmetry_cell_setting 'monoclinic'
loop_
_space_group_symop_operation_xyz
x,y,z
-x,y,1/2-z
-x,-y,-z
x,-y,1/2+z
1/2+x,1/2+y,z
1/2-x,1/2+y,1/2-z
1/2-x,1/2-y,-z
1/2+x,1/2-y,1/2+z
loop_
_atom_site_type_symbol
_atom_site_label
_atom_site_fract_x
_atom_site_fract_y
_atom_site_fract_z
Si Si1 0.810932 0.721922 0.552985
Si Si2 0.346225 0.646235 0.499767
Si Si3 0.141532 0.249227 0.731836
Si Si4 0.141684 0.374533 0.136698
Si Si5 0.950194 0.431715 0.976774
Si Si6 0.780297 0.585274 0.277009
Si Si7 0.000000 0.251397 0.250000
Si Si8 0.611582 0.388784 0.952053
O O1 0.750000 0.750000 0.500000
O O2 0.855061 0.674259 0.727206
O O3 0.804936 0.617088 0.445993
O O4 0.837127 0.843309 0.539841
O O5 0.339073 0.677378 0.620884
O O6 0.368165 0.763720 0.468715
O O7 0.287462 0.596153 0.342491
O O8 0.391868 0.536777 0.562983
O O9 0.091255 0.346990 0.675529
O O10 0.195256 0.324384 0.777476
O O11 0.120837 0.150719 0.600589
O O12 0.088803 0.467769 0.026802
O O13 0.201294 0.444125 0.213775
O O14 0.980120 0.339594 0.115061
O O15 0.000000 0.500000 0.000000
O O16 0.947997 0.165577 0.200071
#
# Coordination Sequence:
#
# PCOD8147038 Si02
#       8
#     8   8   8   8   8   8   4   8
#     4  11  21  42  64  94 132 172 211 252 323 389
#     4  12  24  39  65  96 131 167 212 266 307 385
#     4   9  23  42  61  95 127 167 214 256 322 377
#     4  11  25  38  65 104 122 167 223 259 314 378
#     4  10  22  42  69  92 124 163 211 273 320 370
#     4  10  23  40  63  92 136 170 203 261 318 378
#     4  10  22  48  66  86 124 172 210 260 336 378
#     4  10  24  43  65  88 127 174 212 261 325 385
#
# _framework density 20.322168000000001
#
# number of rings (size 3 to 8) (size 9 to 14) (size 15 to 20)
#    0.000    1.600    1.333    2.800    9.333    1.067 
#    2.400    1.333    0.000    0.000    0.000    0.000 
#    0.000    0.000    0.000    0.000    0.000    0.000 
#
# Total GULP energy -372069.078885 kJ/mol
# GULP energy per Si atom -12402.302630 kJ/mol
# Density = 2.027591 g / cm^3
# Si number density = 20.322168 Si / 1000 Ang^3
#
#
#
# Elastic Constant Matrix: (Units=GPa)
#
#
# Indices 1 2 3 4 5 6 
#
# 1 99.3062 51.3039 35.3577 0.0000 3.3865 0.0000
# 2 51.3039 143.1880 43.5007 0.0000 -3.6950 0.0000
# 3 35.3577 43.5007 90.5026 0.0000 -8.5099 0.0000
# 4 0.0000 0.0000 0.0000 26.8117 0.0000 5.7919
# 5 3.3865 -3.6950 -8.5099 0.0000 40.4557 0.0000
# 6 0.0000 0.0000 0.0000 5.7919 0.0000 32.4971
#
#
#
# Elastic Compliance Matrix: (Units=1/GPa)
#
#
# Indices 1 2 3 4 5 6 
#
# 1 0.013375 -0.003745 -0.003634 0.000000 -0.002226 0.000000
# 2 -0.003745 0.009227 -0.002921 0.000000 0.000542 0.000000
# 3 -0.003634 -0.002921 0.014157 0.000000 0.003015 0.000000
# 4 0.000000 0.000000 0.000000 0.038791 0.000000 -0.006914
# 5 -0.002226 0.000542 0.003015 0.000000 0.025589 0.000000
# 6 0.000000 0.000000 0.000000 -0.006914 0.000000 0.032004
#
#
# Mechanical properties :
#
#
# Convention : Reuss Voigt Hill
#
# Bulk Modulus (GPa) = 61.89128 65.92459 63.90794
# Shear Modulus (GPa) = 31.42103 33.47521 32.44812
#
# Velocity S-wave (km/s) = 3.93637 4.06301 4.00019
# Velocity P-wave (km/s) = 7.15410 7.38382 7.26987
#
# Compressibility (1/GPa) = 0.01615736
#
# Stress axis : x y z
#
# Youngs Moduli (GPa) = 74.76763 108.37557 70.63781
#
# Poissons Ratio (x) = 0.40592 0.25672
# Poissons Ratio (y) = 0.28004 0.20632
# Poissons Ratio (z) = 0.27173 0.31655
#
# Static dielectric constant tensor:
#      x y z
#    x 3.752900 0.000000 0.251960 
#    y 0.000000 3.639630 0.000000 
#    z 0.251960 0.000000 3.823840 
# 
# 
# High freq. dielectric constant tensor:
#      x y z
#    x 1.788070 0.000000 0.000600 
#    y 0.000000 1.801720 0.000000 
#    z 0.000600 0.000000 1.792860 
# 
# From -- ./inp_files/126465.got.cif
#   From: 2010.06.25/outbox.cif.g09.slc.cpg/sg15_64_cif.got.tgz:126465.got - 2010.06.28 07:06:18.
