data_PCOD8147293
_publ_section_title
;
Structure prediction by ZEFSAII (Michael W. Deem and Ramdas Pophale) SiO2 
 PCOD8147293
Probable space group: C 2/C
;
_chemical_formula_sum "Si O2"
_cell_formula_units_Z 44
_cell_length_a 22.386982
_cell_length_b 10.467175
_cell_length_c 12.110200
_cell_angle_alpha 90.000000
_cell_angle_beta 43.974641
_cell_angle_gamma 90.000000
_cell_volume 1970.373185
_symmetry_space_group_name_H-M "C 2/C"
_symmetry_group_IT_number 15
_symmetry_cell_setting 'monoclinic'
loop_
_space_group_symop_operation_xyz
x,y,z
-x,y,1/2-z
-x,-y,-z
x,-y,1/2+z
1/2+x,1/2+y,z
1/2-x,1/2+y,1/2-z
1/2-x,1/2-y,-z
1/2+x,1/2-y,1/2+z
loop_
_atom_site_type_symbol
_atom_site_label
_atom_site_fract_x
_atom_site_fract_y
_atom_site_fract_z
Si Si1 0.915218 0.732029 0.669005
Si Si2 0.877084 0.551369 0.532652
Si Si3 0.064252 0.883751 0.390778
Si Si4 0.836358 0.209020 0.946169
Si Si5 0.000000 0.623350 0.750000
Si Si6 0.695531 0.443265 0.794757
O O1 0.880852 0.606432 0.651824
O O2 0.925968 0.706425 0.786064
O O3 0.849362 0.848769 0.735105
O O4 0.013135 0.758656 0.496879
O O5 0.879303 0.666894 0.442455
O O6 0.793605 0.462542 0.630610
O O7 0.958249 0.462636 0.400992
O O8 0.093818 0.859834 0.225326
O O9 0.149578 0.916999 0.348451
O O10 0.000000 0.000000 0.500000
O O11 0.750000 0.250000 0.000000
O O12 0.812325 0.107524 0.071528
#
# Coordination Sequence:
#
# PCOD8147293 Si02
#       6
#     8   8   8   8   4   8
#     4  10  25  42  63  99 132 176 224 280 346 410
#     4  11  24  43  66  99 134 179 229 280 341 422
#     4  10  22  43  66  97 135 174 225 279 340 412
#     4  11  23  41  69  98 130 183 222 276 349 409
#     4  12  26  40  66  92 140 178 214 290 352 408
#     4  10  24  42  69  97 131 174 234 284 331 416
#
# _framework density 22.330795999999999
#
# number of rings (size 3 to 8) (size 9 to 14) (size 15 to 20)
#    0.000    1.455    1.818    1.636    5.091    9.455 
#    0.000    0.000    0.000    0.000    0.000    0.000 
#    0.000    0.000    0.000    0.000    0.000    0.000 
#
# Total GULP energy -272720.220957 kJ/mol
# GULP energy per Si atom -12396.373680 kJ/mol
# Density = 2.227997 g / cm^3
# Si number density = 22.330796 Si / 1000 Ang^3
#
#
#
# Elastic Constant Matrix: (Units=GPa)
#
#
# Indices 1 2 3 4 5 6 
#
# 1 134.0732 48.3414 23.6691 0.0000 12.2947 0.0000
# 2 48.3414 86.4212 49.8725 0.0000 6.3392 0.0000
# 3 23.6691 49.8725 100.5080 0.0000 -0.2998 0.0000
# 4 0.0000 0.0000 0.0000 39.9393 0.0000 -1.6283
# 5 12.2947 6.3392 -0.2998 0.0000 38.0694 0.0000
# 6 0.0000 0.0000 0.0000 -1.6283 0.0000 37.8169
#
#
#
# Elastic Compliance Matrix: (Units=1/GPa)
#
#
# Indices 1 2 3 4 5 6 
#
# 1 0.009538 -0.005431 0.000442 0.000000 -0.002172 0.000000
# 2 -0.005431 0.019603 -0.008453 0.000000 -0.001577 0.000000
# 3 0.000442 -0.008453 0.014044 0.000000 0.001375 0.000000
# 4 0.000000 0.000000 0.000000 0.025082 0.000000 0.001080
# 5 -0.002172 -0.001577 0.001375 0.000000 0.027243 0.000000
# 6 0.000000 0.000000 0.000000 0.001080 0.000000 0.026490
#
#
# Mechanical properties :
#
#
# Convention : Reuss Voigt Hill
#
# Bulk Modulus (GPa) = 61.34430 62.75205 62.04817
# Shear Modulus (GPa) = 32.40104 36.43975 34.42040
#
# Velocity S-wave (km/s) = 3.81328 4.04396 3.93031
# Velocity P-wave (km/s) = 6.84970 7.06873 6.96008
#
# Compressibility (1/GPa) = 0.01630143
#
# Stress axis : x y z
#
# Youngs Moduli (GPa) = 104.84372 51.01293 71.20644
#
# Poissons Ratio (x) = 0.27706 -0.03150
# Poissons Ratio (y) = 0.56942 0.60189
# Poissons Ratio (z) = -0.04638 0.43120
#
# Static dielectric constant tensor:
#      x y z
#    x 4.290370 0.000000 -0.216710 
#    y 0.000000 4.239330 0.000000 
#    z -0.216710 0.000000 4.022790 
# 
# 
# High freq. dielectric constant tensor:
#      x y z
#    x 1.889030 0.000000 -0.010120 
#    y 0.000000 1.882050 0.000000 
#    z -0.010120 0.000000 1.868160 
# 
# From -- ./inp_files/117899.got.cif
#   From: 2010.06.25/outbox.cif.g09.slc.cpg/sg15_59_cif.got.tgz:117899.got - 2010.06.28 07:06:18.
