data_PCOD8147299
_publ_section_title
;
Structure prediction by ZEFSAII (Michael W. Deem and Ramdas Pophale) SiO2 
 PCOD8147299
Probable space group: C 2/C
;
_chemical_formula_sum "Si O2"
_cell_formula_units_Z 44
_cell_length_a 11.891331
_cell_length_b 23.653791
_cell_length_c 8.068485
_cell_angle_alpha 90.000000
_cell_angle_beta 65.338747
_cell_angle_gamma 90.000000
_cell_volume 2062.467080
_symmetry_space_group_name_H-M "C 2/C"
_symmetry_group_IT_number 15
_symmetry_cell_setting 'monoclinic'
loop_
_space_group_symop_operation_xyz
x,y,z
-x,y,1/2-z
-x,-y,-z
x,-y,1/2+z
1/2+x,1/2+y,z
1/2-x,1/2+y,1/2-z
1/2-x,1/2-y,-z
1/2+x,1/2-y,1/2+z
loop_
_atom_site_type_symbol
_atom_site_label
_atom_site_fract_x
_atom_site_fract_y
_atom_site_fract_z
Si Si1 0.500000 0.400949 0.250000
Si Si2 0.268802 0.074142 0.149676
Si Si3 0.531700 0.900725 0.418704
Si Si4 0.588520 0.211403 0.042052
Si Si5 0.778480 0.956542 0.198377
Si Si6 0.326385 0.671227 0.079107
O O1 0.404996 0.439128 0.206846
O O2 0.433051 0.362054 0.422487
O O3 0.214244 0.135360 0.234842
O O4 0.219549 0.024710 0.299644
O O5 0.417262 0.071965 0.088971
O O6 0.227047 0.064812 0.986392
O O7 0.500000 0.909884 0.250000
O O8 0.527253 0.834096 0.459345
O O9 0.662368 0.931544 0.376608
O O10 0.500000 0.227977 0.250000
O O11 0.711532 0.180749 0.029205
O O12 0.619088 0.266573 0.911496
#
# Coordination Sequence:
#
# PCOD8147299 Si02
#       6
#     4   8   8   8   8   8
#     4  12  24  44  64  92 140 174 220 264 328 404
#     4  11  24  44  67  98 131 171 219 273 328 386
#     4  10  22  43  67 101 131 166 219 275 327 384
#     4  11  21  42  70  96 128 172 221 271 322 386
#     4  11  25  42  68  98 134 173 217 269 331 391
#     4  11  24  40  66  98 130 175 219 265 326 388
#
# _framework density 21.333672
#
# number of rings (size 3 to 8) (size 9 to 14) (size 15 to 20)
#    0.000    1.091    4.545    1.636    0.000    3.636 
#    3.273    1.818    0.000    0.000    0.000    0.000 
#    0.000    0.000    0.000    0.000    0.000    0.000 
#
# Total GULP energy -272763.964496 kJ/mol
# GULP energy per Si atom -12398.362023 kJ/mol
# Density = 2.128512 g / cm^3
# Si number density = 21.333672 Si / 1000 Ang^3
#
#
#
# Elastic Constant Matrix: (Units=GPa)
#
#
# Indices 1 2 3 4 5 6 
#
# 1 121.5714 54.1608 36.4958 0.0000 -21.0010 0.0000
# 2 54.1608 151.4621 43.0765 0.0000 -0.7421 0.0000
# 3 36.4958 43.0765 74.7141 0.0000 -15.3773 0.0000
# 4 0.0000 0.0000 0.0000 48.9301 0.0000 1.3352
# 5 -21.0010 -0.7421 -15.3773 0.0000 24.5096 0.0000
# 6 0.0000 0.0000 0.0000 1.3352 0.0000 43.1812
#
#
#
# Elastic Compliance Matrix: (Units=1/GPa)
#
#
# Indices 1 2 3 4 5 6 
#
# 1 0.011994 -0.003714 -0.001866 0.000000 0.008994 0.000000
# 2 -0.003714 0.009245 -0.004723 0.000000 -0.005866 0.000000
# 3 -0.001866 -0.004723 0.019131 0.000000 0.010260 0.000000
# 4 0.000000 0.000000 0.000000 0.020455 0.000000 -0.000632
# 5 0.008994 -0.005866 0.010260 0.000000 0.054766 0.000000
# 6 0.000000 0.000000 0.000000 -0.000632 0.000000 0.023178
#
#
# Mechanical properties :
#
#
# Convention : Reuss Voigt Hill
#
# Bulk Modulus (GPa) = 50.60048 68.35709 59.47878
# Shear Modulus (GPa) = 30.12699 37.59182 33.85941
#
# Velocity S-wave (km/s) = 3.76198 4.20228 3.98821
# Velocity P-wave (km/s) = 6.52993 7.46036 7.01060
#
# Compressibility (1/GPa) = 0.01976266
#
# Stress axis : x y z
#
# Youngs Moduli (GPa) = 83.37360 108.16659 52.27110
#
# Poissons Ratio (x) = 0.40174 0.09756
# Poissons Ratio (y) = 0.30966 0.24689
# Poissons Ratio (z) = 0.15561 0.51090
#
# Static dielectric constant tensor:
#      x y z
#    x 3.948240 0.000000 -0.461900 
#    y 0.000000 4.027920 0.000000 
#    z -0.461900 0.000000 3.949710 
# 
# 
# High freq. dielectric constant tensor:
#      x y z
#    x 1.835150 0.000000 -0.023120 
#    y 0.000000 1.850580 0.000000 
#    z -0.023120 0.000000 1.831740 
# 
# From -- ./inp_files/32425.got.cif
#   From: 2010.06.25/outbox.cif.g09.slc.cpg/sg15_17_cif.got.tgz:32425.got - 2010.06.28 07:06:18.
