data_PCOD8147466
_publ_section_title
;
Structure prediction by ZEFSAII (Michael W. Deem and Ramdas Pophale) SiO2 
 PCOD8147466
Probable space group: C 2/C
;
_chemical_formula_sum "Si O2"
_cell_formula_units_Z 48
_cell_length_a 9.546782
_cell_length_b 9.787993
_cell_length_c 26.582564
_cell_angle_alpha 90.000000
_cell_angle_beta 99.365586
_cell_angle_gamma 90.000000
_cell_volume 2450.865532
_symmetry_space_group_name_H-M "C 2/C"
_symmetry_group_IT_number 15
_symmetry_cell_setting 'monoclinic'
loop_
_space_group_symop_operation_xyz
x,y,z
-x,y,1/2-z
-x,-y,-z
x,-y,1/2+z
1/2+x,1/2+y,z
1/2-x,1/2+y,1/2-z
1/2-x,1/2-y,-z
1/2+x,1/2-y,1/2+z
loop_
_atom_site_type_symbol
_atom_site_label
_atom_site_fract_x
_atom_site_fract_y
_atom_site_fract_z
Si Si1 0.771152 0.276130 0.639058
Si Si2 0.300442 0.488242 0.198281
Si Si3 0.093269 0.299436 0.636694
Si Si4 0.664880 0.153081 0.531879
Si Si5 0.114384 0.992604 0.185028
Si Si6 0.648646 0.154992 0.025323
O O1 0.692321 0.197335 0.590138
O O2 0.679356 0.407001 0.647825
O O3 0.925856 0.328118 0.631335
O O4 0.777672 0.172402 0.686361
O O5 0.174100 0.577042 0.168240
O O6 0.449827 0.532494 0.182348
O O7 0.300712 0.507372 0.258048
O O8 0.135228 0.159692 0.666101
O O9 0.134599 0.289586 0.580934
O O10 0.750000 0.250000 0.500000
O O11 0.499419 0.160968 0.511899
O O12 0.715437 0.996787 0.528611
O O13 0.750000 0.250000 0.000000
#
# Coordination Sequence:
#
# PCOD8147466 Si02
#       6
#     8   8   8   8   8   8
#     4  11  23  41  66  91 127 164 200 257 308 364
#     4  10  22  44  60  91 127 156 208 258 299 363
#     4  11  23  41  63  94 124 161 208 253 309 365
#     4  11  24  43  62  94 127 159 206 255 309 368
#     4  10  24  39  66  90 120 165 205 251 311 366
#     4  11  26  41  65  92 126 163 206 257 303 371
#
# _framework density 19.584917000000001
#
# number of rings (size 3 to 8) (size 9 to 14) (size 15 to 20)
#    0.000    1.333    3.333    1.000    4.667    4.000 
#    0.000    0.000    0.000    0.000    0.000    0.000 
#    0.000    0.000    0.000    0.000    0.000    0.000 
#
# Total GULP energy -297726.259943 kJ/mol
# GULP energy per Si atom -12405.260831 kJ/mol
# Density = 1.954034 g / cm^3
# Si number density = 19.584917 Si / 1000 Ang^3
#
#
#
# Elastic Constant Matrix: (Units=GPa)
#
#
# Indices 1 2 3 4 5 6 
#
# 1 74.1747 51.3472 47.8554 0.0000 -7.5977 0.0000
# 2 51.3472 101.8699 43.4541 0.0000 -22.2291 0.0000
# 3 47.8554 43.4541 92.5775 0.0000 2.0635 0.0000
# 4 0.0000 0.0000 0.0000 40.2209 0.0000 -3.7684
# 5 -7.5977 -22.2291 2.0635 0.0000 32.1702 0.0000
# 6 0.0000 0.0000 0.0000 -3.7684 0.0000 33.8832
#
#
#
# Elastic Compliance Matrix: (Units=1/GPa)
#
#
# Indices 1 2 3 4 5 6 
#
# 1 0.025517 -0.008921 -0.009013 0.000000 0.000440 0.000000
# 2 -0.008921 0.018570 -0.004350 0.000000 0.011004 0.000000
# 3 -0.009013 -0.004350 0.017642 0.000000 -0.006266 0.000000
# 4 0.000000 0.000000 0.000000 0.025125 0.000000 0.002794
# 5 0.000440 0.011004 -0.006266 0.000000 0.039194 0.000000
# 6 0.000000 0.000000 0.000000 0.002794 0.000000 0.029824
#
#
# Mechanical properties :
#
#
# Convention : Reuss Voigt Hill
#
# Bulk Modulus (GPa) = 58.27122 61.54838 59.90980
# Shear Modulus (GPa) = 24.25300 29.65255 26.95277
#
# Velocity S-wave (km/s) = 3.52284 3.89530 3.71374
# Velocity P-wave (km/s) = 6.80918 7.19207 7.00324
#
# Compressibility (1/GPa) = 0.01716113
#
# Stress axis : x y z
#
# Youngs Moduli (GPa) = 39.18901 53.85069 56.68256
#
# Poissons Ratio (x) = 0.48042 0.51087
# Poissons Ratio (y) = 0.34962 0.24657
# Poissons Ratio (z) = 0.35320 0.23425
#
# Static dielectric constant tensor:
#      x y z
#    x 3.584310 0.000000 0.103240 
#    y 0.000000 3.853110 0.000000 
#    z 0.103240 0.000000 3.741490 
# 
# 
# High freq. dielectric constant tensor:
#      x y z
#    x 1.764660 0.000000 0.007840 
#    y 0.000000 1.772220 0.000000 
#    z 0.007840 0.000000 1.779800 
# 
# From -- ./inp_files/306658.got.cif
#   From: 2010.06.25/outbox.cif.g09.slc.cpg/sg15_154_cif.got.tgz:306658.got - 2010.06.28 07:06:18.
