data_PCOD8147923
_publ_section_title
;
Structure prediction by ZEFSAII (Michael W. Deem and Ramdas Pophale) SiO2 
 PCOD8147923
Probable space group: C 2/C
;
_chemical_formula_sum "Si O2"
_cell_formula_units_Z 36
_cell_length_a 11.919795
_cell_length_b 15.074339
_cell_length_c 11.482850
_cell_angle_alpha 90.000000
_cell_angle_beta 56.023857
_cell_angle_gamma 90.000000
_cell_volume 1711.011340
_symmetry_space_group_name_H-M "C 2/C"
_symmetry_group_IT_number 15
_symmetry_cell_setting 'monoclinic'
loop_
_space_group_symop_operation_xyz
x,y,z
-x,y,1/2-z
-x,-y,-z
x,-y,1/2+z
1/2+x,1/2+y,z
1/2-x,1/2+y,1/2-z
1/2-x,1/2-y,-z
1/2+x,1/2-y,1/2+z
loop_
_atom_site_type_symbol
_atom_site_label
_atom_site_fract_x
_atom_site_fract_y
_atom_site_fract_z
Si Si1 0.499471 0.902968 0.051654
Si Si2 0.912326 0.252937 0.918016
Si Si3 0.000000 0.186567 0.250000
Si Si4 0.180365 0.348560 0.131394
Si Si5 0.016457 0.896671 0.508403
O O1 0.648492 0.890027 0.022268
O O2 0.398314 0.896737 0.218525
O O3 0.460016 0.829305 0.979206
O O4 0.500000 0.000000 0.000000
O O5 0.000000 0.268093 0.750000
O O6 0.750000 0.250000 0.000000
O O7 0.941913 0.154933 0.948903
O O8 0.867129 0.246116 0.352570
O O9 0.046353 0.125767 0.330083
O O10 0.332820 0.360527 0.077855
O O11 0.000000 0.000000 0.500000
#
# Coordination Sequence:
#
# PCOD8147923 Si02
#       5
#     8   8   4   8   8
#     4  10  23  42  71  99 131 179 231 279 333 413
#     4  12  28  45  67 101 144 182 220 285 354 404
#     4  10  22  46  72  90 130 188 228 276 332 408
#     4  10  22  46  69  95 131 179 237 273 336 400
#     4  12  27  43  69 102 137 175 230 287 339 404
#
# _framework density 21.040189000000002
#
# number of rings (size 3 to 8) (size 9 to 14) (size 15 to 20)
#    0.000    1.333    4.444    2.000    7.778    1.778 
#    0.000    0.000    0.000    0.000    0.000    0.000 
#    0.000    0.000    0.000    0.000    0.000    0.000 
#
# Total GULP energy -223063.075107 kJ/mol
# GULP energy per Si atom -12392.393062 kJ/mol
# Density = 2.099230 g / cm^3
# Si number density = 21.040189 Si / 1000 Ang^3
#
#
#
# Elastic Constant Matrix: (Units=GPa)
#
#
# Indices 1 2 3 4 5 6 
#
# 1 161.0251 66.5894 61.1984 0.0000 1.1829 0.0000
# 2 66.5894 192.6375 53.1210 0.0000 23.9070 0.0000
# 3 61.1984 53.1210 112.7347 0.0000 23.2641 0.0000
# 4 0.0000 0.0000 0.0000 23.8460 0.0000 23.8420
# 5 1.1829 23.9070 23.2641 0.0000 41.9251 0.0000
# 6 0.0000 0.0000 0.0000 23.8420 0.0000 28.7204
#
#
#
# Elastic Compliance Matrix: (Units=1/GPa)
#
#
# Indices 1 2 3 4 5 6 
#
# 1 0.008804 -0.002253 -0.004440 0.000000 0.003500 0.000000
# 2 -0.002253 0.006708 -0.001312 0.000000 -0.003034 0.000000
# 3 -0.004440 -0.001312 0.013234 0.000000 -0.006470 0.000000
# 4 0.000000 0.000000 0.000000 0.246682 0.000000 -0.204781
# 5 0.003500 -0.003034 -0.006470 0.000000 0.029074 0.000000
# 6 0.000000 0.000000 0.000000 -0.204781 0.000000 0.204815
#
#
# Mechanical properties :
#
#
# Convention : Reuss Voigt Hill
#
# Bulk Modulus (GPa) = 78.51502 92.02388 85.26945
# Shear Modulus (GPa) = 9.44161 37.93087 23.68624
#
# Velocity S-wave (km/s) = 2.12065 4.25052 3.35888
# Velocity P-wave (km/s) = 6.58741 8.24145 7.46041
#
# Compressibility (1/GPa) = 0.01273642
#
# Stress axis : x y z
#
# Youngs Moduli (GPa) = 113.59003 149.07127 75.56488
#
# Poissons Ratio (x) = 0.33590 0.33548
# Poissons Ratio (y) = 0.25595 0.09912
# Poissons Ratio (z) = 0.50429 0.19553
#
# Static dielectric constant tensor:
#      x y z
#    x 4.240880 0.000000 0.369180 
#    y 0.000000 3.915020 0.000000 
#    z 0.369180 0.000000 4.357190 
# 
# 
# High freq. dielectric constant tensor:
#      x y z
#    x 1.839960 0.000000 0.010750 
#    y 0.000000 1.824890 0.000000 
#    z 0.010750 0.000000 1.837300 
# 
# From -- ./inp_files/85383.got.cif
#   From: 2010.06.25/outbox.cif.g09.slc.cpg/sg15_43_cif.got.tgz:85383.got - 2010.06.28 07:06:18.
