data_PCOD8147617
_publ_section_title
;
Structure prediction by ZEFSAII (Michael W. Deem and Ramdas Pophale) SiO2 
 PCOD8147617
Probable space group: C 2/C
;
_chemical_formula_sum "Si O2"
_cell_formula_units_Z 60
_cell_length_a 28.581078
_cell_length_b 8.263696
_cell_length_c 11.395154
_cell_angle_alpha 90.000000
_cell_angle_beta 90.847448
_cell_angle_gamma 90.000000
_cell_volume 2691.073936
_symmetry_space_group_name_H-M "C 2/C"
_symmetry_group_IT_number 15
_symmetry_cell_setting 'monoclinic'
loop_
_space_group_symop_operation_xyz
x,y,z
-x,y,1/2-z
-x,-y,-z
x,-y,1/2+z
1/2+x,1/2+y,z
1/2-x,1/2+y,1/2-z
1/2-x,1/2-y,-z
1/2+x,1/2-y,1/2+z
loop_
_atom_site_type_symbol
_atom_site_label
_atom_site_fract_x
_atom_site_fract_y
_atom_site_fract_z
Si Si1 0.385181 0.637167 0.371834
Si Si2 0.233154 0.807438 0.370669
Si Si3 0.418951 0.297748 0.334126
Si Si4 0.865920 0.703167 0.109748
Si Si5 0.125695 0.667808 0.953322
Si Si6 0.000000 0.375710 0.750000
Si Si7 0.697240 0.350653 0.804789
Si Si8 0.049721 0.685481 0.780724
O O1 0.419412 0.482904 0.375427
O O2 0.365335 0.677830 0.497973
O O3 0.342870 0.586827 0.284562
O O4 0.415342 0.791480 0.328674
O O5 0.250000 0.750000 0.500000
O O6 0.185462 0.715349 0.336067
O O7 0.269457 0.765344 0.269477
O O8 0.225304 0.001417 0.365074
O O9 0.404720 0.274108 0.198219
O O10 0.381279 0.196144 0.408980
O O11 0.472789 0.233358 0.345697
O O12 0.874854 0.520191 0.074568
O O13 0.173630 0.748217 0.909489
O O14 0.079179 0.751806 0.892767
O O15 0.960431 0.495251 0.693436
O O16 0.000000 0.775189 0.750000
#
# Coordination Sequence:
#
# PCOD8147617 Si02
#       8
#     8   8   8   8   8   4   8   8
#     4  11  24  43  70  97 144 185 231 285 358 420
#     4  12  25  45  74 106 144 183 237 295 348 420
#     4  12  26  43  70 106 143 183 237 295 352 425
#     4  12  24  45  72 101 143 189 232 288 359 419
#     4  11  25  44  73 102 143 188 237 292 356 423
#     4  10  22  44  68 104 138 178 244 288 348 424
#     4  11  25  47  71 104 142 184 235 287 355 422
#     4   9  21  43  69  96 138 184 234 287 351 414
#
# _framework density 22.295932000000001
#
# number of rings (size 3 to 8) (size 9 to 14) (size 15 to 20)
#    0.400    0.533    4.000    2.400    4.667    2.667 
#    0.000    3.333    0.000    0.000    0.000    0.000 
#    0.000    0.000    0.000    0.000    0.000    0.000 
#
# Total GULP energy -371821.355900 kJ/mol
# GULP energy per Si atom -12394.045197 kJ/mol
# Density = 2.224518 g / cm^3
# Si number density = 22.295932 Si / 1000 Ang^3
#
#
#
# Elastic Constant Matrix: (Units=GPa)
#
#
# Indices 1 2 3 4 5 6 
#
# 1 114.5959 52.1205 33.5412 0.0000 -25.8985 0.0000
# 2 52.1205 129.1610 44.6111 0.0000 -12.6787 0.0000
# 3 33.5412 44.6111 95.4396 0.0000 -24.6683 0.0000
# 4 0.0000 0.0000 0.0000 28.3260 0.0000 -9.4176
# 5 -25.8985 -12.6787 -24.6683 0.0000 38.3530 0.0000
# 6 0.0000 0.0000 0.0000 -9.4176 0.0000 45.6997
#
#
#
# Elastic Compliance Matrix: (Units=1/GPa)
#
#
# Indices 1 2 3 4 5 6 
#
# 1 0.012244 -0.004051 -0.000742 0.000000 0.006452 0.000000
# 2 -0.004051 0.010577 -0.003986 0.000000 -0.001803 0.000000
# 3 -0.000742 -0.003986 0.014551 0.000000 0.007540 0.000000
# 4 0.000000 0.000000 0.000000 0.037900 0.000000 0.007810
# 5 0.006452 -0.001803 0.007540 0.000000 0.034684 0.000000
# 6 0.000000 0.000000 0.000000 0.007810 0.000000 0.023491
#
#
# Mechanical properties :
#
#
# Convention : Reuss Voigt Hill
#
# Bulk Modulus (GPa) = 50.47172 66.63802 58.55487
# Shear Modulus (GPa) = 31.72384 36.40400 34.06392
#
# Velocity S-wave (km/s) = 3.77617 4.04513 3.91296
# Velocity P-wave (km/s) = 6.45747 7.19516 6.83627
#
# Compressibility (1/GPa) = 0.01981308
#
# Stress axis : x y z
#
# Youngs Moduli (GPa) = 81.67166 94.54538 68.72522
#
# Poissons Ratio (x) = 0.38304 0.05098
# Poissons Ratio (y) = 0.33088 0.27395
# Poissons Ratio (z) = 0.06058 0.37688
#
# Static dielectric constant tensor:
#      x y z
#    x 4.258110 0.000000 -0.153470 
#    y 0.000000 3.858960 0.000000 
#    z -0.153470 0.000000 3.935560 
# 
# 
# High freq. dielectric constant tensor:
#      x y z
#    x 1.889390 0.000000 -0.013760 
#    y 0.000000 1.875680 0.000000 
#    z -0.013760 0.000000 1.865460 
# 
# From -- ./inp_files/121942.got.cif
#   From: 2010.06.25/outbox.cif.g09.slc.cpg/sg15_61_cif.got.tgz:121942.got - 2010.06.28 07:06:18.
