data_PCOD8147914
_publ_section_title
;
Structure prediction by ZEFSAII (Michael W. Deem and Ramdas Pophale) SiO2 
 PCOD8147914
Probable space group: C 2/C
;
_chemical_formula_sum "Si O2"
_cell_formula_units_Z 60
_cell_length_a 16.922702
_cell_length_b 14.763143
_cell_length_c 12.012022
_cell_angle_alpha 90.000000
_cell_angle_beta 94.412007
_cell_angle_gamma 90.000000
_cell_volume 2992.097741
_symmetry_space_group_name_H-M "C 2/C"
_symmetry_group_IT_number 15
_symmetry_cell_setting 'monoclinic'
loop_
_space_group_symop_operation_xyz
x,y,z
-x,y,1/2-z
-x,-y,-z
x,-y,1/2+z
1/2+x,1/2+y,z
1/2-x,1/2+y,1/2-z
1/2-x,1/2-y,-z
1/2+x,1/2-y,1/2+z
loop_
_atom_site_type_symbol
_atom_site_label
_atom_site_fract_x
_atom_site_fract_y
_atom_site_fract_z
Si Si1 0.065345 0.156801 0.352659
Si Si2 0.314359 0.824430 0.488856
Si Si3 0.923290 0.949335 0.166792
Si Si4 0.251374 0.420388 0.228236
Si Si5 0.000000 0.665846 0.250000
Si Si6 0.830600 0.391395 0.734802
Si Si7 0.461425 0.283964 0.033685
Si Si8 0.231647 0.752502 0.866930
O O1 0.147130 0.203852 0.328160
O O2 0.000000 0.169719 0.250000
O O3 0.036388 0.204059 0.462313
O O4 0.080555 0.051300 0.379169
O O5 0.250000 0.750000 0.500000
O O6 0.287736 0.892358 0.391420
O O7 0.322219 0.878149 0.603287
O O8 0.395551 0.774756 0.461932
O O9 0.846098 0.928037 0.231972
O O10 0.925452 0.882365 0.061237
O O11 0.000000 0.932787 0.250000
O O12 0.214096 0.517059 0.245822
O O13 0.231106 0.350713 0.324455
O O14 0.075223 0.602137 0.230737
O O15 0.013794 0.732159 0.353687
O O16 0.796793 0.308841 0.804991
O O17 0.250000 0.750000 0.000000
#
# Coordination Sequence:
#
# PCOD8147914 Si02
#       8
#     8   8   8   8   4   8   8   8
#     4  11  25  41  61  99 138 171 214 276 338 403
#     4  11  22  42  71  93 122 182 223 271 328 391
#     4  11  23  39  66  99 128 171 213 270 337 392
#     4  12  25  45  68  97 136 175 225 274 334 403
#     4  10  22  46  68  96 122 174 224 274 324 384
#     4  11  25  45  69  96 135 169 229 275 325 407
#     4  11  21  41  68  92 130 169 222 269 329 398
#     4  12  26  44  68 100 137 178 220 282 342 395
#
# _framework density 20.052821999999999
#
# number of rings (size 3 to 8) (size 9 to 14) (size 15 to 20)
#    0.000    0.800    4.667    2.800    3.733    0.000 
#    3.600    1.333    0.000    0.000    0.000    0.000 
#    0.000    0.000    0.000    0.000    0.000    0.000 
#
# Total GULP energy -372081.668441 kJ/mol
# GULP energy per Si atom -12402.722281 kJ/mol
# Density = 2.000718 g / cm^3
# Si number density = 20.052822 Si / 1000 Ang^3
#
#
#
# Elastic Constant Matrix: (Units=GPa)
#
#
# Indices 1 2 3 4 5 6 
#
# 1 141.5633 30.5064 26.9370 0.0000 -2.3669 0.0000
# 2 30.5064 77.8026 12.5098 0.0000 1.6548 0.0000
# 3 26.9370 12.5098 78.5647 0.0000 -0.1639 0.0000
# 4 0.0000 0.0000 0.0000 22.6863 0.0000 -13.7705
# 5 -2.3669 1.6548 -0.1639 0.0000 32.2948 0.0000
# 6 0.0000 0.0000 0.0000 -13.7705 0.0000 32.7642
#
#
#
# Elastic Compliance Matrix: (Units=1/GPa)
#
#
# Indices 1 2 3 4 5 6 
#
# 1 0.008130 -0.002828 -0.002336 0.000000 0.000729 0.000000
# 2 -0.002828 0.014189 -0.001292 0.000000 -0.000941 0.000000
# 3 -0.002336 -0.001292 0.013735 0.000000 -0.000035 0.000000
# 4 0.000000 0.000000 0.000000 0.059176 0.000000 0.024871
# 5 0.000729 -0.000941 -0.000035 0.000000 0.031066 0.000000
# 6 0.000000 0.000000 0.000000 0.024871 0.000000 0.040974
#
#
# Mechanical properties :
#
#
# Convention : Reuss Voigt Hill
#
# Bulk Modulus (GPa) = 43.20810 48.64856 45.92833
# Shear Modulus (GPa) = 26.61043 32.74757 29.67900
#
# Velocity S-wave (km/s) = 3.64678 4.04550 3.85130
# Velocity P-wave (km/s) = 6.27104 6.79223 6.53683
#
# Compressibility (1/GPa) = 0.02314381
#
# Stress axis : x y z
#
# Youngs Moduli (GPa) = 123.00181 70.47466 72.80774
#
# Poissons Ratio (x) = 0.19928 0.17006
# Poissons Ratio (y) = 0.34781 0.09406
# Poissons Ratio (z) = 0.28729 0.09104
#
# Static dielectric constant tensor:
#      x y z
#    x 3.980530 0.000000 -0.076970 
#    y 0.000000 3.649460 0.000000 
#    z -0.076970 0.000000 3.086090 
# 
# 
# High freq. dielectric constant tensor:
#      x y z
#    x 1.801040 0.000000 -0.000700 
#    y 0.000000 1.785240 0.000000 
#    z -0.000700 0.000000 1.785380 
# 
# From -- ./inp_files/105349.got.cif
#   From: 2010.06.25/outbox.cif.g09.slc.cpg/sg15_53_cif.got.tgz:105349.got - 2010.06.28 07:06:18.
