data_PCOD8147557
_publ_section_title
;
Structure prediction by ZEFSAII (Michael W. Deem and Ramdas Pophale) SiO2 
 PCOD8147557
Probable space group: C 2/C
;
_chemical_formula_sum "Si O2"
_cell_formula_units_Z 36
_cell_length_a 12.384238
_cell_length_b 11.651540
_cell_length_c 22.357486
_cell_angle_alpha 90.000000
_cell_angle_beta 28.846081
_cell_angle_gamma 90.000000
_cell_volume 1556.450706
_symmetry_space_group_name_H-M "C 2/C"
_symmetry_group_IT_number 15
_symmetry_cell_setting 'monoclinic'
loop_
_space_group_symop_operation_xyz
x,y,z
-x,y,1/2-z
-x,-y,-z
x,-y,1/2+z
1/2+x,1/2+y,z
1/2-x,1/2+y,1/2-z
1/2-x,1/2-y,-z
1/2+x,1/2-y,1/2+z
loop_
_atom_site_type_symbol
_atom_site_label
_atom_site_fract_x
_atom_site_fract_y
_atom_site_fract_z
Si Si1 0.907938 0.123783 0.026393
Si Si2 0.000000 0.758372 0.250000
Si Si3 0.134633 0.850190 0.594108
Si Si4 0.778448 0.100009 0.959331
Si Si5 0.680454 0.827361 0.871108
O O1 0.712209 0.175328 0.164269
O O2 0.799045 0.157454 0.014437
O O3 0.129117 0.200178 0.920845
O O4 0.000000 0.000000 0.000000
O O5 0.953515 0.843493 0.328275
O O6 0.250000 0.750000 0.500000
O O7 0.241983 0.887767 0.605608
O O8 0.876123 0.815873 0.727520
O O9 0.151186 0.971780 0.553102
O O10 0.973541 0.395781 0.943215
#
# Coordination Sequence:
#
# PCOD8147557 Si02
#       5
#     8   4   8   8   8
#     4  11  25  42  66  98 132 172 222 279 332 392
#     4  10  22  44  66  92 132 182 224 266 332 410
#     4  11  24  41  66  96 128 167 215 280 335 385
#     4  11  24  43  67  95 131 178 220 268 333 408
#     4  10  23  42  61  95 130 166 221 266 327 405
#
# _framework density 23.129546999999999
#
# number of rings (size 3 to 8) (size 9 to 14) (size 15 to 20)
#    0.000    1.333    0.000    6.000    0.000   17.778 
#    0.000    0.000    0.000    0.000    0.000    0.000 
#    0.000    0.000    0.000    0.000    0.000    0.000 
#
# Total GULP energy -223032.931732 kJ/mol
# GULP energy per Si atom -12390.718430 kJ/mol
# Density = 2.307690 g / cm^3
# Si number density = 23.129547 Si / 1000 Ang^3
#
#
#
# Elastic Constant Matrix: (Units=GPa)
#
#
# Indices 1 2 3 4 5 6 
#
# 1 95.8409 -6.1798 40.8959 -0.0030 2.6826 0.0008
# 2 -6.1798 127.6368 65.5001 -0.0034 -14.0790 0.0001
# 3 40.8959 65.5001 180.3554 -0.0121 -22.2286 0.0011
# 4 -0.0030 -0.0034 -0.0121 34.1994 0.0027 -2.5991
# 5 2.6826 -14.0790 -22.2286 0.0027 36.8290 -0.0003
# 6 0.0008 0.0001 0.0011 -2.5991 -0.0003 35.1041
#
#
#
# Elastic Compliance Matrix: (Units=1/GPa)
#
#
# Indices 1 2 3 4 5 6 
#
# 1 0.012338 0.002361 -0.003948 0.000000 -0.002379 0.000000
# 2 0.002361 0.010180 -0.004077 0.000000 0.001259 0.000000
# 3 -0.003948 -0.004077 0.008388 0.000002 0.003792 0.000000
# 4 0.000000 0.000000 0.000002 0.029406 -0.000001 0.002177
# 5 -0.002379 0.001259 0.003792 -0.000001 0.030095 0.000000
# 6 0.000000 0.000000 0.000000 0.002177 0.000000 0.028648
#
#
# Mechanical properties :
#
#
# Convention : Reuss Voigt Hill
#
# Bulk Modulus (GPa) = 51.08138 67.14062 59.11100
# Shear Modulus (GPa) = 36.52040 41.46762 38.99401
#
# Velocity S-wave (km/s) = 3.97791 4.23879 4.11042
# Velocity P-wave (km/s) = 6.57505 7.28337 6.93826
#
# Compressibility (1/GPa) = 0.01957661
#
# Stress axis : x y z
#
# Youngs Moduli (GPa) = 81.05345 98.22847 119.21786
#
# Poissons Ratio (x) = -0.23192 0.47070
# Poissons Ratio (y) = -0.19137 0.48611
# Poissons Ratio (z) = 0.32002 0.40052
#
# Static dielectric constant tensor:
#      x y z
#    x 2.269970 -0.000260 -0.748920 
#    y -0.000260 4.173510 -0.000130 
#    z -0.748920 -0.000130 3.950860 
# 
# 
# High freq. dielectric constant tensor:
#      x y z
#    x 1.917470 0.000000 0.003260 
#    y 0.000000 1.928660 0.000000 
#    z 0.003260 0.000000 1.918650 
# 
# From -- ./inp_files/273561.got.cif
#   From: 2010.06.25/outbox.cif.g09.slc.cpg/sg15_137_cif.got.tgz:273561.got - 2010.06.28 07:06:18.
