data_PCOD8147433
_publ_section_title
;
Structure prediction by ZEFSAII (Michael W. Deem and Ramdas Pophale) SiO2 
 PCOD8147433
Probable space group: C 2/C
;
_chemical_formula_sum "Si O2"
_cell_formula_units_Z 44
_cell_length_a 15.395173
_cell_length_b 14.539250
_cell_length_c 16.041877
_cell_angle_alpha 90.000000
_cell_angle_beta 31.186773
_cell_angle_gamma 90.000000
_cell_volume 1859.381791
_symmetry_space_group_name_H-M "C 2/C"
_symmetry_group_IT_number 15
_symmetry_cell_setting 'monoclinic'
loop_
_space_group_symop_operation_xyz
x,y,z
-x,y,1/2-z
-x,-y,-z
x,-y,1/2+z
1/2+x,1/2+y,z
1/2-x,1/2+y,1/2-z
1/2-x,1/2-y,-z
1/2+x,1/2-y,1/2+z
loop_
_atom_site_type_symbol
_atom_site_label
_atom_site_fract_x
_atom_site_fract_y
_atom_site_fract_z
Si Si1 0.500000 0.585650 0.250000
Si Si2 0.150628 0.323377 0.526663
Si Si3 0.715064 0.533270 0.467714
Si Si4 0.605195 0.861086 0.241177
Si Si5 0.296240 0.811559 0.597038
Si Si6 0.730726 0.809708 0.689174
O O1 0.447729 0.523825 0.371897
O O2 0.339716 0.644097 0.353116
O O3 0.250000 0.250000 0.500000
O O4 0.207177 0.425236 0.509281
O O5 0.195166 0.292447 0.394010
O O6 0.952365 0.317766 0.701828
O O7 0.847142 0.467378 0.310972
O O8 0.658755 0.613291 0.450257
O O9 0.500000 0.822932 0.250000
O O10 0.483609 0.844736 0.420740
O O11 0.774385 0.799319 0.108884
O O12 0.262533 0.836699 0.720413
#
# Coordination Sequence:
#
# PCOD8147433 Si02
#       6
#     4   8   8   8   8   8
#     4  12  26  44  68 102 134 196 234 280 352 412
#     4  10  22  43  71  99 139 184 220 280 351 416
#     4  11  25  43  72  99 138 182 239 284 337 429
#     4  12  22  45  69  99 134 183 237 276 337 422
#     4  12  26  44  71 101 141 185 228 290 352 409
#     4  11  25  45  69 107 140 181 229 291 355 404
#
# _framework density 23.663779999999999
#
# number of rings (size 3 to 8) (size 9 to 14) (size 15 to 20)
#    0.000    0.727    2.727    6.000    5.091    1.455 
#    3.273    0.000    0.000    0.000    0.000    0.000 
#    0.000    0.000    0.000    0.000    0.000    0.000 
#
# Total GULP energy -272694.258899 kJ/mol
# GULP energy per Si atom -12395.193586 kJ/mol
# Density = 2.360992 g / cm^3
# Si number density = 23.663780 Si / 1000 Ang^3
#
#
#
# Elastic Constant Matrix: (Units=GPa)
#
#
# Indices 1 2 3 4 5 6 
#
# 1 59.1048 22.9888 5.6574 -0.0014 21.3837 0.0013
# 2 22.9888 124.4879 49.8537 0.0002 10.6543 0.0011
# 3 5.6574 49.8537 102.6646 -0.0003 20.9322 0.0016
# 4 -0.0014 0.0002 -0.0003 47.7026 -0.0002 9.7146
# 5 21.3837 10.6543 20.9322 -0.0002 45.6315 -0.0010
# 6 0.0013 0.0011 0.0016 9.7146 -0.0010 18.8696
#
#
#
# Elastic Compliance Matrix: (Units=1/GPa)
#
#
# Indices 1 2 3 4 5 6 
#
# 1 0.022267 -0.004442 0.003140 0.000001 -0.010838 -0.000003
# 2 -0.004442 0.010859 -0.005445 0.000000 0.002044 0.000000
# 3 0.003140 -0.005445 0.013516 0.000001 -0.006400 -0.000002
# 4 0.000001 0.000000 0.000001 0.023419 -0.000001 -0.012057
# 5 -0.010838 0.002044 -0.006400 -0.000001 0.029452 0.000003
# 6 -0.000003 0.000000 -0.000002 -0.012057 0.000003 0.059202
#
#
# Mechanical properties :
#
#
# Convention : Reuss Voigt Hill
#
# Bulk Modulus (GPa) = 30.16749 49.25078 39.70913
# Shear Modulus (GPa) = 27.28376 36.29124 31.78750
#
# Velocity S-wave (km/s) = 3.39923 3.92039 3.66908
# Velocity P-wave (km/s) = 5.30871 6.43044 5.89631
#
# Compressibility (1/GPa) = 0.03314827
#
# Stress axis : x y z
#
# Youngs Moduli (GPa) = 44.90889 92.09144 73.98408
#
# Poissons Ratio (x) = 0.40905 -0.23228
# Poissons Ratio (y) = 0.19948 0.40284
# Poissons Ratio (z) = -0.14100 0.50143
#
# Static dielectric constant tensor:
#      x y z
#    x 4.112930 0.000000 0.225510 
#    y 0.000000 4.403050 0.000010 
#    z 0.225510 0.000010 4.509690 
# 
# 
# High freq. dielectric constant tensor:
#      x y z
#    x 1.916920 0.000000 0.011590 
#    y 0.000000 1.936100 0.000000 
#    z 0.011590 0.000000 1.948530 
# 
# From -- ./inp_files/211179.got.cif
#   From: 2010.06.25/outbox.cif.g09.slc.cpg/sg15_106_cif.got.tgz:211179.got - 2010.06.28 07:06:18.
