data_PCOD8147346
_publ_section_title
;
Structure prediction by ZEFSAII (Michael W. Deem and Ramdas Pophale) SiO2 
 PCOD8147346
Probable space group: C 2/C
;
_chemical_formula_sum "Si O2"
_cell_formula_units_Z 56
_cell_length_a 26.453990
_cell_length_b 8.201038
_cell_length_c 12.727885
_cell_angle_alpha 90.000000
_cell_angle_beta 111.108256
_cell_angle_gamma 90.000000
_cell_volume 2576.037103
_symmetry_space_group_name_H-M "C 2/C"
_symmetry_group_IT_number 15
_symmetry_cell_setting 'monoclinic'
loop_
_space_group_symop_operation_xyz
x,y,z
-x,y,1/2-z
-x,-y,-z
x,-y,1/2+z
1/2+x,1/2+y,z
1/2-x,1/2+y,1/2-z
1/2-x,1/2-y,-z
1/2+x,1/2-y,1/2+z
loop_
_atom_site_type_symbol
_atom_site_label
_atom_site_fract_x
_atom_site_fract_y
_atom_site_fract_z
Si Si1 0.609859 0.013926 0.395074
Si Si2 0.035786 0.347046 0.492745
Si Si3 0.346494 0.752890 0.213266
Si Si4 0.806265 0.930059 0.105245
Si Si5 0.534893 0.379679 0.678133
Si Si6 0.412463 0.283127 0.272984
Si Si7 0.193053 0.702619 0.586499
O O1 0.566905 0.885972 0.407904
O O2 0.651592 0.927075 0.344566
O O3 0.575779 0.157014 0.312586
O O4 0.644060 0.086148 0.516692
O O5 0.081789 0.311085 0.613113
O O6 0.000000 0.500000 0.500000
O O7 0.998541 0.185570 0.448285
O O8 0.317656 0.623488 0.113589
O O9 0.407624 0.706583 0.284938
O O10 0.312540 0.755731 0.295365
O O11 0.851334 0.846823 0.213544
O O12 0.749026 0.891732 0.114013
O O13 0.808760 0.865861 0.987001
O O14 0.500000 0.319665 0.750000
O O15 0.542870 0.573768 0.692010
#
# Coordination Sequence:
#
# PCOD8147346 Si02
#       7
#     8   8   8   8   8   8   8
#     4  11  23  41  63  96 134 167 222 280 332 403
#     4  12  25  39  65  94 130 173 225 275 337 397
#     4  11  23  42  68  96 133 175 224 282 331 412
#     4   9  23  44  66  95 131 173 222 282 335 410
#     4  11  23  43  63  92 132 174 225 272 327 403
#     4  10  24  42  63  91 129 176 217 275 340 399
#     4  10  22  43  68  96 133 172 220 279 350 399
#
# _framework density 21.738818999999999
#
# number of rings (size 3 to 8) (size 9 to 14) (size 15 to 20)
#    0.000    1.429    1.429    3.000    2.000    7.429 
#    7.714    0.000    0.000    0.000    0.000    0.000 
#    0.000    0.000    0.000    0.000    0.000    0.000 
#
# Total GULP energy -347193.574819 kJ/mol
# GULP energy per Si atom -12399.770529 kJ/mol
# Density = 2.168934 g / cm^3
# Si number density = 21.738819 Si / 1000 Ang^3
#
#
#
# Elastic Constant Matrix: (Units=GPa)
#
#
# Indices 1 2 3 4 5 6 
#
# 1 85.2990 20.4993 21.6990 0.0000 -9.1726 0.0000
# 2 20.4993 108.2579 37.6329 0.0000 6.1182 0.0000
# 3 21.6990 37.6329 82.3644 0.0000 3.9312 0.0000
# 4 0.0000 0.0000 0.0000 35.6051 0.0000 0.4227
# 5 -9.1726 6.1182 3.9312 0.0000 36.9068 0.0000
# 6 0.0000 0.0000 0.0000 0.4227 0.0000 24.2771
#
#
#
# Elastic Compliance Matrix: (Units=1/GPa)
#
#
# Indices 1 2 3 4 5 6 
#
# 1 0.013296 -0.001731 -0.002898 0.000000 0.003900 0.000000
# 2 -0.001731 0.011268 -0.004606 0.000000 -0.001807 0.000000
# 3 -0.002898 -0.004606 0.015084 0.000000 -0.001563 0.000000
# 4 0.000000 0.000000 0.000000 0.028092 0.000000 -0.000489
# 5 0.003900 -0.001807 -0.001563 0.000000 0.028531 0.000000
# 6 0.000000 0.000000 0.000000 -0.000489 0.000000 0.041200
#
#
# Mechanical properties :
#
#
# Convention : Reuss Voigt Hill
#
# Bulk Modulus (GPa) = 47.21906 48.39818 47.80862
# Shear Modulus (GPa) = 30.67480 32.43048 31.55264
#
# Velocity S-wave (km/s) = 3.76048 3.86660 3.81391
# Velocity P-wave (km/s) = 6.37364 6.49969 6.43697
#
# Compressibility (1/GPa) = 0.02117789
#
# Stress axis : x y z
#
# Youngs Moduli (GPa) = 75.21028 88.74434 66.29524
#
# Poissons Ratio (x) = 0.15358 0.19214
# Poissons Ratio (y) = 0.13016 0.30538
# Poissons Ratio (z) = 0.21798 0.40879
#
# Static dielectric constant tensor:
#      x y z
#    x 3.828070 0.000000 0.084010 
#    y 0.000000 4.137060 0.000000 
#    z 0.084010 0.000000 3.906100 
# 
# 
# High freq. dielectric constant tensor:
#      x y z
#    x 1.849980 0.000000 0.006980 
#    y 0.000000 1.861440 0.000000 
#    z 0.006980 0.000000 1.854620 
# 
# From -- ./inp_files/121988.got.cif
#   From: 2010.06.25/outbox.cif.g09.slc.cpg/sg15_61_cif.got.tgz:121988.got - 2010.06.28 07:06:18.
