data_PCOD8147696
_publ_section_title
;
Structure prediction by ZEFSAII (Michael W. Deem and Ramdas Pophale) SiO2 
 PCOD8147696
Probable space group: C 2/C
;
_chemical_formula_sum "Si O2"
_cell_formula_units_Z 40
_cell_length_a 24.511290
_cell_length_b 6.421969
_cell_length_c 12.055444
_cell_angle_alpha 90.000000
_cell_angle_beta 67.105462
_cell_angle_gamma 90.000000
_cell_volume 1748.163781
_symmetry_space_group_name_H-M "C 2/C"
_symmetry_group_IT_number 15
_symmetry_cell_setting 'monoclinic'
loop_
_space_group_symop_operation_xyz
x,y,z
-x,y,1/2-z
-x,-y,-z
x,-y,1/2+z
1/2+x,1/2+y,z
1/2-x,1/2+y,1/2-z
1/2-x,1/2-y,-z
1/2+x,1/2-y,1/2+z
loop_
_atom_site_type_symbol
_atom_site_label
_atom_site_fract_x
_atom_site_fract_y
_atom_site_fract_z
Si Si1 0.637506 0.251327 0.192131
Si Si2 0.770745 0.413885 0.391935
Si Si3 0.037468 0.695158 0.434351
Si Si4 0.071849 0.943635 0.041883
Si Si5 0.177214 0.099592 0.315657
O O1 0.589563 0.135164 0.308093
O O2 0.678880 0.402601 0.231734
O O3 0.678921 0.074039 0.102592
O O4 0.604585 0.399011 0.130565
O O5 0.750000 0.250000 0.500000
O O6 0.714189 0.545342 0.397276
O O7 0.796870 0.301336 0.263490
O O8 0.000000 0.500000 0.500000
O O9 0.993556 0.849584 0.404122
O O10 0.065073 0.808069 0.522186
O O11 0.110521 0.849299 0.909168
#
# Coordination Sequence:
#
# PCOD8147696 Si02
#       5
#     8   8   8   8   8
#     4  11  24  43  68 100 139 181 237 290 357 423
#     4  12  26  41  68  98 135 191 234 291 358 420
#     4  10  22  44  70  97 137 181 229 295 355 423
#     4  10  23  41  68  99 132 177 228 294 354 418
#     4  11  24  43  64  95 138 179 231 294 348 421
#
# _framework density 22.881153000000001
#
# number of rings (size 3 to 8) (size 9 to 14) (size 15 to 20)
#    0.000    1.200    2.000    3.000    2.800    6.400 
#    0.000    8.000    0.000    0.000    0.000    0.000 
#    0.000    0.000    0.000    0.000    0.000    0.000 
#
# Total GULP energy -247998.806225 kJ/mol
# GULP energy per Si atom -12399.940311 kJ/mol
# Density = 2.282907 g / cm^3
# Si number density = 22.881153 Si / 1000 Ang^3
#
#
#
# Elastic Constant Matrix: (Units=GPa)
#
#
# Indices 1 2 3 4 5 6 
#
# 1 123.1215 44.6244 39.4331 0.0000 5.7743 0.0000
# 2 44.6244 78.7798 38.1757 0.0000 0.2533 0.0000
# 3 39.4331 38.1757 73.4598 0.0000 -2.4559 0.0000
# 4 0.0000 0.0000 0.0000 49.4494 0.0000 -6.8020
# 5 5.7743 0.2533 -2.4559 0.0000 39.5810 0.0000
# 6 0.0000 0.0000 0.0000 -6.8020 0.0000 44.1159
#
#
#
# Elastic Compliance Matrix: (Units=1/GPa)
#
#
# Indices 1 2 3 4 5 6 
#
# 1 0.010987 -0.004452 -0.003645 0.000000 -0.001801 0.000000
# 2 -0.004452 0.018787 -0.007371 0.000000 0.000072 0.000000
# 3 -0.003645 -0.007371 0.019460 0.000000 0.001786 0.000000
# 4 0.000000 0.000000 0.000000 0.020661 0.000000 0.003186
# 5 -0.001801 0.000072 0.001786 0.000000 0.025638 0.000000
# 6 0.000000 0.000000 0.000000 0.003186 0.000000 0.023159
#
#
# Mechanical properties :
#
#
# Convention : Reuss Voigt Hill
#
# Bulk Modulus (GPa) = 54.64822 57.75862 56.20342
# Shear Modulus (GPa) = 32.10764 36.83777 34.47270
#
# Velocity S-wave (km/s) = 3.75004 4.01679 3.88570
# Velocity P-wave (km/s) = 6.53344 6.84182 6.68940
#
# Compressibility (1/GPa) = 0.01829886
#
# Stress axis : x y z
#
# Youngs Moduli (GPa) = 91.01408 53.22827 51.38818
#
# Poissons Ratio (x) = 0.23696 0.18729
# Poissons Ratio (y) = 0.40517 0.37879
# Poissons Ratio (z) = 0.33172 0.39235
#
# Static dielectric constant tensor:
#      x y z
#    x 4.279370 0.000000 -0.277030 
#    y 0.000000 4.033650 0.000000 
#    z -0.277030 0.000000 4.089490 
# 
# 
# High freq. dielectric constant tensor:
#      x y z
#    x 1.912710 0.000000 -0.020800 
#    y 0.000000 1.893130 0.000000 
#    z -0.020800 0.000000 1.905730 
# 
# From -- ./inp_files/175326.got.cif
#   From: 2010.06.25/outbox.cif.g09.slc.cpg/sg15_88_cif.got.tgz:175326.got - 2010.06.28 07:06:18.
