data_PCOD8147372
_publ_section_title
;
Structure prediction by ZEFSAII (Michael W. Deem and Ramdas Pophale) SiO2 
 PCOD8147372
Probable space group: C 2/C
;
_chemical_formula_sum "Si O2"
_cell_formula_units_Z 48
_cell_length_a 9.103831
_cell_length_b 17.385117
_cell_length_c 14.584735
_cell_angle_alpha 90.000000
_cell_angle_beta 84.244412
_cell_angle_gamma 90.000000
_cell_volume 2296.706078
_symmetry_space_group_name_H-M "C 2/C"
_symmetry_group_IT_number 15
_symmetry_cell_setting 'monoclinic'
loop_
_space_group_symop_operation_xyz
x,y,z
-x,y,1/2-z
-x,-y,-z
x,-y,1/2+z
1/2+x,1/2+y,z
1/2-x,1/2+y,1/2-z
1/2-x,1/2-y,-z
1/2+x,1/2-y,1/2+z
loop_
_atom_site_type_symbol
_atom_site_label
_atom_site_fract_x
_atom_site_fract_y
_atom_site_fract_z
Si Si1 0.144120 0.955989 0.019472
Si Si2 0.149389 0.796006 0.938890
Si Si3 0.326745 0.663915 0.261112
Si Si4 0.135968 0.539449 0.623039
Si Si5 0.803165 0.504936 0.182276
Si Si6 0.650717 0.218796 0.587233
O O1 0.182313 0.964811 0.124437
O O2 0.099906 0.869419 0.999611
O O3 0.285665 0.985098 0.954938
O O4 0.000000 0.000000 0.000000
O O5 0.229447 0.821338 0.839130
O O6 0.016156 0.741261 0.921130
O O7 0.250000 0.750000 0.000000
O O8 0.500000 0.639933 0.250000
O O9 0.229290 0.596197 0.312036
O O10 0.298936 0.741537 0.320883
O O11 0.215193 0.530979 0.716092
O O12 0.156549 0.627344 0.592351
O O13 0.967274 0.511482 0.635272
O O14 0.750000 0.250000 0.500000
#
# Coordination Sequence:
#
# PCOD8147372 Si02
#       6
#     8   8   8   8   8   8
#     4  12  24  43  69  97 134 174 221 275 328 397
#     4  11  24  41  66  97 130 170 222 275 325 391
#     4  10  22  43  69  93 135 179 216 272 342 401
#     4  11  25  43  68 102 132 177 226 270 335 402
#     4  11  24  41  69  99 134 172 222 281 331 394
#     4  11  24  45  67  94 133 180 217 265 341 402
#
# _framework density 20.899495000000002
#
# number of rings (size 3 to 8) (size 9 to 14) (size 15 to 20)
#    0.000    1.000    1.667    5.500    9.333    1.333 
#    0.000    0.000    0.000    0.000    0.000    0.000 
#    0.000    0.000    0.000    0.000    0.000    0.000 
#
# Total GULP energy -297652.456003 kJ/mol
# GULP energy per Si atom -12402.185667 kJ/mol
# Density = 2.085193 g / cm^3
# Si number density = 20.899495 Si / 1000 Ang^3
#
#
#
# Elastic Constant Matrix: (Units=GPa)
#
#
# Indices 1 2 3 4 5 6 
#
# 1 56.1374 28.1870 32.1442 0.0000 11.4011 0.0000
# 2 28.1870 93.8258 17.7575 0.0000 5.0759 0.0000
# 3 32.1442 17.7575 114.5608 0.0000 27.3151 0.0000
# 4 0.0000 0.0000 0.0000 43.0004 0.0000 0.3380
# 5 11.4011 5.0759 27.3151 0.0000 43.7119 0.0000
# 6 0.0000 0.0000 0.0000 0.3380 0.0000 36.8940
#
#
#
# Elastic Compliance Matrix: (Units=1/GPa)
#
#
# Indices 1 2 3 4 5 6 
#
# 1 0.024466 -0.006212 -0.005350 0.000000 -0.002317 0.000000
# 2 -0.006212 0.012560 -0.000285 0.000000 0.000340 0.000000
# 3 -0.005350 -0.000285 0.011673 0.000000 -0.005866 0.000000
# 4 0.000000 0.000000 0.000000 0.023257 0.000000 -0.000213
# 5 -0.002317 0.000340 -0.005866 0.000000 0.027107 0.000000
# 6 0.000000 0.000000 0.000000 -0.000213 0.000000 0.027107
#
#
# Mechanical properties :
#
#
# Convention : Reuss Voigt Hill
#
# Bulk Modulus (GPa) = 39.99075 46.74460 43.36768
# Shear Modulus (GPa) = 31.60578 37.15030 34.37804
#
# Velocity S-wave (km/s) = 3.89302 4.22070 4.06016
# Velocity P-wave (km/s) = 6.27565 6.79465 6.54030
#
# Compressibility (1/GPa) = 0.02500578
#
# Stress axis : x y z
#
# Youngs Moduli (GPa) = 40.87230 79.61869 85.66968
#
# Poissons Ratio (x) = 0.49462 0.45829
# Poissons Ratio (y) = 0.25391 0.02439
# Poissons Ratio (z) = 0.21865 0.02267
#
# Static dielectric constant tensor:
#      x y z
#    x 3.784830 0.000000 0.052510 
#    y 0.000000 3.980250 0.000000 
#    z 0.052510 0.000000 4.261680 
# 
# 
# High freq. dielectric constant tensor:
#      x y z
#    x 1.810240 0.000000 0.007920 
#    y 0.000000 1.828750 0.000000 
#    z 0.007920 0.000000 1.839000 
# 
# From -- ./inp_files/134811.got.cif
#   From: 2010.06.25/outbox.cif.g09.slc.cpg/sg15_68_cif.got.tgz:134811.got - 2010.06.28 07:06:18.
