data_PCOD8147558
_publ_section_title
;
Structure prediction by ZEFSAII (Michael W. Deem and Ramdas Pophale) SiO2 
 PCOD8147558
Probable space group: C 2/C
;
_chemical_formula_sum "Si O2"
_cell_formula_units_Z 56
_cell_length_a 27.719036
_cell_length_b 8.412216
_cell_length_c 12.062562
_cell_angle_alpha 90.000000
_cell_angle_beta 113.146724
_cell_angle_gamma 90.000000
_cell_volume 2586.309044
_symmetry_space_group_name_H-M "C 2/C"
_symmetry_group_IT_number 15
_symmetry_cell_setting 'monoclinic'
loop_
_space_group_symop_operation_xyz
x,y,z
-x,y,1/2-z
-x,-y,-z
x,-y,1/2+z
1/2+x,1/2+y,z
1/2-x,1/2+y,1/2-z
1/2-x,1/2-y,-z
1/2+x,1/2-y,1/2+z
loop_
_atom_site_type_symbol
_atom_site_label
_atom_site_fract_x
_atom_site_fract_y
_atom_site_fract_z
Si Si1 0.500000 0.170430 0.250000
Si Si2 0.280690 0.800254 0.417940
Si Si3 0.331472 0.971960 0.642653
Si Si4 0.000000 0.164266 0.250000
Si Si5 0.229793 0.040258 0.671034
Si Si6 0.039961 0.071512 0.624447
Si Si7 0.636503 0.250254 0.131364
Si Si8 0.078493 0.588936 0.893343
O O1 0.479384 0.266864 0.336437
O O2 0.453322 0.073025 0.150099
O O3 0.250000 0.750000 0.500000
O O4 0.330175 0.891946 0.517158
O O5 0.250321 0.928383 0.314494
O O6 0.293057 0.640400 0.358607
O O7 0.339988 0.831576 0.738594
O O8 0.278150 0.064650 0.628357
O O9 0.380325 0.094137 0.673865
O O10 0.963403 0.269578 0.139104
O O11 0.957392 0.060911 0.277839
O O12 0.183533 0.166513 0.604112
O O13 0.096937 0.105892 0.625311
O O14 0.000000 0.000000 0.500000
O O15 0.609435 0.109875 0.036631
#
# Coordination Sequence:
#
# PCOD8147558 Si02
#       8
#     4   8   8   4   8   8   8   8
#     4  10  24  44  72  94 138 180 214 296 344 398
#     4  10  22  44  66  92 138 175 224 284 332 395
#     4  11  24  44  67  99 140 178 227 279 338 404
#     4  10  24  44  64 106 132 168 222 284 342 404
#     4  11  23  43  68 100 137 179 230 278 339 406
#     4  11  23  44  69 100 136 169 223 280 346 409
#     4  12  24  42  71 101 132 184 228 275 346 407
#     4  11  24  43  70 100 132 176 235 275 341 412
#
# _framework density 21.652480000000001
#
# number of rings (size 3 to 8) (size 9 to 14) (size 15 to 20)
#    0.000    1.143    5.714    0.857    0.000    5.714 
#    2.571    0.000    0.000    0.000    0.000    0.000 
#    0.000    0.000    0.000    0.000    0.000    0.000 
#
# Total GULP energy -346929.829514 kJ/mol
# GULP energy per Si atom -12390.351054 kJ/mol
# Density = 2.160320 g / cm^3
# Si number density = 21.652480 Si / 1000 Ang^3
#
#
#
# Elastic Constant Matrix: (Units=GPa)
#
#
# Indices 1 2 3 4 5 6 
#
# 1 127.5103 50.9720 22.8155 0.0000 9.3766 0.0000
# 2 50.9720 110.3769 60.3159 0.0000 0.5873 0.0000
# 3 22.8155 60.3159 125.5558 0.0000 7.4855 0.0000
# 4 0.0000 0.0000 0.0000 37.4189 0.0000 -4.6133
# 5 9.3766 0.5873 7.4855 0.0000 27.7160 0.0000
# 6 0.0000 0.0000 0.0000 -4.6133 0.0000 32.5098
#
#
#
# Elastic Compliance Matrix: (Units=1/GPa)
#
#
# Indices 1 2 3 4 5 6 
#
# 1 0.009962 -0.005026 0.000812 0.000000 -0.003483 0.000000
# 2 -0.005026 0.014870 -0.006416 0.000000 0.003118 0.000000
# 3 0.000812 -0.006416 0.011086 0.000000 -0.003133 0.000000
# 4 0.000000 0.000000 0.000000 0.027200 0.000000 0.003860
# 5 -0.003483 0.003118 -0.003133 0.000000 0.038039 0.000000
# 6 0.000000 0.000000 0.000000 0.003860 0.000000 0.031308
#
#
# Mechanical properties :
#
#
# Convention : Reuss Voigt Hill
#
# Bulk Modulus (GPa) = 68.22030 70.18330 69.20180
# Shear Modulus (GPa) = 31.52348 34.81825 33.17087
#
# Velocity S-wave (km/s) = 3.81974 4.01440 3.91828
# Velocity P-wave (km/s) = 7.14348 7.34650 7.24570
#
# Compressibility (1/GPa) = 0.01465839
#
# Stress axis : x y z
#
# Youngs Moduli (GPa) = 100.37765 67.24842 90.20250
#
# Poissons Ratio (x) = 0.33796 -0.07321
# Poissons Ratio (y) = 0.50446 0.57876
# Poissons Ratio (z) = -0.08146 0.43148
#
# Static dielectric constant tensor:
#      x y z
#    x 4.288790 0.000000 0.245620 
#    y 0.000000 4.208790 0.000000 
#    z 0.245620 0.000000 4.249240 
# 
# 
# High freq. dielectric constant tensor:
#      x y z
#    x 1.850190 0.000000 0.007690 
#    y 0.000000 1.849400 0.000000 
#    z 0.007690 0.000000 1.854000 
# 
# From -- ./inp_files/121922.got.cif
#   From: 2010.06.25/outbox.cif.g09.slc.cpg/sg15_61_cif.got.tgz:121922.got - 2010.06.28 07:06:18.
