data_PCOD8147485
_publ_section_title
;
Structure prediction by ZEFSAII (Michael W. Deem and Ramdas Pophale) SiO2 
 PCOD8147485
Probable space group: C 2/C
;
_chemical_formula_sum "Si O2"
_cell_formula_units_Z 56
_cell_length_a 9.267126
_cell_length_b 15.632438
_cell_length_c 29.432350
_cell_angle_alpha 90.000000
_cell_angle_beta 39.106693
_cell_angle_gamma 90.000000
_cell_volume 2689.461381
_symmetry_space_group_name_H-M "C 2/C"
_symmetry_group_IT_number 15
_symmetry_cell_setting 'monoclinic'
loop_
_space_group_symop_operation_xyz
x,y,z
-x,y,1/2-z
-x,-y,-z
x,-y,1/2+z
1/2+x,1/2+y,z
1/2-x,1/2+y,1/2-z
1/2-x,1/2-y,-z
1/2+x,1/2-y,1/2+z
loop_
_atom_site_type_symbol
_atom_site_label
_atom_site_fract_x
_atom_site_fract_y
_atom_site_fract_z
Si Si1 0.036222 0.367126 0.838343
Si Si2 0.814472 0.472986 0.256432
Si Si3 0.850530 0.006121 0.920815
Si Si4 0.496738 0.357059 0.553134
Si Si5 0.627966 0.217042 0.765781
Si Si6 0.021557 0.391578 0.948773
Si Si7 0.712947 0.247741 0.573018
O O1 0.159279 0.450554 0.786485
O O2 0.154024 0.280561 0.790272
O O3 0.770881 0.364717 0.890503
O O4 0.060215 0.371350 0.886539
O O5 0.573117 0.468818 0.339617
O O6 0.820730 0.380138 0.230673
O O7 0.000000 0.487234 0.250000
O O8 0.677727 0.971985 0.924632
O O9 0.911684 0.940627 0.945390
O O10 0.741830 0.086407 0.974490
O O11 0.549719 0.273712 0.570837
O O12 0.653827 0.341901 0.469427
O O13 0.500000 0.213597 0.750000
O O14 0.449338 0.253374 0.844588
O O15 0.082681 0.313037 0.966252
#
# Coordination Sequence:
#
# PCOD8147485 Si02
#       7
#     8   8   8   8   8   8   8
#     4  12  24  42  70 100 127 184 222 269 334 404
#     4  11  25  43  67  98 137 174 221 279 334 392
#     4  10  22  44  63  94 132 173 216 279 328 395
#     4  10  23  40  69  92 132 173 222 270 335 388
#     4  11  25  43  67  98 137 174 221 279 334 392
#     4  10  23  40  69  92 132 173 222 270 335 388
#     4  10  22  44  63  94 132 173 216 279 328 395
#
# _framework density 20.822013999999999
#
# number of rings (size 3 to 8) (size 9 to 14) (size 15 to 20)
#    0.000    1.429    2.857    1.714    4.000    3.429 
#    0.000    1.429    0.000    0.000    0.000    0.000 
#    0.000    0.000    0.000    0.000    0.000    0.000 
#
# Total GULP energy -347049.251055 kJ/mol
# GULP energy per Si atom -12394.616109 kJ/mol
# Density = 2.077462 g / cm^3
# Si number density = 20.822014 Si / 1000 Ang^3
#
#
#
# Elastic Constant Matrix: (Units=GPa)
#
#
# Indices 1 2 3 4 5 6 
#
# 1 75.3828 31.0575 36.1013 -0.0183 -9.1449 0.0094
# 2 31.0575 84.9279 19.9110 0.0004 -3.2866 0.0049
# 3 36.1013 19.9110 120.3227 -0.0129 -14.5223 0.0097
# 4 -0.0183 0.0004 -0.0129 125.9864 -0.0009 30.6598
# 5 -9.1449 -3.2866 -14.5223 -0.0009 30.4242 -0.0034
# 6 0.0094 0.0049 0.0097 30.6598 -0.0034 7.3524
#
#
#
# Elastic Compliance Matrix: (Units=1/GPa)
#
#
# Indices 1 2 3 4 5 6 
#
# 1 0.017815 -0.005444 -0.004106 -0.000353 0.002807 0.001460
# 2 -0.005444 0.013917 -0.000728 0.000035 -0.000480 -0.000149
# 3 -0.004106 -0.000728 0.010086 -0.000129 0.003502 0.000532
# 4 -0.000353 0.000035 -0.000129 -0.535959 0.000072 2.234961
# 5 0.002807 -0.000480 0.003502 0.000072 0.035332 -0.000290
# 6 0.001460 -0.000149 0.000532 2.234961 -0.000290 -9.183833
#
#
# Mechanical properties :
#
#
# Convention : Reuss Voigt Hill
#
# Bulk Modulus (GPa) = 47.02760 50.53034 48.77897
# Shear Modulus (GPa) = -0.52002 45.65685 22.56841
#
# Velocity S-wave (km/s) = -0.50029 4.68773 3.29579
# Velocity P-wave (km/s) = 4.72238 7.32258 6.16121
#
# Compressibility (1/GPa) = 0.02126411
#
# Stress axis : x y z
#
# Youngs Moduli (GPa) = 56.13277 71.85229 99.14907
#
# Poissons Ratio (x) = 0.39114 0.40707
# Poissons Ratio (y) = 0.30557 0.07215
# Poissons Ratio (z) = 0.23046 0.05229
#
# Static dielectric constant tensor:
#      x y z
#    x 3.750350 0.000010 -0.074390 
#    y 0.000010 3.976780 0.000020 
#    z -0.074390 0.000020 4.327490 
# 
# 
# High freq. dielectric constant tensor:
#      x y z
#    x 1.814280 0.000000 -0.003200 
#    y 0.000000 1.814130 0.000000 
#    z -0.003200 0.000000 1.832050 
# 
# From -- ./inp_files/289673.got.cif
#   From: 2010.06.25/outbox.cif.g09.slc.cpg/sg15_145_cif.got.tgz:289673.got - 2010.06.28 07:06:18.
