data_PCOD8147162
_publ_section_title
;
Structure prediction by ZEFSAII (Michael W. Deem and Ramdas Pophale) SiO2 
 PCOD8147162
Probable space group: C 2/C
;
_chemical_formula_sum "Si O2"
_cell_formula_units_Z 52
_cell_length_a 7.609210
_cell_length_b 25.597666
_cell_length_c 12.071887
_cell_angle_alpha 90.000000
_cell_angle_beta 77.802111
_cell_angle_gamma 90.000000
_cell_volume 2298.253636
_symmetry_space_group_name_H-M "C 2/C"
_symmetry_group_IT_number 15
_symmetry_cell_setting 'monoclinic'
loop_
_space_group_symop_operation_xyz
x,y,z
-x,y,1/2-z
-x,-y,-z
x,-y,1/2+z
1/2+x,1/2+y,z
1/2-x,1/2+y,1/2-z
1/2-x,1/2-y,-z
1/2+x,1/2-y,1/2+z
loop_
_atom_site_type_symbol
_atom_site_label
_atom_site_fract_x
_atom_site_fract_y
_atom_site_fract_z
Si Si1 0.842195 0.175896 0.556248
Si Si2 0.287013 0.371617 0.432418
Si Si3 0.962925 0.023246 0.888960
Si Si4 0.312711 0.280326 0.825946
Si Si5 0.184952 0.364237 0.685996
Si Si6 0.697495 0.092688 0.719366
Si Si7 0.500000 0.569646 0.250000
O O1 0.793399 0.231277 0.614118
O O2 0.848639 0.178700 0.421881
O O3 0.709005 0.128629 0.607466
O O4 0.033462 0.161784 0.582496
O O5 0.311373 0.434139 0.428934
O O6 0.166785 0.356421 0.555164
O O7 0.205907 0.364471 0.320091
O O8 0.140792 0.049287 0.802250
O O9 0.886076 0.971416 0.838737
O O10 0.000000 0.000000 0.000000
O O11 0.500000 0.261281 0.750000
O O12 0.196250 0.308362 0.746154
O O13 0.364079 0.396314 0.694094
O O14 0.000000 0.391890 0.750000
O O15 0.500000 0.065532 0.750000
#
# Coordination Sequence:
#
# PCOD8147162 Si02
#       7
#     8   8   8   8   8   8   4
#     4  10  22  42  73  95 134 183 223 280 349 410
#     4  11  22  46  66  97 136 178 229 284 340 416
#     4  11  22  41  69  95 131 184 225 271 356 400
#     4  11  22  44  68 103 137 178 228 280 348 411
#     4  12  27  42  69 103 140 181 232 282 347 413
#     4  11  25  42  68 100 134 177 234 288 339 413
#     4  12  22  46  66  96 144 178 222 288 334 406
#
# _framework density 22.625876000000002
#
# number of rings (size 3 to 8) (size 9 to 14) (size 15 to 20)
#    0.000    0.923    5.385    1.846    4.308    1.846 
#    0.000    3.077    0.000    0.000    0.000    0.000 
#    0.000    0.000    0.000    0.000    0.000    0.000 
#
# Total GULP energy -322092.615660 kJ/mol
# GULP energy per Si atom -12388.177525 kJ/mol
# Density = 2.257438 g / cm^3
# Si number density = 22.625876 Si / 1000 Ang^3
#
#
#
# Elastic Constant Matrix: (Units=GPa)
#
#
# Indices 1 2 3 4 5 6 
#
# 1 83.8539 1.5533 9.7103 0.0000 -18.3230 0.0000
# 2 1.5533 61.3598 4.6365 0.0000 -9.4380 0.0000
# 3 9.7103 4.6365 135.8225 0.0000 -10.0796 0.0000
# 4 0.0000 0.0000 0.0000 41.4892 0.0000 4.7420
# 5 -18.3230 -9.4380 -10.0796 0.0000 29.1622 0.0000
# 6 0.0000 0.0000 0.0000 4.7420 0.0000 8.6622
#
#
#
# Elastic Compliance Matrix: (Units=1/GPa)
#
#
# Indices 1 2 3 4 5 6 
#
# 1 0.013904 0.001052 -0.000366 0.000000 0.008950 0.000000
# 2 0.001052 0.017235 -0.000206 0.000000 0.006168 0.000000
# 3 -0.000366 -0.000206 0.007568 0.000000 0.002319 0.000000
# 4 0.000000 0.000000 0.000000 0.025711 0.000000 -0.014075
# 5 0.008950 0.006168 0.002319 0.000000 0.042712 0.000000
# 6 0.000000 0.000000 0.000000 -0.014075 0.000000 0.123149
#
#
# Mechanical properties :
#
#
# Convention : Reuss Voigt Hill
#
# Bulk Modulus (GPa) = 25.20900 34.75961 29.98431
# Shear Modulus (GPa) = 20.61508 33.53846 27.07677
#
# Velocity S-wave (km/s) = 3.02177 3.85425 3.46311
# Velocity P-wave (km/s) = 4.83121 5.93322 5.41035
#
# Compressibility (1/GPa) = 0.03966837
#
# Stress axis : x y z
#
# Youngs Moduli (GPa) = 71.92131 58.02163 132.13806
#
# Poissons Ratio (x) = -0.06106 0.04833
# Poissons Ratio (y) = -0.07569 0.02720
# Poissons Ratio (z) = 0.02631 0.01194
#
# Static dielectric constant tensor:
#      x y z
#    x 3.823660 0.000000 -0.011170 
#    y 0.000000 4.047040 0.000000 
#    z -0.011170 0.000000 4.782600 
# 
# 
# High freq. dielectric constant tensor:
#      x y z
#    x 1.865580 0.000000 0.002650 
#    y 0.000000 1.883830 0.000000 
#    z 0.002650 0.000000 1.925090 
# 
# From -- ./inp_files/80705.got.cif
#   From: 2010.06.25/outbox.cif.g09.slc.cpg/sg15_41_cif.got.tgz:80705.got - 2010.06.28 07:06:18.
