data_PCOD8147192
_publ_section_title
;
Structure prediction by ZEFSAII (Michael W. Deem and Ramdas Pophale) SiO2 
 PCOD8147192
Probable space group: C 2/C
;
_chemical_formula_sum "Si O2"
_cell_formula_units_Z 32
_cell_length_a 18.674268
_cell_length_b 7.163385
_cell_length_c 17.701020
_cell_angle_alpha 90.000000
_cell_angle_beta 140.403111
_cell_angle_gamma 90.000000
_cell_volume 1509.246132
_symmetry_space_group_name_H-M "C 2/C"
_symmetry_group_IT_number 15
_symmetry_cell_setting 'monoclinic'
loop_
_space_group_symop_operation_xyz
x,y,z
-x,y,1/2-z
-x,-y,-z
x,-y,1/2+z
1/2+x,1/2+y,z
1/2-x,1/2+y,1/2-z
1/2-x,1/2-y,-z
1/2+x,1/2-y,1/2+z
loop_
_atom_site_type_symbol
_atom_site_label
_atom_site_fract_x
_atom_site_fract_y
_atom_site_fract_z
Si Si1 0.566307 0.035266 0.730992
Si Si2 0.842439 0.773130 0.286177
Si Si3 0.514087 0.550566 0.174591
Si Si4 0.309867 0.493217 0.405211
O O1 0.500000 0.956870 0.750000
O O2 0.512267 0.228002 0.659520
O O3 0.697933 0.070171 0.860195
O O4 0.563047 0.883808 0.659773
O O5 0.720270 0.686313 0.164780
O O6 0.845441 0.827986 0.376361
O O7 0.869978 0.958867 0.260013
O O8 0.500000 0.498887 0.250000
O O9 0.410597 0.464135 0.043654
#
# Coordination Sequence:
#
# PCOD8147192 Si02
#       4
#     8   8   8   8
#     4   9  22  42  63  96 130 166 217 256 325 383
#     4  10  22  43  62  95 132 170 214 266 312 389
#     4  11  23  42  65  97 132 166 216 268 315 387
#     4  10  23  42  67  94 131 170 215 260 327 377
#
# _framework density 21.202639999999999
#
# number of rings (size 3 to 8) (size 9 to 14) (size 15 to 20)
#    1.500    0.500    0.000    3.000    0.000    6.000 
#    9.000    0.000    0.000    0.000    0.000    0.000 
#    0.000    0.000    0.000    0.000    0.000    0.000 
#
# Total GULP energy -198213.809299 kJ/mol
# GULP energy per Si atom -12388.363081 kJ/mol
# Density = 2.115438 g / cm^3
# Si number density = 21.202640 Si / 1000 Ang^3
#
#
#
# Elastic Constant Matrix: (Units=GPa)
#
#
# Indices 1 2 3 4 5 6 
#
# 1 144.9141 54.4525 43.2642 0.0000 -5.2249 0.0000
# 2 54.4525 79.0198 38.5340 0.0000 -6.8500 0.0000
# 3 43.2642 38.5340 119.0861 0.0000 -17.4898 0.0000
# 4 0.0000 0.0000 0.0000 17.6651 0.0000 14.9023
# 5 -5.2249 -6.8500 -17.4898 0.0000 24.7506 0.0000
# 6 0.0000 0.0000 0.0000 14.9023 0.0000 31.2353
#
#
#
# Elastic Compliance Matrix: (Units=1/GPa)
#
#
# Indices 1 2 3 4 5 6 
#
# 1 0.009574 -0.005834 -0.001708 0.000000 -0.000800 0.000000
# 2 -0.005834 0.018595 -0.003707 0.000000 0.001295 0.000000
# 3 -0.001708 -0.003707 0.011173 0.000000 0.006509 0.000000
# 4 0.000000 0.000000 0.000000 0.094740 0.000000 -0.045200
# 5 -0.000800 0.001295 0.006509 0.000000 0.045192 0.000000
# 6 0.000000 0.000000 0.000000 -0.045200 0.000000 0.053580
#
#
# Mechanical properties :
#
#
# Convention : Reuss Voigt Hill
#
# Bulk Modulus (GPa) = 59.36831 68.39125 63.87978
# Shear Modulus (GPa) = 19.15948 28.51483 23.83716
#
# Velocity S-wave (km/s) = 3.00932 3.67123 3.35663
# Velocity P-wave (km/s) = 6.33529 7.09201 6.72430
#
# Compressibility (1/GPa) = 0.01684400
#
# Stress axis : x y z
#
# Youngs Moduli (GPa) = 104.45181 53.77703 89.49804
#
# Poissons Ratio (x) = 0.31372 0.15287
# Poissons Ratio (y) = 0.60935 0.33181
# Poissons Ratio (z) = 0.17841 0.19938
#
# Static dielectric constant tensor:
#      x y z
#    x 3.948250 0.000000 0.133640 
#    y 0.000000 3.807100 0.000000 
#    z 0.133640 0.000000 3.275770 
# 
# 
# High freq. dielectric constant tensor:
#      x y z
#    x 1.845810 0.000000 0.007750 
#    y 0.000000 1.835460 0.000000 
#    z 0.007750 0.000000 1.785130 
# 
# From -- ./inp_files/158953.got.cif
#   From: 2010.06.25/outbox.cif.g09.slc.cpg/sg15_80_cif.got.tgz:158953.got - 2010.06.28 07:06:18.
