data_PCOD8147597
_publ_section_title
;
Structure prediction by ZEFSAII (Michael W. Deem and Ramdas Pophale) SiO2 
 PCOD8147597
Probable space group: C 2/C
;
_chemical_formula_sum "Si O2"
_cell_formula_units_Z 44
_cell_length_a 10.278315
_cell_length_b 26.779869
_cell_length_c 11.001928
_cell_angle_alpha 90.000000
_cell_angle_beta 136.668068
_cell_angle_gamma 90.000000
_cell_volume 2078.092987
_symmetry_space_group_name_H-M "C 2/C"
_symmetry_group_IT_number 15
_symmetry_cell_setting 'monoclinic'
loop_
_space_group_symop_operation_xyz
x,y,z
-x,y,1/2-z
-x,-y,-z
x,-y,1/2+z
1/2+x,1/2+y,z
1/2-x,1/2+y,1/2-z
1/2-x,1/2-y,-z
1/2+x,1/2-y,1/2+z
loop_
_atom_site_type_symbol
_atom_site_label
_atom_site_fract_x
_atom_site_fract_y
_atom_site_fract_z
Si Si1 0.596262 0.902000 0.094952
Si Si2 0.000000 0.464435 0.250000
Si Si3 0.151169 0.697401 0.749407
Si Si4 0.187180 0.036932 0.937441
Si Si5 0.951360 0.808756 0.856621
Si Si6 0.816480 0.390506 0.712101
O O1 0.612063 0.928707 0.235227
O O2 0.613230 0.841962 0.116091
O O3 0.769805 0.922003 0.135160
O O4 0.400760 0.915341 0.891970
O O5 0.148342 0.496550 0.429459
O O6 0.133315 0.753465 0.690169
O O7 0.000000 0.686393 0.750000
O O8 0.357349 0.687594 0.939964
O O9 0.000000 0.011201 0.750000
O O10 0.173569 0.068909 0.053930
O O11 0.800038 0.842670 0.823550
O O12 0.000000 0.823827 0.750000
O O13 0.000000 0.377469 0.750000
#
# Coordination Sequence:
#
# PCOD8147597 Si02
#       6
#     8   4   8   8   8   8
#     4  11  22  42  66  91 131 170 215 271 331 380
#     4  12  24  44  66  92 128 172 220 276 328 378
#     4  11  21  39  61  97 130 172 213 277 325 386
#     4  11  24  44  65  92 131 171 216 271 331 394
#     4  11  22  38  66  96 131 170 223 265 328 393
#     4  10  22  44  67  95 136 173 211 272 331 392
#
# _framework density 21.173259000000002
#
# number of rings (size 3 to 8) (size 9 to 14) (size 15 to 20)
#    0.000    1.091    3.636    6.000    0.000    0.727 
#    3.273    9.091    0.000    0.000    0.000    0.000 
#    0.000    0.000    0.000    0.000    0.000    0.000 
#
# Total GULP energy -272621.185063 kJ/mol
# GULP energy per Si atom -12391.872048 kJ/mol
# Density = 2.112507 g / cm^3
# Si number density = 21.173259 Si / 1000 Ang^3
#
#
#
# Elastic Constant Matrix: (Units=GPa)
#
#
# Indices 1 2 3 4 5 6 
#
# 1 51.4438 19.9154 19.9580 0.0000 3.7378 0.0000
# 2 19.9154 73.6437 19.6372 0.0000 -1.5855 0.0000
# 3 19.9580 19.6372 141.9935 0.0000 12.9699 0.0000
# 4 0.0000 0.0000 0.0000 37.7889 0.0000 -4.3418
# 5 3.7378 -1.5855 12.9699 0.0000 35.9567 0.0000
# 6 0.0000 0.0000 0.0000 -4.3418 0.0000 10.6137
#
#
#
# Elastic Compliance Matrix: (Units=1/GPa)
#
#
# Indices 1 2 3 4 5 6 
#
# 1 0.022587 -0.005548 -0.002245 0.000000 -0.001783 0.000000
# 2 -0.005548 0.015527 -0.001533 0.000000 0.001814 0.000000
# 3 -0.002245 -0.001533 0.007812 0.000000 -0.002652 0.000000
# 4 0.000000 0.000000 0.000000 0.027768 0.000000 0.011359
# 5 -0.001783 0.001814 -0.002652 0.000000 0.029033 0.000000
# 6 0.000000 0.000000 0.000000 0.011359 0.000000 0.098864
#
#
# Mechanical properties :
#
#
# Convention : Reuss Voigt Hill
#
# Bulk Modulus (GPa) = 36.66411 42.90024 39.78217
# Shear Modulus (GPa) = 21.80216 30.70988 26.25602
#
# Velocity S-wave (km/s) = 3.21238 3.81256 3.52526
# Velocity P-wave (km/s) = 5.57790 6.29970 5.94976
#
# Compressibility (1/GPa) = 0.02727463
#
# Stress axis : x y z
#
# Youngs Moduli (GPa) = 44.27366 64.40334 128.00202
#
# Poissons Ratio (x) = 0.35731 0.28731
# Poissons Ratio (y) = 0.24563 0.19626
# Poissons Ratio (z) = 0.09938 0.09875
#
# Static dielectric constant tensor:
#      x y z
#    x 3.630320 0.000000 -0.072910 
#    y 0.000000 3.811330 0.000000 
#    z -0.072910 0.000000 4.304560 
# 
# 
# High freq. dielectric constant tensor:
#      x y z
#    x 1.813440 0.000000 -0.003420 
#    y 0.000000 1.830360 0.000000 
#    z -0.003420 0.000000 1.852890 
# 
# From -- ./inp_files/91363.got.cif
#   From: 2010.06.25/outbox.cif.g09.slc.cpg/sg15_46_cif.got.tgz:91363.got - 2010.06.28 07:06:18.
