data_PCOD8147176
_publ_section_title
;
Structure prediction by ZEFSAII (Michael W. Deem and Ramdas Pophale) SiO2 
 PCOD8147176
Probable space group: C 2/C
;
_chemical_formula_sum "Si O2"
_cell_formula_units_Z 64
_cell_length_a 26.075761
_cell_length_b 6.615133
_cell_length_c 27.605649
_cell_angle_alpha 90.000000
_cell_angle_beta 139.634678
_cell_angle_gamma 90.000000
_cell_volume 3084.038906
_symmetry_space_group_name_H-M "C 2/C"
_symmetry_group_IT_number 15
_symmetry_cell_setting 'monoclinic'
loop_
_space_group_symop_operation_xyz
x,y,z
-x,y,1/2-z
-x,-y,-z
x,-y,1/2+z
1/2+x,1/2+y,z
1/2-x,1/2+y,1/2-z
1/2-x,1/2-y,-z
1/2+x,1/2-y,1/2+z
loop_
_atom_site_type_symbol
_atom_site_label
_atom_site_fract_x
_atom_site_fract_y
_atom_site_fract_z
Si Si1 0.844626 0.617253 0.474636
Si Si2 0.171325 0.033944 0.607489
Si Si3 0.568668 0.273414 0.715704
Si Si4 0.063318 0.772726 0.465044
Si Si5 0.671162 0.527866 0.859589
Si Si6 0.601491 0.576683 0.409918
Si Si7 0.392695 0.415131 0.335775
Si Si8 0.156243 0.622016 0.280503
O O1 0.918794 0.464617 0.528282
O O2 0.764609 0.488667 0.417973
O O3 0.846957 0.762493 0.522999
O O4 0.852595 0.749529 0.431758
O O5 0.115504 0.858580 0.546537
O O6 0.261862 0.997250 0.658403
O O7 0.163268 0.035895 0.659409
O O8 0.626360 0.352205 0.798922
O O9 0.478612 0.316745 0.666548
O O10 0.585785 0.376521 0.676076
O O11 0.583278 0.033299 0.722547
O O12 0.971353 0.803102 0.411659
O O13 0.081660 0.882716 0.427868
O O14 0.652903 0.507562 0.902893
O O15 0.643886 0.747921 0.820680
O O16 0.343069 0.272699 0.264397
#
# Coordination Sequence:
#
# PCOD8147176 Si02
#       8
#     8   8   8   8   8   8   8   8
#     4  11  22  39  62  89 127 159 206 254 304 368
#     4  11  23  39  62  91 125 165 204 259 308 362
#     4  10  22  43  61  90 125 158 204 259 305 368
#     4  10  22  43  60  92 125 156 208 258 305 371
#     4  11  22  40  62  91 125 160 202 256 309 367
#     4  10  23  40  64  88 121 161 205 253 311 368
#     4  10  24  39  65  90 123 166 207 252 309 366
#     4  11  23  39  62  92 127 161 212 255 304 372
#
# _framework density 20.752006000000002
#
# number of rings (size 3 to 8) (size 9 to 14) (size 15 to 20)
#    0.000    1.500    2.500    1.875    1.750    3.000 
#    0.000    3.750    0.000    0.000    0.000    0.000 
#    0.000    0.000    0.000    0.000    0.000    0.000 
#
# Total GULP energy -397011.125286 kJ/mol
# GULP energy per Si atom -12406.597665 kJ/mol
# Density = 2.070477 g / cm^3
# Si number density = 20.752006 Si / 1000 Ang^3
#
#
#
# Elastic Constant Matrix: (Units=GPa)
#
#
# Indices 1 2 3 4 5 6 
#
# 1 60.3266 28.3913 13.1743 -0.0012 -17.0276 0.0563
# 2 28.3913 111.5112 20.6578 -0.0004 -11.3646 0.0347
# 3 13.1743 20.6578 72.7255 0.0007 -0.6477 -0.0087
# 4 -0.0012 -0.0004 0.0007 36.5306 -0.0038 9.4912
# 5 -17.0276 -11.3646 -0.6477 -0.0038 35.3530 -0.0128
# 6 0.0563 0.0347 -0.0087 9.4912 -0.0128 20.8500
#
#
#
# Elastic Compliance Matrix: (Units=1/GPa)
#
#
# Indices 1 2 3 4 5 6 
#
# 1 0.021644 -0.004091 -0.002678 0.000016 0.009061 -0.000054
# 2 -0.004091 0.010567 -0.002248 0.000002 0.001385 -0.000008
# 3 -0.002678 -0.002248 0.014859 -0.000005 -0.001740 0.000019
# 4 0.000016 0.000002 -0.000005 0.031046 0.000006 -0.014133
# 5 0.009061 0.001385 -0.001740 0.000006 0.033064 -0.000010
# 6 -0.000054 -0.000008 0.000019 -0.014133 -0.000010 0.054395
#
#
# Mechanical properties :
#
#
# Convention : Reuss Voigt Hill
#
# Bulk Modulus (GPa) = 34.44121 41.00113 37.72117
# Shear Modulus (GPa) = 25.86816 30.70269 28.28543
#
# Velocity S-wave (km/s) = 3.53446 3.85061 3.69592
# Velocity P-wave (km/s) = 5.76968 6.29048 6.03570
#
# Compressibility (1/GPa) = 0.02903499
#
# Stress axis : x y z
#
# Youngs Moduli (GPa) = 46.20184 94.63431 67.30126
#
# Poissons Ratio (x) = 0.38716 0.18024
# Poissons Ratio (y) = 0.18902 0.15130
# Poissons Ratio (z) = 0.12373 0.21275
#
# Static dielectric constant tensor:
#      x y z
#    x 3.467990 -0.000060 0.063640 
#    y -0.000060 3.731250 0.000000 
#    z 0.063640 0.000000 3.863160 
# 
# 
# High freq. dielectric constant tensor:
#      x y z
#    x 1.796500 0.000000 0.004760 
#    y 0.000000 1.815500 0.000000 
#    z 0.004760 0.000000 1.826830 
# 
# From -- ./inp_files/304108.got.cif
#   From: 2010.06.25/outbox.cif.g09.slc.cpg/sg15_153_cif.got.tgz:304108.got - 2010.06.28 07:06:18.
