data_PCOD8147542
_publ_section_title
;
Structure prediction by ZEFSAII (Michael W. Deem and Ramdas Pophale) SiO2 
 PCOD8147542
Probable space group: C 2/C
;
_chemical_formula_sum "Si O2"
_cell_formula_units_Z 44
_cell_length_a 12.029762
_cell_length_b 12.911982
_cell_length_c 22.866090
_cell_angle_alpha 90.000000
_cell_angle_beta 36.228906
_cell_angle_gamma 90.000000
_cell_volume 2099.126807
_symmetry_space_group_name_H-M "C 2/C"
_symmetry_group_IT_number 15
_symmetry_cell_setting 'monoclinic'
loop_
_space_group_symop_operation_xyz
x,y,z
-x,y,1/2-z
-x,-y,-z
x,-y,1/2+z
1/2+x,1/2+y,z
1/2-x,1/2+y,1/2-z
1/2-x,1/2-y,-z
1/2+x,1/2-y,1/2+z
loop_
_atom_site_type_symbol
_atom_site_label
_atom_site_fract_x
_atom_site_fract_y
_atom_site_fract_z
Si Si1 0.462389 0.499571 0.584377
Si Si2 0.598905 0.154821 0.945577
Si Si3 0.240517 0.038489 0.062645
Si Si4 0.367054 0.269067 0.141458
Si Si5 0.000000 0.824837 0.750000
Si Si6 0.669280 0.179812 0.220595
O O1 0.500000 0.500000 0.500000
O O2 0.660148 0.471338 0.531310
O O3 0.392137 0.609031 0.638403
O O4 0.304521 0.417915 0.669290
O O5 0.718253 0.221014 0.849866
O O6 0.737080 0.074189 0.918178
O O7 0.441083 0.095460 0.974697
O O8 0.507867 0.229181 0.032221
O O9 0.091871 0.102754 0.162741
O O10 0.417180 0.208908 0.179800
O O11 0.151613 0.248709 0.216093
O O12 0.500000 0.149009 0.250000
#
# Coordination Sequence:
#
# PCOD8147542 Si02
#       6
#     8   8   8   8   4   8
#     4  12  26  44  67 102 140 179 222 286 343 401
#     4  10  24  45  69  99 132 183 225 286 330 411
#     4  10  23  43  72  96 134 174 234 270 344 404
#     4  11  25  44  69  96 140 178 226 281 339 405
#     4  10  22  44  66 102 128 182 230 276 332 414
#     4  12  27  44  66 102 138 183 228 276 346 401
#
# _framework density 20.961096999999999
#
# number of rings (size 3 to 8) (size 9 to 14) (size 15 to 20)
#    0.000    1.091    3.636    1.091    7.636    5.091 
#    0.000    0.000    0.000    0.000    0.000    0.000 
#    0.000    0.000    0.000    0.000    0.000    0.000 
#
# Total GULP energy -272960.707169 kJ/mol
# GULP energy per Si atom -12407.304871 kJ/mol
# Density = 2.091339 g / cm^3
# Si number density = 20.961097 Si / 1000 Ang^3
#
#
#
# Elastic Constant Matrix: (Units=GPa)
#
#
# Indices 1 2 3 4 5 6 
#
# 1 166.5467 38.4555 22.8785 0.0001 -6.6980 -0.0001
# 2 38.4555 120.4425 10.8694 0.0000 -9.8010 -0.0001
# 3 22.8785 10.8694 44.4357 -0.0003 -5.7316 -0.0003
# 4 0.0001 0.0000 -0.0003 35.0907 -0.0003 -10.7251
# 5 -6.6980 -9.8010 -5.7316 -0.0003 31.8094 0.0002
# 6 -0.0001 -0.0001 -0.0003 -10.7251 0.0002 40.4222
#
#
#
# Elastic Compliance Matrix: (Units=1/GPa)
#
#
# Indices 1 2 3 4 5 6 
#
# 1 0.006871 -0.001894 -0.003034 0.000000 0.000317 0.000000
# 2 -0.001894 0.009179 -0.000979 0.000000 0.002253 0.000000
# 3 -0.003034 -0.000979 0.024760 0.000000 0.003521 0.000000
# 4 0.000000 0.000000 0.000000 0.031013 0.000000 0.008228
# 5 0.000317 0.002253 0.003521 0.000000 0.032832 0.000000
# 6 0.000000 0.000000 0.000000 0.008228 0.000000 0.026922
#
#
# Mechanical properties :
#
#
# Convention : Reuss Voigt Hill
#
# Bulk Modulus (GPa) = 34.48762 52.87019 43.67890
# Shear Modulus (GPa) = 32.66747 38.74589 35.70668
#
# Velocity S-wave (km/s) = 3.95204 4.30404 4.13179
# Velocity P-wave (km/s) = 6.10850 7.06948 6.60648
#
# Compressibility (1/GPa) = 0.02899592
#
# Stress axis : x y z
#
# Youngs Moduli (GPa) = 145.53555 108.94118 40.38765
#
# Poissons Ratio (x) = 0.20637 0.12252
# Poissons Ratio (y) = 0.27569 0.03956
# Poissons Ratio (z) = 0.44149 0.10670
#
# Static dielectric constant tensor:
#      x y z
#    x 3.993750 0.000000 -0.113720 
#    y 0.000000 3.999890 0.000000 
#    z -0.113720 0.000000 3.681500 
# 
# 
# High freq. dielectric constant tensor:
#      x y z
#    x 1.837400 0.000000 -0.004550 
#    y 0.000000 1.835120 0.000000 
#    z -0.004550 0.000000 1.818820 
# 
# From -- ./inp_files/142212.got.cif
#   From: 2010.06.25/outbox.cif.g09.slc.cpg/sg15_72_cif.got.tgz:142212.got - 2010.06.28 07:06:18.
