data_PCOD8147477
_publ_section_title
;
Structure prediction by ZEFSAII (Michael W. Deem and Ramdas Pophale) SiO2 
 PCOD8147477
Probable space group: C 2/C
;
_chemical_formula_sum "Si O2"
_cell_formula_units_Z 52
_cell_length_a 19.770187
_cell_length_b 12.654890
_cell_length_c 10.548395
_cell_angle_alpha 90.000000
_cell_angle_beta 73.885904
_cell_angle_gamma 90.000000
_cell_volume 2535.410321
_symmetry_space_group_name_H-M "C 2/C"
_symmetry_group_IT_number 15
_symmetry_cell_setting 'monoclinic'
loop_
_space_group_symop_operation_xyz
x,y,z
-x,y,1/2-z
-x,-y,-z
x,-y,1/2+z
1/2+x,1/2+y,z
1/2-x,1/2+y,1/2-z
1/2-x,1/2-y,-z
1/2+x,1/2-y,1/2+z
loop_
_atom_site_type_symbol
_atom_site_label
_atom_site_fract_x
_atom_site_fract_y
_atom_site_fract_z
Si Si1 0.217279 0.617473 0.723503
Si Si2 0.354767 0.504184 0.115075
Si Si3 0.000000 0.524461 0.750000
Si Si4 0.421302 0.412537 0.837432
Si Si5 0.609644 0.172809 0.577646
Si Si6 0.256836 0.311225 0.623086
Si Si7 0.867624 0.575859 0.191250
O O1 0.298037 0.588669 0.657573
O O2 0.176376 0.621183 0.612015
O O3 0.217381 0.733371 0.780903
O O4 0.174096 0.531203 0.831615
O O5 0.379789 0.529977 0.244955
O O6 0.318857 0.605823 0.073269
O O7 0.412618 0.469931 0.979359
O O8 0.040243 0.601655 0.632934
O O9 0.055113 0.449952 0.794872
O O10 0.500000 0.419205 0.750000
O O11 0.399809 0.291214 0.868037
O O12 0.625312 0.163698 0.421266
O O13 0.250000 0.250000 0.500000
O O14 0.182039 0.368195 0.680395
#
# Coordination Sequence:
#
# PCOD8147477 Si02
#       7
#     8   8   4   8   8   8   8
#     4  10  23  40  68  99 126 163 216 268 328 378
#     4  11  25  42  69  95 132 172 220 276 324 387
#     4  10  22  44  62 102 132 168 206 268 330 386
#     4  12  25  46  66  96 130 180 223 267 325 391
#     4  11  22  42  71  96 129 169 218 265 327 395
#     4  11  23  41  63  97 131 168 212 271 329 378
#     4  10  24  39  68  98 130 170 209 266 326 393
#
# _framework density 20.509499999999999
#
# number of rings (size 3 to 8) (size 9 to 14) (size 15 to 20)
#    0.000    1.231    2.308    2.769   10.769    1.231 
#    2.769    0.000    3.385    0.000    0.000    0.000 
#    0.000    0.000    0.000    0.000    0.000    0.000 
#
# Total GULP energy -322275.561713 kJ/mol
# GULP energy per Si atom -12395.213912 kJ/mol
# Density = 2.046282 g / cm^3
# Si number density = 20.509500 Si / 1000 Ang^3
#
#
#
# Elastic Constant Matrix: (Units=GPa)
#
#
# Indices 1 2 3 4 5 6 
#
# 1 75.7663 52.0378 33.3981 0.0000 -6.9082 0.0000
# 2 52.0378 110.1586 52.1903 0.0000 -4.4184 0.0000
# 3 33.3981 52.1903 105.0738 0.0000 -1.3287 0.0000
# 4 0.0000 0.0000 0.0000 34.1451 0.0000 0.6220
# 5 -6.9082 -4.4184 -1.3287 0.0000 29.5652 0.0000
# 6 0.0000 0.0000 0.0000 0.6220 0.0000 26.5348
#
#
#
# Elastic Compliance Matrix: (Units=1/GPa)
#
#
# Indices 1 2 3 4 5 6 
#
# 1 0.020237 -0.008366 -0.002234 0.000000 0.003378 0.000000
# 2 -0.008366 0.015397 -0.004987 0.000000 0.000122 0.000000
# 3 -0.002234 -0.004987 0.012696 0.000000 -0.000697 0.000000
# 4 0.000000 0.000000 0.000000 0.029299 0.000000 -0.000687
# 5 0.003378 0.000122 -0.000697 0.000000 0.034600 0.000000
# 6 0.000000 0.000000 0.000000 -0.000687 0.000000 0.037702
#
#
# Mechanical properties :
#
#
# Convention : Reuss Voigt Hill
#
# Bulk Modulus (GPa) = 58.29078 62.91679 60.60378
# Shear Modulus (GPa) = 26.76294 28.27384 27.51839
#
# Velocity S-wave (km/s) = 3.61626 3.71694 3.66695
# Velocity P-wave (km/s) = 6.77640 7.01173 6.89507
#
# Compressibility (1/GPa) = 0.01715537
#
# Stress axis : x y z
#
# Youngs Moduli (GPa) = 49.41395 64.94573 78.76641
#
# Poissons Ratio (x) = 0.54332 0.17600
# Poissons Ratio (y) = 0.41338 0.39283
# Poissons Ratio (z) = 0.11041 0.32391
#
# Static dielectric constant tensor:
#      x y z
#    x 4.272470 0.000000 0.081320 
#    y 0.000000 3.954430 0.000000 
#    z 0.081320 0.000000 3.682380 
# 
# 
# High freq. dielectric constant tensor:
#      x y z
#    x 1.805220 0.000000 -0.006580 
#    y 0.000000 1.815440 0.000000 
#    z -0.006580 0.000000 1.800760 
# 
# From -- ./inp_files/110959.got.cif
#   From: 2010.06.25/outbox.cif.g09.slc.cpg/sg15_56_cif.got.tgz:110959.got - 2010.06.28 07:06:18.
