data_PCOD8147321
_publ_section_title
;
Structure prediction by ZEFSAII (Michael W. Deem and Ramdas Pophale) SiO2 
 PCOD8147321
Probable space group: C 2/C
;
_chemical_formula_sum "Si O2"
_cell_formula_units_Z 60
_cell_length_a 11.234979
_cell_length_b 9.472447
_cell_length_c 28.249908
_cell_angle_alpha 90.000000
_cell_angle_beta 113.358213
_cell_angle_gamma 90.000000
_cell_volume 2760.037593
_symmetry_space_group_name_H-M "C 2/C"
_symmetry_group_IT_number 15
_symmetry_cell_setting 'monoclinic'
loop_
_space_group_symop_operation_xyz
x,y,z
-x,y,1/2-z
-x,-y,-z
x,-y,1/2+z
1/2+x,1/2+y,z
1/2-x,1/2+y,1/2-z
1/2-x,1/2-y,-z
1/2+x,1/2-y,1/2+z
loop_
_atom_site_type_symbol
_atom_site_label
_atom_site_fract_x
_atom_site_fract_y
_atom_site_fract_z
Si Si1 0.500000 0.243069 0.250000
Si Si2 0.195786 0.483136 0.818461
Si Si3 0.159905 0.781026 0.845347
Si Si4 0.454050 0.477103 0.316768
Si Si5 0.954716 0.160394 0.491812
Si Si6 0.632130 0.205077 0.948969
Si Si7 0.955131 0.238970 0.893169
Si Si8 0.189457 0.417178 0.920508
O O1 0.438130 0.344608 0.279394
O O2 0.400306 0.142142 0.207977
O O3 0.128183 0.640556 0.808495
O O4 0.309915 0.457042 0.797884
O O5 0.251613 0.474231 0.881237
O O6 0.135345 0.766099 0.896945
O O7 0.313794 0.809478 0.861600
O O8 0.065384 0.912901 0.816040
O O9 0.474713 0.415817 0.373172
O O10 0.798671 0.170084 0.466165
O O11 0.000587 0.242307 0.452252
O O12 0.014704 0.237389 0.546481
O O13 0.000000 0.000000 0.500000
O O14 0.637487 0.037099 0.947372
O O15 0.750000 0.250000 0.000000
O O16 0.064353 0.330591 0.884873
#
# Coordination Sequence:
#
# PCOD8147321 Si02
#       8
#     4   8   8   8   8   8   8   8
#     4  12  26  48  74 102 128 166 230 284 344 418
#     4  10  24  48  69 100 135 172 217 286 344 398
#     4  10  22  43  67  96 142 180 216 277 334 400
#     4  11  25  45  73 101 132 177 222 278 347 404
#     4  12  21  36  62  90 134 185 224 270 322 390
#     4  11  20  37  59  90 129 182 228 258 324 395
#     4  11  23  40  62  98 141 175 228 276 324 401
#     4  11  23  40  62  95 134 179 226 274 333 391
#
# _framework density 21.738833
#
# number of rings (size 3 to 8) (size 9 to 14) (size 15 to 20)
#    0.000    1.067    4.000    3.600    0.000    5.333 
#    4.800    0.000    0.000    0.000    0.000    0.000 
#    0.000    0.000    0.000    0.000    0.000    0.000 
#
# Total GULP energy -371746.488644 kJ/mol
# GULP energy per Si atom -12391.549621 kJ/mol
# Density = 2.168935 g / cm^3
# Si number density = 21.738833 Si / 1000 Ang^3
#
#
#
# Elastic Constant Matrix: (Units=GPa)
#
#
# Indices 1 2 3 4 5 6 
#
# 1 112.6765 55.7382 24.1646 0.0000 -15.7706 0.0000
# 2 55.7382 98.5977 29.7091 0.0000 0.5373 0.0000
# 3 24.1646 29.7091 64.0299 0.0000 -1.9145 0.0000
# 4 0.0000 0.0000 0.0000 32.8516 0.0000 -1.6987
# 5 -15.7706 0.5373 -1.9145 0.0000 14.4980 0.0000
# 6 0.0000 0.0000 0.0000 -1.6987 0.0000 40.8627
#
#
#
# Elastic Compliance Matrix: (Units=1/GPa)
#
#
# Indices 1 2 3 4 5 6 
#
# 1 0.015905 -0.008643 -0.001471 0.000000 0.017427 0.000000
# 2 -0.008643 0.016507 -0.004715 0.000000 -0.010636 0.000000
# 3 -0.001471 -0.004715 0.018391 0.000000 0.001003 0.000000
# 4 0.000000 0.000000 0.000000 0.030505 0.000000 0.001268
# 5 0.017427 -0.010636 0.001003 0.000000 0.088459 0.000000
# 6 0.000000 0.000000 0.000000 0.001268 0.000000 0.024525
#
#
# Mechanical properties :
#
#
# Convention : Reuss Voigt Hill
#
# Bulk Modulus (GPa) = 47.29483 54.94755 51.12119
# Shear Modulus (GPa) = 21.64515 28.68861 25.16688
#
# Velocity S-wave (km/s) = 3.15888 3.63670 3.40618
# Velocity P-wave (km/s) = 5.92519 6.55479 6.24792
#
# Compressibility (1/GPa) = 0.02114396
#
# Stress axis : x y z
#
# Youngs Moduli (GPa) = 62.87273 60.58061 54.37520
#
# Poissons Ratio (x) = 0.52360 0.08000
# Poissons Ratio (y) = 0.54341 0.25639
# Poissons Ratio (z) = 0.09250 0.28565
#
# Static dielectric constant tensor:
#      x y z
#    x 4.235030 0.000000 -0.219070 
#    y 0.000000 3.947640 0.000000 
#    z -0.219070 0.000000 3.912670 
# 
# 
# High freq. dielectric constant tensor:
#      x y z
#    x 1.861380 0.000000 -0.010420 
#    y 0.000000 1.848200 0.000000 
#    z -0.010420 0.000000 1.851340 
# 
# From -- ./inp_files/310348.got.cif
#   From: 2010.06.25/outbox.cif.g09.slc.cpg/sg15_156_cif.got.tgz:310348.got - 2010.06.28 07:06:18.
