data_PCOD8147868
_publ_section_title
;
Structure prediction by ZEFSAII (Michael W. Deem and Ramdas Pophale) SiO2 
 PCOD8147868
Probable space group: C 2/C
;
_chemical_formula_sum "Si O2"
_cell_formula_units_Z 56
_cell_length_a 9.021121
_cell_length_b 28.276249
_cell_length_c 16.231346
_cell_angle_alpha 90.000000
_cell_angle_beta 40.099995
_cell_angle_gamma 90.000000
_cell_volume 2666.895678
_symmetry_space_group_name_H-M "C 2/C"
_symmetry_group_IT_number 15
_symmetry_cell_setting 'monoclinic'
loop_
_space_group_symop_operation_xyz
x,y,z
-x,y,1/2-z
-x,-y,-z
x,-y,1/2+z
1/2+x,1/2+y,z
1/2-x,1/2+y,1/2-z
1/2-x,1/2-y,-z
1/2+x,1/2-y,1/2+z
loop_
_atom_site_type_symbol
_atom_site_label
_atom_site_fract_x
_atom_site_fract_y
_atom_site_fract_z
Si Si1 0.766801 0.807629 0.400967
Si Si2 0.570050 0.114436 0.513141
Si Si3 0.245597 0.698423 0.103069
Si Si4 0.879077 0.456869 0.215239
Si Si5 0.543230 0.448309 0.015137
Si Si6 0.958309 0.878674 0.618479
Si Si7 0.455990 0.939843 0.634655
O O1 0.566945 0.837385 0.442998
O O2 0.691136 0.753438 0.423698
O O3 0.773516 0.820708 0.496417
O O4 0.000000 0.817667 0.250000
O O5 0.502010 0.088814 0.626210
O O6 0.499919 0.075178 0.476882
O O7 0.842545 0.127354 0.397195
O O8 0.418780 0.671470 0.090460
O O9 0.000000 0.689622 0.250000
O O10 0.609168 0.442859 0.337966
O O11 0.879129 0.505676 0.163716
O O12 0.000000 0.469216 0.250000
O O13 0.500000 0.500000 0.000000
O O14 0.435946 0.413650 0.993703
O O15 0.809076 0.435034 0.913824
O O16 0.728300 0.902622 0.751798
#
# Coordination Sequence:
#
# PCOD8147868 Si02
#       7
#     8   8   8   8   8   8   8
#     4  10  24  44  68 102 134 168 220 282 340 398
#     4  12  27  41  63  98 136 167 215 275 337 385
#     4  10  22  45  73  96 129 176 224 272 334 410
#     4  12  24  42  62  90 133 171 218 267 322 395
#     4  12  22  40  66  91 123 175 222 262 316 390
#     4  12  23  41  69  95 131 172 220 266 327 399
#     4  12  25  43  65  94 130 178 224 270 321 386
#
# _framework density 20.998196
#
# number of rings (size 3 to 8) (size 9 to 14) (size 15 to 20)
#    0.000    0.571    4.286    3.857    4.000    0.571 
#    2.571    0.000    0.000    5.143    0.000    0.000 
#    0.000    0.000    0.000    0.000    0.000    0.000 
#
# Total GULP energy -347058.079614 kJ/mol
# GULP energy per Si atom -12394.931415 kJ/mol
# Density = 2.095040 g / cm^3
# Si number density = 20.998196 Si / 1000 Ang^3
#
#
#
# Elastic Constant Matrix: (Units=GPa)
#
#
# Indices 1 2 3 4 5 6 
#
# 1 104.8682 50.7682 45.6625 0.0000 -21.5626 0.0000
# 2 50.7682 100.4489 35.4323 0.0000 -11.1465 0.0000
# 3 45.6625 35.4323 129.1985 0.0000 -12.6722 0.0000
# 4 0.0000 0.0000 0.0000 28.5978 0.0000 5.3849
# 5 -21.5626 -11.1465 -12.6722 0.0000 35.5493 0.0000
# 6 0.0000 0.0000 0.0000 5.3849 0.0000 32.9329
#
#
#
# Elastic Compliance Matrix: (Units=1/GPa)
#
#
# Indices 1 2 3 4 5 6 
#
# 1 0.014946 -0.005780 -0.003094 0.000000 0.006150 0.000000
# 2 -0.005780 0.013469 -0.001638 0.000000 0.000134 0.000000
# 3 -0.003094 -0.001638 0.009376 0.000000 0.000952 0.000000
# 4 0.000000 0.000000 0.000000 0.036079 0.000000 -0.005899
# 5 0.006150 0.000134 0.000952 0.000000 0.032242 0.000000
# 6 0.000000 0.000000 0.000000 -0.005899 0.000000 0.031329
#
#
# Mechanical properties :
#
#
# Convention : Reuss Voigt Hill
#
# Bulk Modulus (GPa) = 59.63977 66.47128 63.05553
# Shear Modulus (GPa) = 30.47792 32.92617 31.70205
#
# Velocity S-wave (km/s) = 3.81393 3.96415 3.88977
# Velocity P-wave (km/s) = 6.91800 7.25790 7.08999
#
# Compressibility (1/GPa) = 0.01676733
#
# Stress axis : x y z
#
# Youngs Moduli (GPa) = 66.90903 74.24362 106.65429
#
# Poissons Ratio (x) = 0.42912 0.32997
# Poissons Ratio (y) = 0.38673 0.17470
# Poissons Ratio (z) = 0.20701 0.12161
#
# Static dielectric constant tensor:
#      x y z
#    x 3.748910 0.000000 0.050390 
#    y 0.000000 3.774060 0.000000 
#    z 0.050390 0.000000 4.275790 
# 
# 
# High freq. dielectric constant tensor:
#      x y z
#    x 1.812650 0.000000 0.002790 
#    y 0.000000 1.827010 0.000000 
#    z 0.002790 0.000000 1.839030 
# 
# From -- ./inp_files/193850.got.cif
#   From: 2010.06.25/outbox.cif.g09.slc.cpg/sg15_97_cif.got.tgz:193850.got - 2010.06.28 07:06:18.
