data_PCOD8147056
_publ_section_title
;
Structure prediction by ZEFSAII (Michael W. Deem and Ramdas Pophale) SiO2 
 PCOD8147056
Probable space group: C 2/C
;
_chemical_formula_sum "Si O2"
_cell_formula_units_Z 64
_cell_length_a 31.450527
_cell_length_b 10.826211
_cell_length_c 19.213982
_cell_angle_alpha 90.000000
_cell_angle_beta 153.786279
_cell_angle_gamma 90.000000
_cell_volume 2889.811785
_symmetry_space_group_name_H-M "C 2/C"
_symmetry_group_IT_number 15
_symmetry_cell_setting 'monoclinic'
loop_
_space_group_symop_operation_xyz
x,y,z
-x,y,1/2-z
-x,-y,-z
x,-y,1/2+z
1/2+x,1/2+y,z
1/2-x,1/2+y,1/2-z
1/2-x,1/2-y,-z
1/2+x,1/2-y,1/2+z
loop_
_atom_site_type_symbol
_atom_site_label
_atom_site_fract_x
_atom_site_fract_y
_atom_site_fract_z
Si Si1 0.415322 0.449108 0.677385
Si Si2 0.874109 0.402677 0.420222
Si Si3 0.092472 0.557946 0.267720
Si Si4 0.861137 0.287607 0.162852
Si Si5 0.110418 0.065870 0.713817
Si Si6 0.767123 0.439771 0.650850
Si Si7 0.924139 0.191201 0.397630
Si Si8 0.193417 0.676001 0.534390
O O1 0.500000 0.489994 0.750000
O O2 0.423824 0.304045 0.707064
O O3 0.426187 0.529335 0.763340
O O4 0.309627 0.461794 0.489703
O O5 0.815074 0.503103 0.289635
O O6 0.874992 0.263644 0.389625
O O7 0.825830 0.402016 0.424769
O O8 0.982369 0.450411 0.584664
O O9 0.127346 0.425622 0.348832
O O10 0.152491 0.593131 0.287717
O O11 0.107745 0.658882 0.351860
O O12 0.906095 0.281499 0.306111
O O13 0.750000 0.250000 0.000000
O O14 0.213964 0.126675 0.870774
O O15 0.038149 0.168756 0.576737
O O16 0.120637 0.944919 0.679634
O O17 0.706150 0.316710 0.577086
#
# Coordination Sequence:
#
# PCOD8147056 Si02
#       8
#     8   8   8   8   8   8   8   8
#     4  11  25  43  71 106 139 189 245 294 352 432
#     4  12  28  43  71 109 140 187 241 308 355 436
#     4  12  24  48  75 102 142 193 240 290 372 432
#     4  11  21  45  71  98 137 187 237 295 360 432
#     4  10  23  44  70  99 139 194 232 297 366 430
#     4  12  26  48  72 105 141 190 241 299 362 437
#     4  10  22  42  69  98 136 182 238 295 358 425
#     4  12  28  44  70 102 146 187 237 295 369 430
#
# _framework density 22.146771000000001
#
# number of rings (size 3 to 8) (size 9 to 14) (size 15 to 20)
#    0.000    0.750    3.750    2.625    7.000    3.000 
#    0.000    0.000    0.000    0.000    0.000    0.000 
#    0.000    0.000    0.000    0.000    0.000    0.000 
#
# Total GULP energy -396891.974968 kJ/mol
# GULP energy per Si atom -12402.874218 kJ/mol
# Density = 2.209636 g / cm^3
# Si number density = 22.146771 Si / 1000 Ang^3
#
#
#
# Elastic Constant Matrix: (Units=GPa)
#
#
# Indices 1 2 3 4 5 6 
#
# 1 116.2729 22.6073 29.0704 0.0000 -12.1662 0.0000
# 2 22.6073 84.5271 25.7429 0.0000 -5.5669 0.0000
# 3 29.0704 25.7429 128.8910 0.0000 -15.9360 0.0000
# 4 0.0000 0.0000 0.0000 37.3637 0.0000 -3.1904
# 5 -12.1662 -5.5669 -15.9360 0.0000 30.3364 0.0000
# 6 0.0000 0.0000 0.0000 -3.1904 0.0000 27.0596
#
#
#
# Elastic Compliance Matrix: (Units=1/GPa)
#
#
# Indices 1 2 3 4 5 6 
#
# 1 0.009628 -0.001955 -0.001442 0.000000 0.002745 0.000000
# 2 -0.001955 0.013026 -0.002098 0.000000 0.000504 0.000000
# 3 -0.001442 -0.002098 0.008966 0.000000 0.003747 0.000000
# 4 0.000000 0.000000 0.000000 0.027036 0.000000 0.003188
# 5 0.002745 0.000504 0.003747 0.000000 0.036125 0.000000
# 6 0.000000 0.000000 0.000000 0.003188 0.000000 0.037331
#
#
# Mechanical properties :
#
#
# Convention : Reuss Voigt Hill
#
# Bulk Modulus (GPa) = 48.47415 53.83692 51.15553
# Shear Modulus (GPa) = 33.33787 35.76998 34.55392
#
# Velocity S-wave (km/s) = 3.88405 4.02323 3.95425
# Velocity P-wave (km/s) = 6.48457 6.77818 6.63300
#
# Compressibility (1/GPa) = 0.02062955
#
# Stress axis : x y z
#
# Youngs Moduli (GPa) = 103.86031 76.77131 111.53289
#
# Poissons Ratio (x) = 0.15011 0.16079
# Poissons Ratio (y) = 0.20308 0.23403
# Poissons Ratio (z) = 0.14973 0.16109
#
# Static dielectric constant tensor:
#      x y z
#    x 3.818230 0.000000 -0.133900 
#    y 0.000000 4.111080 0.000000 
#    z -0.133900 0.000000 4.093820 
# 
# 
# High freq. dielectric constant tensor:
#      x y z
#    x 1.854430 0.000000 -0.008750 
#    y 0.000000 1.881260 0.000000 
#    z -0.008750 0.000000 1.885300 
# 
# From -- ./inp_files/225203.got.cif
#   From: 2010.06.25/outbox.cif.g09.slc.cpg/sg15_113_cif.got.tgz:225203.got - 2010.06.28 07:06:18.
