data_PCOD8147881
_publ_section_title
;
Structure prediction by ZEFSAII (Michael W. Deem and Ramdas Pophale) SiO2 
 PCOD8147881
Probable space group: C 2/C
;
_chemical_formula_sum "Si O2"
_cell_formula_units_Z 60
_cell_length_a 19.083904
_cell_length_b 13.168390
_cell_length_c 16.708159
_cell_angle_alpha 90.000000
_cell_angle_beta 41.170851
_cell_angle_gamma 90.000000
_cell_volume 2764.118792
_symmetry_space_group_name_H-M "C 2/C"
_symmetry_group_IT_number 15
_symmetry_cell_setting 'monoclinic'
loop_
_space_group_symop_operation_xyz
x,y,z
-x,y,1/2-z
-x,-y,-z
x,-y,1/2+z
1/2+x,1/2+y,z
1/2-x,1/2+y,1/2-z
1/2-x,1/2-y,-z
1/2+x,1/2-y,1/2+z
loop_
_atom_site_type_symbol
_atom_site_label
_atom_site_fract_x
_atom_site_fract_y
_atom_site_fract_z
Si Si1 0.740577 0.215582 0.598081
Si Si2 0.421772 0.114035 0.665286
Si Si3 0.479072 0.081864 0.357702
Si Si4 0.280944 0.102774 0.632013
Si Si5 0.643580 0.581123 0.230162
Si Si6 0.938154 0.198324 0.679295
Si Si7 0.962596 0.189144 0.472482
Si Si8 0.500000 0.460604 0.250000
O O1 0.750000 0.250000 0.500000
O O2 0.647005 0.133941 0.694823
O O3 0.711645 0.317501 0.669813
O O4 0.845490 0.163230 0.542213
O O5 0.351079 0.133352 0.647483
O O6 0.513979 0.198319 0.581797
O O7 0.470707 0.001481 0.625216
O O8 0.500000 0.041676 0.250000
O O9 0.354818 0.093675 0.489033
O O10 0.537620 0.188616 0.313865
O O11 0.188378 0.185386 0.695715
O O12 0.221629 0.998318 0.705141
O O13 0.539434 0.601570 0.372975
O O14 0.602361 0.534276 0.179689
O O15 0.969797 0.184137 0.560913
O O16 0.009631 0.114875 0.665282
#
# Coordination Sequence:
#
# PCOD8147881 Si02
#       8
#     8   8   8   8   8   8   8   4
#     4  11  24  42  67 103 137 176 227 287 340 407
#     4  11  25  42  70 101 136 181 228 278 347 413
#     4  12  27  46  68 100 138 184 227 288 339 409
#     4  11  24  45  67  99 134 177 234 280 340 413
#     4  10  24  42  68  98 136 179 221 288 338 401
#     4  11  24  46  71  99 137 183 232 282 342 409
#     4  11  23  44  72 100 141 180 228 285 348 411
#     4  10  22  46  62  96 140 172 228 278 338 398
#
# _framework density 21.706735999999999
#
# number of rings (size 3 to 8) (size 9 to 14) (size 15 to 20)
#    0.000    1.067    3.333    2.000    5.600    3.733 
#    2.400    0.000    0.000    0.000    0.000    0.000 
#    0.000    0.000    0.000    0.000    0.000    0.000 
#
# Total GULP energy -371932.970106 kJ/mol
# GULP energy per Si atom -12397.765670 kJ/mol
# Density = 2.165733 g / cm^3
# Si number density = 21.706736 Si / 1000 Ang^3
#
#
#
# Elastic Constant Matrix: (Units=GPa)
#
#
# Indices 1 2 3 4 5 6 
#
# 1 74.5562 12.4958 39.1607 0.0000 4.1746 0.0000
# 2 12.4958 102.5793 37.5151 0.0000 -20.9486 0.0000
# 3 39.1607 37.5151 146.8652 0.0000 -5.1341 0.0000
# 4 0.0000 0.0000 0.0000 23.3101 0.0000 -6.6124
# 5 4.1746 -20.9486 -5.1341 0.0000 38.4544 0.0000
# 6 0.0000 0.0000 0.0000 -6.6124 0.0000 41.1437
#
#
#
# Elastic Compliance Matrix: (Units=1/GPa)
#
#
# Indices 1 2 3 4 5 6 
#
# 1 0.015881 -0.001022 -0.004072 0.000000 -0.002825 0.000000
# 2 -0.001022 0.012125 -0.002602 0.000000 0.006369 0.000000
# 3 -0.004072 -0.002602 0.008565 0.000000 0.000168 0.000000
# 4 0.000000 0.000000 0.000000 0.044949 0.000000 0.007224
# 5 -0.002825 0.006369 0.000168 0.000000 0.029803 0.000000
# 6 0.000000 0.000000 0.000000 0.007224 0.000000 0.025466
#
#
# Mechanical properties :
#
#
# Convention : Reuss Voigt Hill
#
# Bulk Modulus (GPa) = 47.21676 55.81597 51.51637
# Shear Modulus (GPa) = 31.39856 36.23693 33.81775
#
# Velocity S-wave (km/s) = 3.80740 4.09025 3.95135
# Velocity P-wave (km/s) = 6.41309 6.93371 6.67847
#
# Compressibility (1/GPa) = 0.02117892
#
# Stress axis : x y z
#
# Youngs Moduli (GPa) = 62.96792 82.47178 116.74927
#
# Poissons Ratio (x) = 0.08429 0.47543
# Poissons Ratio (y) = 0.06436 0.30379
# Poissons Ratio (z) = 0.25642 0.21460
#
# Static dielectric constant tensor:
#      x y z
#    x 6.401550 0.000000 -0.497710 
#    y 0.000000 3.986480 0.000000 
#    z -0.497710 0.000000 4.604590 
# 
# 
# High freq. dielectric constant tensor:
#      x y z
#    x 1.849820 0.000000 -0.004160 
#    y 0.000000 1.862090 0.000000 
#    z -0.004160 0.000000 1.854690 
# 
# From -- ./inp_files/215179.got.cif
#   From: 2010.06.25/outbox.cif.g09.slc.cpg/sg15_108_cif.got.tgz:215179.got - 2010.06.28 07:06:18.
