data_PCOD8147538
_publ_section_title
;
Structure prediction by ZEFSAII (Michael W. Deem and Ramdas Pophale) SiO2 
 PCOD8147538
Probable space group: C 2/C
;
_chemical_formula_sum "Si O2"
_cell_formula_units_Z 56
_cell_length_a 11.205488
_cell_length_b 9.169471
_cell_length_c 29.429674
_cell_angle_alpha 90.000000
_cell_angle_beta 56.290877
_cell_angle_gamma 90.000000
_cell_volume 2515.438822
_symmetry_space_group_name_H-M "C 2/C"
_symmetry_group_IT_number 15
_symmetry_cell_setting 'monoclinic'
loop_
_space_group_symop_operation_xyz
x,y,z
-x,y,1/2-z
-x,-y,-z
x,-y,1/2+z
1/2+x,1/2+y,z
1/2-x,1/2+y,1/2-z
1/2-x,1/2-y,-z
1/2+x,1/2-y,1/2+z
loop_
_atom_site_type_symbol
_atom_site_label
_atom_site_fract_x
_atom_site_fract_y
_atom_site_fract_z
Si Si1 0.060052 0.595441 0.589775
Si Si2 0.909996 0.802603 0.310732
Si Si3 0.315064 0.665564 0.694548
Si Si4 0.792842 0.498636 0.700999
Si Si5 0.667455 0.373215 0.412553
Si Si6 0.436695 0.128303 0.483671
Si Si7 0.849455 0.198824 0.080533
O O1 0.950753 0.527378 0.648852
O O2 0.122706 0.456165 0.548044
O O3 0.984109 0.721059 0.576037
O O4 0.192812 0.668044 0.587535
O O5 0.827402 0.942010 0.308115
O O6 0.792798 0.695579 0.358067
O O7 0.000000 0.726855 0.250000
O O8 0.018167 0.856023 0.326849
O O9 0.215067 0.568411 0.747668
O O10 0.290324 0.615591 0.648826
O O11 0.263783 0.829443 0.712721
O O12 0.555968 0.244882 0.443969
O O13 0.605984 0.532505 0.439294
O O14 0.318942 0.214912 0.539152
O O15 0.500000 0.000000 0.500000
#
# Coordination Sequence:
#
# PCOD8147538 Si02
#       7
#     8   8   8   8   8   8   8
#     4  10  23  46  66  96 140 173 216 278 336 388
#     4   9  21  43  69  90 136 172 214 270 334 388
#     4  11  24  41  67  97 135 170 223 274 329 399
#     4  10  22  44  65  97 133 177 220 270 337 393
#     4  12  25  42  67 103 128 173 226 274 329 396
#     4  10  23  47  67  95 137 176 221 276 332 391
#     4  10  23  42  70  99 128 179 222 270 332 393
#
# _framework density 22.262518
#
# number of rings (size 3 to 8) (size 9 to 14) (size 15 to 20)
#    0.000    1.714    1.429    1.286    6.000    4.571 
#    7.714    0.000    0.000    0.000    0.000    0.000 
#    0.000    0.000    0.000    0.000    0.000    0.000 
#
# Total GULP energy -347115.445561 kJ/mol
# GULP energy per Si atom -12396.980199 kJ/mol
# Density = 2.221185 g / cm^3
# Si number density = 22.262518 Si / 1000 Ang^3
#
#
#
# Elastic Constant Matrix: (Units=GPa)
#
#
# Indices 1 2 3 4 5 6 
#
# 1 89.4442 8.2201 24.3275 0.0000 7.1934 0.0000
# 2 8.2201 108.2691 27.9134 0.0000 -1.1683 0.0000
# 3 24.3275 27.9134 110.1335 0.0000 9.5842 0.0000
# 4 0.0000 0.0000 0.0000 34.1702 0.0000 -4.9767
# 5 7.1934 -1.1683 9.5842 0.0000 20.3036 0.0000
# 6 0.0000 0.0000 0.0000 -4.9767 0.0000 20.0910
#
#
#
# Elastic Compliance Matrix: (Units=1/GPa)
#
#
# Indices 1 2 3 4 5 6 
#
# 1 0.012098 -0.000360 -0.002301 0.000000 -0.003221 0.000000
# 2 -0.000360 0.009958 -0.002613 0.000000 0.001934 0.000000
# 3 -0.002301 -0.002613 0.010629 0.000000 -0.004353 0.000000
# 4 0.000000 0.000000 0.000000 0.030361 0.000000 0.007520
# 5 -0.003221 0.001934 -0.004353 0.000000 0.052559 0.000000
# 6 0.000000 0.000000 0.000000 0.007520 0.000000 0.051636
#
#
# Mechanical properties :
#
#
# Convention : Reuss Voigt Hill
#
# Bulk Modulus (GPa) = 45.17093 47.64098 46.40596
# Shear Modulus (GPa) = 27.00255 31.40536 29.20395
#
# Velocity S-wave (km/s) = 3.48647 3.75998 3.62581
# Velocity P-wave (km/s) = 6.04496 6.34792 6.19829
#
# Compressibility (1/GPa) = 0.02213813
#
# Stress axis : x y z
#
# Youngs Moduli (GPa) = 82.65786 100.42154 94.08171
#
# Poissons Ratio (x) = 0.03616 0.21646
# Poissons Ratio (y) = 0.02977 0.24580
# Poissons Ratio (z) = 0.19018 0.26236
#
# Static dielectric constant tensor:
#      x y z
#    x 3.902820 0.000000 0.226560 
#    y 0.000000 4.040940 0.000000 
#    z 0.226560 0.000000 4.480500 
# 
# 
# High freq. dielectric constant tensor:
#      x y z
#    x 1.864040 0.000000 0.013720 
#    y 0.000000 1.880020 0.000000 
#    z 0.013720 0.000000 1.893350 
# 
# From -- ./inp_files/310212.got.cif
#   From: 2010.06.25/outbox.cif.g09.slc.cpg/sg15_156_cif.got.tgz:310212.got - 2010.06.28 07:06:18.
