data_PCOD8147732
_publ_section_title
;
Structure prediction by ZEFSAII (Michael W. Deem and Ramdas Pophale) SiO2 
 PCOD8147732
Probable space group: C 2/C
;
_chemical_formula_sum "Si O2"
_cell_formula_units_Z 44
_cell_length_a 18.737325
_cell_length_b 11.442564
_cell_length_c 10.052192
_cell_angle_alpha 90.000000
_cell_angle_beta 123.690373
_cell_angle_gamma 90.000000
_cell_volume 1793.245501
_symmetry_space_group_name_H-M "C 2/C"
_symmetry_group_IT_number 15
_symmetry_cell_setting 'monoclinic'
loop_
_space_group_symop_operation_xyz
x,y,z
-x,y,1/2-z
-x,-y,-z
x,-y,1/2+z
1/2+x,1/2+y,z
1/2-x,1/2+y,1/2-z
1/2-x,1/2-y,-z
1/2+x,1/2-y,1/2+z
loop_
_atom_site_type_symbol
_atom_site_label
_atom_site_fract_x
_atom_site_fract_y
_atom_site_fract_z
Si Si1 0.751944 0.090786 0.166048
Si Si2 0.120898 0.714083 0.697702
Si Si3 0.091300 0.739464 0.367199
Si Si4 0.338434 0.478818 0.018854
Si Si5 0.907854 0.534113 0.345300
Si Si6 0.500000 0.629152 0.250000
O O1 0.786187 0.224492 0.193771
O O2 0.807164 0.022034 0.334506
O O3 0.651586 0.083332 0.096230
O O4 0.767187 0.035604 0.038192
O O5 0.096747 0.688047 0.520352
O O6 0.128177 0.583436 0.764536
O O7 0.045197 0.790411 0.685631
O O8 0.157651 0.845913 0.420195
O O9 0.098452 0.633222 0.272323
O O10 0.000000 0.800328 0.250000
O O11 0.428221 0.547872 0.108267
O O12 0.000000 0.500000 0.500000
#
# Coordination Sequence:
#
# PCOD8147732 Si02
#       6
#     8   8   8   8   8   4
#     4  10  26  45  71 104 144 191 237 303 352 427
#     4  10  25  46  69 103 143 184 240 287 366 418
#     4  11  23  41  73 105 135 189 231 289 351 431
#     4  10  23  44  75 107 142 184 245 292 365 423
#     4  12  27  44  69 103 147 187 240 294 356 425
#     4  10  22  44  72 108 144 182 232 308 350 432
#
# _framework density 24.536519999999999
#
# number of rings (size 3 to 8) (size 9 to 14) (size 15 to 20)
#    0.000    1.455    2.727    0.000    8.909    3.636 
#    0.000    1.818    0.000    0.000    0.000    0.000 
#    0.000    0.000    0.000    0.000    0.000    0.000 
#
# Total GULP energy -272672.284099 kJ/mol
# GULP energy per Si atom -12394.194732 kJ/mol
# Density = 2.448067 g / cm^3
# Si number density = 24.536520 Si / 1000 Ang^3
#
#
#
# Elastic Constant Matrix: (Units=GPa)
#
#
# Indices 1 2 3 4 5 6 
#
# 1 143.6711 48.5055 20.6194 0.0000 13.8053 0.0000
# 2 48.5055 139.5714 22.1263 0.0000 -3.2303 0.0000
# 3 20.6194 22.1263 55.0123 0.0000 5.6205 0.0000
# 4 0.0000 0.0000 0.0000 24.3945 0.0000 -11.8046
# 5 13.8053 -3.2303 5.6205 0.0000 37.1896 0.0000
# 6 0.0000 0.0000 0.0000 -11.8046 0.0000 30.4515
#
#
#
# Elastic Compliance Matrix: (Units=1/GPa)
#
#
# Indices 1 2 3 4 5 6 
#
# 1 0.008429 -0.002724 -0.001747 0.000000 -0.003102 0.000000
# 2 -0.002724 0.008582 -0.002651 0.000000 0.002157 0.000000
# 3 -0.001747 -0.002651 0.020167 0.000000 -0.002630 0.000000
# 4 0.000000 0.000000 0.000000 0.050458 0.000000 0.019560
# 5 -0.003102 0.002157 -0.002630 0.000000 0.028625 0.000000
# 6 0.000000 0.000000 0.000000 0.019560 0.000000 0.040422
#
#
# Mechanical properties :
#
#
# Convention : Reuss Voigt Hill
#
# Bulk Modulus (GPa) = 43.60297 57.86192 50.73244
# Shear Modulus (GPa) = 27.99998 34.87401 31.43700
#
# Velocity S-wave (km/s) = 3.38176 3.77412 3.58331
# Velocity P-wave (km/s) = 5.74958 6.52879 6.15153
#
# Compressibility (1/GPa) = 0.02293422
#
# Stress axis : x y z
#
# Youngs Moduli (GPa) = 118.64142 116.52694 49.58513
#
# Poissons Ratio (x) = 0.31744 0.08661
# Poissons Ratio (y) = 0.32320 0.13145
# Poissons Ratio (z) = 0.20723 0.30891
#
# Static dielectric constant tensor:
#      x y z
#    x 4.517990 0.000000 0.032590 
#    y 0.000000 4.745620 0.000000 
#    z 0.032590 0.000000 4.232350 
# 
# 
# High freq. dielectric constant tensor:
#      x y z
#    x 1.976640 0.000000 0.003040 
#    y 0.000000 1.993220 0.000000 
#    z 0.003040 0.000000 1.979780 
# 
# From -- ./inp_files/104375.got.cif
#   From: 2010.06.25/outbox.cif.g09.slc.cpg/sg15_53_cif.got.tgz:104375.got - 2010.06.28 07:06:18.
