data_PCOD8147327
_publ_section_title
;
Structure prediction by ZEFSAII (Michael W. Deem and Ramdas Pophale) SiO2 
 PCOD8147327
Probable space group: C 2/C
;
_chemical_formula_sum "Si O2"
_cell_formula_units_Z 64
_cell_length_a 29.501820
_cell_length_b 9.497401
_cell_length_c 17.249530
_cell_angle_alpha 90.000000
_cell_angle_beta 142.073785
_cell_angle_gamma 90.000000
_cell_volume 2970.681088
_symmetry_space_group_name_H-M "C 2/C"
_symmetry_group_IT_number 15
_symmetry_cell_setting 'monoclinic'
loop_
_space_group_symop_operation_xyz
x,y,z
-x,y,1/2-z
-x,-y,-z
x,-y,1/2+z
1/2+x,1/2+y,z
1/2-x,1/2+y,1/2-z
1/2-x,1/2-y,-z
1/2+x,1/2-y,1/2+z
loop_
_atom_site_type_symbol
_atom_site_label
_atom_site_fract_x
_atom_site_fract_y
_atom_site_fract_z
Si Si1 0.302481 0.445265 0.757430
Si Si2 0.039004 0.822364 0.487996
Si Si3 0.456875 0.478352 0.766560
Si Si4 0.012250 0.419401 0.676010
Si Si5 0.830380 0.649951 0.172895
Si Si6 0.797718 0.960635 0.084452
Si Si7 0.517886 0.778270 0.424459
Si Si8 0.679949 0.762275 0.673691
O O1 0.294205 0.435280 0.653286
O O2 0.290948 0.605146 0.770086
O O3 0.241129 0.342729 0.707743
O O4 0.382020 0.389752 0.890668
O O5 0.046004 0.695198 0.435244
O O6 0.001126 0.764157 0.513782
O O7 0.983374 0.940461 0.379663
O O8 0.500000 0.536667 0.750000
O O9 0.370672 0.502662 0.633877
O O10 0.472168 0.313673 0.800939
O O11 0.093850 0.361568 0.771232
O O12 0.000000 0.444218 0.750000
O O13 0.003440 0.561305 0.616400
O O14 0.796967 0.802456 0.113553
O O15 0.839088 0.640938 0.277116
O O16 0.774077 0.527038 0.067884
O O17 0.604206 0.752932 0.523212
#
# Coordination Sequence:
#
# PCOD8147327 Si02
#       8
#     8   8   8   8   8   8   8   8
#     4  11  25  43  71 105 137 181 232 287 346 414
#     4  12  23  45  74  98 132 184 246 283 335 421
#     4  12  24  43  72 103 135 182 237 288 345 414
#     4  12  27  43  68 106 141 184 234 292 355 412
#     4  10  23  41  67  96 140 176 225 283 346 410
#     4  10  22  43  67  99 135 179 226 282 344 415
#     4  12  25  46  69  99 145 183 232 294 347 415
#     4  11  25  43  68 103 138 182 232 285 349 413
#
# _framework density 21.543880999999999
#
# number of rings (size 3 to 8) (size 9 to 14) (size 15 to 20)
#    0.000    0.750    5.000    2.250    5.250    1.000 
#    0.000    0.625    0.000    0.000    0.000    0.000 
#    0.000    0.000    0.000    0.000    0.000    0.000 
#
# Total GULP energy -396909.263628 kJ/mol
# GULP energy per Si atom -12403.414488 kJ/mol
# Density = 2.149485 g / cm^3
# Si number density = 21.543881 Si / 1000 Ang^3
#
#
#
# Elastic Constant Matrix: (Units=GPa)
#
#
# Indices 1 2 3 4 5 6 
#
# 1 133.8908 35.5274 39.3070 0.0000 11.8108 0.0000
# 2 35.5274 100.5653 36.2185 0.0000 -0.8172 0.0000
# 3 39.3070 36.2185 96.9781 0.0000 10.9690 0.0000
# 4 0.0000 0.0000 0.0000 38.0092 0.0000 1.4524
# 5 11.8108 -0.8172 10.9690 0.0000 28.2707 0.0000
# 6 0.0000 0.0000 0.0000 1.4524 0.0000 34.4219
#
#
#
# Elastic Compliance Matrix: (Units=1/GPa)
#
#
# Indices 1 2 3 4 5 6 
#
# 1 0.009071 -0.002336 -0.002477 0.000000 -0.002896 0.000000
# 2 -0.002336 0.012210 -0.003936 0.000000 0.002856 0.000000
# 3 -0.002477 -0.003936 0.013263 0.000000 -0.004225 0.000000
# 4 0.000000 0.000000 0.000000 0.026352 0.000000 -0.001112
# 5 -0.002896 0.002856 -0.004225 0.000000 0.038304 0.000000
# 6 0.000000 0.000000 0.000000 -0.001112 0.000000 0.029098
#
#
# Mechanical properties :
#
#
# Convention : Reuss Voigt Hill
#
# Bulk Modulus (GPa) = 58.66320 61.50445 60.08382
# Shear Modulus (GPa) = 33.00781 34.83245 33.92013
#
# Velocity S-wave (km/s) = 3.91848 4.02532 3.97226
# Velocity P-wave (km/s) = 6.91096 7.08624 6.99915
#
# Compressibility (1/GPa) = 0.01704646
#
# Stress axis : x y z
#
# Youngs Moduli (GPa) = 110.23834 81.90038 75.39548
#
# Poissons Ratio (x) = 0.19134 0.18673
# Poissons Ratio (y) = 0.25754 0.29677
# Poissons Ratio (z) = 0.27302 0.32238
#
# Static dielectric constant tensor:
#      x y z
#    x 3.818950 0.000000 -0.083930 
#    y 0.000000 3.957890 0.000000 
#    z -0.083930 0.000000 4.157080 
# 
# 
# High freq. dielectric constant tensor:
#      x y z
#    x 1.846340 0.000000 0.000270 
#    y 0.000000 1.844730 0.000000 
#    z 0.000270 0.000000 1.850070 
# 
# From -- ./inp_files/224660.got.cif
#   From: 2010.06.25/outbox.cif.g09.slc.cpg/sg15_113_cif.got.tgz:224660.got - 2010.06.28 07:06:18.
