data_PCOD8147441
_publ_section_title
;
Structure prediction by ZEFSAII (Michael W. Deem and Ramdas Pophale) SiO2 
 PCOD8147441
Probable space group: C 2/C
;
_chemical_formula_sum "Si O2"
_cell_formula_units_Z 40
_cell_length_a 11.208689
_cell_length_b 8.569793
_cell_length_c 13.304552
_cell_angle_alpha 90.000000
_cell_angle_beta 75.009430
_cell_angle_gamma 90.000000
_cell_volume 1234.492144
_symmetry_space_group_name_H-M "C 2/C"
_symmetry_group_IT_number 15
_symmetry_cell_setting 'monoclinic'
loop_
_space_group_symop_operation_xyz
x,y,z
-x,y,1/2-z
-x,-y,-z
x,-y,1/2+z
1/2+x,1/2+y,z
1/2-x,1/2+y,1/2-z
1/2-x,1/2-y,-z
1/2+x,1/2-y,1/2+z
loop_
_atom_site_type_symbol
_atom_site_label
_atom_site_fract_x
_atom_site_fract_y
_atom_site_fract_z
Si Si1 0.526528 0.253020 0.355729
Si Si2 0.160470 0.046225 0.973180
Si Si3 0.354003 0.247561 0.622643
Si Si4 0.569486 0.940045 0.129554
Si Si5 0.778358 0.066072 0.321196
O O1 0.500000 0.325735 0.250000
O O2 0.542314 0.392698 0.433768
O O3 0.646953 0.145040 0.334910
O O4 0.420302 0.123830 0.403277
O O5 0.169603 0.856744 0.969729
O O6 0.211513 0.382144 0.102665
O O7 0.152598 0.105038 0.089393
O O8 0.486681 0.163152 0.571464
O O9 0.363828 0.377027 0.711053
O O10 0.246687 0.121938 0.671895
O O11 0.500000 0.919108 0.250000
#
# Coordination Sequence:
#
# PCOD8147441 Si02
#       5
#     8   8   8   8   8
#     4  10  22  43  72 107 147 194 242 302 375 442
#     4  12  25  48  80 112 150 198 257 315 376 453
#     4  11  24  46  76 112 154 197 251 316 384 449
#     4  10  23  44  73 109 150 198 247 306 378 449
#     4  11  24  46  80 112 149 205 254 310 383 454
#
# _framework density 32.401989
#
# number of rings (size 3 to 8) (size 9 to 14) (size 15 to 20)
#    0.000    1.200    0.000    7.200    0.000    4.000 
#    0.000   18.000    0.000   24.000    0.000    4.200 
#    0.000    0.000    0.000    0.000    0.000    0.000 
#
# Total GULP energy -247952.014967 kJ/mol
# GULP energy per Si atom -12397.600748 kJ/mol
# Density = 3.232824 g / cm^3
# Si number density = 32.401989 Si / 1000 Ang^3
#
#
#
# Elastic Constant Matrix: (Units=GPa)
#
#
# Indices 1 2 3 4 5 6 
#
# 1 102.5322 3.5651 19.5559 0.0000 5.0021 0.0000
# 2 3.5651 161.3840 24.8937 0.0000 16.6662 0.0000
# 3 19.5559 24.8937 113.6652 0.0000 33.7130 0.0000
# 4 0.0000 0.0000 0.0000 58.0995 0.0000 21.5390
# 5 5.0021 16.6662 33.7130 0.0000 60.1368 0.0000
# 6 0.0000 0.0000 0.0000 21.5390 0.0000 51.7728
#
#
#
# Elastic Compliance Matrix: (Units=1/GPa)
#
#
# Indices 1 2 3 4 5 6 
#
# 1 0.010085 0.000037 -0.001789 0.000000 0.000154 0.000000
# 2 0.000037 0.006485 -0.001071 0.000000 -0.001200 0.000000
# 3 -0.001789 -0.001071 0.011044 0.000000 -0.005746 0.000000
# 4 0.000000 0.000000 0.000000 0.020351 0.000000 -0.008466
# 5 0.000154 -0.001200 -0.005746 0.000000 0.020170 0.000000
# 6 0.000000 0.000000 0.000000 -0.008466 0.000000 0.022837
#
#
# Mechanical properties :
#
#
# Convention : Reuss Voigt Hill
#
# Bulk Modulus (GPa) = 45.51718 52.62343 49.07030
# Shear Modulus (GPa) = 48.10464 55.97293 52.03878
#
# Velocity S-wave (km/s) = 3.85726 4.16077 4.01189
# Velocity P-wave (km/s) = 5.82375 6.27366 6.05288
#
# Compressibility (1/GPa) = 0.02196973
#
# Stress axis : x y z
#
# Youngs Moduli (GPa) = 99.15286 154.21006 90.54451
#
# Poissons Ratio (x) = -0.00575 0.16198
# Poissons Ratio (y) = -0.00370 0.09695
# Poissons Ratio (z) = 0.17738 0.16511
#
# Static dielectric constant tensor:
#      x y z
#    x 6.480330 0.000000 0.502310 
#    y 0.000000 6.899560 0.000000 
#    z 0.502310 0.000000 6.150470 
# 
# 
# High freq. dielectric constant tensor:
#      x y z
#    x 2.348080 0.000000 0.002070 
#    y 0.000000 2.373980 0.000000 
#    z 0.002070 0.000000 2.335840 
# 
# From -- ./inp_files/150707.got.cif
#   From: 2010.06.25/outbox.cif.g09.slc.cpg/sg15_76_cif.got.tgz:150707.got - 2010.06.28 07:06:18.
