data_PCOD8147338
_publ_section_title
;
Structure prediction by ZEFSAII (Michael W. Deem and Ramdas Pophale) SiO2 
 PCOD8147338
Probable space group: C 2/C
;
_chemical_formula_sum "Si O2"
_cell_formula_units_Z 56
_cell_length_a 7.126349
_cell_length_b 21.564519
_cell_length_c 18.375306
_cell_angle_alpha 90.000000
_cell_angle_beta 113.739276
_cell_angle_gamma 90.000000
_cell_volume 2584.914066
_symmetry_space_group_name_H-M "C 2/C"
_symmetry_group_IT_number 15
_symmetry_cell_setting 'monoclinic'
loop_
_space_group_symop_operation_xyz
x,y,z
-x,y,1/2-z
-x,-y,-z
x,-y,1/2+z
1/2+x,1/2+y,z
1/2-x,1/2+y,1/2-z
1/2-x,1/2-y,-z
1/2+x,1/2-y,1/2+z
loop_
_atom_site_type_symbol
_atom_site_label
_atom_site_fract_x
_atom_site_fract_y
_atom_site_fract_z
Si Si1 0.046788 0.171630 0.085781
Si Si2 0.601836 0.553013 0.841080
Si Si3 0.019043 0.319348 0.670258
Si Si4 0.224383 0.909851 0.866077
Si Si5 0.646198 0.236548 0.840521
Si Si6 0.673655 0.613940 0.584987
Si Si7 0.483727 0.066023 0.533576
O O1 0.288030 0.170686 0.107258
O O2 0.985086 0.123833 0.141366
O O3 0.959367 0.238012 0.101092
O O4 0.957929 0.152440 0.993812
O O5 0.500000 0.576022 0.750000
O O6 0.665834 0.481075 0.844572
O O7 0.447569 0.568843 0.880735
O O8 0.807286 0.590405 0.896173
O O9 0.000000 0.297060 0.750000
O O10 0.165771 0.381108 0.688329
O O11 0.131044 0.267277 0.638994
O O12 0.395074 0.891855 0.954563
O O13 0.500000 0.251544 0.750000
O O14 0.682538 0.163108 0.851202
O O15 0.814003 0.562371 0.569332
O O16 0.500000 0.000000 0.500000
#
# Coordination Sequence:
#
# PCOD8147338 Si02
#       7
#     8   8   8   8   8   8   8
#     4  10  22  43  68  94 122 165 222 265 326 381
#     4  11  25  39  60  98 132 170 219 263 319 393
#     4  11  22  38  66  95 123 169 209 270 335 370
#     4   9  22  40  64  91 129 159 215 274 309 389
#     4  11  24  41  63  97 133 164 216 272 320 391
#     4  11  25  42  68  90 130 180 207 263 332 385
#     4   9  21  44  62  88 126 169 217 261 314 385
#
# _framework density 21.664162999999999
#
# number of rings (size 3 to 8) (size 9 to 14) (size 15 to 20)
#    0.000    1.714    1.429    1.286    4.000    9.714 
#    0.000    0.000    0.000    0.000    0.000    0.000 
#    0.000    0.000    0.000    0.000    0.000    0.000 
#
# Total GULP energy -346908.530638 kJ/mol
# GULP energy per Si atom -12389.590380 kJ/mol
# Density = 2.161485 g / cm^3
# Si number density = 21.664163 Si / 1000 Ang^3
#
#
#
# Elastic Constant Matrix: (Units=GPa)
#
#
# Indices 1 2 3 4 5 6 
#
# 1 151.3378 40.6397 52.7463 0.0000 -6.4849 0.0000
# 2 40.6397 78.8313 10.1014 0.0000 -8.0188 0.0000
# 3 52.7463 10.1014 108.0312 0.0000 5.9180 0.0000
# 4 0.0000 0.0000 0.0000 14.8519 0.0000 -0.6523
# 5 -6.4849 -8.0188 5.9180 0.0000 40.4308 0.0000
# 6 0.0000 0.0000 0.0000 -0.6523 0.0000 22.4109
#
#
#
# Elastic Compliance Matrix: (Units=1/GPa)
#
#
# Indices 1 2 3 4 5 6 
#
# 1 0.009220 -0.004086 -0.004190 0.000000 0.001282 0.000000
# 2 -0.004086 0.014959 0.000473 0.000000 0.002242 0.000000
# 3 -0.004190 0.000473 0.011381 0.000000 -0.002244 0.000000
# 4 0.000000 0.000000 0.000000 0.067417 0.000000 0.001962
# 5 0.001282 0.002242 -0.002244 0.000000 0.025712 0.000000
# 6 0.000000 0.000000 0.000000 0.001962 0.000000 0.044678
#
#
# Mechanical properties :
#
#
# Convention : Reuss Voigt Hill
#
# Bulk Modulus (GPa) = 50.11186 60.57499 55.34343
# Shear Modulus (GPa) = 25.55906 31.18626 28.37266
#
# Velocity S-wave (km/s) = 3.43853 3.79823 3.62285
# Velocity P-wave (km/s) = 6.24068 6.87438 6.56518
#
# Compressibility (1/GPa) = 0.01995535
#
# Stress axis : x y z
#
# Youngs Moduli (GPa) = 108.45710 66.84858 87.86579
#
# Poissons Ratio (x) = 0.27314 0.36815
# Poissons Ratio (y) = 0.44316 -0.04160
# Poissons Ratio (z) = 0.45443 -0.03165
#
# Static dielectric constant tensor:
#      x y z
#    x 4.281040 0.000000 0.370600 
#    y 0.000000 3.734790 0.000000 
#    z 0.370600 0.000000 4.420710 
# 
# 
# High freq. dielectric constant tensor:
#      x y z
#    x 1.866030 0.000000 0.003440 
#    y 0.000000 1.828940 0.000000 
#    z 0.003440 0.000000 1.856730 
# 
# From -- ./inp_files/227929.got.cif
#   From: 2010.06.25/outbox.cif.g09.slc.cpg/sg15_114_cif.got.tgz:227929.got - 2010.06.28 07:06:18.
