data_PCOD8147213
_publ_section_title
;
Structure prediction by ZEFSAII (Michael W. Deem and Ramdas Pophale) SiO2 
 PCOD8147213
Probable space group: C 2/C
;
_chemical_formula_sum "Si O2"
_cell_formula_units_Z 56
_cell_length_a 13.769649
_cell_length_b 7.792980
_cell_length_c 27.940917
_cell_angle_alpha 90.000000
_cell_angle_beta 72.143021
_cell_angle_gamma 90.000000
_cell_volume 2853.804092
_symmetry_space_group_name_H-M "C 2/C"
_symmetry_group_IT_number 15
_symmetry_cell_setting 'monoclinic'
loop_
_space_group_symop_operation_xyz
x,y,z
-x,y,1/2-z
-x,-y,-z
x,-y,1/2+z
1/2+x,1/2+y,z
1/2-x,1/2+y,1/2-z
1/2-x,1/2-y,-z
1/2+x,1/2-y,1/2+z
loop_
_atom_site_type_symbol
_atom_site_label
_atom_site_fract_x
_atom_site_fract_y
_atom_site_fract_z
Si Si1 0.135186 0.689477 0.019392
Si Si2 0.534493 0.626461 0.453980
Si Si3 0.357155 0.915351 0.348883
Si Si4 0.455260 0.733393 0.867882
Si Si5 0.015628 0.913715 0.693139
Si Si6 0.859678 0.966610 0.149412
Si Si7 0.341934 0.184171 0.954540
O O1 0.118996 0.489554 0.028401
O O2 0.085196 0.789013 0.071897
O O3 0.250000 0.750000 0.000000
O O4 0.086086 0.718991 0.974990
O O5 0.500000 0.500000 0.500000
O O6 0.617428 0.544992 0.406315
O O7 0.436402 0.685123 0.438480
O O8 0.430842 0.771644 0.316157
O O9 0.262315 0.946108 0.326997
O O10 0.306488 0.847808 0.405650
O O11 0.421214 0.090238 0.347701
O O12 0.417823 0.566545 0.842541
O O13 0.579709 0.716153 0.853042
O O14 0.000000 0.968571 0.750000
O O15 0.904730 0.903335 0.683192
O O16 0.250000 0.250000 0.000000
#
# Coordination Sequence:
#
# PCOD8147213 Si02
#       7
#     8   8   8   8   8   8   8
#     4  11  22  35  58  90 123 174 215 251 320 384
#     4  12  19  37  58  84 130 165 206 263 303 379
#     4  11  22  45  66  93 132 169 214 267 324 393
#     4   9  22  43  62  95 132 163 218 266 315 385
#     4  10  23  47  67  95 130 161 215 280 325 385
#     4  10  22  43  64  92 127 167 215 264 327 382
#     4  11  23  35  57  91 126 173 213 256 316 374
#
# _framework density 19.622931000000001
#
# number of rings (size 3 to 8) (size 9 to 14) (size 15 to 20)
#    0.857    0.571    2.857    3.857    2.000    0.571 
#    5.143    0.000    0.000    0.000    0.000    0.000 
#    0.000    0.000    0.000    0.000    0.000    0.000 
#
# Total GULP energy -346977.790674 kJ/mol
# GULP energy per Si atom -12392.063953 kJ/mol
# Density = 1.957827 g / cm^3
# Si number density = 19.622931 Si / 1000 Ang^3
#
#
#
# Elastic Constant Matrix: (Units=GPa)
#
#
# Indices 1 2 3 4 5 6 
#
# 1 130.4651 43.5688 27.3851 0.0000 6.1020 0.0000
# 2 43.5688 96.3971 31.6228 0.0000 -0.0833 -0.0001
# 3 27.3851 31.6228 77.7106 0.0000 18.3611 0.0000
# 4 0.0000 0.0000 0.0000 25.2117 0.0000 -0.9952
# 5 6.1020 -0.0833 18.3611 0.0000 20.5388 0.0000
# 6 0.0000 -0.0001 0.0000 -0.9952 0.0000 32.3891
#
#
#
# Elastic Compliance Matrix: (Units=1/GPa)
#
#
# Indices 1 2 3 4 5 6 
#
# 1 0.009276 -0.003740 -0.001385 0.000000 -0.001533 0.000000
# 2 -0.003740 0.014007 -0.005905 0.000000 0.006447 0.000000
# 3 -0.001385 -0.005905 0.019863 0.000000 -0.017370 0.000000
# 4 0.000000 0.000000 0.000000 0.039712 0.000000 0.001220
# 5 -0.001533 0.006447 -0.017370 0.000000 0.064698 0.000000
# 6 0.000000 0.000000 0.000000 0.001220 0.000000 0.030912
#
#
# Mechanical properties :
#
#
# Convention : Reuss Voigt Hill
#
# Bulk Modulus (GPa) = 47.42301 56.63622 52.02962
# Shear Modulus (GPa) = 24.08980 29.09432 26.59206
#
# Velocity S-wave (km/s) = 3.50756 3.85472 3.68523
# Velocity P-wave (km/s) = 6.37367 6.98117 6.68432
#
# Compressibility (1/GPa) = 0.02108681
#
# Stress axis : x y z
#
# Youngs Moduli (GPa) = 107.80384 71.39459 50.34402
#
# Poissons Ratio (x) = 0.26698 0.06972
# Poissons Ratio (y) = 0.40314 0.29729
# Poissons Ratio (z) = 0.14930 0.42160
#
# Static dielectric constant tensor:
#      x y z
#    x 3.468350 0.000000 0.361620 
#    y 0.000000 3.683380 0.000000 
#    z 0.361620 0.000000 3.635820 
# 
# 
# High freq. dielectric constant tensor:
#      x y z
#    x 1.759050 0.000000 0.013700 
#    y 0.000000 1.765470 0.000000 
#    z 0.013700 0.000000 1.750020 
# 
# From -- ./inp_files/291502.got.cif
#   From: 2010.06.25/outbox.cif.g09.slc.cpg/sg15_146_cif.got.tgz:291502.got - 2010.06.28 07:06:18.
