data_PCOD8147608
_publ_section_title
;
Structure prediction by ZEFSAII (Michael W. Deem and Ramdas Pophale) SiO2 
 PCOD8147608
Probable space group: C 2/C
;
_chemical_formula_sum "Si O2"
_cell_formula_units_Z 44
_cell_length_a 22.794990
_cell_length_b 9.716170
_cell_length_c 22.306835
_cell_angle_alpha 90.000000
_cell_angle_beta 157.194516
_cell_angle_gamma 90.000000
_cell_volume 1914.963560
_symmetry_space_group_name_H-M "C 2/C"
_symmetry_group_IT_number 15
_symmetry_cell_setting 'monoclinic'
loop_
_space_group_symop_operation_xyz
x,y,z
-x,y,1/2-z
-x,-y,-z
x,-y,1/2+z
1/2+x,1/2+y,z
1/2-x,1/2+y,1/2-z
1/2-x,1/2-y,-z
1/2+x,1/2-y,1/2+z
loop_
_atom_site_type_symbol
_atom_site_label
_atom_site_fract_x
_atom_site_fract_y
_atom_site_fract_z
Si Si1 0.726760 0.429866 0.389371
Si Si2 0.575903 0.321866 0.075631
Si Si3 0.500000 0.764606 0.250000
Si Si4 0.576382 0.328433 0.440923
Si Si5 0.723722 0.566478 0.514208
Si Si6 0.794739 0.079784 0.252681
O O1 0.568724 0.348740 0.237828
O O2 0.860271 0.320460 0.513500
O O3 0.740814 0.506757 0.464268
O O4 0.740239 0.540027 0.348514
O O5 0.466737 0.330212 0.030325
O O6 0.660829 0.177474 0.149961
O O7 0.700935 0.443156 0.200944
O O8 0.461371 0.347780 0.912255
O O9 0.583587 0.673091 0.379532
O O10 0.619306 0.855537 0.324013
O O11 0.695951 0.450520 0.538485
#
# Coordination Sequence:
#
# PCOD8147608 Si02
#       6
#     8   8   4   8   8   8
#     4  11  24  41  68  99 132 178 225 290 339 406
#     4  10  22  44  67  98 138 182 229 288 336 408
#     4  10  24  44  68  92 146 172 222 274 344 416
#     4  11  23  42  68  95 135 174 232 282 335 409
#     4  11  23  45  66 102 135 175 224 276 342 419
#     4  10  23  43  65  98 137 175 233 281 343 405
#
# _framework density 22.976939999999999
#
# number of rings (size 3 to 8) (size 9 to 14) (size 15 to 20)
#    0.000    1.455    1.818    2.727    2.545    4.364 
#    9.818    0.000    0.000    0.000    0.000    0.000 
#    0.000    0.000    0.000    0.000    0.000    0.000 
#
# Total GULP energy -272798.000044 kJ/mol
# GULP energy per Si atom -12399.909093 kJ/mol
# Density = 2.292464 g / cm^3
# Si number density = 22.976940 Si / 1000 Ang^3
#
#
#
# Elastic Constant Matrix: (Units=GPa)
#
#
# Indices 1 2 3 4 5 6 
#
# 1 114.5677 96.2874 47.7280 -0.0001 10.6604 -0.0001
# 2 96.2874 142.5487 67.9766 -0.0002 7.9212 0.0004
# 3 47.7280 67.9766 89.1318 -0.0005 12.5511 -0.0001
# 4 -0.0001 -0.0002 -0.0005 42.7667 0.0000 12.1983
# 5 10.6604 7.9212 12.5511 0.0000 20.2083 0.0002
# 6 -0.0001 0.0004 -0.0001 12.1983 0.0002 28.0734
#
#
#
# Elastic Compliance Matrix: (Units=1/GPa)
#
#
# Indices 1 2 3 4 5 6 
#
# 1 0.020791 -0.013831 0.000214 0.000000 -0.005680 0.000000
# 2 -0.013831 0.020243 -0.008704 0.000000 0.004767 -0.000001
# 3 0.000214 -0.008704 0.018934 0.000000 -0.008461 0.000000
# 4 0.000000 0.000000 0.000000 0.026691 0.000000 -0.011597
# 5 -0.005680 0.004767 -0.008461 0.000000 0.055867 -0.000001
# 6 0.000000 -0.000001 0.000000 -0.011597 -0.000001 0.040660
#
#
# Mechanical properties :
#
#
# Convention : Reuss Voigt Hill
#
# Bulk Modulus (GPa) = 65.23766 85.58135 75.40951
# Shear Modulus (GPa) = 21.46521 27.16010 24.31266
#
# Velocity S-wave (km/s) = 3.05980 3.44184 3.25642
# Velocity P-wave (km/s) = 6.39824 7.28852 6.85784
#
# Compressibility (1/GPa) = 0.01532857
#
# Stress axis : x y z
#
# Youngs Moduli (GPa) = 48.09664 49.40018 52.81593
#
# Poissons Ratio (x) = 0.68324 -0.01133
# Poissons Ratio (y) = 0.66521 0.45968
# Poissons Ratio (z) = -0.01031 0.42995
#
# Static dielectric constant tensor:
#      x y z
#    x 3.870760 0.000000 0.075920 
#    y 0.000000 4.731530 0.000000 
#    z 0.075920 0.000000 4.296380 
# 
# 
# High freq. dielectric constant tensor:
#      x y z
#    x 1.889740 0.000000 0.003490 
#    y 0.000000 1.922090 0.000000 
#    z 0.003490 0.000000 1.910160 
# 
# From -- ./inp_files/303178.got.cif
#   From: 2010.06.25/outbox.cif.g09.slc.cpg/sg15_152_cif.got.tgz:303178.got - 2010.06.28 07:06:18.
