data_PCOD8147787
_publ_section_title
;
Structure prediction by ZEFSAII (Michael W. Deem and Ramdas Pophale) SiO2 
 PCOD8147787
Probable space group: C 2/C
;
_chemical_formula_sum "Si O2"
_cell_formula_units_Z 44
_cell_length_a 16.068957
_cell_length_b 8.851765
_cell_length_c 14.622070
_cell_angle_alpha 90.000000
_cell_angle_beta 84.627386
_cell_angle_gamma 90.000000
_cell_volume 2070.686209
_symmetry_space_group_name_H-M "C 2/C"
_symmetry_group_IT_number 15
_symmetry_cell_setting 'monoclinic'
loop_
_space_group_symop_operation_xyz
x,y,z
-x,y,1/2-z
-x,-y,-z
x,-y,1/2+z
1/2+x,1/2+y,z
1/2-x,1/2+y,1/2-z
1/2-x,1/2-y,-z
1/2+x,1/2-y,1/2+z
loop_
_atom_site_type_symbol
_atom_site_label
_atom_site_fract_x
_atom_site_fract_y
_atom_site_fract_z
Si Si1 0.000000 0.669713 0.250000
Si Si2 0.175921 0.332077 0.111300
Si Si3 0.429057 0.622491 0.906419
Si Si4 0.248580 0.980085 0.564045
Si Si5 0.501215 0.700964 0.087840
Si Si6 0.883007 0.422793 0.190197
O O1 0.060460 0.771747 0.182246
O O2 0.057495 0.568443 0.309928
O O3 0.230439 0.180349 0.113680
O O4 0.086514 0.295886 0.075861
O O5 0.168964 0.403935 0.211732
O O6 0.222296 0.454688 0.043305
O O7 0.331869 0.586828 0.929799
O O8 0.483197 0.471401 0.884478
O O9 0.461848 0.711123 0.991458
O O10 0.320788 0.062237 0.612288
O O11 0.439111 0.773674 0.168626
#
# Coordination Sequence:
#
# PCOD8147787 Si02
#       6
#     4   8   8   8   8   8
#     4  12  26  40  64 102 130 176 234 272 328 410
#     4  10  22  45  65  95 135 180 218 270 345 395
#     4  10  25  44  68  98 132 176 224 282 336 405
#     4  10  25  42  66  98 137 171 221 284 337 398
#     4  10  22  46  70  93 130 181 221 276 337 402
#     4  12  25  41  71  99 132 183 221 285 325 407
#
# _framework density 21.248996000000002
#
# number of rings (size 3 to 8) (size 9 to 14) (size 15 to 20)
#    0.000    1.455    1.818    1.091   10.182    5.091 
#    0.000    0.000    0.000    0.000    0.000    0.000 
#    0.000    0.000    0.000    0.000    0.000    0.000 
#
# Total GULP energy -272961.701314 kJ/mol
# GULP energy per Si atom -12407.350060 kJ/mol
# Density = 2.120063 g / cm^3
# Si number density = 21.248996 Si / 1000 Ang^3
#
#
#
# Elastic Constant Matrix: (Units=GPa)
#
#
# Indices 1 2 3 4 5 6 
#
# 1 93.2187 33.3620 28.6241 0.0000 -9.1957 0.0000
# 2 33.3620 75.5454 42.1005 0.0000 -14.5628 0.0000
# 3 28.6241 42.1005 79.7842 0.0000 -23.9672 0.0000
# 4 0.0000 0.0000 0.0000 38.4153 0.0000 -3.7349
# 5 -9.1957 -14.5628 -23.9672 0.0000 41.6715 0.0000
# 6 0.0000 0.0000 0.0000 -3.7349 0.0000 25.5947
#
#
#
# Elastic Compliance Matrix: (Units=1/GPa)
#
#
# Indices 1 2 3 4 5 6 
#
# 1 0.013038 -0.004464 -0.002329 0.000000 -0.000022 0.000000
# 2 -0.004464 0.020317 -0.008803 0.000000 0.001052 0.000000
# 3 -0.002329 -0.008803 0.020473 0.000000 0.008185 0.000000
# 4 0.000000 0.000000 0.000000 0.026406 0.000000 0.003853
# 5 -0.000022 0.001052 0.008185 0.000000 0.029067 0.000000
# 6 0.000000 0.000000 0.000000 0.003853 0.000000 0.039633
#
#
# Mechanical properties :
#
#
# Convention : Reuss Voigt Hill
#
# Bulk Modulus (GPa) = 44.17744 50.74683 47.46213
# Shear Modulus (GPa) = 26.64205 30.76707 28.70456
#
# Velocity S-wave (km/s) = 3.54475 3.80930 3.67940
# Velocity P-wave (km/s) = 6.13100 6.57887 6.35888
#
# Compressibility (1/GPa) = 0.02263599
#
# Stress axis : x y z
#
# Youngs Moduli (GPa) = 76.69856 49.21877 48.84400
#
# Poissons Ratio (x) = 0.21973 0.11374
# Poissons Ratio (y) = 0.34242 0.43000
# Poissons Ratio (z) = 0.17860 0.43329
#
# Static dielectric constant tensor:
#      x y z
#    x 3.918500 0.000000 -0.092660 
#    y 0.000000 3.828560 0.000000 
#    z -0.092660 0.000000 3.715080 
# 
# 
# High freq. dielectric constant tensor:
#      x y z
#    x 1.840580 0.000000 -0.004580 
#    y 0.000000 1.834740 0.000000 
#    z -0.004580 0.000000 1.834390 
# 
# From -- ./inp_files/159360.got.cif
#   From: 2010.06.25/outbox.cif.g09.slc.cpg/sg15_80_cif.got.tgz:159360.got - 2010.06.28 07:06:18.
