data_PCOD8147767
_publ_section_title
;
Structure prediction by ZEFSAII (Michael W. Deem and Ramdas Pophale) SiO2 
 PCOD8147767
Probable space group: C 2/C
;
_chemical_formula_sum "Si O2"
_cell_formula_units_Z 44
_cell_length_a 11.544684
_cell_length_b 27.829616
_cell_length_c 8.351193
_cell_angle_alpha 90.000000
_cell_angle_beta 50.109777
_cell_angle_gamma 90.000000
_cell_volume 2058.678860
_symmetry_space_group_name_H-M "C 2/C"
_symmetry_group_IT_number 15
_symmetry_cell_setting 'monoclinic'
loop_
_space_group_symop_operation_xyz
x,y,z
-x,y,1/2-z
-x,-y,-z
x,-y,1/2+z
1/2+x,1/2+y,z
1/2-x,1/2+y,1/2-z
1/2-x,1/2-y,-z
1/2+x,1/2-y,1/2+z
loop_
_atom_site_type_symbol
_atom_site_label
_atom_site_fract_x
_atom_site_fract_y
_atom_site_fract_z
Si Si1 0.140337 0.029820 0.515016
Si Si2 0.000000 0.255133 0.750000
Si Si3 0.350909 0.896922 0.987736
Si Si4 0.655406 0.942691 0.178247
Si Si5 0.634854 0.395341 0.749999
Si Si6 0.730832 0.315563 0.904702
O O1 0.263718 0.056110 0.510482
O O2 0.080946 0.063389 0.422891
O O3 0.000000 0.013763 0.750000
O O4 0.224583 0.982844 0.370226
O O5 0.889629 0.287818 0.738259
O O6 0.097638 0.222451 0.544996
O O7 0.500000 0.890763 0.750000
O O8 0.247553 0.849725 0.047859
O O9 0.382765 0.904749 0.146643
O O10 0.500000 0.966291 0.250000
O O11 0.720261 0.913171 0.972770
O O12 0.500000 0.382715 0.750000
O O13 0.688676 0.347110 0.789207
#
# Coordination Sequence:
#
# PCOD8147767 Si02
#       6
#     8   4   8   8   8   8
#     4  11  24  42  63  92 130 185 226 259 312 391
#     4  10  22  44  76  96 124 168 224 262 324 422
#     4  11  23  41  67  92 129 173 222 264 320 399
#     4  12  25  40  63  96 136 176 220 279 326 368
#     4  11  25  42  66  99 137 172 219 276 328 374
#     4  10  23  43  72  98 126 170 219 264 330 405
#
# _framework density 21.372931000000001
#
# number of rings (size 3 to 8) (size 9 to 14) (size 15 to 20)
#    0.000    1.091    0.909    5.455    7.636    4.364 
#    0.000    2.727    0.000    0.000    0.000    0.000 
#    0.000    0.000    0.000    0.000    0.000    0.000 
#
# Total GULP energy -272805.933048 kJ/mol
# GULP energy per Si atom -12400.269684 kJ/mol
# Density = 2.132429 g / cm^3
# Si number density = 21.372931 Si / 1000 Ang^3
#
#
#
# Elastic Constant Matrix: (Units=GPa)
#
#
# Indices 1 2 3 4 5 6 
#
# 1 135.3501 67.2997 50.5923 0.0000 -7.5728 0.0000
# 2 67.2997 131.1051 51.0205 0.0000 -2.4502 0.0000
# 3 50.5923 51.0205 116.7000 0.0000 -4.8079 0.0000
# 4 0.0000 0.0000 0.0000 14.9326 0.0000 -13.4958
# 5 -7.5728 -2.4502 -4.8079 0.0000 35.5469 0.0000
# 6 0.0000 0.0000 0.0000 -13.4958 0.0000 17.9681
#
#
#
# Elastic Compliance Matrix: (Units=1/GPa)
#
#
# Indices 1 2 3 4 5 6 
#
# 1 0.010656 -0.004420 -0.002621 0.000000 0.001611 0.000000
# 2 -0.004420 0.011025 -0.002928 0.000000 -0.000578 0.000000
# 3 -0.002621 -0.002928 0.011015 0.000000 0.000730 0.000000
# 4 0.000000 0.000000 0.000000 0.208513 0.000000 0.156614
# 5 0.001611 -0.000578 0.000730 0.000000 0.028534 0.000000
# 6 0.000000 0.000000 0.000000 0.156614 0.000000 0.173287
#
#
# Mechanical properties :
#
#
# Convention : Reuss Voigt Hill
#
# Bulk Modulus (GPa) = 78.37569 80.10891 79.24230
# Shear Modulus (GPa) = 10.70161 27.97236 19.33699
#
# Velocity S-wave (km/s) = 2.24008 3.62162 3.01116
# Velocity P-wave (km/s) = 6.59096 7.41964 7.01754
#
# Compressibility (1/GPa) = 0.01275906
#
# Stress axis : x y z
#
# Youngs Moduli (GPa) = 93.84691 90.70452 90.78372
#
# Poissons Ratio (x) = 0.40090 0.23793
# Poissons Ratio (y) = 0.41479 0.26579
# Poissons Ratio (z) = 0.24595 0.26555
#
# Static dielectric constant tensor:
#      x y z
#    x 4.193190 0.000000 -0.213330 
#    y 0.000000 3.978960 0.000000 
#    z -0.213330 0.000000 3.891040 
# 
# 
# High freq. dielectric constant tensor:
#      x y z
#    x 1.853840 0.000000 -0.017090 
#    y 0.000000 1.835610 0.000000 
#    z -0.017090 0.000000 1.832220 
# 
# From -- ./inp_files/34022.got.cif
#   From: 2010.06.25/outbox.cif.g09.slc.cpg/sg15_18_cif.got.tgz:34022.got - 2010.06.28 07:06:18.
