data_PCOD8147896
_publ_section_title
;
Structure prediction by ZEFSAII (Michael W. Deem and Ramdas Pophale) SiO2 
 PCOD8147896
Probable space group: C 2/C
;
_chemical_formula_sum "Si O2"
_cell_formula_units_Z 36
_cell_length_a 20.807667
_cell_length_b 9.193568
_cell_length_c 19.286036
_cell_angle_alpha 90.000000
_cell_angle_beta 24.847082
_cell_angle_gamma 90.000000
_cell_volume 1550.259232
_symmetry_space_group_name_H-M "C 2/C"
_symmetry_group_IT_number 15
_symmetry_cell_setting 'monoclinic'
loop_
_space_group_symop_operation_xyz
x,y,z
-x,y,1/2-z
-x,-y,-z
x,-y,1/2+z
1/2+x,1/2+y,z
1/2-x,1/2+y,1/2-z
1/2-x,1/2-y,-z
1/2+x,1/2-y,1/2+z
loop_
_atom_site_type_symbol
_atom_site_label
_atom_site_fract_x
_atom_site_fract_y
_atom_site_fract_z
Si Si1 0.826817 0.474186 0.147497
Si Si2 0.075932 0.789025 0.245289
Si Si3 0.737131 0.576053 0.090189
Si Si4 0.500000 0.773208 0.250000
Si Si5 0.806153 0.844630 0.608524
O O1 0.781644 0.577736 0.127437
O O2 0.801003 0.305811 0.156195
O O3 0.712851 0.518821 0.321755
O O4 0.000000 0.500000 0.000000
O O5 0.160776 0.654027 0.198600
O O6 0.000000 0.728490 0.250000
O O7 0.959456 0.862792 0.414041
O O8 0.200076 0.911080 0.103150
O O9 0.589271 0.675033 0.218998
O O10 0.882582 0.625152 0.904610
#
# Coordination Sequence:
#
# PCOD8147896 Si02
#       5
#     8   8   8   4   8
#     4  11  25  46  69 104 135 184 232 287 349 412
#     4  11  23  45  66 104 134 182 227 291 344 418
#     4  10  24  41  71  98 140 181 238 287 346 408
#     4  10  22  46  66 102 136 190 232 286 350 410
#     4  11  25  45  73  98 139 181 234 285 348 410
#
# _framework density 23.221924000000001
#
# number of rings (size 3 to 8) (size 9 to 14) (size 15 to 20)
#    0.000    1.333    3.333    0.667    3.111    7.111 
#    8.000    0.000    0.000    0.000    0.000    0.000 
#    0.000    0.000    0.000    0.000    0.000    0.000 
#
# Total GULP energy -223246.166909 kJ/mol
# GULP energy per Si atom -12402.564828 kJ/mol
# Density = 2.316907 g / cm^3
# Si number density = 23.221924 Si / 1000 Ang^3
#
#
#
# Elastic Constant Matrix: (Units=GPa)
#
#
# Indices 1 2 3 4 5 6 
#
# 1 158.1431 36.7521 26.9157 0.0007 -13.4282 -0.0006
# 2 36.7521 68.8837 16.1261 0.0002 10.1431 -0.0006
# 3 26.9157 16.1261 94.8443 0.0008 -3.8777 -0.0011
# 4 0.0007 0.0002 0.0008 37.2973 -0.0006 5.7788
# 5 -13.4282 10.1431 -3.8777 -0.0006 33.9015 0.0007
# 6 -0.0006 -0.0006 -0.0011 5.7788 0.0007 8.7221
#
#
#
# Elastic Compliance Matrix: (Units=1/GPa)
#
#
# Indices 1 2 3 4 5 6 
#
# 1 0.007988 -0.004603 -0.001305 0.000000 0.004392 0.000000
# 2 -0.004603 0.018606 -0.002169 0.000000 -0.007638 0.000001
# 3 -0.001305 -0.002169 0.011341 0.000000 0.001430 0.000001
# 4 0.000000 0.000000 0.000000 0.029879 0.000001 -0.019796
# 5 0.004392 -0.007638 0.001430 0.000001 0.033686 -0.000003
# 6 0.000000 0.000001 0.000001 -0.019796 -0.000003 0.127766
#
#
# Mechanical properties :
#
#
# Convention : Reuss Voigt Hill
#
# Bulk Modulus (GPa) = 45.91293 53.49544 49.70419
# Shear Modulus (GPa) = 19.78779 32.12267 25.95523
#
# Velocity S-wave (km/s) = 2.92227 3.72330 3.34683
# Velocity P-wave (km/s) = 5.58574 6.44752 6.03204
#
# Compressibility (1/GPa) = 0.02178035
#
# Stress axis : x y z
#
# Youngs Moduli (GPa) = 125.18495 53.74652 88.17445
#
# Poissons Ratio (x) = 0.24741 0.11504
# Poissons Ratio (y) = 0.57626 0.19129
# Poissons Ratio (z) = 0.16333 0.11660
#
# Static dielectric constant tensor:
#      x y z
#    x 4.814080 0.000000 -0.081120 
#    y 0.000000 3.948930 0.000000 
#    z -0.081120 0.000000 4.197130 
# 
# 
# High freq. dielectric constant tensor:
#      x y z
#    x 1.941460 0.000000 -0.008560 
#    y 0.000000 1.898370 0.000000 
#    z -0.008560 0.000000 1.926840 
# 
# From -- ./inp_files/54022.got.cif
#   From: 2010.06.25/outbox.cif.g09.slc.cpg/sg15_28_cif.got.tgz:54022.got - 2010.06.28 07:06:18.
