data_PCOD8147724
_publ_section_title
;
Structure prediction by ZEFSAII (Michael W. Deem and Ramdas Pophale) SiO2 
 PCOD8147724
Probable space group: C 2/C
;
_chemical_formula_sum "Si O2"
_cell_formula_units_Z 40
_cell_length_a 8.280149
_cell_length_b 16.961653
_cell_length_c 12.416950
_cell_angle_alpha 90.000000
_cell_angle_beta 105.468141
_cell_angle_gamma 90.000000
_cell_volume 1680.732789
_symmetry_space_group_name_H-M "C 2/C"
_symmetry_group_IT_number 15
_symmetry_cell_setting 'monoclinic'
loop_
_space_group_symop_operation_xyz
x,y,z
-x,y,1/2-z
-x,-y,-z
x,-y,1/2+z
1/2+x,1/2+y,z
1/2-x,1/2+y,1/2-z
1/2-x,1/2-y,-z
1/2+x,1/2-y,1/2+z
loop_
_atom_site_type_symbol
_atom_site_label
_atom_site_fract_x
_atom_site_fract_y
_atom_site_fract_z
Si Si1 0.677073 0.427696 0.723072
Si Si2 0.918550 0.372249 0.944259
Si Si3 0.674863 0.919199 0.336220
Si Si4 0.216642 0.159546 0.022119
Si Si5 0.923351 0.793976 0.347030
O O1 0.500000 0.429921 0.750000
O O2 0.829078 0.420744 0.834034
O O3 0.703159 0.506500 0.658058
O O4 0.678243 0.353218 0.641738
O O5 0.888451 0.278931 0.920760
O O6 0.118373 0.391596 0.979800
O O7 0.839040 0.401145 0.040386
O O8 0.500000 0.936665 0.250000
O O9 0.753374 0.841596 0.293405
O O10 0.250000 0.250000 0.000000
O O11 0.050476 0.140748 0.922803
O O12 0.000000 0.759672 0.250000
#
# Coordination Sequence:
#
# PCOD8147724 Si02
#       5
#     8   8   8   8   8
#     4  12  27  46  69  99 138 181 223 277 340 398
#     4  11  24  45  69  98 137 177 223 278 339 398
#     4  12  27  44  69 101 136 179 229 279 334 401
#     4  10  22  44  71  99 132 174 220 269 331 401
#     4  11  23  43  70 102 138 176 224 279 336 401
#
# _framework density 23.799144999999999
#
# number of rings (size 3 to 8) (size 9 to 14) (size 15 to 20)
#    0.000    0.800    0.000    7.800    0.000   12.000 
#    0.000    0.000    0.000    0.000    0.000    0.000 
#    0.000    0.000    0.000    0.000    0.000    0.000 
#
# Total GULP energy -248031.127126 kJ/mol
# GULP energy per Si atom -12401.556356 kJ/mol
# Density = 2.374498 g / cm^3
# Si number density = 23.799145 Si / 1000 Ang^3
#
#
#
# Elastic Constant Matrix: (Units=GPa)
#
#
# Indices 1 2 3 4 5 6 
#
# 1 135.5457 58.9743 44.5442 0.0000 -20.1528 0.0000
# 2 58.9743 109.1812 60.7404 0.0000 -21.5625 0.0000
# 3 44.5442 60.7404 144.5346 0.0000 -25.5222 0.0000
# 4 0.0000 0.0000 0.0000 33.8239 0.0000 -6.1517
# 5 -20.1528 -21.5625 -25.5222 0.0000 47.4031 0.0000
# 6 0.0000 0.0000 0.0000 -6.1517 0.0000 40.8630
#
#
#
# Elastic Compliance Matrix: (Units=1/GPa)
#
#
# Indices 1 2 3 4 5 6 
#
# 1 0.009877 -0.004535 -0.000841 0.000000 0.001684 0.000000
# 2 -0.004535 0.014440 -0.004256 0.000000 0.002349 0.000000
# 3 -0.000841 -0.004256 0.009461 0.000000 0.002800 0.000000
# 4 0.000000 0.000000 0.000000 0.030397 0.000000 0.004576
# 5 0.001684 0.002349 0.002800 0.000000 0.024388 0.000000
# 6 0.000000 0.000000 0.000000 0.004576 0.000000 0.025161
#
#
# Mechanical properties :
#
#
# Convention : Reuss Voigt Hill
#
# Bulk Modulus (GPa) = 68.89566 79.75328 74.32447
# Shear Modulus (GPa) = 36.27739 39.41816 37.84778
#
# Velocity S-wave (km/s) = 3.90848 4.07416 3.99218
# Velocity P-wave (km/s) = 7.02709 7.46428 7.24898
#
# Compressibility (1/GPa) = 0.01451470
#
# Stress axis : x y z
#
# Youngs Moduli (GPa) = 101.24159 69.25057 105.69615
#
# Poissons Ratio (x) = 0.31404 0.08890
# Poissons Ratio (y) = 0.45912 0.44985
# Poissons Ratio (z) = 0.08515 0.29474
#
# Static dielectric constant tensor:
#      x y z
#    x 4.948690 0.000000 0.386830 
#    y 0.000000 4.098130 0.000000 
#    z 0.386830 0.000000 4.480290 
# 
# 
# High freq. dielectric constant tensor:
#      x y z
#    x 1.959540 0.000000 0.002580 
#    y 0.000000 1.933510 0.000000 
#    z 0.002580 0.000000 1.949250 
# 
# From -- ./inp_files/76905.got.cif
#   From: 2010.06.25/outbox.cif.g09.slc.cpg/sg15_39_cif.got.tgz:76905.got - 2010.06.28 07:06:18.
