data_PCOD8147390
_publ_section_title
;
Structure prediction by ZEFSAII (Michael W. Deem and Ramdas Pophale) SiO2 
 PCOD8147390
Probable space group: C 2/C
;
_chemical_formula_sum "Si O2"
_cell_formula_units_Z 44
_cell_length_a 12.553748
_cell_length_b 27.774984
_cell_length_c 7.735800
_cell_angle_alpha 90.000000
_cell_angle_beta 51.717741
_cell_angle_gamma 90.000000
_cell_volume 2117.310459
_symmetry_space_group_name_H-M "C 2/C"
_symmetry_group_IT_number 15
_symmetry_cell_setting 'monoclinic'
loop_
_space_group_symop_operation_xyz
x,y,z
-x,y,1/2-z
-x,-y,-z
x,-y,1/2+z
1/2+x,1/2+y,z
1/2-x,1/2+y,1/2-z
1/2-x,1/2-y,-z
1/2+x,1/2-y,1/2+z
loop_
_atom_site_type_symbol
_atom_site_label
_atom_site_fract_x
_atom_site_fract_y
_atom_site_fract_z
Si Si1 0.759991 0.301627 0.075951
Si Si2 0.352074 0.207032 0.865725
Si Si3 0.500000 0.354855 0.250000
Si Si4 0.500000 0.491431 0.750000
Si Si5 0.000000 0.638328 0.250000
Si Si6 0.862170 0.064442 0.096656
Si Si7 0.595831 0.107916 0.500745
O O1 0.833851 0.305938 0.185059
O O2 0.608525 0.322292 0.242142
O O3 0.750000 0.250000 0.000000
O O4 0.861187 0.332212 0.854877
O O5 0.500000 0.229410 0.750000
O O6 0.250000 0.250000 0.000000
O O7 0.340038 0.159343 0.999131
O O8 0.417999 0.384643 0.475069
O O9 0.629947 0.525803 0.570005
O O10 0.532539 0.455945 0.872098
O O11 0.996440 0.608748 0.432712
O O12 0.715432 0.070793 0.331318
O O13 0.500000 0.087158 0.750000
#
# Coordination Sequence:
#
# PCOD8147390 Si02
#       7
#     8   8   4   4   4   8   8
#     4  12  25  40  63  95 139 187 235 283 335 390
#     4  11  25  41  60  92 134 181 236 282 333 388
#     4  11  25  40  70 104 126 194 234 270 352 414
#     4   9  22  44  71  98 134 164 208 305 350 415
#     4  12  21  44  63  90 140 176 224 291 330 395
#     4  10  22  43  70 100 131 166 226 279 353 421
#     4  11  23  43  67  99 132 183 225 278 346 411
#
# _framework density 20.781082000000001
#
# number of rings (size 3 to 8) (size 9 to 14) (size 15 to 20)
#    0.000    1.091    5.455    1.636    5.091    0.000 
#    3.273    0.909    0.000    0.000    0.000    0.000 
#    0.000    0.000    0.000    0.000    0.000    0.000 
#
# Total GULP energy -272593.113369 kJ/mol
# GULP energy per Si atom -12390.596062 kJ/mol
# Density = 2.073378 g / cm^3
# Si number density = 20.781082 Si / 1000 Ang^3
#
#
#
# Elastic Constant Matrix: (Units=GPa)
#
#
# Indices 1 2 3 4 5 6 
#
# 1 136.8189 37.0028 48.3020 0.0000 3.0065 0.0000
# 2 37.0028 70.1510 40.5496 0.0000 -4.7596 0.0000
# 3 48.3020 40.5496 138.9726 0.0000 -8.2097 0.0000
# 4 0.0000 0.0000 0.0000 21.4863 0.0000 -14.1242
# 5 3.0065 -4.7596 -8.2097 0.0000 50.1312 0.0000
# 6 0.0000 0.0000 0.0000 -14.1242 0.0000 18.9764
#
#
#
# Elastic Compliance Matrix: (Units=1/GPa)
#
#
# Indices 1 2 3 4 5 6 
#
# 1 0.009083 -0.003618 -0.002175 0.000000 -0.001244 0.000000
# 2 -0.003618 0.018622 -0.004098 0.000000 0.001314 0.000000
# 3 -0.002175 -0.004098 0.009221 0.000000 0.001251 0.000000
# 4 0.000000 0.000000 0.000000 0.091128 0.000000 0.067826
# 5 -0.001244 0.001314 0.001251 0.000000 0.020352 0.000000
# 6 0.000000 0.000000 0.000000 0.067826 0.000000 0.103180
#
#
# Mechanical properties :
#
#
# Convention : Reuss Voigt Hill
#
# Bulk Modulus (GPa) = 58.33217 66.40570 62.36893
# Shear Modulus (GPa) = 18.04523 32.79132 25.41828
#
# Velocity S-wave (km/s) = 2.94997 3.97664 3.50114
# Velocity P-wave (km/s) = 6.30348 7.28760 6.81333
#
# Compressibility (1/GPa) = 0.01714320
#
# Stress axis : x y z
#
# Youngs Moduli (GPa) = 110.10147 53.70123 108.44620
#
# Poissons Ratio (x) = 0.19431 0.23582
# Poissons Ratio (y) = 0.39838 0.44444
# Poissons Ratio (z) = 0.23942 0.22008
#
# Static dielectric constant tensor:
#      x y z
#    x 4.488860 0.000000 1.939850 
#    y 0.000000 3.968310 0.000000 
#    z 1.939850 0.000000 10.726130 
# 
# 
# High freq. dielectric constant tensor:
#      x y z
#    x 1.816630 0.000000 0.011310 
#    y 0.000000 1.793120 0.000000 
#    z 0.011310 0.000000 1.829640 
# 
# From -- ./inp_files/35063.got.cif
#   From: 2010.06.25/outbox.cif.g09.slc.cpg/sg15_18_cif.got.tgz:35063.got - 2010.06.28 07:06:18.
