data_PCOD8147151
_publ_section_title
;
Structure prediction by ZEFSAII (Michael W. Deem and Ramdas Pophale) SiO2 
 PCOD8147151
Probable space group: C 2/C
;
_chemical_formula_sum "Si O2"
_cell_formula_units_Z 60
_cell_length_a 8.695566
_cell_length_b 12.084926
_cell_length_c 29.145695
_cell_angle_alpha 90.000000
_cell_angle_beta 69.722578
_cell_angle_gamma 90.000000
_cell_volume 2872.969045
_symmetry_space_group_name_H-M "C 2/C"
_symmetry_group_IT_number 15
_symmetry_cell_setting 'monoclinic'
loop_
_space_group_symop_operation_xyz
x,y,z
-x,y,1/2-z
-x,-y,-z
x,-y,1/2+z
1/2+x,1/2+y,z
1/2-x,1/2+y,1/2-z
1/2-x,1/2-y,-z
1/2+x,1/2-y,1/2+z
loop_
_atom_site_type_symbol
_atom_site_label
_atom_site_fract_x
_atom_site_fract_y
_atom_site_fract_z
Si Si1 0.006187 0.203759 0.333810
Si Si2 0.106336 0.888687 0.485541
Si Si3 0.260959 0.507811 0.177740
Si Si4 0.911576 0.372851 0.883443
Si Si5 0.151767 0.794994 0.385158
Si Si6 0.000000 0.635352 0.750000
Si Si7 0.592992 0.263546 0.925269
Si Si8 0.476138 0.960365 0.452031
O O1 0.088202 0.080879 0.315983
O O2 0.045450 0.286072 0.288045
O O3 0.098084 0.238703 0.370005
O O4 0.813145 0.215820 0.365556
O O5 0.075115 0.810981 0.444048
O O6 0.296255 0.914213 0.462794
O O7 0.068762 0.816048 0.534690
O O8 0.000000 0.000000 0.500000
O O9 0.126549 0.577661 0.162636
O O10 0.329440 0.419339 0.134727
O O11 0.159890 0.442156 0.227152
O O12 0.745633 0.336146 0.926963
O O13 0.010925 0.452445 0.907963
O O14 0.022657 0.264704 0.865114
O O15 0.611412 0.135583 0.935498
O O16 0.500000 0.000000 0.500000
#
# Coordination Sequence:
#
# PCOD8147151 Si02
#       8
#     8   8   8   8   8   4   8   8
#     4  10  22  43  68  95 122 166 207 261 330 387
#     4  12  22  40  62  88 135 184 220 266 315 368
#     4  10  22  46  68  93 128 164 205 265 330 389
#     4  11  24  42  61  92 125 170 218 265 313 378
#     4  11  23  41  66  93 134 171 218 267 315 369
#     4  10  22  42  72  96 126 154 202 270 332 394
#     4  11  23  41  61  86 130 173 219 261 313 376
#     4  12  24  36  56  91 127 170 223 265 307 362
#
# _framework density 20.884318
#
# number of rings (size 3 to 8) (size 9 to 14) (size 15 to 20)
#    0.000    1.067    4.000    2.800    3.733    4.267 
#    0.000    2.667    0.000    0.000    0.000    0.000 
#    0.000    0.000    0.000    0.000    0.000    0.000 
#
# Total GULP energy -371689.597008 kJ/mol
# GULP energy per Si atom -12389.653234 kJ/mol
# Density = 2.083678 g / cm^3
# Si number density = 20.884318 Si / 1000 Ang^3
#
#
#
# Elastic Constant Matrix: (Units=GPa)
#
#
# Indices 1 2 3 4 5 6 
#
# 1 55.1429 42.4978 25.2323 0.0000 0.6880 0.0000
# 2 42.4978 110.1588 46.6620 0.0000 6.1705 0.0000
# 3 25.2323 46.6620 112.5690 0.0000 3.3441 0.0000
# 4 0.0000 0.0000 0.0000 23.4375 0.0000 7.0234
# 5 0.6880 6.1705 3.3441 0.0000 20.8211 0.0000
# 6 0.0000 0.0000 0.0000 7.0234 0.0000 40.3255
#
#
#
# Elastic Compliance Matrix: (Units=1/GPa)
#
#
# Indices 1 2 3 4 5 6 
#
# 1 0.026292 -0.009394 -0.002066 0.000000 0.002247 0.000000
# 2 -0.009394 0.014503 -0.003806 0.000000 -0.003376 0.000000
# 3 -0.002066 -0.003806 0.010941 0.000000 -0.000561 0.000000
# 4 0.000000 0.000000 0.000000 0.045016 0.000000 -0.007840
# 5 0.002247 -0.003376 -0.000561 0.000000 0.049045 0.000000
# 6 0.000000 0.000000 0.000000 -0.007840 0.000000 0.026164
#
#
# Mechanical properties :
#
#
# Convention : Reuss Voigt Hill
#
# Bulk Modulus (GPa) = 47.16065 56.29500 51.72782
# Shear Modulus (GPa) = 23.85957 27.81539 25.83748
#
# Velocity S-wave (km/s) = 3.38370 3.65345 3.52116
# Velocity P-wave (km/s) = 6.15604 6.69411 6.43070
#
# Compressibility (1/GPa) = 0.02120412
#
# Stress axis : x y z
#
# Youngs Moduli (GPa) = 38.03490 68.95131 91.40057
#
# Poissons Ratio (x) = 0.64770 0.18885
# Poissons Ratio (y) = 0.35729 0.34786
# Poissons Ratio (z) = 0.07859 0.26242
#
# Static dielectric constant tensor:
#      x y z
#    x 2.695830 0.000000 -0.022630 
#    y 0.000000 5.650410 0.000000 
#    z -0.022630 0.000000 3.673460 
# 
# 
# High freq. dielectric constant tensor:
#      x y z
#    x 1.804260 0.000000 -0.003440 
#    y 0.000000 1.835320 0.000000 
#    z -0.003440 0.000000 1.811400 
# 
# From -- ./inp_files/307129.got.cif
#   From: 2010.06.25/outbox.cif.g09.slc.cpg/sg15_154_cif.got.tgz:307129.got - 2010.06.28 07:06:18.
