data_PCOD8147851
_publ_section_title
;
Structure prediction by ZEFSAII (Michael W. Deem and Ramdas Pophale) SiO2 
 PCOD8147851
Probable space group: C 2/C
;
_chemical_formula_sum "Si O2"
_cell_formula_units_Z 60
_cell_length_a 17.275467
_cell_length_b 10.700440
_cell_length_c 14.700488
_cell_angle_alpha 90.000000
_cell_angle_beta 70.846528
_cell_angle_gamma 90.000000
_cell_volume 2567.030037
_symmetry_space_group_name_H-M "C 2/C"
_symmetry_group_IT_number 15
_symmetry_cell_setting 'monoclinic'
loop_
_space_group_symop_operation_xyz
x,y,z
-x,y,1/2-z
-x,-y,-z
x,-y,1/2+z
1/2+x,1/2+y,z
1/2-x,1/2+y,1/2-z
1/2-x,1/2-y,-z
1/2+x,1/2-y,1/2+z
loop_
_atom_site_type_symbol
_atom_site_label
_atom_site_fract_x
_atom_site_fract_y
_atom_site_fract_z
Si Si1 0.430538 0.109559 0.929521
Si Si2 0.000000 0.151089 0.750000
Si Si3 0.604159 0.476565 0.361808
Si Si4 0.713250 0.921679 0.708374
Si Si5 0.081327 0.766950 0.918727
Si Si6 0.178608 0.265435 0.892380
Si Si7 0.611932 0.834592 0.589878
Si Si8 0.851285 0.681429 0.789744
O O1 0.508685 0.166757 0.949250
O O2 0.423626 0.183456 0.836223
O O3 0.438969 0.962153 0.909459
O O4 0.350539 0.133190 0.023108
O O5 0.940586 0.060081 0.714819
O O6 0.947484 0.238371 0.836353
O O7 0.693603 0.538619 0.310246
O O8 0.553691 0.586262 0.435166
O O9 0.616394 0.353026 0.418635
O O10 0.678753 0.819732 0.790911
O O11 0.694746 0.865354 0.614503
O O12 0.656811 0.041860 0.744930
O O13 0.131914 0.764756 0.804802
O O14 0.137101 0.729957 0.984116
O O15 0.271314 0.224323 0.877224
#
# Coordination Sequence:
#
# PCOD8147851 Si02
#       8
#     8   4   8   8   8   8   8   8
#     4  11  25  41  72 107 139 188 245 315 368 429
#     4  12  26  46  72 106 156 196 242 310 398 438
#     4  11  26  44  69 106 148 196 237 307 377 445
#     4  10  22  45  71  98 139 190 248 293 359 441
#     4  12  25  43  67 110 144 186 243 301 376 439
#     4  11  21  46  68  99 141 192 244 300 368 448
#     4  11  26  45  74 106 141 196 251 307 367 450
#     4  10  23  41  68  98 142 183 239 301 357 438
#
# _framework density 23.373315000000002
#
# number of rings (size 3 to 8) (size 9 to 14) (size 15 to 20)
#    0.000    1.067    2.667    2.800    5.600    2.667 
#    0.000    2.667    0.000    0.000    0.000    0.000 
#    0.000    0.000    0.000    0.000    0.000    0.000 
#
# Total GULP energy -371843.005085 kJ/mol
# GULP energy per Si atom -12394.766836 kJ/mol
# Density = 2.332012 g / cm^3
# Si number density = 23.373315 Si / 1000 Ang^3
#
#
#
# Elastic Constant Matrix: (Units=GPa)
#
#
# Indices 1 2 3 4 5 6 
#
# 1 95.5713 47.1023 37.4782 0.0000 16.8411 0.0000
# 2 47.1023 131.0390 39.1485 0.0000 21.7843 0.0000
# 3 37.4782 39.1485 98.7215 0.0000 21.2070 0.0000
# 4 0.0000 0.0000 0.0000 36.7399 0.0000 2.7123
# 5 16.8411 21.7843 21.2070 0.0000 30.2702 0.0000
# 6 0.0000 0.0000 0.0000 2.7123 0.0000 22.9919
#
#
#
# Elastic Compliance Matrix: (Units=1/GPa)
#
#
# Indices 1 2 3 4 5 6 
#
# 1 0.014028 -0.003575 -0.003277 0.000000 -0.002936 0.000000
# 2 -0.003575 0.010123 -0.001788 0.000000 -0.004043 0.000000
# 3 -0.003277 -0.001788 0.013437 0.000000 -0.006303 0.000000
# 4 0.000000 0.000000 0.000000 0.027457 0.000000 -0.003239
# 5 -0.002936 -0.004043 -0.006303 0.000000 0.041995 0.000000
# 6 0.000000 0.000000 0.000000 -0.003239 0.000000 0.043876
#
#
# Mechanical properties :
#
#
# Convention : Reuss Voigt Hill
#
# Bulk Modulus (GPa) = 49.24649 63.64330 56.44489
# Shear Modulus (GPa) = 28.57698 31.44057 30.00877
#
# Velocity S-wave (km/s) = 3.50041 3.67160 3.58703
# Velocity P-wave (km/s) = 6.11984 6.72773 6.43097
#
# Compressibility (1/GPa) = 0.02030602
#
# Stress axis : x y z
#
# Youngs Moduli (GPa) = 71.28665 98.78598 74.42184
#
# Poissons Ratio (x) = 0.35319 0.24388
# Poissons Ratio (y) = 0.25487 0.13310
# Poissons Ratio (z) = 0.23361 0.17668
#
# Static dielectric constant tensor:
#      x y z
#    x 4.146290 0.000000 0.247740 
#    y 0.000000 4.546620 0.000000 
#    z 0.247740 0.000000 3.994280 
# 
# 
# High freq. dielectric constant tensor:
#      x y z
#    x 1.921460 0.000000 0.017320 
#    y 0.000000 1.945290 0.000000 
#    z 0.017320 0.000000 1.915170 
# 
# From -- ./inp_files/160891.got.cif
#   From: 2010.06.25/outbox.cif.g09.slc.cpg/sg15_81_cif.got.tgz:160891.got - 2010.06.28 07:06:18.
