data_PCOD8147762
_publ_section_title
;
Structure prediction by ZEFSAII (Michael W. Deem and Ramdas Pophale) SiO2 
 PCOD8147762
Probable space group: C 2/C
;
_chemical_formula_sum "Si O2"
_cell_formula_units_Z 44
_cell_length_a 11.319484
_cell_length_b 8.978313
_cell_length_c 22.318900
_cell_angle_alpha 90.000000
_cell_angle_beta 124.029473
_cell_angle_gamma 90.000000
_cell_volume 1879.825782
_symmetry_space_group_name_H-M "C 2/C"
_symmetry_group_IT_number 15
_symmetry_cell_setting 'monoclinic'
loop_
_space_group_symop_operation_xyz
x,y,z
-x,y,1/2-z
-x,-y,-z
x,-y,1/2+z
1/2+x,1/2+y,z
1/2-x,1/2+y,1/2-z
1/2-x,1/2-y,-z
1/2+x,1/2-y,1/2+z
loop_
_atom_site_type_symbol
_atom_site_label
_atom_site_fract_x
_atom_site_fract_y
_atom_site_fract_z
Si Si1 0.927084 0.583807 0.924047
Si Si2 0.000000 0.754473 0.750000
Si Si3 0.174720 0.147207 0.929806
Si Si4 0.526858 0.872620 0.666166
Si Si5 0.198191 0.487472 0.817318
Si Si6 0.495283 0.624292 0.116578
O O1 0.774873 0.648311 0.900023
O O2 0.897570 0.462412 0.865219
O O3 0.019552 0.720678 0.923611
O O4 0.000000 0.500000 0.000000
O O5 0.143480 0.653117 0.783368
O O6 0.993507 0.853969 0.688160
O O7 0.017625 0.208631 0.868097
O O8 0.250000 0.250000 0.000000
O O9 0.141558 0.977278 0.940991
O O10 0.635611 0.866586 0.752161
O O11 0.375258 0.952545 0.639591
O O12 0.366551 0.468410 0.866373
#
# Coordination Sequence:
#
# PCOD8147762 Si02
#       6
#     8   4   8   8   8   8
#     4  12  25  48  71 101 144 192 249 293 350 439
#     4  10  24  44  68 116 142 172 242 310 358 440
#     4  12  28  47  67 107 145 195 242 293 358 436
#     4  10  22  46  70 103 147 179 231 303 360 427
#     4  10  22  44  75 101 150 177 227 315 370 416
#     4  12  27  43  78 108 138 197 241 291 381 428
#
# _framework density 23.406424999999999
#
# number of rings (size 3 to 8) (size 9 to 14) (size 15 to 20)
#    0.000    1.091    7.273    0.000    5.091    2.909 
#    0.000    0.000    0.000    0.000    0.000    0.000 
#    0.000    0.000    0.000    0.000    0.000    0.000 
#
# Total GULP energy -272705.746121 kJ/mol
# GULP energy per Si atom -12395.715733 kJ/mol
# Density = 2.335315 g / cm^3
# Si number density = 23.406425 Si / 1000 Ang^3
#
#
#
# Elastic Constant Matrix: (Units=GPa)
#
#
# Indices 1 2 3 4 5 6 
#
# 1 89.2052 33.0754 29.8499 0.0000 -24.6016 0.0000
# 2 33.0754 108.1563 30.8608 0.0000 -7.1541 0.0000
# 3 29.8499 30.8608 72.8450 0.0000 -13.3342 0.0000
# 4 0.0000 0.0000 0.0000 40.9315 0.0000 0.2007
# 5 -24.6016 -7.1541 -13.3342 0.0000 32.2943 0.0000
# 6 0.0000 0.0000 0.0000 0.2007 0.0000 47.6954
#
#
#
# Elastic Compliance Matrix: (Units=1/GPa)
#
#
# Indices 1 2 3 4 5 6 
#
# 1 0.016470 -0.003374 -0.003418 0.000000 0.010388 0.000000
# 2 -0.003374 0.011217 -0.003662 0.000000 -0.001598 0.000000
# 3 -0.003418 -0.003662 0.017367 0.000000 0.003756 0.000000
# 4 0.000000 0.000000 0.000000 0.024432 0.000000 -0.000103
# 5 0.010388 -0.001598 0.003756 0.000000 0.040076 0.000000
# 6 0.000000 0.000000 0.000000 -0.000103 0.000000 0.020967
#
#
# Mechanical properties :
#
#
# Convention : Reuss Voigt Hill
#
# Bulk Modulus (GPa) = 41.41479 50.86429 46.13954
# Shear Modulus (GPa) = 31.35105 35.94561 33.64833
#
# Velocity S-wave (km/s) = 3.66378 3.92307 3.79564
# Velocity P-wave (km/s) = 5.96908 6.50375 6.24214
#
# Compressibility (1/GPa) = 0.02414596
#
# Stress axis : x y z
#
# Youngs Moduli (GPa) = 60.71747 89.15093 57.57986
#
# Poissons Ratio (x) = 0.30082 0.19680
# Poissons Ratio (y) = 0.20488 0.21085
# Poissons Ratio (z) = 0.20752 0.32645
#
# Static dielectric constant tensor:
#      x y z
#    x 4.610700 0.000000 -0.294180 
#    y 0.000000 4.303250 0.000000 
#    z -0.294180 0.000000 3.849400 
# 
# 
# High freq. dielectric constant tensor:
#      x y z
#    x 1.936170 0.000000 -0.016150 
#    y 0.000000 1.931370 0.000000 
#    z -0.016150 0.000000 1.901160 
# 
# From -- ./inp_files/268143.got.cif
#   From: 2010.06.25/outbox.cif.g09.slc.cpg/sg15_135_cif.got.tgz:268143.got - 2010.06.28 07:06:18.
