data_PCOD8147939
_publ_section_title
;
Structure prediction by ZEFSAII (Michael W. Deem and Ramdas Pophale) SiO2 
 PCOD8147939
Probable space group: C 2/C
;
_chemical_formula_sum "Si O2"
_cell_formula_units_Z 56
_cell_length_a 15.157746
_cell_length_b 28.187783
_cell_length_c 11.029940
_cell_angle_alpha 90.000000
_cell_angle_beta 34.138712
_cell_angle_gamma 90.000000
_cell_volume 2644.752753
_symmetry_space_group_name_H-M "C 2/C"
_symmetry_group_IT_number 15
_symmetry_cell_setting 'monoclinic'
loop_
_space_group_symop_operation_xyz
x,y,z
-x,y,1/2-z
-x,-y,-z
x,-y,1/2+z
1/2+x,1/2+y,z
1/2-x,1/2+y,1/2-z
1/2-x,1/2-y,-z
1/2+x,1/2-y,1/2+z
loop_
_atom_site_type_symbol
_atom_site_label
_atom_site_fract_x
_atom_site_fract_y
_atom_site_fract_z
Si Si1 0.741690 0.312300 0.312387
Si Si2 0.877929 0.782671 0.699761
Si Si3 0.098104 0.945488 0.761096
Si Si4 0.828743 0.366597 0.981207
Si Si5 0.824467 0.207191 0.987288
Si Si6 0.085053 0.945579 0.281032
Si Si7 0.813380 0.363774 0.451200
O O1 0.842966 0.272474 0.271777
O O2 0.560344 0.296099 0.505608
O O3 0.817181 0.325490 0.097013
O O4 0.758941 0.360175 0.372682
O O5 0.810036 0.782411 0.642993
O O6 0.771176 0.818714 0.893609
O O7 0.253225 0.912930 0.578198
O O8 0.000000 0.934717 0.750000
O O9 0.145669 0.000516 0.709881
O O10 0.016277 0.933858 0.983324
O O11 0.762550 0.342416 0.935551
O O12 0.736981 0.413346 0.123240
O O13 0.000000 0.383612 0.750000
O O14 0.000000 0.198784 0.750000
O O15 0.750000 0.250000 0.000000
O O16 0.000000 0.933639 0.250000
O O17 0.000000 0.362000 0.250000
#
# Coordination Sequence:
#
# PCOD8147939 Si02
#       7
#     8   8   8   8   8   8   8
#     4  12  26  44  65  93 131 177 221 269 323 387
#     4  12  24  43  65  89 132 172 222 270 313 388
#     4  10  22  46  71  97 132 171 218 271 333 399
#     4  12  26  38  64  97 136 167 213 268 327 390
#     4  12  23  40  62  93 126 172 217 265 326 380
#     4  10  23  43  72 100 128 172 221 270 330 399
#     4  12  27  42  67  96 130 172 220 269 327 388
#
# _framework density 21.174001000000001
#
# number of rings (size 3 to 8) (size 9 to 14) (size 15 to 20)
#    0.000    0.571    2.857    5.143    6.000    0.571 
#    0.000    0.000    0.000    6.857    0.000    0.000 
#    0.000    0.000    0.000    0.000    0.000    0.000 
#
# Total GULP energy -347076.138968 kJ/mol
# GULP energy per Si atom -12395.576392 kJ/mol
# Density = 2.112581 g / cm^3
# Si number density = 21.174001 Si / 1000 Ang^3
#
#
#
# Elastic Constant Matrix: (Units=GPa)
#
#
# Indices 1 2 3 4 5 6 
#
# 1 115.8395 30.0474 49.8359 0.0000 3.1865 0.0000
# 2 30.0474 105.0725 60.8530 0.0000 -10.1031 0.0000
# 3 49.8359 60.8530 139.7870 0.0000 -12.3154 0.0000
# 4 0.0000 0.0000 0.0000 35.9699 0.0000 3.0053
# 5 3.1865 -10.1031 -12.3154 0.0000 32.8601 0.0000
# 6 0.0000 0.0000 0.0000 3.0053 0.0000 27.6746
#
#
#
# Elastic Compliance Matrix: (Units=1/GPa)
#
#
# Indices 1 2 3 4 5 6 
#
# 1 0.010514 -0.001280 -0.003429 0.000000 -0.002698 0.000000
# 2 -0.001280 0.012997 -0.005004 0.000000 0.002245 0.000000
# 3 -0.003429 -0.005004 0.010805 0.000000 0.002844 0.000000
# 4 0.000000 0.000000 0.000000 0.028056 0.000000 -0.003047
# 5 -0.002698 0.002245 0.002844 0.000000 0.032450 0.000000
# 6 0.000000 0.000000 0.000000 -0.003047 0.000000 0.036465
#
#
# Mechanical properties :
#
#
# Convention : Reuss Voigt Hill
#
# Bulk Modulus (GPa) = 67.15731 71.35238 69.25484
# Shear Modulus (GPa) = 32.11806 33.96511 33.04159
#
# Velocity S-wave (km/s) = 3.89892 4.00946 3.95458
# Velocity P-wave (km/s) = 7.21488 7.43005 7.32325
#
# Compressibility (1/GPa) = 0.01489041
#
# Stress axis : x y z
#
# Youngs Moduli (GPa) = 95.11070 76.93973 92.55042
#
# Poissons Ratio (x) = 0.09851 0.31733
# Poissons Ratio (y) = 0.12178 0.46310
# Poissons Ratio (z) = 0.32611 0.38499
#
# Static dielectric constant tensor:
#      x y z
#    x 3.786600 0.000000 0.168620 
#    y 0.000000 4.004590 0.000000 
#    z 0.168620 0.000000 3.805310 
# 
# 
# High freq. dielectric constant tensor:
#      x y z
#    x 1.841970 0.000000 0.016430 
#    y 0.000000 1.837430 0.000000 
#    z 0.016430 0.000000 1.832240 
# 
# From -- ./inp_files/101756.got.cif
#   From: 2010.06.25/outbox.cif.g09.slc.cpg/sg15_51_cif.got.tgz:101756.got - 2010.06.28 07:06:18.
