data_PCOD8147965
_publ_section_title
;
Structure prediction by ZEFSAII (Michael W. Deem and Ramdas Pophale) SiO2 
 PCOD8147965
Probable space group: C 2/C
;
_chemical_formula_sum "Si O2"
_cell_formula_units_Z 36
_cell_length_a 5.149298
_cell_length_b 24.110273
_cell_length_c 11.013785
_cell_angle_alpha 90.000000
_cell_angle_beta 89.763090
_cell_angle_gamma 90.000000
_cell_volume 1367.360518
_symmetry_space_group_name_H-M "C 2/C"
_symmetry_group_IT_number 15
_symmetry_cell_setting 'monoclinic'
loop_
_space_group_symop_operation_xyz
x,y,z
-x,y,1/2-z
-x,-y,-z
x,-y,1/2+z
1/2+x,1/2+y,z
1/2-x,1/2+y,1/2-z
1/2-x,1/2-y,-z
1/2+x,1/2-y,1/2+z
loop_
_atom_site_type_symbol
_atom_site_label
_atom_site_fract_x
_atom_site_fract_y
_atom_site_fract_z
Si Si1 0.295969 0.436023 0.937649
Si Si2 0.796759 0.555990 0.592708
Si Si3 0.628281 0.205870 0.624261
Si Si4 0.000000 0.135948 0.750000
Si Si5 0.652990 0.821011 0.869748
O O1 0.229070 0.491769 0.862236
O O2 0.271675 0.382132 0.850658
O O3 0.590594 0.436481 0.983941
O O4 0.090164 0.431574 0.049112
O O5 0.733889 0.596628 0.703539
O O6 0.500000 0.186925 0.750000
O O7 0.494574 0.182341 0.499822
O O8 0.631463 0.272783 0.614850
O O9 0.909755 0.175346 0.637220
O O10 0.500000 0.804062 0.750000
#
# Coordination Sequence:
#
# PCOD8147965 Si02
#       5
#     8   8   8   4   8
#     4  10  22  47  65 105 142 191 239 311 367 438
#     4  10  23  42  75  99 144 190 249 297 370 440
#     4  11  25  45  72 103 144 197 250 303 372 452
#     4  12  22  44  72 104 138 196 252 302 360 472
#     4  11  24  46  68 109 147 191 247 311 378 440
#
# _framework density 26.328099000000002
#
# number of rings (size 3 to 8) (size 9 to 14) (size 15 to 20)
#    0.000    1.333    3.333    1.333    0.000    2.667 
#   14.000    0.000    0.000    0.000    0.000    0.000 
#    0.000    0.000    0.000    0.000    0.000    0.000 
#
# Total GULP energy -223032.986608 kJ/mol
# GULP energy per Si atom -12390.721478 kJ/mol
# Density = 2.626818 g / cm^3
# Si number density = 26.328099 Si / 1000 Ang^3
#
#
#
# Elastic Constant Matrix: (Units=GPa)
#
#
# Indices 1 2 3 4 5 6 
#
# 1 66.0288 9.2291 19.0431 0.0000 -6.1132 0.0000
# 2 9.2291 209.3471 29.4599 0.0000 6.8017 0.0000
# 3 19.0431 29.4599 167.5586 0.0000 5.1434 0.0000
# 4 0.0000 0.0000 0.0000 32.8685 0.0000 6.4470
# 5 -6.1132 6.8017 5.1434 0.0000 31.8897 0.0000
# 6 0.0000 0.0000 0.0000 6.4470 0.0000 20.2583
#
#
#
# Elastic Compliance Matrix: (Units=1/GPa)
#
#
# Indices 1 2 3 4 5 6 
#
# 1 0.016077 -0.000564 -0.001835 0.000000 0.003498 0.000000
# 2 -0.000564 0.004944 -0.000773 0.000000 -0.001038 0.000000
# 3 -0.001835 -0.000773 0.006350 0.000000 -0.001211 0.000000
# 4 0.000000 0.000000 0.000000 0.032450 0.000000 -0.010327
# 5 0.003498 -0.001038 -0.001211 0.000000 0.032445 0.000000
# 6 0.000000 0.000000 0.000000 -0.010327 0.000000 0.052649
#
#
# Mechanical properties :
#
#
# Convention : Reuss Voigt Hill
#
# Bulk Modulus (GPa) = 47.56165 62.04430 54.80297
# Shear Modulus (GPa) = 31.59174 42.68345 37.13760
#
# Velocity S-wave (km/s) = 3.46775 4.03080 3.75983
# Velocity P-wave (km/s) = 5.84277 6.72905 6.30151
#
# Compressibility (1/GPa) = 0.02102534
#
# Stress axis : x y z
#
# Youngs Moduli (GPa) = 62.20078 202.25843 157.48562
#
# Poissons Ratio (x) = 0.11410 0.28904
# Poissons Ratio (y) = 0.03509 0.12178
# Poissons Ratio (z) = 0.11416 0.15641
#
# Static dielectric constant tensor:
#      x y z
#    x 4.393220 0.000000 -0.052020 
#    y 0.000000 5.265640 0.000000 
#    z -0.052020 0.000000 4.548380 
# 
# 
# High freq. dielectric constant tensor:
#      x y z
#    x 2.019120 0.000000 0.004370 
#    y 0.000000 2.098150 0.000000 
#    z 0.004370 0.000000 2.038110 
# 
# From -- ./inp_files/72931.got.cif
#   From: 2010.06.25/outbox.cif.g09.slc.cpg/sg15_37_cif.got.tgz:72931.got - 2010.06.28 07:06:18.
