data_PCOD8147058
_publ_section_title
;
Structure prediction by ZEFSAII (Michael W. Deem and Ramdas Pophale) SiO2 
 PCOD8147058
Probable space group: C 2/C
;
_chemical_formula_sum "Si O2"
_cell_formula_units_Z 48
_cell_length_a 9.350856
_cell_length_b 18.402486
_cell_length_c 19.266981
_cell_angle_alpha 90.000000
_cell_angle_beta 43.494447
_cell_angle_gamma 90.000000
_cell_volume 2281.967101
_symmetry_space_group_name_H-M "C 2/C"
_symmetry_group_IT_number 15
_symmetry_cell_setting 'monoclinic'
loop_
_space_group_symop_operation_xyz
x,y,z
-x,y,1/2-z
-x,-y,-z
x,-y,1/2+z
1/2+x,1/2+y,z
1/2-x,1/2+y,1/2-z
1/2-x,1/2-y,-z
1/2+x,1/2-y,1/2+z
loop_
_atom_site_type_symbol
_atom_site_label
_atom_site_fract_x
_atom_site_fract_y
_atom_site_fract_z
Si Si1 0.374733 0.056955 0.227563
Si Si2 0.932080 0.947626 0.117688
Si Si3 0.254549 0.311360 0.820210
Si Si4 0.329521 0.316936 0.253619
Si Si5 0.117456 0.682879 0.518393
Si Si6 0.718582 0.959304 0.053354
O O1 0.500000 0.088225 0.250000
O O2 0.325186 0.118589 0.191031
O O3 0.156340 0.026054 0.329825
O O4 0.489538 0.987932 0.152150
O O5 0.907956 0.890178 0.188121
O O6 0.817677 0.922730 0.087516
O O7 0.169428 0.967973 0.015748
O O8 0.500000 0.314283 0.750000
O O9 0.196001 0.241772 0.796741
O O10 0.112035 0.306858 0.938228
O O11 0.500000 0.293476 0.250000
O O12 0.111155 0.322655 0.369412
O O13 0.250000 0.750000 0.500000
O O14 0.223935 0.605423 0.496052
#
# Coordination Sequence:
#
# PCOD8147058 Si02
#       6
#     8   8   8   8   8   8
#     4  10  22  43  69  99 136 173 223 281 343 413
#     4  10  22  42  69  98 139 179 222 282 342 410
#     4  12  26  45  70  99 135 183 233 287 344 409
#     4  12  28  47  68 104 142 182 234 293 347 406
#     4  12  25  45  74 100 137 187 236 284 345 417
#     4  10  22  42  70 102 133 182 228 274 348 415
#
# _framework density 21.034485
#
# number of rings (size 3 to 8) (size 9 to 14) (size 15 to 20)
#    0.000    1.000    3.333    2.500    2.333    3.333 
#    6.000    0.000    0.000    0.000    0.000    0.000 
#    0.000    0.000    0.000    0.000    0.000    0.000 
#
# Total GULP energy -297556.695371 kJ/mol
# GULP energy per Si atom -12398.195640 kJ/mol
# Density = 2.098661 g / cm^3
# Si number density = 21.034485 Si / 1000 Ang^3
#
#
#
# Elastic Constant Matrix: (Units=GPa)
#
#
# Indices 1 2 3 4 5 6 
#
# 1 113.0256 62.4387 45.0569 -0.0110 17.5443 0.0143
# 2 62.4387 99.0197 38.7569 -0.0026 17.4301 0.0031
# 3 45.0569 38.7569 126.4412 0.0055 21.2494 -0.0011
# 4 -0.0110 -0.0026 0.0055 40.3618 0.0035 20.4067
# 5 17.5443 17.4301 21.2494 0.0035 37.8004 -0.0042
# 6 0.0143 0.0031 -0.0011 20.4067 -0.0042 21.4557
#
#
#
# Elastic Compliance Matrix: (Units=1/GPa)
#
#
# Indices 1 2 3 4 5 6 
#
# 1 0.014414 -0.007831 -0.002450 0.000016 -0.001702 -0.000024
# 2 -0.007831 0.016207 -0.001692 -0.000003 -0.002888 0.000005
# 3 -0.002450 -0.001692 0.009915 -0.000005 -0.003656 0.000007
# 4 0.000016 -0.000003 -0.000005 0.047727 -0.000013 -0.045393
# 5 -0.001702 -0.002888 -0.003656 -0.000013 0.030632 0.000019
# 6 -0.000024 0.000005 0.000007 -0.045393 0.000019 0.089782
#
#
# Mechanical properties :
#
#
# Convention : Reuss Voigt Hill
#
# Bulk Modulus (GPa) = 60.27447 70.11015 65.19231
# Shear Modulus (GPa) = 20.99490 32.73918 26.86704
#
# Velocity S-wave (km/s) = 3.16273 3.94947 3.57779
# Velocity P-wave (km/s) = 6.48494 7.36214 6.93742
#
# Compressibility (1/GPa) = 0.01659077
#
# Stress axis : x y z
#
# Youngs Moduli (GPa) = 69.37507 61.70020 100.85628
#
# Poissons Ratio (x) = 0.48315 0.24712
# Poissons Ratio (y) = 0.54325 0.17067
# Poissons Ratio (z) = 0.16999 0.10441
#
# Static dielectric constant tensor:
#      x y z
#    x -1.730140 0.001040 8.888940 
#    y 0.001040 3.696620 -0.001680 
#    z 8.888940 -0.001680 -9.904250 
# 
# 
# High freq. dielectric constant tensor:
#      x y z
#    x 1.820230 0.000000 0.003130 
#    y 0.000000 1.824380 0.000000 
#    z 0.003130 0.000000 1.847420 
# 
# From -- ./inp_files/191944.got.cif
#   From: 2010.06.25/outbox.cif.g09.slc.cpg/sg15_96_cif.got.tgz:191944.got - 2010.06.28 07:06:18.
