data_PCOD8147279
_publ_section_title
;
Structure prediction by ZEFSAII (Michael W. Deem and Ramdas Pophale) SiO2 
 PCOD8147279
Probable space group: C 2/C
;
_chemical_formula_sum "Si O2"
_cell_formula_units_Z 56
_cell_length_a 11.832005
_cell_length_b 8.184309
_cell_length_c 29.236923
_cell_angle_alpha 90.000000
_cell_angle_beta 66.930883
_cell_angle_gamma 90.000000
_cell_volume 2604.805826
_symmetry_space_group_name_H-M "C 2/C"
_symmetry_group_IT_number 15
_symmetry_cell_setting 'monoclinic'
loop_
_space_group_symop_operation_xyz
x,y,z
-x,y,1/2-z
-x,-y,-z
x,-y,1/2+z
1/2+x,1/2+y,z
1/2-x,1/2+y,1/2-z
1/2-x,1/2-y,-z
1/2+x,1/2-y,1/2+z
loop_
_atom_site_type_symbol
_atom_site_label
_atom_site_fract_x
_atom_site_fract_y
_atom_site_fract_z
Si Si1 0.202601 0.256072 0.813232
Si Si2 0.994315 0.270980 0.086504
Si Si3 0.439932 0.829218 0.520763
Si Si4 0.976601 0.646440 0.400968
Si Si5 0.781042 0.263114 0.870623
Si Si6 0.144195 0.432325 0.729199
Si Si7 0.695221 0.605499 0.112489
O O1 0.192711 0.362274 0.769112
O O2 0.284730 0.344558 0.838319
O O3 0.063529 0.244848 0.854223
O O4 0.266049 0.083193 0.794747
O O5 0.969910 0.463456 0.099752
O O6 0.070326 0.188389 0.114929
O O7 0.860805 0.189675 0.107649
O O8 0.055671 0.228392 0.027328
O O9 0.524340 0.760731 0.549454
O O10 0.301219 0.837586 0.560907
O O11 0.500000 0.000000 0.500000
O O12 0.844437 0.620044 0.398599
O O13 0.838137 0.292417 0.811685
O O14 0.815892 0.087974 0.885464
O O15 0.000000 0.484450 0.750000
#
# Coordination Sequence:
#
# PCOD8147279 Si02
#       7
#     8   8   8   8   8   8   8
#     4  11  24  46  68  95 128 174 214 274 337 394
#     4  11  23  43  68  96 136 180 218 267 335 392
#     4   9  18  42  66  94 136 181 215 271 326 389
#     4  10  22  43  66  92 138 166 217 276 325 387
#     4  12  24  42  67  99 131 172 220 278 325 394
#     4  12  27  45  69  95 135 169 222 278 340 399
#     4  11  23  41  71  96 136 178 221 267 335 397
#
# _framework density 21.498722999999998
#
# number of rings (size 3 to 8) (size 9 to 14) (size 15 to 20)
#    0.000    1.143    5.714    2.143    2.000    0.571 
#    0.000    0.714    0.000    0.000    0.000    0.000 
#    0.000    0.000    0.000    0.000    0.000    0.000 
#
# Total GULP energy -347001.013318 kJ/mol
# GULP energy per Si atom -12392.893333 kJ/mol
# Density = 2.144979 g / cm^3
# Si number density = 21.498723 Si / 1000 Ang^3
#
#
#
# Elastic Constant Matrix: (Units=GPa)
#
#
# Indices 1 2 3 4 5 6 
#
# 1 179.2360 33.0673 67.7906 0.0000 9.4672 0.0000
# 2 33.0673 41.7490 39.9302 0.0000 -4.3760 0.0000
# 3 67.7906 39.9302 135.8650 0.0000 18.6048 0.0000
# 4 0.0000 0.0000 0.0000 22.2736 0.0000 -4.6984
# 5 9.4672 -4.3760 18.6048 0.0000 37.9412 0.0000
# 6 0.0000 0.0000 0.0000 -4.6984 0.0000 31.8059
#
#
#
# Elastic Compliance Matrix: (Units=1/GPa)
#
#
# Indices 1 2 3 4 5 6 
#
# 1 0.007193 -0.003480 -0.002429 0.000000 -0.001005 0.000000
# 2 -0.003480 0.038346 -0.010996 0.000000 0.010683 0.000000
# 3 -0.002429 -0.010996 0.012751 0.000000 -0.006915 0.000000
# 4 0.000000 0.000000 0.000000 0.046340 0.000000 0.006845
# 5 -0.001005 0.010683 -0.006915 0.000000 0.031230 0.000000
# 6 0.000000 0.000000 0.000000 0.006845 0.000000 0.032452
#
#
# Mechanical properties :
#
#
# Convention : Reuss Voigt Hill
#
# Bulk Modulus (GPa) = 40.84963 70.93625 55.89294
# Shear Modulus (GPa) = 23.77772 32.80828 28.29300
#
# Velocity S-wave (km/s) = 3.32927 3.91072 3.63165
# Velocity P-wave (km/s) = 5.81558 7.31155 6.60605
#
# Compressibility (1/GPa) = 0.02448003
#
# Stress axis : x y z
#
# Youngs Moduli (GPa) = 139.02713 26.07849 78.42723
#
# Poissons Ratio (x) = 0.09074 0.19047
# Poissons Ratio (y) = 0.48377 0.86242
# Poissons Ratio (z) = 0.33764 0.28677
#
# Static dielectric constant tensor:
#      x y z
#    x 4.105630 0.000000 0.307340 
#    y 0.000000 3.595710 0.000000 
#    z 0.307340 0.000000 4.403520 
# 
# 
# High freq. dielectric constant tensor:
#      x y z
#    x 1.865660 0.000000 0.017240 
#    y 0.000000 1.817740 0.000000 
#    z 0.017240 0.000000 1.854520 
# 
# From -- ./inp_files/310201.got.cif
#   From: 2010.06.25/outbox.cif.g09.slc.cpg/sg15_156_cif.got.tgz:310201.got - 2010.06.28 07:06:18.
