data_PCOD8147471
_publ_section_title
;
Structure prediction by ZEFSAII (Michael W. Deem and Ramdas Pophale) SiO2 
 PCOD8147471
Probable space group: C 2/C
;
_chemical_formula_sum "Si O2"
_cell_formula_units_Z 56
_cell_length_a 14.718819
_cell_length_b 8.487840
_cell_length_c 20.311839
_cell_angle_alpha 90.000000
_cell_angle_beta 79.376355
_cell_angle_gamma 90.000000
_cell_volume 2494.082234
_symmetry_space_group_name_H-M "C 2/C"
_symmetry_group_IT_number 15
_symmetry_cell_setting 'monoclinic'
loop_
_space_group_symop_operation_xyz
x,y,z
-x,y,1/2-z
-x,-y,-z
x,-y,1/2+z
1/2+x,1/2+y,z
1/2-x,1/2+y,1/2-z
1/2-x,1/2-y,-z
1/2+x,1/2-y,1/2+z
loop_
_atom_site_type_symbol
_atom_site_label
_atom_site_fract_x
_atom_site_fract_y
_atom_site_fract_z
Si Si1 0.668776 0.123854 0.004048
Si Si2 0.561532 0.374911 0.954492
Si Si3 0.941961 0.086800 0.351351
Si Si4 0.500000 0.325044 0.250000
Si Si5 0.762758 0.393306 0.613035
Si Si6 0.753591 0.473259 0.387097
Si Si7 0.647364 0.067916 0.258783
Si Si8 0.000000 0.665170 0.750000
O O1 0.575657 0.223181 0.000271
O O2 0.675995 0.996223 0.944383
O O3 0.750000 0.250000 0.000000
O O4 0.664690 0.029576 0.073825
O O5 0.502627 0.330061 0.898898
O O6 0.659983 0.436491 0.916651
O O7 0.500000 0.500000 0.000000
O O8 0.839740 0.039622 0.387347
O O9 0.930078 0.226107 0.300182
O O10 0.992155 0.932239 0.316198
O O11 0.594945 0.228638 0.246149
O O12 0.767510 0.209121 0.596452
O O13 0.790955 0.417782 0.684887
O O14 0.785469 0.512406 0.308985
O O15 0.567472 0.941220 0.285229
#
# Coordination Sequence:
#
# PCOD8147471 Si02
#       8
#     8   8   8   4   8   8   8   4
#     4  10  24  45  68  97 133 183 225 285 338 412
#     4  11  25  44  68  98 134 180 230 280 344 408
#     4  11  23  40  67  99 136 177 225 276 338 408
#     4  10  26  40  68  98 146 176 218 282 342 406
#     4  12  25  43  73 100 139 180 232 279 350 411
#     4  11  25  45  70  99 138 180 233 279 347 413
#     4  11  25  43  68 101 137 181 225 282 344 408
#     4  10  22  44  60  96 140 168 224 276 346 396
#
# _framework density 22.453149
#
# number of rings (size 3 to 8) (size 9 to 14) (size 15 to 20)
#    0.000    1.143    1.429    3.857   12.000    0.000 
#    0.000    1.429    0.000    0.000    0.000    0.000 
#    0.000    0.000    0.000    0.000    0.000    0.000 
#
# Total GULP energy -347132.025850 kJ/mol
# GULP energy per Si atom -12397.572352 kJ/mol
# Density = 2.240204 g / cm^3
# Si number density = 22.453149 Si / 1000 Ang^3
#
#
#
# Elastic Constant Matrix: (Units=GPa)
#
#
# Indices 1 2 3 4 5 6 
#
# 1 103.6984 32.3237 31.6885 0.0000 15.8172 0.0000
# 2 32.3237 125.1928 41.0636 0.0000 20.2490 0.0000
# 3 31.6885 41.0636 111.4460 0.0000 28.2281 0.0000
# 4 0.0000 0.0000 0.0000 21.1749 0.0000 2.7133
# 5 15.8172 20.2490 28.2281 0.0000 38.5434 0.0000
# 6 0.0000 0.0000 0.0000 2.7133 0.0000 38.2120
#
#
#
# Elastic Compliance Matrix: (Units=1/GPa)
#
#
# Indices 1 2 3 4 5 6 
#
# 1 0.011154 -0.001898 -0.001922 0.000000 -0.002173 0.000000
# 2 -0.001898 0.009671 -0.002375 0.000000 -0.002563 0.000000
# 3 -0.001922 -0.002375 0.012128 0.000000 -0.006846 0.000000
# 4 0.000000 0.000000 0.000000 0.047659 0.000000 -0.003384
# 5 -0.002173 -0.002563 -0.006846 0.000000 0.033197 0.000000
# 6 0.000000 0.000000 0.000000 -0.003384 0.000000 0.026410
#
#
# Mechanical properties :
#
#
# Convention : Reuss Voigt Hill
#
# Bulk Modulus (GPa) = 48.62783 61.16542 54.89663
# Shear Modulus (GPa) = 31.35523 35.27017 33.31270
#
# Velocity S-wave (km/s) = 3.74100 3.96767 3.85600
# Velocity P-wave (km/s) = 6.35331 6.94913 6.65789
#
# Compressibility (1/GPa) = 0.02056435
#
# Stress axis : x y z
#
# Youngs Moduli (GPa) = 89.65696 103.40055 82.45061
#
# Poissons Ratio (x) = 0.19626 0.15845
# Poissons Ratio (y) = 0.17017 0.19579
# Poissons Ratio (z) = 0.17230 0.24554
#
# Static dielectric constant tensor:
#      x y z
#    x 3.656770 0.000000 -0.936720 
#    y 0.000000 4.313020 0.000000 
#    z -0.936720 0.000000 0.656460 
# 
# 
# High freq. dielectric constant tensor:
#      x y z
#    x 1.881490 0.000000 0.011700 
#    y 0.000000 1.901280 0.000000 
#    z 0.011700 0.000000 1.886020 
# 
# From -- ./inp_files/242859.got.cif
#   From: 2010.06.25/outbox.cif.g09.slc.cpg/sg15_122_cif.got.tgz:242859.got - 2010.06.28 07:06:18.
