data_PCOD8147356
_publ_section_title
;
Structure prediction by ZEFSAII (Michael W. Deem and Ramdas Pophale) SiO2 
 PCOD8147356
Probable space group: C 2/C
;
_chemical_formula_sum "Si O2"
_cell_formula_units_Z 24
_cell_length_a 6.663332
_cell_length_b 20.776602
_cell_length_c 7.618736
_cell_angle_alpha 90.000000
_cell_angle_beta 115.931668
_cell_angle_gamma 90.000000
_cell_volume 948.552390
_symmetry_space_group_name_H-M "C 2/C"
_symmetry_group_IT_number 15
_symmetry_cell_setting 'monoclinic'
loop_
_space_group_symop_operation_xyz
x,y,z
-x,y,1/2-z
-x,-y,-z
x,-y,1/2+z
1/2+x,1/2+y,z
1/2-x,1/2+y,1/2-z
1/2-x,1/2-y,-z
1/2+x,1/2-y,1/2+z
loop_
_atom_site_type_symbol
_atom_site_label
_atom_site_fract_x
_atom_site_fract_y
_atom_site_fract_z
Si Si1 0.016778 0.189298 0.059840
Si Si2 0.206938 0.939298 0.940160
Si Si3 0.500000 0.213968 0.250000
Si Si4 0.000000 0.463968 0.750000
O O1 0.867844 0.125000 0.985688
O O2 0.000000 0.217330 0.250000
O O3 0.279447 0.172108 0.121345
O O4 0.931927 0.241529 0.889687
O O5 0.408102 0.922109 0.878655
O O6 0.000000 0.967330 0.750000
O O7 0.292241 0.991528 0.110314
#
# Coordination Sequence:
#
# PCOD8147356 Si02
#       4
#     8   8   4   4
#     4  10  22  43  68  99 131 177 224 272 338 397
#     4  10  22  43  68  99 131 177 224 272 338 397
#     4  10  22  45  68  94 140 174 219 280 330 398
#     4  10  22  45  68  94 140 174 219 280 330 398
#
# _framework density 25.301711000000001
#
# number of rings (size 3 to 8) (size 9 to 14) (size 15 to 20)
#    0.000    2.000    0.000    2.000    0.000    5.333 
#   54.000    0.000    0.000    0.000    0.000    0.000 
#    0.000    0.000    0.000    0.000    0.000    0.000 
#
# Total GULP energy -148720.779214 kJ/mol
# GULP energy per Si atom -12393.398268 kJ/mol
# Density = 2.524412 g / cm^3
# Si number density = 25.301711 Si / 1000 Ang^3
#
#
#
# Elastic Constant Matrix: (Units=GPa)
#
#
# Indices 1 2 3 4 5 6 
#
# 1 155.9856 56.4385 2.9140 0.0000 0.2035 0.0000
# 2 56.4385 110.4472 24.0216 0.0000 0.1732 0.0000
# 3 2.9140 24.0216 83.8248 0.0000 0.1821 0.0000
# 4 0.0000 0.0000 0.0000 36.4073 0.0000 0.2669
# 5 0.2035 0.1732 0.1821 0.0000 57.4927 0.0000
# 6 0.0000 0.0000 0.0000 0.2669 0.0000 86.3518
#
#
#
# Elastic Compliance Matrix: (Units=1/GPa)
#
#
# Indices 1 2 3 4 5 6 
#
# 1 0.007935 -0.004260 0.000945 0.000000 -0.000018 0.000000
# 2 -0.004260 0.011943 -0.003274 0.000000 -0.000011 0.000000
# 3 0.000945 -0.003274 0.012835 0.000000 -0.000034 0.000000
# 4 0.000000 0.000000 0.000000 0.027468 0.000000 -0.000085
# 5 -0.000018 -0.000011 -0.000034 0.000000 0.017394 0.000000
# 6 0.000000 0.000000 0.000000 -0.000085 0.000000 0.011581
#
#
# Mechanical properties :
#
#
# Convention : Reuss Voigt Hill
#
# Bulk Modulus (GPa) = 51.19277 57.44508 54.31892
# Shear Modulus (GPa) = 45.93667 53.84260 49.88964
#
# Velocity S-wave (km/s) = 4.26556 4.61805 4.44530
# Velocity P-wave (km/s) = 6.67359 7.15462 6.91829
#
# Compressibility (1/GPa) = 0.01953401
#
# Stress axis : x y z
#
# Youngs Moduli (GPa) = 126.03036 83.72975 77.91067
#
# Poissons Ratio (x) = 0.35670 -0.07363
# Poissons Ratio (y) = 0.53690 0.25511
# Poissons Ratio (z) = -0.11910 0.27417
#
# Static dielectric constant tensor:
#      x y z
#    x 4.987550 0.000000 0.002820 
#    y 0.000000 3.971750 0.000000 
#    z 0.002820 0.000000 4.459470 
# 
# 
# High freq. dielectric constant tensor:
#      x y z
#    x 2.046960 0.000000 0.000250 
#    y 0.000000 1.979800 0.000000 
#    z 0.000250 0.000000 1.999550 
# 
# From -- ./inp_files/19488.got.cif
#   From: 2010.06.25/outbox.cif.g09.slc.cpg/sg15_10_cif.got.tgz:19488.got - 2010.06.28 07:06:18.
