data_PCOD8147521
_publ_section_title
;
Structure prediction by ZEFSAII (Michael W. Deem and Ramdas Pophale) SiO2 
 PCOD8147521
Probable space group: C 2/C
;
_chemical_formula_sum "Si O2"
_cell_formula_units_Z 56
_cell_length_a 26.531757
_cell_length_b 11.502955
_cell_length_c 9.215292
_cell_angle_alpha 90.000000
_cell_angle_beta 65.070854
_cell_angle_gamma 90.000000
_cell_volume 2550.411613
_symmetry_space_group_name_H-M "C 2/C"
_symmetry_group_IT_number 15
_symmetry_cell_setting 'monoclinic'
loop_
_space_group_symop_operation_xyz
x,y,z
-x,y,1/2-z
-x,-y,-z
x,-y,1/2+z
1/2+x,1/2+y,z
1/2-x,1/2+y,1/2-z
1/2-x,1/2-y,-z
1/2+x,1/2-y,1/2+z
loop_
_atom_site_type_symbol
_atom_site_label
_atom_site_fract_x
_atom_site_fract_y
_atom_site_fract_z
Si Si1 0.213422 0.011980 0.497965
Si Si2 0.435679 0.405146 0.181999
Si Si3 0.741184 0.305830 0.762951
Si Si4 0.176554 0.530078 0.516082
Si Si5 0.559804 0.638870 0.495879
Si Si6 0.858903 0.654603 0.679739
Si Si7 0.673366 0.632348 0.803789
O O1 0.198273 0.121766 0.414761
O O2 0.183849 0.018116 0.690201
O O3 0.280639 0.029517 0.422439
O O4 0.189516 0.895676 0.450686
O O5 0.432724 0.538571 0.132759
O O6 0.418920 0.405802 0.372589
O O7 0.390695 0.331408 0.142100
O O8 0.493560 0.339418 0.086336
O O9 0.779348 0.382637 0.611677
O O10 0.699971 0.219373 0.727455
O O11 0.785191 0.231180 0.804293
O O12 0.130653 0.593282 0.675080
O O13 0.146002 0.441228 0.444276
O O14 0.589923 0.758501 0.414202
#
# Coordination Sequence:
#
# PCOD8147521 Si02
#       7
#     8   8   8   8   8   8   8
#     4  12  22  38  53  95 130 168 206 260 321 407
#     4  10  22  44  65 101 124 162 219 282 331 401
#     4  12  22  36  62  89 129 172 213 262 328 390
#     4  12  24  41  58  94 140 174 225 261 317 411
#     4  10  24  43  71  93 131 167 218 283 341 378
#     4  12  25  42  65  94 137 184 216 274 328 390
#     4  12  23  34  63  88 128 164 210 259 332 385
#
# _framework density 21.957241
#
# number of rings (size 3 to 8) (size 9 to 14) (size 15 to 20)
#    0.000    0.571    5.714    3.429    2.000    1.143 
#    0.000    0.000    0.000    7.714    0.000    0.000 
#    0.000    0.000    0.000    0.000    0.000    0.000 
#
# Total GULP energy -346920.133070 kJ/mol
# GULP energy per Si atom -12390.004753 kJ/mol
# Density = 2.190727 g / cm^3
# Si number density = 21.957241 Si / 1000 Ang^3
#
#
#
# Elastic Constant Matrix: (Units=GPa)
#
#
# Indices 1 2 3 4 5 6 
#
# 1 108.3983 48.5996 33.9128 0.0000 -9.1057 0.0000
# 2 48.5996 98.8492 55.9727 0.0000 -5.0328 0.0000
# 3 33.9128 55.9727 113.2166 0.0000 -1.7196 0.0000
# 4 0.0000 0.0000 0.0000 33.1702 0.0000 -7.6998
# 5 -9.1057 -5.0328 -1.7196 0.0000 24.3593 0.0000
# 6 0.0000 0.0000 0.0000 -7.6998 0.0000 35.9236
#
#
#
# Elastic Compliance Matrix: (Units=1/GPa)
#
#
# Indices 1 2 3 4 5 6 
#
# 1 0.012176 -0.005246 -0.001002 0.000000 0.003397 0.000000
# 2 -0.005246 0.016453 -0.006548 0.000000 0.000976 0.000000
# 3 -0.001002 -0.006548 0.012357 0.000000 -0.000855 0.000000
# 4 0.000000 0.000000 0.000000 0.031726 0.000000 0.006800
# 5 0.003397 0.000976 -0.000855 0.000000 0.042463 0.000000
# 6 0.000000 0.000000 0.000000 0.006800 0.000000 0.029294
#
#
# Mechanical properties :
#
#
# Convention : Reuss Voigt Hill
#
# Bulk Modulus (GPa) = 64.96005 66.38159 65.67082
# Shear Modulus (GPa) = 28.53992 30.82257 29.68125
#
# Velocity S-wave (km/s) = 3.60918 3.75074 3.68064
# Velocity P-wave (km/s) = 6.85691 7.00394 6.93082
#
# Compressibility (1/GPa) = 0.01539408
#
# Stress axis : x y z
#
# Youngs Moduli (GPa) = 82.12795 60.77877 80.92571
#
# Poissons Ratio (x) = 0.31885 0.08109
# Poissons Ratio (y) = 0.43085 0.52990
# Poissons Ratio (z) = 0.08230 0.39798
#
# Static dielectric constant tensor:
#      x y z
#    x 4.143110 0.000000 0.166190 
#    y 0.000000 4.091890 0.000000 
#    z 0.166190 0.000000 3.998190 
# 
# 
# High freq. dielectric constant tensor:
#      x y z
#    x 1.847650 0.000000 0.012690 
#    y 0.000000 1.849690 0.000000 
#    z 0.012690 0.000000 1.874490 
# 
# From -- ./inp_files/69041.got.cif
#   From: 2010.06.25/outbox.cif.g09.slc.cpg/sg15_35_cif.got.tgz:69041.got - 2010.06.28 07:06:18.
