data_PCOD8147537
_publ_section_title
;
Structure prediction by ZEFSAII (Michael W. Deem and Ramdas Pophale) SiO2 
 PCOD8147537
Probable space group: C 2/C
;
_chemical_formula_sum "Si O2"
_cell_formula_units_Z 60
_cell_length_a 7.356002
_cell_length_b 23.539781
_cell_length_c 15.901293
_cell_angle_alpha 90.000000
_cell_angle_beta 92.693073
_cell_angle_gamma 90.000000
_cell_volume 2750.405835
_symmetry_space_group_name_H-M "C 2/C"
_symmetry_group_IT_number 15
_symmetry_cell_setting 'monoclinic'
loop_
_space_group_symop_operation_xyz
x,y,z
-x,y,1/2-z
-x,-y,-z
x,-y,1/2+z
1/2+x,1/2+y,z
1/2-x,1/2+y,1/2-z
1/2-x,1/2-y,-z
1/2+x,1/2-y,1/2+z
loop_
_atom_site_type_symbol
_atom_site_label
_atom_site_fract_x
_atom_site_fract_y
_atom_site_fract_z
Si Si1 0.513021 0.225994 0.655072
Si Si2 0.216680 0.704644 0.070868
Si Si3 0.500000 0.520509 0.250000
Si Si4 0.747509 0.059843 0.483061
Si Si5 0.883428 0.720689 0.175986
Si Si6 0.686932 0.904247 0.791420
Si Si7 0.598561 0.882097 0.450713
Si Si8 0.089870 0.048722 0.586315
O O1 0.500000 0.204647 0.750000
O O2 0.374516 0.280022 0.641753
O O3 0.716475 0.244147 0.637193
O O4 0.483074 0.173574 0.593176
O O5 0.012180 0.709893 0.100126
O O6 0.250000 0.750000 0.000000
O O7 0.215829 0.639845 0.035059
O O8 0.669359 0.562816 0.263110
O O9 0.483419 0.481206 0.331559
O O10 0.724849 0.085593 0.390415
O O11 0.561351 0.072788 0.529924
O O12 0.923099 0.083376 0.538740
O O13 0.803993 0.993450 0.476685
O O14 0.809616 0.663491 0.220988
O O15 0.000000 0.754311 0.250000
O O16 0.500000 0.929193 0.750000
O O17 0.745708 0.908078 0.388755
#
# Coordination Sequence:
#
# PCOD8147537 Si02
#       8
#     8   8   4   8   8   8   8   8
#     4  11  25  42  65  97 136 174 221 266 320 392
#     4  10  23  41  62  95 131 170 217 270 318 384
#     4  10  24  44  64 100 130 172 214 274 336 394
#     4  10  22  44  65  97 125 168 217 273 328 389
#     4  11  22  41  66  97 132 173 217 271 327 386
#     4  10  23  39  68  98 128 166 216 272 332 389
#     4  11  24  41  66  95 129 177 215 264 327 392
#     4  10  24  43  67  96 132 169 217 276 329 391
#
# _framework density 21.814961
#
# number of rings (size 3 to 8) (size 9 to 14) (size 15 to 20)
#    0.000    1.600    2.667    0.400    2.800   10.667 
#    0.000    0.667    0.000    0.000    0.000    0.000 
#    0.000    0.000    0.000    0.000    0.000    0.000 
#
# Total GULP energy -371697.355855 kJ/mol
# GULP energy per Si atom -12389.911862 kJ/mol
# Density = 2.176531 g / cm^3
# Si number density = 21.814961 Si / 1000 Ang^3
#
#
#
# Elastic Constant Matrix: (Units=GPa)
#
#
# Indices 1 2 3 4 5 6 
#
# 1 183.4512 66.9694 61.2847 0.0000 -0.4554 0.0000
# 2 66.9694 69.7537 33.3130 0.0000 -0.6805 0.0000
# 3 61.2847 33.3130 93.9210 0.0000 -3.4510 0.0000
# 4 0.0000 0.0000 0.0000 25.3679 0.0000 -3.5054
# 5 -0.4554 -0.6805 -3.4510 0.0000 41.5955 0.0000
# 6 0.0000 0.0000 0.0000 -3.5054 0.0000 39.8242
#
#
#
# Elastic Compliance Matrix: (Units=1/GPa)
#
#
# Indices 1 2 3 4 5 6 
#
# 1 0.009250 -0.007219 -0.003487 0.000000 -0.000306 0.000000
# 2 -0.007219 0.022896 -0.003410 0.000000 0.000013 0.000000
# 3 -0.003487 -0.003410 0.014172 0.000000 0.001082 0.000000
# 4 0.000000 0.000000 0.000000 0.039905 0.000000 0.003513
# 5 -0.000306 0.000013 0.001082 0.000000 0.024128 0.000000
# 6 0.000000 0.000000 0.000000 0.003513 0.000000 0.025420
#
#
# Mechanical properties :
#
#
# Convention : Reuss Voigt Hill
#
# Bulk Modulus (GPa) = 55.29040 74.47333 64.88187
# Shear Modulus (GPa) = 29.40657 33.72811 31.56734
#
# Velocity S-wave (km/s) = 3.67550 3.93631 3.80814
# Velocity P-wave (km/s) = 6.58882 7.40758 7.01016
#
# Compressibility (1/GPa) = 0.01808632
#
# Stress axis : x y z
#
# Youngs Moduli (GPa) = 108.10378 43.67658 70.56350
#
# Poissons Ratio (x) = 0.31530 0.24604
# Poissons Ratio (y) = 0.78039 0.24062
# Poissons Ratio (z) = 0.37693 0.14894
#
# Static dielectric constant tensor:
#      x y z
#    x 4.554590 0.000000 0.322450 
#    y 0.000000 3.933560 0.000000 
#    z 0.322450 0.000000 4.004950 
# 
# 
# High freq. dielectric constant tensor:
#      x y z
#    x 1.877050 0.000000 0.003440 
#    y 0.000000 1.837080 0.000000 
#    z 0.003440 0.000000 1.857480 
# 
# From -- ./inp_files/186189.got.cif
#   From: 2010.06.25/outbox.cif.g09.slc.cpg/sg15_94_cif.got.tgz:186189.got - 2010.06.28 07:06:18.
