data_PCOD8147221
_publ_section_title
;
Structure prediction by ZEFSAII (Michael W. Deem and Ramdas Pophale) SiO2 
 PCOD8147221
Probable space group: C 2/C
;
_chemical_formula_sum "Si O2"
_cell_formula_units_Z 56
_cell_length_a 16.137413
_cell_length_b 7.220483
_cell_length_c 24.626967
_cell_angle_alpha 90.000000
_cell_angle_beta 113.175516
_cell_angle_gamma 90.000000
_cell_volume 2637.971211
_symmetry_space_group_name_H-M "C 2/C"
_symmetry_group_IT_number 15
_symmetry_cell_setting 'monoclinic'
loop_
_space_group_symop_operation_xyz
x,y,z
-x,y,1/2-z
-x,-y,-z
x,-y,1/2+z
1/2+x,1/2+y,z
1/2-x,1/2+y,1/2-z
1/2-x,1/2-y,-z
1/2+x,1/2-y,1/2+z
loop_
_atom_site_type_symbol
_atom_site_label
_atom_site_fract_x
_atom_site_fract_y
_atom_site_fract_z
Si Si1 0.272373 0.249554 0.315768
Si Si2 0.079318 0.203606 0.309533
Si Si3 0.882523 0.561391 0.893765
Si Si4 0.785103 0.421749 0.475225
Si Si5 0.919837 0.478023 0.091981
Si Si6 0.623940 0.649955 0.868852
Si Si7 0.251466 0.175227 0.189312
O O1 0.171462 0.175522 0.300188
O O2 0.296218 0.200469 0.259750
O O3 0.279230 0.466150 0.329729
O O4 0.343980 0.145507 0.373019
O O5 0.093306 0.360307 0.357755
O O6 0.000000 0.271948 0.250000
O O7 0.053316 0.000581 0.327290
O O8 0.859436 0.629988 0.948665
O O9 0.837431 0.697828 0.837960
O O10 0.989296 0.574828 0.915446
O O11 0.750000 0.250000 0.500000
O O12 0.833873 0.562223 0.529924
O O13 0.694787 0.485205 0.420032
O O14 0.925604 0.698483 0.106653
O O15 0.674894 0.765393 0.835698
#
# Coordination Sequence:
#
# PCOD8147221 Si02
#       7
#     8   8   8   8   8   8   8
#     4  12  22  40  64  91 129 174 212 258 330 386
#     4  12  25  40  63  98 128 168 219 264 321 397
#     4  11  23  41  65  98 130 167 216 270 324 379
#     4   9  20  43  70  91 126 174 219 266 321 385
#     4  11  24  40  67  97 130 166 216 273 328 372
#     4  10  22  43  64  94 130 172 216 264 323 385
#     4  11  21  39  64  89 129 175 211 259 316 398
#
# _framework density 21.228434
#
# number of rings (size 3 to 8) (size 9 to 14) (size 15 to 20)
#    0.000    1.143    5.714    1.286    0.000    4.571 
#    0.000    0.000    0.000    6.857    0.000    0.000 
#    0.000    0.000    0.000    0.000    0.000    0.000 
#
# Total GULP energy -347101.228989 kJ/mol
# GULP energy per Si atom -12396.472464 kJ/mol
# Density = 2.118012 g / cm^3
# Si number density = 21.228434 Si / 1000 Ang^3
#
#
#
# Elastic Constant Matrix: (Units=GPa)
#
#
# Indices 1 2 3 4 5 6 
#
# 1 77.1309 5.5545 34.5067 0.0000 -0.6471 0.0000
# 2 5.5545 111.0303 26.2896 0.0000 -1.5933 0.0000
# 3 34.5067 26.2896 109.9040 0.0000 -15.9911 0.0000
# 4 0.0000 0.0000 0.0000 30.1600 0.0000 2.0604
# 5 -0.6471 -1.5933 -15.9911 0.0000 20.6330 0.0000
# 6 0.0000 0.0000 0.0000 2.0604 0.0000 19.6602
#
#
#
# Elastic Compliance Matrix: (Units=1/GPa)
#
#
# Indices 1 2 3 4 5 6 
#
# 1 0.015349 0.000475 -0.005475 0.000000 -0.003725 0.000000
# 2 0.000475 0.009587 -0.002629 0.000000 -0.001282 0.000000
# 3 -0.005475 -0.002629 0.012840 0.000000 0.009577 0.000000
# 4 0.000000 0.000000 0.000000 0.033396 0.000000 -0.003500
# 5 -0.003725 -0.001282 0.009577 0.000000 0.055672 0.000000
# 6 0.000000 0.000000 0.000000 -0.003500 0.000000 0.051231
#
#
# Mechanical properties :
#
#
# Convention : Reuss Voigt Hill
#
# Bulk Modulus (GPa) = 44.40815 47.86297 46.13556
# Shear Modulus (GPa) = 24.89569 29.53827 27.21698
#
# Velocity S-wave (km/s) = 3.42826 3.73426 3.58453
# Velocity P-wave (km/s) = 6.05270 6.41783 6.23794
#
# Compressibility (1/GPa) = 0.02251839
#
# Stress axis : x y z
#
# Youngs Moduli (GPa) = 65.15178 104.30944 77.88160
#
# Poissons Ratio (x) = -0.04954 0.42638
# Poissons Ratio (y) = -0.03095 0.20475
# Poissons Ratio (z) = 0.35668 0.27422
#
# Static dielectric constant tensor:
#      x y z
#    x 3.699910 0.000000 -0.071110 
#    y 0.000000 3.781630 0.000000 
#    z -0.071110 0.000000 4.313190 
# 
# 
# High freq. dielectric constant tensor:
#      x y z
#    x 1.822050 0.000000 -0.011490 
#    y 0.000000 1.824970 0.000000 
#    z -0.011490 0.000000 1.841310 
# 
# From -- ./inp_files/297998.got.cif
#   From: 2010.06.25/outbox.cif.g09.slc.cpg/sg15_149_cif.got.tgz:297998.got - 2010.06.28 07:06:18.
