data_PCOD8147145
_publ_section_title
;
Structure prediction by ZEFSAII (Michael W. Deem and Ramdas Pophale) SiO2 
 PCOD8147145
Probable space group: C 2/C
;
_chemical_formula_sum "Si O2"
_cell_formula_units_Z 36
_cell_length_a 29.470446
_cell_length_b 7.394010
_cell_length_c 14.890162
_cell_angle_alpha 90.000000
_cell_angle_beta 148.374745
_cell_angle_gamma 90.000000
_cell_volume 1701.362206
_symmetry_space_group_name_H-M "C 2/C"
_symmetry_group_IT_number 15
_symmetry_cell_setting 'monoclinic'
loop_
_space_group_symop_operation_xyz
x,y,z
-x,y,1/2-z
-x,-y,-z
x,-y,1/2+z
1/2+x,1/2+y,z
1/2-x,1/2+y,1/2-z
1/2-x,1/2-y,-z
1/2+x,1/2-y,1/2+z
loop_
_atom_site_type_symbol
_atom_site_label
_atom_site_fract_x
_atom_site_fract_y
_atom_site_fract_z
Si Si1 0.329145 0.620326 0.613355
Si Si2 0.171525 0.141098 0.548206
Si Si3 0.002398 0.291770 0.853844
Si Si4 0.000000 0.638946 0.750000
Si Si5 0.832861 0.102506 0.294203
O O1 0.250000 0.750000 0.500000
O O2 0.313493 0.530458 0.490427
O O3 0.415716 0.740603 0.760711
O O4 0.336868 0.461139 0.698612
O O5 0.247098 0.284378 0.665500
O O6 0.082206 0.236444 0.372760
O O7 0.168901 0.073804 0.646055
O O8 0.009990 0.509675 0.854836
O O9 0.000000 0.199763 0.750000
O O10 0.083983 0.225327 0.047421
#
# Coordination Sequence:
#
# PCOD8147145 Si02
#       5
#     8   8   8   4   8
#     4  12  25  44  67 100 134 172 223 275 324 398
#     4  12  23  44  65 101 134 172 219 273 331 394
#     4  10  22  45  65  94 132 173 220 270 329 384
#     4  10  22  42  72  90 134 178 210 276 330 384
#     4  12  24  40  70  97 133 180 220 269 336 388
#
# _framework density 21.159516
#
# number of rings (size 3 to 8) (size 9 to 14) (size 15 to 20)
#    0.667    0.000    2.222    6.667    0.000    0.000 
#    0.000    3.333    0.000    0.000    0.000    0.000 
#    0.000    0.000    0.000    0.000    0.000    0.000 
#
# Total GULP energy -223295.899305 kJ/mol
# GULP energy per Si atom -12405.327739 kJ/mol
# Density = 2.111136 g / cm^3
# Si number density = 21.159516 Si / 1000 Ang^3
#
#
#
# Elastic Constant Matrix: (Units=GPa)
#
#
# Indices 1 2 3 4 5 6 
#
# 1 69.5194 25.6196 36.5625 0.0000 21.2622 0.0000
# 2 25.6196 96.3302 43.8654 0.0000 21.1935 0.0000
# 3 36.5625 43.8654 143.0812 0.0000 38.1794 0.0000
# 4 0.0000 0.0000 0.0000 44.2755 0.0000 17.2474
# 5 21.2622 21.1935 38.1794 0.0000 47.5501 0.0000
# 6 0.0000 0.0000 0.0000 17.2474 0.0000 29.6612
#
#
#
# Elastic Compliance Matrix: (Units=1/GPa)
#
#
# Indices 1 2 3 4 5 6 
#
# 1 0.018184 -0.002596 -0.002532 0.000000 -0.004941 0.000000
# 2 -0.002596 0.012797 -0.002606 0.000000 -0.002451 0.000000
# 3 -0.002532 -0.002606 0.009956 0.000000 -0.005700 0.000000
# 4 0.000000 0.000000 0.000000 0.029200 0.000000 -0.016979
# 5 -0.004941 -0.002451 -0.005700 0.000000 0.028909 0.000000
# 6 0.000000 0.000000 0.000000 -0.016979 0.000000 0.043587
#
#
# Mechanical properties :
#
#
# Convention : Reuss Voigt Hill
#
# Bulk Modulus (GPa) = 39.26428 57.89175 48.57801
# Shear Modulus (GPa) = 30.01346 37.82293 33.91819
#
# Velocity S-wave (km/s) = 3.77030 4.23249 4.00806
# Velocity P-wave (km/s) = 6.12782 7.16270 6.66538
#
# Compressibility (1/GPa) = 0.02546844
#
# Stress axis : x y z
#
# Youngs Moduli (GPa) = 54.99297 78.14191 100.44042
#
# Poissons Ratio (x) = 0.20286 0.25436
# Poissons Ratio (y) = 0.14276 0.26175
# Poissons Ratio (z) = 0.13927 0.20364
#
# Static dielectric constant tensor:
#      x y z
#    x 3.748960 0.000000 -0.185540 
#    y 0.000000 3.794640 0.000000 
#    z -0.185540 0.000000 3.343400 
# 
# 
# High freq. dielectric constant tensor:
#      x y z
#    x 1.831250 0.000000 0.012650 
#    y 0.000000 1.836340 0.000000 
#    z 0.012650 0.000000 1.840960 
# 
# From -- ./inp_files/177057.got.cif
#   From: 2010.06.25/outbox.cif.g09.slc.cpg/sg15_89_cif.got.tgz:177057.got - 2010.06.28 07:06:18.
