data_PCOD8147591
_publ_section_title
;
Structure prediction by ZEFSAII (Michael W. Deem and Ramdas Pophale) SiO2 
 PCOD8147591
Probable space group: C 2/C
;
_chemical_formula_sum "Si O2"
_cell_formula_units_Z 48
_cell_length_a 5.078976
_cell_length_b 23.937460
_cell_length_c 21.513674
_cell_angle_alpha 90.000000
_cell_angle_beta 54.793371
_cell_angle_gamma 90.000000
_cell_volume 2137.137346
_symmetry_space_group_name_H-M "C 2/C"
_symmetry_group_IT_number 15
_symmetry_cell_setting 'monoclinic'
loop_
_space_group_symop_operation_xyz
x,y,z
-x,y,1/2-z
-x,-y,-z
x,-y,1/2+z
1/2+x,1/2+y,z
1/2-x,1/2+y,1/2-z
1/2-x,1/2-y,-z
1/2+x,1/2-y,1/2+z
loop_
_atom_site_type_symbol
_atom_site_label
_atom_site_fract_x
_atom_site_fract_y
_atom_site_fract_z
Si Si1 0.257442 0.773568 0.408018
Si Si2 0.000000 0.657563 0.250000
Si Si3 0.575649 0.177565 0.980497
Si Si4 0.617332 0.056654 0.514945
Si Si5 0.722712 0.010291 0.829455
Si Si6 0.500000 0.731304 0.250000
Si Si7 0.333845 0.559608 0.141504
O O1 0.517228 0.803096 0.417419
O O2 0.407769 0.771465 0.319363
O O3 0.937054 0.810484 0.452526
O O4 0.178872 0.710582 0.441489
O O5 0.807515 0.694321 0.226525
O O6 0.746613 0.621375 0.324081
O O7 0.535325 0.111487 0.995540
O O8 0.502231 0.054645 0.602857
O O9 0.005124 0.061096 0.450124
O O10 0.500000 0.000000 0.500000
O O11 0.000000 0.040715 0.750000
O O12 0.494028 0.975810 0.814165
O O13 0.896379 0.966431 0.850736
#
# Coordination Sequence:
#
# PCOD8147591 Si02
#       7
#     8   4   8   8   8   4   8
#     4  10  23  43  67  92 131 169 220 275 327 391
#     4  12  22  36  66  93 132 167 220 294 338 370
#     4  10  22  44  67  93 129 174 218 271 328 382
#     4  10  24  41  68  99 131 177 224 265 323 405
#     4  11  21  40  58  87 135 173 212 262 319 394
#     4  12  24  40  64 103 124 167 224 284 338 392
#     4  11  22  39  60  91 130 171 217 267 325 386
#
# _framework density 22.459952999999999
#
# number of rings (size 3 to 8) (size 9 to 14) (size 15 to 20)
#    0.000    1.333    1.667    3.500    0.000    9.333 
#    3.000    0.000    0.000    0.000    0.000    0.000 
#    0.000    0.000    0.000    0.000    0.000    0.000 
#
# Total GULP energy -297572.889123 kJ/mol
# GULP energy per Si atom -12398.870380 kJ/mol
# Density = 2.240883 g / cm^3
# Si number density = 22.459953 Si / 1000 Ang^3
#
#
#
# Elastic Constant Matrix: (Units=GPa)
#
#
# Indices 1 2 3 4 5 6 
#
# 1 93.8869 13.1608 1.9855 0.0000 2.6757 0.0000
# 2 13.1608 105.9244 19.2304 0.0000 -0.9851 0.0000
# 3 1.9855 19.2304 155.3608 0.0000 -4.9851 0.0000
# 4 0.0000 0.0000 0.0000 13.2916 0.0000 1.1608
# 5 2.6757 -0.9851 -4.9851 0.0000 30.7969 0.0000
# 6 0.0000 0.0000 0.0000 1.1608 0.0000 17.6133
#
#
#
# Elastic Compliance Matrix: (Units=1/GPa)
#
#
# Indices 1 2 3 4 5 6 
#
# 1 0.010870 -0.001359 -0.000002 0.000000 -0.000988 0.000000
# 2 -0.001359 0.009828 -0.001191 0.000000 0.000240 0.000000
# 3 -0.000002 -0.001191 0.006617 0.000000 0.001033 0.000000
# 4 0.000000 0.000000 0.000000 0.075671 0.000000 -0.004987
# 5 -0.000988 0.000240 0.001033 0.000000 0.032732 0.000000
# 6 0.000000 0.000000 0.000000 -0.004987 0.000000 0.057104
#
#
# Mechanical properties :
#
#
# Convention : Reuss Voigt Hill
#
# Bulk Modulus (GPa) = 45.02679 47.10285 46.06482
# Shear Modulus (GPa) = 24.35087 33.72670 29.03878
#
# Velocity S-wave (km/s) = 3.29628 3.87930 3.59961
# Velocity P-wave (km/s) = 5.88034 6.40958 6.15065
#
# Compressibility (1/GPa) = 0.02220900
#
# Stress axis : x y z
#
# Youngs Moduli (GPa) = 91.99745 101.74885 151.11924
#
# Poissons Ratio (x) = 0.13831 0.00036
# Poissons Ratio (y) = 0.12505 0.18005
# Poissons Ratio (z) = 0.00022 0.12123
#
# Static dielectric constant tensor:
#      x y z
#    x 3.938000 0.000000 -0.050210 
#    y 0.000000 3.792350 0.000000 
#    z -0.050210 0.000000 4.795010 
# 
# 
# High freq. dielectric constant tensor:
#      x y z
#    x 1.884480 0.000000 -0.006710 
#    y 0.000000 1.861110 0.000000 
#    z -0.006710 0.000000 1.902880 
# 
# From -- ./inp_files/227806.got.cif
#   From: 2010.06.25/outbox.cif.g09.slc.cpg/sg15_114_cif.got.tgz:227806.got - 2010.06.28 07:06:18.
