data_PCOD8147008
_publ_section_title
;
Structure prediction by ZEFSAII (Michael W. Deem and Ramdas Pophale) SiO2 
 PCOD8147008
Probable space group: C 2/C
;
_chemical_formula_sum "Si O2"
_cell_formula_units_Z 36
_cell_length_a 21.396834
_cell_length_b 8.261589
_cell_length_c 14.729413
_cell_angle_alpha 90.000000
_cell_angle_beta 36.905050
_cell_angle_gamma 90.000000
_cell_volume 1563.525012
_symmetry_space_group_name_H-M "C 2/C"
_symmetry_group_IT_number 15
_symmetry_cell_setting 'monoclinic'
loop_
_space_group_symop_operation_xyz
x,y,z
-x,y,1/2-z
-x,-y,-z
x,-y,1/2+z
1/2+x,1/2+y,z
1/2-x,1/2+y,1/2-z
1/2-x,1/2-y,-z
1/2+x,1/2-y,1/2+z
loop_
_atom_site_type_symbol
_atom_site_label
_atom_site_fract_x
_atom_site_fract_y
_atom_site_fract_z
Si Si1 0.257146 0.967227 0.826304
Si Si2 0.458501 0.857216 0.108070
Si Si3 0.109108 0.038566 0.654815
Si Si4 0.500000 0.227581 0.750000
Si Si5 0.120718 0.146799 0.845890
O O1 0.318627 0.815684 0.714236
O O2 0.333455 0.121914 0.755158
O O3 0.167149 0.016561 0.860984
O O4 0.205162 0.906049 0.980769
O O5 0.509148 0.882072 0.149665
O O6 0.500208 0.684860 0.017595
O O7 0.500000 0.000000 0.000000
O O8 0.130590 0.080688 0.733464
O O9 0.000000 0.122250 0.750000
O O10 0.100186 0.843470 0.651970
#
# Coordination Sequence:
#
# PCOD8147008 Si02
#       5
#     8   8   8   4   8
#     4  11  25  42  71 101 134 185 229 286 347 409
#     4  10  24  45  66 100 140 178 230 287 342 411
#     4  10  24  42  69  98 140 180 229 286 343 414
#     4  10  22  42  68  96 130 180 220 282 342 402
#     4  11  24  45  68 102 138 180 233 285 347 410
#
# _framework density 23.024895999999998
#
# number of rings (size 3 to 8) (size 9 to 14) (size 15 to 20)
#    0.667    0.889    2.222    0.667    6.222    6.222 
#    8.000    0.000    0.000    0.000    0.000    0.000 
#    0.000    0.000    0.000    0.000    0.000    0.000 
#
# Total GULP energy -223089.142755 kJ/mol
# GULP energy per Si atom -12393.841264 kJ/mol
# Density = 2.297249 g / cm^3
# Si number density = 23.024896 Si / 1000 Ang^3
#
#
#
# Elastic Constant Matrix: (Units=GPa)
#
#
# Indices 1 2 3 4 5 6 
#
# 1 148.5839 38.8492 50.8975 0.0007 30.6277 -0.0006
# 2 38.8492 37.6362 4.6697 0.0005 3.3854 -0.0010
# 3 50.8975 4.6697 128.0231 0.0011 9.6181 -0.0009
# 4 0.0007 0.0005 0.0011 25.6863 0.0001 3.2659
# 5 30.6277 3.3854 9.6181 0.0001 49.2606 0.0000
# 6 -0.0006 -0.0010 -0.0009 3.2659 0.0000 39.8851
#
#
#
# Elastic Compliance Matrix: (Units=1/GPa)
#
#
# Indices 1 2 3 4 5 6 
#
# 1 0.012486 -0.011830 -0.004070 0.000000 -0.006156 0.000000
# 2 -0.011830 0.038035 0.003004 -0.000001 0.004155 0.000001
# 3 -0.004070 0.003004 0.009281 0.000000 0.000512 0.000000
# 4 0.000000 -0.000001 0.000000 0.039341 0.000000 -0.003221
# 5 -0.006156 0.004155 0.000512 0.000000 0.023742 0.000000
# 6 0.000000 0.000001 0.000000 -0.003221 0.000000 0.025336
#
#
# Mechanical properties :
#
#
# Convention : Reuss Voigt Hill
#
# Bulk Modulus (GPa) = 29.40343 55.89731 42.65037
# Shear Modulus (GPa) = 26.97580 37.62152 32.29866
#
# Velocity S-wave (km/s) = 3.42657 4.04660 3.74942
# Velocity P-wave (km/s) = 5.33415 6.79433 6.10803
#
# Compressibility (1/GPa) = 0.03400963
#
# Stress axis : x y z
#
# Youngs Moduli (GPa) = 80.08654 26.29146 107.74429
#
# Poissons Ratio (x) = 0.31103 0.43854
# Poissons Ratio (y) = 0.94744 -0.32364
# Poissons Ratio (z) = 0.32597 -0.07897
#
# Static dielectric constant tensor:
#      x y z
#    x 4.196970 0.000000 -0.110700 
#    y 0.000000 4.064390 0.000000 
#    z -0.110700 0.000000 4.616500 
# 
# 
# High freq. dielectric constant tensor:
#      x y z
#    x 1.909400 0.000000 0.010130 
#    y 0.000000 1.888810 0.000000 
#    z 0.010130 0.000000 1.922170 
# 
# From -- ./inp_files/166610.got.cif
#   From: 2010.06.25/outbox.cif.g09.slc.cpg/sg15_84_cif.got.tgz:166610.got - 2010.06.28 07:06:18.
