data_PCOD8147165
_publ_section_title
;
Structure prediction by ZEFSAII (Michael W. Deem and Ramdas Pophale) SiO2 
 PCOD8147165
Probable space group: C 2/C
;
_chemical_formula_sum "Si O2"
_cell_formula_units_Z 36
_cell_length_a 24.572343
_cell_length_b 14.785608
_cell_length_c 15.274469
_cell_angle_alpha 90.000000
_cell_angle_beta 16.898790
_cell_angle_gamma 90.000000
_cell_volume 1613.132342
_symmetry_space_group_name_H-M "C 2/C"
_symmetry_group_IT_number 15
_symmetry_cell_setting 'monoclinic'
loop_
_space_group_symop_operation_xyz
x,y,z
-x,y,1/2-z
-x,-y,-z
x,-y,1/2+z
1/2+x,1/2+y,z
1/2-x,1/2+y,1/2-z
1/2-x,1/2-y,-z
1/2+x,1/2-y,1/2+z
loop_
_atom_site_type_symbol
_atom_site_label
_atom_site_fract_x
_atom_site_fract_y
_atom_site_fract_z
Si Si1 0.105812 0.185229 0.003136
Si Si2 0.908670 0.902133 0.647192
Si Si3 0.870228 0.835355 0.529005
Si Si4 0.352455 0.983233 0.151913
Si Si5 0.000000 0.537675 0.750000
O O1 0.206643 0.262849 0.792986
O O2 0.244234 0.110439 0.831214
O O3 0.000000 0.227255 0.250000
O O4 0.960161 0.141339 0.159934
O O5 0.981367 0.844523 0.450809
O O6 0.682668 0.901774 0.988771
O O7 0.000000 0.000000 0.500000
O O8 0.790273 0.933482 0.627620
O O9 0.000000 0.801414 0.250000
O O10 0.460883 0.973929 0.893061
O O11 0.500000 0.000000 0.000000
#
# Coordination Sequence:
#
# PCOD8147165 Si02
#       5
#     8   8   8   8   4
#     4  12  27  46  73 103 146 190 236 298 361 422
#     4  11  24  47  74 102 146 188 239 296 358 430
#     4  11  28  46  70 107 143 189 242 294 360 426
#     4  11  25  44  71 102 143 185 238 293 355 425
#     4  10  22  42  74 102 134 186 240 284 364 416
#
# _framework density 22.31683
#
# number of rings (size 3 to 8) (size 9 to 14) (size 15 to 20)
#    0.000    0.889    4.444    2.000   14.000    1.778 
#    0.000    0.000    0.000    0.000    0.000    0.000 
#    0.000    0.000    0.000    0.000    0.000    0.000 
#
# Total GULP energy -223194.177833 kJ/mol
# GULP energy per Si atom -12399.676546 kJ/mol
# Density = 2.226604 g / cm^3
# Si number density = 22.316830 Si / 1000 Ang^3
#
#
#
# Elastic Constant Matrix: (Units=GPa)
#
#
# Indices 1 2 3 4 5 6 
#
# 1 149.9435 -0.4226 58.0588 0.0039 11.0997 -0.0025
# 2 -0.4226 72.7774 32.7388 0.0060 9.8394 -0.0014
# 3 58.0588 32.7388 133.5535 0.0093 29.7265 -0.0023
# 4 0.0039 0.0060 0.0093 25.7078 -0.0025 5.3092
# 5 11.0997 9.8394 29.7265 -0.0025 52.4644 0.0011
# 6 -0.0025 -0.0014 -0.0023 5.3092 0.0011 26.4780
#
#
#
# Elastic Compliance Matrix: (Units=1/GPa)
#
#
# Indices 1 2 3 4 5 6 
#
# 1 0.008240 0.001856 -0.004087 0.000000 0.000224 0.000001
# 2 0.001856 0.015896 -0.004523 -0.000003 -0.000811 0.000001
# 3 -0.004087 -0.004523 0.011434 -0.000003 -0.004766 0.000001
# 4 0.000000 -0.000003 -0.000003 0.040579 0.000004 -0.008137
# 5 0.000224 -0.000811 -0.004766 0.000004 0.021865 -0.000002
# 6 0.000001 0.000001 0.000001 -0.008137 -0.000002 0.039399
#
#
# Mechanical properties :
#
#
# Convention : Reuss Voigt Hill
#
# Bulk Modulus (GPa) = 45.32716 59.66938 52.49827
# Shear Modulus (GPa) = 31.59056 38.65667 35.12362
#
# Velocity S-wave (km/s) = 3.76646 4.16646 3.97150
# Velocity P-wave (km/s) = 6.26656 7.06691 6.67874
#
# Compressibility (1/GPa) = 0.02206183
#
# Stress axis : x y z
#
# Youngs Moduli (GPa) = 121.35336 62.91041 87.45912
#
# Poissons Ratio (x) = -0.11677 0.35747
# Poissons Ratio (y) = -0.22525 0.39558
# Poissons Ratio (z) = 0.49600 0.28454
#
# Static dielectric constant tensor:
#      x y z
#    x 4.735330 0.000000 0.083900 
#    y 0.000000 4.048530 0.000010 
#    z 0.083900 0.000010 4.157000 
# 
# 
# High freq. dielectric constant tensor:
#      x y z
#    x 1.901790 0.000000 0.009440 
#    y 0.000000 1.873070 0.000000 
#    z 0.009440 0.000000 1.875790 
# 
# From -- ./inp_files/173577.got.cif
#   From: 2010.06.25/outbox.cif.g09.slc.cpg/sg15_87_cif.got.tgz:173577.got - 2010.06.28 07:06:18.
