data_PCOD8147926
_publ_section_title
;
Structure prediction by ZEFSAII (Michael W. Deem and Ramdas Pophale) SiO2 
 PCOD8147926
Probable space group: C 2/C
;
_chemical_formula_sum "Si O2"
_cell_formula_units_Z 52
_cell_length_a 11.683996
_cell_length_b 20.189856
_cell_length_c 20.271574
_cell_angle_alpha 90.000000
_cell_angle_beta 150.083826
_cell_angle_gamma 90.000000
_cell_volume 2384.952349
_symmetry_space_group_name_H-M "C 2/C"
_symmetry_group_IT_number 15
_symmetry_cell_setting 'monoclinic'
loop_
_space_group_symop_operation_xyz
x,y,z
-x,y,1/2-z
-x,-y,-z
x,-y,1/2+z
1/2+x,1/2+y,z
1/2-x,1/2+y,1/2-z
1/2-x,1/2-y,-z
1/2+x,1/2-y,1/2+z
loop_
_atom_site_type_symbol
_atom_site_label
_atom_site_fract_x
_atom_site_fract_y
_atom_site_fract_z
Si Si1 0.555277 0.469734 0.852780
Si Si2 0.536020 0.397274 0.146340
Si Si3 0.133414 0.320939 0.002762
Si Si4 0.500000 0.265736 0.750000
Si Si5 0.962124 0.809082 0.475102
Si Si6 0.482331 0.929918 0.452671
Si Si7 0.684555 0.650595 0.221312
O O1 0.500000 0.492770 0.750000
O O2 0.609407 0.534679 0.924487
O O3 0.344286 0.427311 0.776361
O O4 0.782340 0.424079 0.970885
O O5 0.581221 0.370634 0.095970
O O6 0.769867 0.421042 0.297697
O O7 0.394022 0.341072 0.115555
O O8 0.129738 0.245004 0.024655
O O9 0.954409 0.329887 0.852625
O O10 0.021715 0.367349 0.002019
O O11 0.281431 0.220272 0.625589
O O12 0.449374 0.308691 0.789349
O O13 0.085384 0.835928 0.600508
O O14 0.500000 0.000000 0.500000
#
# Coordination Sequence:
#
# PCOD8147926 Si02
#       7
#     8   8   8   4   8   8   8
#     4  12  21  42  70  98 128 175 238 286 337 401
#     4  12  26  42  67 105 143 177 230 291 356 416
#     4  11  23  44  68 100 142 184 233 284 345 421
#     4  10  22  46  70 100 134 180 244 292 342 416
#     4  11  27  42  67 105 144 188 225 287 363 424
#     4  12  22  41  71 104 131 181 241 291 330 401
#     4  11  23  44  72  95 135 181 236 288 349 413
#
# _framework density 21.803370999999999
#
# number of rings (size 3 to 8) (size 9 to 14) (size 15 to 20)
#    0.000    0.615    5.385    2.308    6.462    1.231 
#    2.769    0.000    3.385    0.000    0.000    0.000 
#    0.000    0.000    0.000    0.000    0.000    0.000 
#
# Total GULP energy -322333.093597 kJ/mol
# GULP energy per Si atom -12397.426677 kJ/mol
# Density = 2.175375 g / cm^3
# Si number density = 21.803371 Si / 1000 Ang^3
#
#
#
# Elastic Constant Matrix: (Units=GPa)
#
#
# Indices 1 2 3 4 5 6 
#
# 1 62.9932 39.1534 48.7661 -0.0004 -12.9842 0.0005
# 2 39.1534 109.2281 32.8172 0.0023 -28.3239 0.0002
# 3 48.7661 32.8172 114.1457 0.0119 -17.7340 -0.0018
# 4 -0.0004 0.0023 0.0119 25.4118 0.0063 -3.1764
# 5 -12.9842 -28.3239 -17.7340 0.0063 40.3081 0.0008
# 6 0.0005 0.0002 -0.0018 -3.1764 0.0008 24.0803
#
#
#
# Elastic Compliance Matrix: (Units=1/GPa)
#
#
# Indices 1 2 3 4 5 6 
#
# 1 0.027915 -0.007120 -0.009939 0.000006 -0.000383 0.000000
# 2 -0.007120 0.013521 0.000294 -0.000003 0.007337 -0.000001
# 3 -0.009939 0.000294 0.013371 -0.000007 0.002888 0.000000
# 4 0.000006 -0.000003 -0.000007 0.040012 -0.000010 0.005278
# 5 -0.000383 0.007337 0.002888 -0.000010 0.031112 -0.000002
# 6 0.000000 -0.000001 0.000000 0.005278 -0.000002 0.042224
#
#
# Mechanical properties :
#
#
# Convention : Reuss Voigt Hill
#
# Bulk Modulus (GPa) = 46.99451 58.64893 52.82172
# Shear Modulus (GPa) = 23.94913 29.00205 26.47559
#
# Velocity S-wave (km/s) = 3.31783 3.65110 3.48845
# Velocity P-wave (km/s) = 6.02311 6.68816 6.36433
#
# Compressibility (1/GPa) = 0.02127908
#
# Stress axis : x y z
#
# Youngs Moduli (GPa) = 35.82317 73.95632 74.78941
#
# Poissons Ratio (x) = 0.52654 0.74330
# Poissons Ratio (y) = 0.25505 -0.02200
# Poissons Ratio (z) = 0.35603 -0.02176
#
# Static dielectric constant tensor:
#      x y z
#    x 3.950010 -0.000010 0.426090 
#    y -0.000010 4.208070 -0.000030 
#    z 0.426090 -0.000030 4.289710 
# 
# 
# High freq. dielectric constant tensor:
#      x y z
#    x 1.833720 0.000000 0.018710 
#    y 0.000000 1.868090 0.000000 
#    z 0.018710 0.000000 1.865040 
# 
# From -- ./inp_files/240565.got.cif
#   From: 2010.06.25/outbox.cif.g09.slc.cpg/sg15_121_cif.got.tgz:240565.got - 2010.06.28 07:06:18.
