data_PCOD8147628
_publ_section_title
;
Structure prediction by ZEFSAII (Michael W. Deem and Ramdas Pophale) SiO2 
 PCOD8147628
Probable space group: C 2/C
;
_chemical_formula_sum "Si O2"
_cell_formula_units_Z 44
_cell_length_a 18.087395
_cell_length_b 21.915158
_cell_length_c 14.517858
_cell_angle_alpha 90.000000
_cell_angle_beta 159.800406
_cell_angle_gamma 90.000000
_cell_volume 1987.051495
_symmetry_space_group_name_H-M "C 2/C"
_symmetry_group_IT_number 15
_symmetry_cell_setting 'monoclinic'
loop_
_space_group_symop_operation_xyz
x,y,z
-x,y,1/2-z
-x,-y,-z
x,-y,1/2+z
1/2+x,1/2+y,z
1/2-x,1/2+y,1/2-z
1/2-x,1/2-y,-z
1/2+x,1/2-y,1/2+z
loop_
_atom_site_type_symbol
_atom_site_label
_atom_site_fract_x
_atom_site_fract_y
_atom_site_fract_z
Si Si1 0.181310 0.113118 0.530843
Si Si2 0.952685 0.307650 0.095798
Si Si3 0.492822 0.690693 0.024478
Si Si4 0.500000 0.932116 0.750000
Si Si5 0.308005 0.982793 0.706985
Si Si6 0.459482 0.623868 0.805962
O O1 0.405677 0.132168 0.748912
O O2 0.000000 0.136775 0.250000
O O3 0.179007 0.148060 0.626087
O O4 0.157399 0.041497 0.519981
O O5 0.971508 0.261024 0.031339
O O6 0.000000 0.274529 0.250000
O O7 0.717354 0.334722 0.823120
O O8 0.484432 0.681352 0.904292
O O9 0.425660 0.972257 0.748509
O O10 0.288714 0.894859 0.472117
O O11 0.141051 0.928584 0.540422
O O12 0.500000 0.000000 0.000000
O O13 0.500000 0.647814 0.750000
#
# Coordination Sequence:
#
# PCOD8147628 Si02
#       6
#     8   8   8   4   8   8
#     4  12  24  38  65  99 133 173 213 263 338 409
#     4  12  24  42  65  96 138 174 217 274 340 407
#     4  12  24  42  67  92 132 179 221 275 333 390
#     4  10  22  44  68  92 138 174 220 280 332 398
#     4  11  24  41  66 104 133 171 223 272 340 407
#     4  10  24  46  68  94 134 179 228 283 330 390
#
# _framework density 22.143362
#
# number of rings (size 3 to 8) (size 9 to 14) (size 15 to 20)
#    0.000    0.727    3.636    4.909    1.273    7.273 
#    0.000    0.909    0.000    0.000    0.000    0.000 
#    0.000    0.000    0.000    0.000    0.000    0.000 
#
# Total GULP energy -272593.834228 kJ/mol
# GULP energy per Si atom -12390.628829 kJ/mol
# Density = 2.209296 g / cm^3
# Si number density = 22.143362 Si / 1000 Ang^3
#
#
#
# Elastic Constant Matrix: (Units=GPa)
#
#
# Indices 1 2 3 4 5 6 
#
# 1 104.6028 35.5098 24.9064 -0.0001 -20.2707 0.0001
# 2 35.5098 72.1606 4.8355 0.0000 -10.3816 -0.0002
# 3 24.9064 4.8355 112.0585 0.0002 -0.1363 0.0007
# 4 -0.0001 0.0000 0.0002 10.3146 0.0000 1.1127
# 5 -20.2707 -10.3816 -0.1363 0.0000 42.5163 0.0004
# 6 0.0001 -0.0002 0.0007 1.1127 0.0004 27.6541
#
#
#
# Elastic Compliance Matrix: (Units=1/GPa)
#
#
# Indices 1 2 3 4 5 6 
#
# 1 0.013004 -0.005525 -0.002646 0.000000 0.004842 0.000000
# 2 -0.005525 0.016753 0.000507 0.000000 0.001458 0.000000
# 3 -0.002646 0.000507 0.009489 0.000000 -0.001107 0.000000
# 4 0.000000 0.000000 0.000000 0.097372 0.000000 -0.003918
# 5 0.004842 0.001458 -0.001107 0.000000 0.026182 0.000000
# 6 0.000000 0.000000 0.000000 -0.003918 0.000000 0.036319
#
#
# Mechanical properties :
#
#
# Convention : Reuss Voigt Hill
#
# Bulk Modulus (GPa) = 41.81141 46.59171 44.20156
# Shear Modulus (GPa) = 22.48008 31.00167 26.74088
#
# Velocity S-wave (km/s) = 3.18969 3.74577 3.47886
# Velocity P-wave (km/s) = 5.69988 6.30828 6.01178
#
# Compressibility (1/GPa) = 0.02391691
#
# Stress axis : x y z
#
# Youngs Moduli (GPa) = 76.89909 59.69186 105.38742
#
# Poissons Ratio (x) = 0.32981 0.27886
# Poissons Ratio (y) = 0.42489 -0.05342
# Poissons Ratio (z) = 0.20348 -0.03026
#
# Static dielectric constant tensor:
#      x y z
#    x 4.288730 0.000000 0.197820 
#    y 0.000000 3.598310 0.000000 
#    z 0.197820 0.000000 4.384910 
# 
# 
# High freq. dielectric constant tensor:
#      x y z
#    x 1.882870 0.000000 0.009080 
#    y 0.000000 1.843290 0.000000 
#    z 0.009080 0.000000 1.889810 
# 
# From -- ./inp_files/164290.got.cif
#   From: 2010.06.25/outbox.cif.g09.slc.cpg/sg15_83_cif.got.tgz:164290.got - 2010.06.28 07:06:18.
