data_PCOD8147515
_publ_section_title
;
Structure prediction by ZEFSAII (Michael W. Deem and Ramdas Pophale) SiO2 
 PCOD8147515
Probable space group: C 2/C
;
_chemical_formula_sum "Si O2"
_cell_formula_units_Z 48
_cell_length_a 22.553947
_cell_length_b 8.722569
_cell_length_c 11.547593
_cell_angle_alpha 90.000000
_cell_angle_beta 105.200769
_cell_angle_gamma 90.000000
_cell_volume 2192.257631
_symmetry_space_group_name_H-M "C 2/C"
_symmetry_group_IT_number 15
_symmetry_cell_setting 'monoclinic'
loop_
_space_group_symop_operation_xyz
x,y,z
-x,y,1/2-z
-x,-y,-z
x,-y,1/2+z
1/2+x,1/2+y,z
1/2-x,1/2+y,1/2-z
1/2-x,1/2-y,-z
1/2+x,1/2-y,1/2+z
loop_
_atom_site_type_symbol
_atom_site_label
_atom_site_fract_x
_atom_site_fract_y
_atom_site_fract_z
Si Si1 0.863795 0.114435 0.576963
Si Si2 0.167757 0.764196 0.667149
Si Si3 0.574013 0.142714 0.785475
Si Si4 0.786747 0.092352 0.754492
Si Si5 0.938234 0.313091 0.776725
Si Si6 0.112641 0.203907 0.530362
O O1 0.851107 0.248163 0.477035
O O2 0.804000 0.089481 0.626808
O O3 0.915378 0.172461 0.689322
O O4 0.890976 0.963240 0.528918
O O5 0.106390 0.763128 0.714107
O O6 0.215124 0.632388 0.729034
O O7 0.203706 0.924415 0.691090
O O8 0.500000 0.172919 0.750000
O O9 0.596967 0.976665 0.749829
O O10 0.606772 0.169426 0.926765
O O11 0.826605 0.212147 0.855111
O O12 0.943153 0.248537 0.910522
O O13 0.000000 0.367810 0.750000
#
# Coordination Sequence:
#
# PCOD8147515 Si02
#       6
#     8   8   8   8   8   8
#     4  10  22  44  64  98 135 169 225 274 337 392
#     4  11  24  42  68  97 134 177 219 280 331 396
#     4  11  26  44  67  98 136 178 224 271 337 392
#     4  10  23  43  64 101 131 173 226 270 339 396
#     4  10  25  41  66  99 130 180 226 268 331 396
#     4  10  23  45  65  95 138 170 225 275 325 403
#
# _framework density 21.895237000000002
#
# number of rings (size 3 to 8) (size 9 to 14) (size 15 to 20)
#    0.000    1.667    1.667    0.500    9.333    3.333 
#    0.000    0.000    0.000    0.000    0.000    0.000 
#    0.000    0.000    0.000    0.000    0.000    0.000 
#
# Total GULP energy -297335.426976 kJ/mol
# GULP energy per Si atom -12388.976124 kJ/mol
# Density = 2.184540 g / cm^3
# Si number density = 21.895237 Si / 1000 Ang^3
#
#
#
# Elastic Constant Matrix: (Units=GPa)
#
#
# Indices 1 2 3 4 5 6 
#
# 1 89.1241 36.1134 35.8073 0.0000 -13.0107 0.0000
# 2 36.1134 82.1096 38.5407 0.0000 -0.2081 0.0000
# 3 35.8073 38.5407 146.0177 0.0000 -31.7380 0.0000
# 4 0.0000 0.0000 0.0000 31.6758 0.0000 -0.2076
# 5 -13.0107 -0.2081 -31.7380 0.0000 21.1033 0.0000
# 6 0.0000 0.0000 0.0000 -0.2076 0.0000 29.3897
#
#
#
# Elastic Compliance Matrix: (Units=1/GPa)
#
#
# Indices 1 2 3 4 5 6 
#
# 1 0.015307 -0.006754 0.000098 0.000000 0.009518 0.000000
# 2 -0.006754 0.017853 -0.005828 0.000000 -0.012752 0.000000
# 3 0.000098 -0.005828 0.012425 0.000000 0.018689 0.000000
# 4 0.000000 0.000000 0.000000 0.031571 0.000000 0.000223
# 5 0.009518 -0.012752 0.018689 0.000000 0.081235 0.000000
# 6 0.000000 0.000000 0.000000 0.000223 0.000000 0.034027
#
#
# Mechanical properties :
#
#
# Convention : Reuss Voigt Hill
#
# Bulk Modulus (GPa) = 48.50473 59.79713 54.15093
# Shear Modulus (GPa) = 22.29570 30.21977 26.25774
#
# Velocity S-wave (km/s) = 3.19453 3.71913 3.46677
# Velocity P-wave (km/s) = 5.98397 6.76849 6.38828
#
# Compressibility (1/GPa) = 0.02061655
#
# Stress axis : x y z
#
# Youngs Moduli (GPa) = 65.32825 56.01444 80.48375
#
# Poissons Ratio (x) = 0.37833 -0.00787
# Poissons Ratio (y) = 0.44124 0.46903
# Poissons Ratio (z) = -0.00639 0.32643
#
# Static dielectric constant tensor:
#      x y z
#    x 4.030980 0.000000 -0.309050 
#    y 0.000000 3.833100 0.000000 
#    z -0.309050 0.000000 4.349840 
# 
# 
# High freq. dielectric constant tensor:
#      x y z
#    x 1.844870 0.000000 -0.018040 
#    y 0.000000 1.860050 0.000000 
#    z -0.018040 0.000000 1.874150 
# 
# From -- ./inp_files/116734.got.cif
#   From: 2010.06.25/outbox.cif.g09.slc.cpg/sg15_59_cif.got.tgz:116734.got - 2010.06.28 07:06:18.
