data_PCOD8147104
_publ_section_title
;
Structure prediction by ZEFSAII (Michael W. Deem and Ramdas Pophale) SiO2 
 PCOD8147104
Probable space group: C 2/C
;
_chemical_formula_sum "Si O2"
_cell_formula_units_Z 40
_cell_length_a 24.037090
_cell_length_b 8.490060
_cell_length_c 19.162704
_cell_angle_alpha 90.000000
_cell_angle_beta 150.950085
_cell_angle_gamma 90.000000
_cell_volume 1898.901899
_symmetry_space_group_name_H-M "C 2/C"
_symmetry_group_IT_number 15
_symmetry_cell_setting 'monoclinic'
loop_
_space_group_symop_operation_xyz
x,y,z
-x,y,1/2-z
-x,-y,-z
x,-y,1/2+z
1/2+x,1/2+y,z
1/2-x,1/2+y,1/2-z
1/2-x,1/2-y,-z
1/2+x,1/2-y,1/2+z
loop_
_atom_site_type_symbol
_atom_site_label
_atom_site_fract_x
_atom_site_fract_y
_atom_site_fract_z
Si Si1 0.074606 0.358012 0.898558
Si Si2 0.257011 0.572958 0.037061
Si Si3 0.940122 0.478266 0.361028
Si Si4 0.300350 0.453685 0.941503
Si Si5 0.509901 0.679115 0.179285
O O1 0.000000 0.304704 0.750000
O O2 0.983943 0.383647 0.859787
O O3 0.152015 0.517146 0.971218
O O4 0.155205 0.222590 0.018160
O O5 0.381111 0.561184 0.209991
O O6 0.250000 0.750000 0.000000
O O7 0.250421 0.456202 0.964861
O O8 0.803996 0.502049 0.224519
O O9 0.000000 0.500000 0.500000
O O10 0.970649 0.316539 0.355041
O O11 0.397804 0.583219 0.035019
O O12 0.500000 0.738314 0.250000
#
# Coordination Sequence:
#
# PCOD8147104 Si02
#       5
#     8   8   8   8   8
#     4  12  23  41  69  98 133 164 212 277 326 374
#     4  11  19  38  70 100 125 164 211 271 323 378
#     4  12  27  44  63  92 134 176 218 260 322 391
#     4  11  24  40  68 100 129 164 219 269 325 383
#     4  10  22  42  70  98 123 168 219 269 322 384
#
# _framework density 21.064806999999998
#
# number of rings (size 3 to 8) (size 9 to 14) (size 15 to 20)
#    0.000    0.800    4.000    5.400    2.800    1.600 
#    0.000    1.000    0.000    0.000    0.000    0.000 
#    0.000    0.000    0.000    0.000    0.000    0.000 
#
# Total GULP energy -247891.322105 kJ/mol
# GULP energy per Si atom -12394.566105 kJ/mol
# Density = 2.101686 g / cm^3
# Si number density = 21.064807 Si / 1000 Ang^3
#
#
#
# Elastic Constant Matrix: (Units=GPa)
#
#
# Indices 1 2 3 4 5 6 
#
# 1 55.0236 24.9078 58.6979 0.0000 6.1030 0.0000
# 2 24.9078 114.9982 55.0642 0.0000 6.9541 0.0000
# 3 58.6979 55.0642 202.0233 0.0000 13.5461 0.0000
# 4 0.0000 0.0000 0.0000 31.4798 0.0000 15.7841
# 5 6.1030 6.9541 13.5461 0.0000 39.9318 0.0000
# 6 0.0000 0.0000 0.0000 15.7841 0.0000 14.4142
#
#
#
# Elastic Compliance Matrix: (Units=1/GPa)
#
#
# Indices 1 2 3 4 5 6 
#
# 1 0.026965 -0.002360 -0.007104 0.000000 -0.001300 0.000000
# 2 -0.002360 0.010235 -0.002055 0.000000 -0.000724 0.000000
# 3 -0.007104 -0.002055 0.007652 0.000000 -0.001152 0.000000
# 4 0.000000 0.000000 0.000000 0.070445 0.000000 -0.077140
# 5 -0.001300 -0.000724 -0.001152 0.000000 0.025758 0.000000
# 6 0.000000 0.000000 0.000000 -0.077140 0.000000 0.153848
#
#
# Mechanical properties :
#
#
# Convention : Reuss Voigt Hill
#
# Bulk Modulus (GPa) = 45.84590 72.15389 58.99990
# Shear Modulus (GPa) = 15.37452 32.72350 24.04901
#
# Velocity S-wave (km/s) = 2.70454 3.94568 3.38252
# Velocity P-wave (km/s) = 5.61820 7.42196 6.58216
#
# Compressibility (1/GPa) = 0.02181220
#
# Stress axis : x y z
#
# Youngs Moduli (GPa) = 37.08467 97.70446 130.69269
#
# Poissons Ratio (x) = 0.23060 0.92848
# Poissons Ratio (y) = 0.08752 0.26862
# Poissons Ratio (z) = 0.26346 0.20082
#
# Static dielectric constant tensor:
#      x y z
#    x 3.623580 0.000000 0.403580 
#    y 0.000000 3.758540 0.000000 
#    z 0.403580 0.000000 3.880130 
# 
# 
# High freq. dielectric constant tensor:
#      x y z
#    x 1.800770 0.000000 0.043780 
#    y 0.000000 1.824080 0.000000 
#    z 0.043780 0.000000 1.833460 
# 
# From -- ./inp_files/218815.got.cif
#   From: 2010.06.25/outbox.cif.g09.slc.cpg/sg15_110_cif.got.tgz:218815.got - 2010.06.28 07:06:18.
