data_PCOD8147977
_publ_section_title
;
Structure prediction by ZEFSAII (Michael W. Deem and Ramdas Pophale) SiO2 
 PCOD8147977
Probable space group: C 2/C
;
_chemical_formula_sum "Si O2"
_cell_formula_units_Z 60
_cell_length_a 11.660557
_cell_length_b 9.605298
_cell_length_c 24.492544
_cell_angle_alpha 90.000000
_cell_angle_beta 95.156101
_cell_angle_gamma 90.000000
_cell_volume 2732.141066
_symmetry_space_group_name_H-M "C 2/C"
_symmetry_group_IT_number 15
_symmetry_cell_setting 'monoclinic'
loop_
_space_group_symop_operation_xyz
x,y,z
-x,y,1/2-z
-x,-y,-z
x,-y,1/2+z
1/2+x,1/2+y,z
1/2-x,1/2+y,1/2-z
1/2-x,1/2-y,-z
1/2+x,1/2-y,1/2+z
loop_
_atom_site_type_symbol
_atom_site_label
_atom_site_fract_x
_atom_site_fract_y
_atom_site_fract_z
Si Si1 0.283718 0.448455 0.280523
Si Si2 0.336199 0.979492 0.329884
Si Si3 0.500000 0.702380 0.750000
Si Si4 0.228745 0.749956 0.872904
Si Si5 0.699342 0.675588 0.138535
Si Si6 0.949175 0.835296 0.440709
Si Si7 0.520809 0.641591 0.433301
Si Si8 0.045013 0.629030 0.360992
O O1 0.185601 0.508575 0.235556
O O2 0.384814 0.387683 0.247743
O O3 0.219549 0.335248 0.316063
O O4 0.346079 0.575893 0.315118
O O5 0.277957 0.097153 0.364193
O O6 0.472855 0.984589 0.351343
O O7 0.279484 0.831334 0.340336
O O8 0.494470 0.786578 0.693781
O O9 0.316253 0.660567 0.914914
O O10 0.105709 0.777049 0.895920
O O11 0.611071 0.683649 0.084723
O O12 0.819933 0.600069 0.128521
O O13 0.947647 0.808686 0.505028
O O14 0.013191 0.708287 0.414854
O O15 0.022481 0.973626 0.428707
#
# Coordination Sequence:
#
# PCOD8147977 Si02
#       8
#     8   8   4   8   8   8   8   8
#     4  12  24  42  67 101 136 182 228 283 347 418
#     4  11  24  42  66  98 130 186 221 272 348 418
#     4  12  20  44  70  90 138 180 228 272 342 424
#     4  11  23  46  68 100 134 179 231 283 349 419
#     4  12  25  41  61 105 137 169 233 281 342 410
#     4  10  22  47  69  96 129 185 229 281 358 405
#     4  11  24  41  72  99 132 173 234 295 337 414
#     4  11  23  44  66  93 141 181 220 278 349 415
#
# _framework density 21.960798
#
# number of rings (size 3 to 8) (size 9 to 14) (size 15 to 20)
#    0.000    0.800    5.333    2.800    3.733    0.533 
#    0.000    2.667    0.000    0.000    0.000    0.000 
#    0.000    0.000    0.000    0.000    0.000    0.000 
#
# Total GULP energy -371907.048998 kJ/mol
# GULP energy per Si atom -12396.901633 kJ/mol
# Density = 2.191081 g / cm^3
# Si number density = 21.960798 Si / 1000 Ang^3
#
#
#
# Elastic Constant Matrix: (Units=GPa)
#
#
# Indices 1 2 3 4 5 6 
#
# 1 135.5671 10.4382 47.4266 0.0000 5.8484 0.0000
# 2 10.4382 62.3714 20.5730 0.0000 -11.2871 0.0000
# 3 47.4266 20.5730 103.9743 0.0000 6.3596 0.0000
# 4 0.0000 0.0000 0.0000 20.9002 0.0000 2.4141
# 5 5.8484 -11.2871 6.3596 0.0000 32.9139 0.0000
# 6 0.0000 0.0000 0.0000 2.4141 0.0000 33.6879
#
#
#
# Elastic Compliance Matrix: (Units=1/GPa)
#
#
# Indices 1 2 3 4 5 6 
#
# 1 0.008805 -0.000361 -0.003887 0.000000 -0.000937 0.000000
# 2 -0.000361 0.018720 -0.003983 0.000000 0.007253 0.000000
# 3 -0.003887 -0.003983 0.012367 0.000000 -0.003065 0.000000
# 4 0.000000 0.000000 0.000000 0.048246 0.000000 -0.003457
# 5 -0.000937 0.007253 -0.003065 0.000000 0.033628 0.000000
# 6 0.000000 0.000000 0.000000 -0.003457 0.000000 0.029932
#
#
# Mechanical properties :
#
#
# Convention : Reuss Voigt Hill
#
# Bulk Modulus (GPa) = 42.68345 50.97648 46.82997
# Shear Modulus (GPa) = 28.41410 32.39873 30.40642
#
# Velocity S-wave (km/s) = 3.60092 3.84513 3.72503
# Velocity P-wave (km/s) = 6.06360 6.55563 6.31441
#
# Compressibility (1/GPa) = 0.02342828
#
# Stress axis : x y z
#
# Youngs Moduli (GPa) = 113.57708 53.41951 80.86356
#
# Poissons Ratio (x) = 0.01928 0.31435
# Poissons Ratio (y) = 0.04098 0.32208
# Poissons Ratio (z) = 0.44152 0.21277
#
# Static dielectric constant tensor:
#      x y z
#    x 4.098550 0.000000 0.134100 
#    y 0.000000 4.049990 0.000000 
#    z 0.134100 0.000000 3.918050 
# 
# 
# High freq. dielectric constant tensor:
#      x y z
#    x 1.866320 0.000000 0.011280 
#    y 0.000000 1.867880 0.000000 
#    z 0.011280 0.000000 1.857930 
# 
# From -- ./inp_files/291597.got.cif
#   From: 2010.06.25/outbox.cif.g09.slc.cpg/sg15_146_cif.got.tgz:291597.got - 2010.06.28 07:06:18.
