data_PCOD8147820
_publ_section_title
;
Structure prediction by ZEFSAII (Michael W. Deem and Ramdas Pophale) SiO2 
 PCOD8147820
Probable space group: C 2/C
;
_chemical_formula_sum "Si O2"
_cell_formula_units_Z 36
_cell_length_a 11.543873
_cell_length_b 14.654342
_cell_length_c 12.756258
_cell_angle_alpha 90.000000
_cell_angle_beta 130.853017
_cell_angle_gamma 90.000000
_cell_volume 1632.251205
_symmetry_space_group_name_H-M "C 2/C"
_symmetry_group_IT_number 15
_symmetry_cell_setting 'monoclinic'
loop_
_space_group_symop_operation_xyz
x,y,z
-x,y,1/2-z
-x,-y,-z
x,-y,1/2+z
1/2+x,1/2+y,z
1/2-x,1/2+y,1/2-z
1/2-x,1/2-y,-z
1/2+x,1/2-y,1/2+z
loop_
_atom_site_type_symbol
_atom_site_label
_atom_site_fract_x
_atom_site_fract_y
_atom_site_fract_z
Si Si1 0.757642 0.514712 0.646347
Si Si2 0.967964 0.748314 0.434149
Si Si3 0.122017 0.709277 0.741947
Si Si4 0.500667 0.443832 0.130927
Si Si5 0.000000 0.363700 0.750000
O O1 0.856061 0.606522 0.702059
O O2 0.637164 0.512898 0.477912
O O3 0.662434 0.508299 0.699009
O O4 0.857640 0.425211 0.696406
O O5 0.783653 0.737167 0.336724
O O6 0.052268 0.706255 0.584388
O O7 0.012054 0.854161 0.449490
O O8 0.035286 0.697528 0.372181
O O9 0.000000 0.756271 0.750000
O O10 0.500000 0.414340 0.250000
#
# Coordination Sequence:
#
# PCOD8147820 Si02
#       5
#     8   8   8   8   4
#     4  10  24  40  65 102 141 174 228 278 357 398
#     4  11  25  41  75 101 140 183 235 285 348 404
#     4  11  24  47  66 103 139 186 231 286 342 420
#     4  10  22  45  68  99 138 185 226 286 344 421
#     4  12  24  42  68 110 134 180 234 290 334 420
#
# _framework density 22.055430000000001
#
# number of rings (size 3 to 8) (size 9 to 14) (size 15 to 20)
#    0.000    1.333    2.222    2.000    6.222    4.444 
#    0.000   13.333    0.000    0.000    0.000    0.000 
#    0.000    0.000    0.000    0.000    0.000    0.000 
#
# Total GULP energy -223184.016981 kJ/mol
# GULP energy per Si atom -12399.112054 kJ/mol
# Density = 2.200523 g / cm^3
# Si number density = 22.055430 Si / 1000 Ang^3
#
#
#
# Elastic Constant Matrix: (Units=GPa)
#
#
# Indices 1 2 3 4 5 6 
#
# 1 92.5019 53.8184 50.6765 0.0000 5.3136 0.0000
# 2 53.8184 86.9134 41.2966 0.0000 -0.6426 0.0000
# 3 50.6765 41.2966 97.1638 0.0000 4.5604 0.0000
# 4 0.0000 0.0000 0.0000 33.4086 0.0000 -6.4606
# 5 5.3136 -0.6426 4.5604 0.0000 39.2991 0.0000
# 6 0.0000 0.0000 0.0000 -6.4606 0.0000 19.3818
#
#
#
# Elastic Compliance Matrix: (Units=1/GPa)
#
#
# Indices 1 2 3 4 5 6 
#
# 1 0.019759 -0.009274 -0.006266 0.000000 -0.002096 0.000000
# 2 -0.009274 0.018805 -0.003247 0.000000 0.001938 0.000000
# 3 -0.006266 -0.003247 0.014984 0.000000 -0.000945 0.000000
# 4 0.000000 0.000000 0.000000 0.031995 0.000000 0.010665
# 5 -0.002096 0.001938 -0.000945 0.000000 0.025871 0.000000
# 6 0.000000 0.000000 0.000000 0.010665 0.000000 0.055150
#
#
# Mechanical properties :
#
#
# Convention : Reuss Voigt Hill
#
# Bulk Modulus (GPa) = 62.59313 63.12912 62.86112
# Shear Modulus (GPa) = 23.87081 27.13708 25.50395
#
# Velocity S-wave (km/s) = 3.29342 3.51152 3.40421
# Velocity P-wave (km/s) = 6.55009 6.71759 6.63437
#
# Compressibility (1/GPa) = 0.01597619
#
# Stress axis : x y z
#
# Youngs Moduli (GPa) = 50.60981 53.17702 66.73748
#
# Poissons Ratio (x) = 0.49314 0.41815
# Poissons Ratio (y) = 0.46933 0.21668
# Poissons Ratio (z) = 0.31710 0.17266
#
# Static dielectric constant tensor:
#      x y z
#    x 4.329510 0.000000 0.140180 
#    y 0.000000 3.786570 0.000000 
#    z 0.140180 0.000000 3.814790 
# 
# 
# High freq. dielectric constant tensor:
#      x y z
#    x 1.889160 0.000000 0.008380 
#    y 0.000000 1.860250 0.000000 
#    z 0.008380 0.000000 1.859700 
# 
# From -- ./inp_files/48843.got.cif
#   From: 2010.06.25/outbox.cif.g09.slc.cpg/sg15_25_cif.got.tgz:48843.got - 2010.06.28 07:06:18.
