data_PCOD8147647
_publ_section_title
;
Structure prediction by ZEFSAII (Michael W. Deem and Ramdas Pophale) SiO2 
 PCOD8147647
Probable space group: C 2/C
;
_chemical_formula_sum "Si O2"
_cell_formula_units_Z 56
_cell_length_a 30.697046
_cell_length_b 8.712647
_cell_length_c 10.684072
_cell_angle_alpha 90.000000
_cell_angle_beta 122.629266
_cell_angle_gamma 90.000000
_cell_volume 2406.505909
_symmetry_space_group_name_H-M "C 2/C"
_symmetry_group_IT_number 15
_symmetry_cell_setting 'monoclinic'
loop_
_space_group_symop_operation_xyz
x,y,z
-x,y,1/2-z
-x,-y,-z
x,-y,1/2+z
1/2+x,1/2+y,z
1/2-x,1/2+y,1/2-z
1/2-x,1/2-y,-z
1/2+x,1/2-y,1/2+z
loop_
_atom_site_type_symbol
_atom_site_label
_atom_site_fract_x
_atom_site_fract_y
_atom_site_fract_z
Si Si1 0.140643 0.234852 0.606017
Si Si2 0.633433 0.326839 0.372749
Si Si3 0.107026 0.536139 0.463989
Si Si4 0.216067 0.979329 0.646544
Si Si5 0.058283 0.908789 0.801317
Si Si6 0.590886 0.137016 0.700712
Si Si7 0.790224 0.704505 0.668334
O O1 0.132941 0.258792 0.740888
O O2 0.148856 0.403388 0.559457
O O3 0.089285 0.161301 0.466487
O O4 0.190414 0.131185 0.664964
O O5 0.635602 0.196605 0.483701
O O6 0.683810 0.433129 0.471504
O O7 0.581515 0.426664 0.301675
O O8 0.072892 0.565587 0.538530
O O9 0.076340 0.482705 0.291145
O O10 0.214408 0.840139 0.738823
O O11 0.273189 0.037105 0.697147
O O12 0.061027 0.795318 0.685024
O O13 0.000000 0.936603 0.750000
O O14 0.652027 0.180673 0.793926
O O15 0.750000 0.750000 0.500000
#
# Coordination Sequence:
#
# PCOD8147647 Si02
#       7
#     8   8   8   8   8   8   8
#     4  10  22  44  68  97 139 181 224 283 338 401
#     4  11  22  43  67  99 137 182 226 279 341 402
#     4  11  22  42  71  96 133 185 222 272 346 398
#     4  11  25  40  65  98 136 183 234 281 336 401
#     4  10  24  45  73 102 132 175 226 280 341 413
#     4  11  24  45  69  96 138 179 223 285 341 402
#     4  12  25  41  62  97 135 182 231 284 336 399
#
# _framework density 23.270253
#
# number of rings (size 3 to 8) (size 9 to 14) (size 15 to 20)
#    0.000    1.143    2.857    4.286    6.000    0.571 
#    0.000    7.857    0.000    0.000    0.000    0.000 
#    0.000    0.000    0.000    0.000    0.000    0.000 
#
# Total GULP energy -347044.189917 kJ/mol
# GULP energy per Si atom -12394.435354 kJ/mol
# Density = 2.321729 g / cm^3
# Si number density = 23.270253 Si / 1000 Ang^3
#
#
#
# Elastic Constant Matrix: (Units=GPa)
#
#
# Indices 1 2 3 4 5 6 
#
# 1 76.6671 36.5421 25.8804 0.0000 -7.6218 0.0000
# 2 36.5421 132.5939 24.6015 0.0000 -16.4934 0.0000
# 3 25.8804 24.6015 74.0158 0.0000 -35.3109 0.0000
# 4 0.0000 0.0000 0.0000 28.2886 0.0000 -14.4531
# 5 -7.6218 -16.4934 -35.3109 0.0000 46.6251 0.0000
# 6 0.0000 0.0000 0.0000 -14.4531 0.0000 25.8725
#
#
#
# Elastic Compliance Matrix: (Units=1/GPa)
#
#
# Indices 1 2 3 4 5 6 
#
# 1 0.016609 -0.003854 -0.006077 0.000000 -0.003251 0.000000
# 2 -0.003854 0.008981 -0.000661 0.000000 0.002046 0.000000
# 3 -0.006077 -0.000661 0.023908 0.000000 0.016879 0.000000
# 4 0.000000 0.000000 0.000000 0.049469 0.000000 0.027635
# 5 -0.003251 0.002046 0.016879 0.000000 0.034423 0.000000
# 6 0.000000 0.000000 0.000000 0.027635 0.000000 0.054089
#
#
# Mechanical properties :
#
#
# Convention : Reuss Voigt Hill
#
# Bulk Modulus (GPa) = 35.32034 50.81387 43.06710
# Shear Modulus (GPa) = 22.92510 33.24075 28.08293
#
# Velocity S-wave (km/s) = 3.14214 3.78360 3.47770
# Velocity P-wave (km/s) = 5.32685 6.40089 5.88841
#
# Compressibility (1/GPa) = 0.02831230
#
# Stress axis : x y z
#
# Youngs Moduli (GPa) = 60.20938 111.34340 41.82706
#
# Poissons Ratio (x) = 0.42912 0.25420
# Poissons Ratio (y) = 0.23205 0.02767
# Poissons Ratio (z) = 0.36591 0.07365
#
# Static dielectric constant tensor:
#      x y z
#    x 4.039010 0.000000 -0.396450 
#    y 0.000000 4.494980 0.000000 
#    z -0.396450 0.000000 4.241650 
# 
# 
# High freq. dielectric constant tensor:
#      x y z
#    x 1.892060 0.000000 -0.029280 
#    y 0.000000 1.942930 0.000000 
#    z -0.029280 0.000000 1.918260 
# 
# From -- ./inp_files/125993.got.cif
#   From: 2010.06.25/outbox.cif.g09.slc.cpg/sg15_63_cif.got.tgz:125993.got - 2010.06.28 07:06:18.
