data_PCOD8147761
_publ_section_title
;
Structure prediction by ZEFSAII (Michael W. Deem and Ramdas Pophale) SiO2 
 PCOD8147761
Probable space group: C 2/C
;
_chemical_formula_sum "Si O2"
_cell_formula_units_Z 60
_cell_length_a 11.146356
_cell_length_b 28.142867
_cell_length_c 9.105694
_cell_angle_alpha 90.000000
_cell_angle_beta 96.332572
_cell_angle_gamma 90.000000
_cell_volume 2838.940539
_symmetry_space_group_name_H-M "C 2/C"
_symmetry_group_IT_number 15
_symmetry_cell_setting 'monoclinic'
loop_
_space_group_symop_operation_xyz
x,y,z
-x,y,1/2-z
-x,-y,-z
x,-y,1/2+z
1/2+x,1/2+y,z
1/2-x,1/2+y,1/2-z
1/2-x,1/2-y,-z
1/2+x,1/2-y,1/2+z
loop_
_atom_site_type_symbol
_atom_site_label
_atom_site_fract_x
_atom_site_fract_y
_atom_site_fract_z
Si Si1 0.637818 0.633455 0.278002
Si Si2 0.218115 0.538930 0.169365
Si Si3 0.182565 0.129053 0.968463
Si Si4 0.807692 0.202155 0.950730
Si Si5 0.923040 0.030707 0.600080
Si Si6 0.500000 0.313687 0.250000
Si Si7 0.856324 0.630234 0.744466
Si Si8 0.881560 0.467927 0.140769
O O1 0.500000 0.614259 0.250000
O O2 0.733941 0.592089 0.322731
O O3 0.641780 0.673269 0.403155
O O4 0.681165 0.655038 0.126803
O O5 0.320697 0.504199 0.135017
O O6 0.173944 0.519060 0.320643
O O7 0.107821 0.533646 0.035221
O O8 0.136491 0.075321 0.990997
O O9 0.314892 0.132152 0.910456
O O10 0.089712 0.152913 0.847869
O O11 0.918941 0.216048 0.855786
O O12 0.704988 0.172303 0.855123
O O13 0.750000 0.250000 0.000000
O O14 0.000000 0.048374 0.750000
O O15 0.000000 0.000000 0.500000
O O16 0.805333 0.579535 0.675392
O O17 0.000000 0.636610 0.750000
O O18 0.000000 0.459378 0.250000
#
# Coordination Sequence:
#
# PCOD8147761 Si02
#       8
#     8   8   8   8   8   4   8   8
#     4  12  24  42  66 105 141 169 223 289 346 406
#     4  12  23  38  58  96 133 178 224 271 334 395
#     4  11  21  40  66  98 138 180 220 280 341 406
#     4  11  25  49  75 102 136 175 222 289 348 414
#     4  12  23  33  55  94 135 178 222 270 331 402
#     4  10  22  44  74  98 132 174 220 272 354 408
#     4  10  23  46  68  93 134 186 234 278 339 408
#     4  11  23  41  63  87 134 184 235 276 323 395
#
# _framework density 21.134646
#
# number of rings (size 3 to 8) (size 9 to 14) (size 15 to 20)
#    0.000    0.800    4.667    4.000    0.000    0.533 
#    2.400    1.333    0.000    0.000    0.000    0.000 
#    0.000    0.000    0.000    0.000    0.000    0.000 
#
# Total GULP energy -371790.356565 kJ/mol
# GULP energy per Si atom -12393.011885 kJ/mol
# Density = 2.108654 g / cm^3
# Si number density = 21.134646 Si / 1000 Ang^3
#
#
#
# Elastic Constant Matrix: (Units=GPa)
#
#
# Indices 1 2 3 4 5 6 
#
# 1 104.6342 33.3046 47.3409 0.0000 -11.9527 0.0000
# 2 33.3046 101.7075 35.3704 0.0000 -10.3195 0.0000
# 3 47.3409 35.3704 143.0844 0.0000 -15.9973 0.0000
# 4 0.0000 0.0000 0.0000 28.2070 0.0000 -8.8223
# 5 -11.9527 -10.3195 -15.9973 0.0000 38.9629 0.0000
# 6 0.0000 0.0000 0.0000 -8.8223 0.0000 18.5416
#
#
#
# Elastic Compliance Matrix: (Units=1/GPa)
#
#
# Indices 1 2 3 4 5 6 
#
# 1 0.012016 -0.002676 -0.003125 0.000000 0.001695 0.000000
# 2 -0.002676 0.011480 -0.001786 0.000000 0.001486 0.000000
# 3 -0.003125 -0.001786 0.008704 0.000000 0.002142 0.000000
# 4 0.000000 0.000000 0.000000 0.041651 0.000000 0.019818
# 5 0.001695 0.001486 0.002142 0.000000 0.027458 0.000000
# 6 0.000000 0.000000 0.000000 0.019818 0.000000 0.063362
#
#
# Mechanical properties :
#
#
# Convention : Reuss Voigt Hill
#
# Bulk Modulus (GPa) = 58.73364 64.60644 61.67004
# Shear Modulus (GPa) = 26.95108 32.70300 29.82704
#
# Velocity S-wave (km/s) = 3.57488 3.93792 3.76078
# Velocity P-wave (km/s) = 6.70002 7.16321 6.93548
#
# Compressibility (1/GPa) = 0.01702602
#
# Stress axis : x y z
#
# Youngs Moduli (GPa) = 83.22078 87.10440 114.89270
#
# Poissons Ratio (x) = 0.23311 0.35900
# Poissons Ratio (y) = 0.22271 0.20524
# Poissons Ratio (z) = 0.26004 0.15560
#
# Static dielectric constant tensor:
#      x y z
#    x 3.852190 0.000000 -0.109790 
#    y 0.000000 3.493470 0.000000 
#    z -0.109790 0.000000 4.495800 
# 
# 
# High freq. dielectric constant tensor:
#      x y z
#    x 1.828310 0.000000 -0.002660 
#    y 0.000000 1.799540 0.000000 
#    z -0.002660 0.000000 1.848780 
# 
# From -- ./inp_files/34265.got.cif
#   From: 2010.06.25/outbox.cif.g09.slc.cpg/sg15_18_cif.got.tgz:34265.got - 2010.06.28 07:06:18.
