data_PCOD8147665
_publ_section_title
;
Structure prediction by ZEFSAII (Michael W. Deem and Ramdas Pophale) SiO2 
 PCOD8147665
Probable space group: C 2/C
;
_chemical_formula_sum "Si O2"
_cell_formula_units_Z 56
_cell_length_a 20.312047
_cell_length_b 12.051794
_cell_length_c 10.796129
_cell_angle_alpha 90.000000
_cell_angle_beta 91.547222
_cell_angle_gamma 90.000000
_cell_volume 2641.892183
_symmetry_space_group_name_H-M "C 2/C"
_symmetry_group_IT_number 15
_symmetry_cell_setting 'monoclinic'
loop_
_space_group_symop_operation_xyz
x,y,z
-x,y,1/2-z
-x,-y,-z
x,-y,1/2+z
1/2+x,1/2+y,z
1/2-x,1/2+y,1/2-z
1/2-x,1/2-y,-z
1/2+x,1/2-y,1/2+z
loop_
_atom_site_type_symbol
_atom_site_label
_atom_site_fract_x
_atom_site_fract_y
_atom_site_fract_z
Si Si1 0.832644 0.742696 0.409668
Si Si2 0.800924 0.134035 0.141152
Si Si3 0.401575 0.195437 0.065515
Si Si4 0.684408 0.379982 0.327483
Si Si5 0.673589 0.183820 0.678827
Si Si6 0.407214 0.986227 0.188342
Si Si7 0.456823 0.098057 0.424401
O O1 0.843091 0.801180 0.541491
O O2 0.775508 0.648585 0.402386
O O3 0.816932 0.843093 0.315252
O O4 0.899244 0.680755 0.385197
O O5 0.815533 0.191632 0.273206
O O6 0.827204 0.009828 0.155478
O O7 0.373370 0.315166 0.103386
O O8 0.479791 0.178121 0.085553
O O9 0.368039 0.099573 0.149428
O O10 0.384499 0.179119 0.922040
O O11 0.758266 0.356084 0.380856
O O12 0.648999 0.105179 0.791023
O O13 0.452886 0.005591 0.313022
O O14 0.450549 0.958360 0.062435
#
# Coordination Sequence:
#
# PCOD8147665 Si02
#       7
#     8   8   8   8   8   8   8
#     4  10  22  44  69  97 135 182 230 285 350 419
#     4  10  23  44  68  98 132 181 229 289 346 418
#     4  12  27  41  68 100 142 181 230 290 350 422
#     4  11  25  42  69  98 139 181 231 290 348 420
#     4  11  25  42  68 102 136 177 234 290 350 416
#     4  12  24  43  71 105 139 186 229 296 347 420
#     4  12  25  45  70 104 145 183 238 286 364 414
#
# _framework density 21.196926999999999
#
# number of rings (size 3 to 8) (size 9 to 14) (size 15 to 20)
#    0.000    0.857    4.286    2.143    6.000    0.000 
#    0.000    0.714    3.143    0.000    0.000    0.000 
#    0.000    0.000    0.000    0.000    0.000    0.000 
#
# Total GULP energy -347015.077518 kJ/mol
# GULP energy per Si atom -12393.395626 kJ/mol
# Density = 2.114868 g / cm^3
# Si number density = 21.196927 Si / 1000 Ang^3
#
#
#
# Elastic Constant Matrix: (Units=GPa)
#
#
# Indices 1 2 3 4 5 6 
#
# 1 106.4408 56.8133 32.8975 0.0000 -9.6306 0.0000
# 2 56.8133 153.9942 50.9839 0.0000 0.7091 0.0000
# 3 32.8975 50.9839 84.2869 0.0000 3.6325 0.0000
# 4 0.0000 0.0000 0.0000 29.8553 0.0000 -3.7709
# 5 -9.6306 0.7091 3.6325 0.0000 32.5219 0.0000
# 6 0.0000 0.0000 0.0000 -3.7709 0.0000 21.2950
#
#
#
# Elastic Compliance Matrix: (Units=1/GPa)
#
#
# Indices 1 2 3 4 5 6 
#
# 1 0.012648 -0.003741 -0.002852 0.000000 0.004146 0.000000
# 2 -0.003741 0.009231 -0.004087 0.000000 -0.000853 0.000000
# 3 -0.002852 -0.004087 0.015557 0.000000 -0.002493 0.000000
# 4 0.000000 0.000000 0.000000 0.034261 0.000000 0.006067
# 5 0.004146 -0.000853 -0.002493 0.000000 0.032273 0.000000
# 6 0.000000 0.000000 0.000000 0.006067 0.000000 0.048034
#
#
# Mechanical properties :
#
#
# Convention : Reuss Voigt Hill
#
# Bulk Modulus (GPa) = 62.20541 69.56793 65.88667
# Shear Modulus (GPa) = 27.97616 30.33626 29.15621
#
# Velocity S-wave (km/s) = 3.63688 3.78718 3.71279
# Velocity P-wave (km/s) = 6.85901 7.21212 7.03778
#
# Compressibility (1/GPa) = 0.01607577
#
# Stress axis : x y z
#
# Youngs Moduli (GPa) = 79.06117 108.33165 64.27969
#
# Poissons Ratio (x) = 0.40528 0.18335
# Poissons Ratio (y) = 0.29578 0.26269
# Poissons Ratio (z) = 0.22552 0.44272
#
# Static dielectric constant tensor:
#      x y z
#    x 3.757170 0.000000 -0.037700 
#    y 0.000000 3.702120 0.000000 
#    z -0.037700 0.000000 4.106160 
# 
# 
# High freq. dielectric constant tensor:
#      x y z
#    x 1.825550 0.000000 0.000800 
#    y 0.000000 1.818310 0.000000 
#    z 0.000800 0.000000 1.853790 
# 
# From -- ./inp_files/111072.got.cif
#   From: 2010.06.25/outbox.cif.g09.slc.cpg/sg15_56_cif.got.tgz:111072.got - 2010.06.28 07:06:18.
