data_PCOD8147564
_publ_section_title
;
Structure prediction by ZEFSAII (Michael W. Deem and Ramdas Pophale) SiO2 
 PCOD8147564
Probable space group: C 2/C
;
_chemical_formula_sum "Si O2"
_cell_formula_units_Z 56
_cell_length_a 14.992083
_cell_length_b 12.310795
_cell_length_c 30.623792
_cell_angle_alpha 90.000000
_cell_angle_beta 26.404501
_cell_angle_gamma 90.000000
_cell_volume 2513.504030
_symmetry_space_group_name_H-M "C 2/C"
_symmetry_group_IT_number 15
_symmetry_cell_setting 'monoclinic'
loop_
_space_group_symop_operation_xyz
x,y,z
-x,y,1/2-z
-x,-y,-z
x,-y,1/2+z
1/2+x,1/2+y,z
1/2-x,1/2+y,1/2-z
1/2-x,1/2-y,-z
1/2+x,1/2-y,1/2+z
loop_
_atom_site_type_symbol
_atom_site_label
_atom_site_fract_x
_atom_site_fract_y
_atom_site_fract_z
Si Si1 0.571846 0.304732 0.034981
Si Si2 0.439604 0.897751 0.820625
Si Si3 0.227512 0.582837 0.977481
Si Si4 0.897209 0.480822 0.175615
Si Si5 0.179785 0.915581 0.417453
Si Si6 0.001933 0.944530 0.801247
Si Si7 0.624430 0.222408 0.597852
O O1 0.762818 0.333794 0.921439
O O2 0.562145 0.174458 0.038782
O O3 0.594966 0.358437 0.072544
O O4 0.360931 0.344727 0.108068
O O5 0.500000 0.829911 0.750000
O O6 0.612478 0.931087 0.779926
O O7 0.376249 0.012988 0.827247
O O8 0.323174 0.526641 0.893238
O O9 0.110439 0.495066 0.057340
O O10 0.708163 0.500399 0.227463
O O11 0.927710 0.355067 0.176678
O O12 0.206035 0.834268 0.446447
O O13 0.000000 0.000000 0.500000
O O14 0.000000 0.932922 0.750000
O O15 0.966743 0.828935 0.839209
O O16 0.750000 0.250000 0.500000
#
# Coordination Sequence:
#
# PCOD8147564 Si02
#       7
#     8   8   8   8   8   8   8
#     4   9  20  37  67  95 129 187 227 280 357 419
#     4   9  19  35  60 102 135 165 231 290 342 411
#     4  10  22  44  66  95 143 182 236 287 361 432
#     4  10  24  45  69  97 140 189 226 295 359 418
#     4   9  20  37  64  98 128 173 235 286 343 406
#     4  12  29  45  70 108 146 186 241 297 361 441
#     4  11  24  46  72 103 140 192 242 293 363 431
#
# _framework density 22.279654000000001
#
# number of rings (size 3 to 8) (size 9 to 14) (size 15 to 20)
#    0.000    2.000    1.429    0.857    4.000    9.143 
#    0.000    0.000    0.000    0.000    0.000    0.000 
#    0.000    0.000    0.000    0.000    0.000    0.000 
#
# Total GULP energy -346895.964879 kJ/mol
# GULP energy per Si atom -12389.141603 kJ/mol
# Density = 2.222894 g / cm^3
# Si number density = 22.279654 Si / 1000 Ang^3
#
#
#
# Elastic Constant Matrix: (Units=GPa)
#
#
# Indices 1 2 3 4 5 6 
#
# 1 121.3590 39.7973 27.9423 -0.0033 0.5162 -0.0025
# 2 39.7973 114.7506 20.3818 0.0051 1.7135 -0.0023
# 3 27.9423 20.3818 57.4640 0.0139 22.1460 0.0047
# 4 -0.0033 0.0051 0.0139 26.6620 0.0111 0.6409
# 5 0.5162 1.7135 22.1460 0.0111 42.9137 -0.0023
# 6 -0.0025 -0.0023 0.0047 0.6409 -0.0023 34.2102
#
#
#
# Elastic Compliance Matrix: (Units=1/GPa)
#
#
# Indices 1 2 3 4 5 6 
#
# 1 0.010276 -0.002709 -0.005030 0.000003 0.002580 0.000001
# 2 -0.002709 0.010110 -0.002654 -0.000001 0.000998 0.000001
# 3 -0.005030 -0.002654 0.025870 -0.000008 -0.013184 -0.000005
# 4 0.000003 -0.000001 -0.000008 0.037523 -0.000006 -0.000703
# 5 0.002580 0.000998 -0.013184 -0.000006 0.030035 0.000004
# 6 0.000001 0.000001 -0.000005 -0.000703 0.000004 0.029244
#
#
# Mechanical properties :
#
#
# Convention : Reuss Voigt Hill
#
# Bulk Modulus (GPa) = 39.26018 52.20183 45.73101
# Shear Modulus (GPa) = 29.01322 34.45401 31.73361
#
# Velocity S-wave (km/s) = 3.61256 3.93674 3.77813
# Velocity P-wave (km/s) = 5.92119 6.64417 6.29307
#
# Compressibility (1/GPa) = 0.02547110
#
# Stress axis : x y z
#
# Youngs Moduli (GPa) = 97.31869 98.90785 38.65410
#
# Poissons Ratio (x) = 0.26792 0.19444
# Poissons Ratio (y) = 0.26361 0.10257
# Poissons Ratio (z) = 0.48954 0.26246
#
# Static dielectric constant tensor:
#      x y z
#    x 4.473760 0.000000 0.105390 
#    y 0.000000 4.251170 0.000000 
#    z 0.105390 0.000000 3.727520 
# 
# 
# High freq. dielectric constant tensor:
#      x y z
#    x 1.880030 0.000000 0.008610 
#    y 0.000000 1.880700 0.000000 
#    z 0.008610 0.000000 1.862860 
# 
# From -- ./inp_files/313727.got.cif
#   From: 2010.06.25/outbox.cif.g09.slc.cpg/sg15_157_cif.got.tgz:313727.got - 2010.06.28 07:06:18.
