data_PCOD8147853
_publ_section_title
;
Structure prediction by ZEFSAII (Michael W. Deem and Ramdas Pophale) SiO2 
 PCOD8147853
Probable space group: C 2/C
;
_chemical_formula_sum "Si O2"
_cell_formula_units_Z 36
_cell_length_a 16.575598
_cell_length_b 7.799671
_cell_length_c 24.102840
_cell_angle_alpha 90.000000
_cell_angle_beta 31.745858
_cell_angle_gamma 90.000000
_cell_volume 1639.552408
_symmetry_space_group_name_H-M "C 2/C"
_symmetry_group_IT_number 15
_symmetry_cell_setting 'monoclinic'
loop_
_space_group_symop_operation_xyz
x,y,z
-x,y,1/2-z
-x,-y,-z
x,-y,1/2+z
1/2+x,1/2+y,z
1/2-x,1/2+y,1/2-z
1/2-x,1/2-y,-z
1/2+x,1/2-y,1/2+z
loop_
_atom_site_type_symbol
_atom_site_label
_atom_site_fract_x
_atom_site_fract_y
_atom_site_fract_z
Si Si1 0.757485 0.753813 0.328655
Si Si2 0.000000 0.556838 0.250000
Si Si3 0.594712 0.852255 0.098351
Si Si4 0.808568 0.122748 0.243703
Si Si5 0.977436 0.390214 0.958773
O O1 0.916260 0.670989 0.253249
O O2 0.668643 0.631422 0.336535
O O3 0.658626 0.761966 0.443677
O O4 0.799341 0.933529 0.274487
O O5 0.885232 0.441562 0.353659
O O6 0.445520 0.729563 0.191194
O O7 0.574087 0.989222 0.061526
O O8 0.750000 0.750000 0.000000
O O9 0.637859 0.207311 0.352203
O O10 0.000000 0.500000 0.000000
#
# Coordination Sequence:
#
# PCOD8147853 Si02
#       5
#     8   4   8   8   8
#     4  11  24  44  75 100 143 186 239 295 346 424
#     4  12  28  46  68 112 142 180 240 290 364 418
#     4  12  28  46  70 109 145 187 233 297 360 424
#     4  11  22  47  72 100 141 189 237 286 348 423
#     4  10  22  45  71  99 137 181 245 279 351 418
#
# _framework density 21.957212999999999
#
# number of rings (size 3 to 8) (size 9 to 14) (size 15 to 20)
#    0.000    0.889    6.667    0.000    9.333    2.667 
#    0.000    3.333    0.000    0.000    0.000    0.000 
#    0.000    0.000    0.000    0.000    0.000    0.000 
#
# Total GULP energy -223031.301836 kJ/mol
# GULP energy per Si atom -12390.627880 kJ/mol
# Density = 2.190724 g / cm^3
# Si number density = 21.957213 Si / 1000 Ang^3
#
#
#
# Elastic Constant Matrix: (Units=GPa)
#
#
# Indices 1 2 3 4 5 6 
#
# 1 108.8523 54.7710 45.7923 -0.0002 5.5629 -0.0014
# 2 54.7710 90.6834 70.9297 -0.0004 -0.8355 -0.0029
# 3 45.7923 70.9297 154.8646 0.0009 -2.7891 0.0005
# 4 -0.0002 -0.0004 0.0009 40.0698 0.0000 2.6344
# 5 5.5629 -0.8355 -2.7891 0.0000 45.2738 0.0002
# 6 -0.0014 -0.0029 0.0005 2.6344 0.0002 37.9851
#
#
#
# Elastic Compliance Matrix: (Units=1/GPa)
#
#
# Indices 1 2 3 4 5 6 
#
# 1 0.013360 -0.007745 -0.000436 0.000000 -0.001811 0.000000
# 2 -0.007745 0.021674 -0.007621 0.000000 0.000882 0.000001
# 3 -0.000436 -0.007621 0.010086 0.000000 0.000534 -0.000001
# 4 0.000000 0.000000 0.000000 0.025071 0.000000 -0.001739
# 5 -0.001811 0.000882 0.000534 0.000000 0.022360 0.000000
# 6 0.000000 0.000001 -0.000001 -0.001739 0.000000 0.026447
#
#
# Mechanical properties :
#
#
# Convention : Reuss Voigt Hill
#
# Bulk Modulus (GPa) = 73.98193 77.48738 75.73466
# Shear Modulus (GPa) = 32.23606 36.85954 34.54780
#
# Velocity S-wave (km/s) = 3.83578 4.10164 3.97093
# Velocity P-wave (km/s) = 7.30646 7.60250 7.45595
#
# Compressibility (1/GPa) = 0.01351681
#
# Stress axis : x y z
#
# Youngs Moduli (GPa) = 74.85270 46.13793 99.14494
#
# Poissons Ratio (x) = 0.35733 0.04320
# Poissons Ratio (y) = 0.57972 0.75559
# Poissons Ratio (z) = 0.03262 0.35162
#
# Static dielectric constant tensor:
#      x y z
#    x 3.890810 0.000000 -0.206480 
#    y 0.000000 3.663410 -0.000010 
#    z -0.206480 -0.000010 4.364710 
# 
# 
# High freq. dielectric constant tensor:
#      x y z
#    x 1.868670 0.000000 0.010890 
#    y 0.000000 1.848720 0.000000 
#    z 0.010890 0.000000 1.881770 
# 
# From -- ./inp_files/102510.got.cif
#   From: 2010.06.25/outbox.cif.g09.slc.cpg/sg15_52_cif.got.tgz:102510.got - 2010.06.28 07:06:18.
