data_PCOD8147039
_publ_section_title
;
Structure prediction by ZEFSAII (Michael W. Deem and Ramdas Pophale) SiO2 
 PCOD8147039
Probable space group: C 2/C
;
_chemical_formula_sum "Si O2"
_cell_formula_units_Z 32
_cell_length_a 20.688316
_cell_length_b 5.678424
_cell_length_c 17.719965
_cell_angle_alpha 90.000000
_cell_angle_beta 42.027944
_cell_angle_gamma 90.000000
_cell_volume 1393.676058
_symmetry_space_group_name_H-M "C 2/C"
_symmetry_group_IT_number 15
_symmetry_cell_setting 'monoclinic'
loop_
_space_group_symop_operation_xyz
x,y,z
-x,y,1/2-z
-x,-y,-z
x,-y,1/2+z
1/2+x,1/2+y,z
1/2-x,1/2+y,1/2-z
1/2-x,1/2-y,-z
1/2+x,1/2-y,1/2+z
loop_
_atom_site_type_symbol
_atom_site_label
_atom_site_fract_x
_atom_site_fract_y
_atom_site_fract_z
Si Si1 0.627728 0.567389 0.458291
Si Si2 0.694996 0.939979 0.499421
Si Si3 0.181770 0.662889 0.661377
Si Si4 0.027323 0.700789 0.916391
O O1 0.610827 0.806959 0.523576
O O2 0.740766 0.516910 0.369419
O O3 0.566106 0.337457 0.536723
O O4 0.597997 0.615509 0.397923
O O5 0.750000 0.750000 0.500000
O O6 0.770107 0.076542 0.378789
O O7 0.651536 0.116703 0.600120
O O8 0.086205 0.618246 0.792761
O O9 0.000000 0.500000 0.000000
#
# Coordination Sequence:
#
# PCOD8147039 Si02
#       4
#     8   8   8   8
#     4  10  23  39  64  97 134 169 218 274 329 399
#     4   9  20  42  65  94 126 174 222 265 333 389
#     4  10  22  42  69  92 132 178 219 276 333 402
#     4  11  25  41  63 102 132 173 224 272 344 398
#
# _framework density 22.960858999999999
#
# number of rings (size 3 to 8) (size 9 to 14) (size 15 to 20)
#    0.000    2.000    0.000    1.500    7.000    6.000 
#    0.000   30.000    0.000    0.000    0.000    0.000 
#    0.000    0.000    0.000    0.000    0.000    0.000 
#
# Total GULP energy -198266.044668 kJ/mol
# GULP energy per Si atom -12391.627792 kJ/mol
# Density = 2.290860 g / cm^3
# Si number density = 22.960859 Si / 1000 Ang^3
#
#
#
# Elastic Constant Matrix: (Units=GPa)
#
#
# Indices 1 2 3 4 5 6 
#
# 1 82.0866 16.6764 28.3090 0.0006 -1.7978 -0.0007
# 2 16.6764 108.3986 45.6355 0.0119 7.1106 0.0034
# 3 28.3090 45.6355 155.9879 0.0204 16.9488 -0.0018
# 4 0.0006 0.0119 0.0204 27.0522 -0.0048 -3.3071
# 5 -1.7978 7.1106 16.9488 -0.0048 24.9160 -0.0018
# 6 -0.0007 0.0034 -0.0018 -3.3071 -0.0018 55.4455
#
#
#
# Elastic Compliance Matrix: (Units=1/GPa)
#
#
# Indices 1 2 3 4 5 6 
#
# 1 0.013317 -0.001242 -0.002371 0.000003 0.002929 0.000000
# 2 -0.001242 0.010659 -0.002756 -0.000003 -0.001257 -0.000001
# 3 -0.002371 -0.002756 0.008186 -0.000006 -0.004953 0.000000
# 4 0.000003 -0.000003 -0.000006 0.037237 0.000012 0.002221
# 5 0.002929 -0.001257 -0.004953 0.000012 0.044074 0.000002
# 6 0.000000 -0.000001 0.000000 0.002221 0.000002 0.018168
#
#
# Mechanical properties :
#
#
# Convention : Reuss Voigt Hill
#
# Bulk Modulus (GPa) = 51.49079 58.63499 55.06289
# Shear Modulus (GPa) = 33.14446 38.53955 35.84200
#
# Velocity S-wave (km/s) = 3.80349 4.10138 3.95524
# Velocity P-wave (km/s) = 6.46242 6.92970 6.70014
#
# Compressibility (1/GPa) = 0.01942095
#
# Stress axis : x y z
#
# Youngs Moduli (GPa) = 75.09401 93.81540 122.16454
#
# Poissons Ratio (x) = 0.11656 0.28971
# Poissons Ratio (y) = 0.09330 0.33674
# Poissons Ratio (z) = 0.17808 0.25860
#
# Static dielectric constant tensor:
#      x y z
#    x 4.931830 -0.000150 0.223530 
#    y -0.000150 4.752700 0.000000 
#    z 0.223530 0.000000 3.693180 
# 
# 
# High freq. dielectric constant tensor:
#      x y z
#    x 1.927130 0.000000 0.003550 
#    y 0.000000 1.923760 0.000000 
#    z 0.003550 0.000000 1.861420 
# 
# From -- ./inp_files/164961.got.cif
#   From: 2010.06.25/outbox.cif.g09.slc.cpg/sg15_83_cif.got.tgz:164961.got - 2010.06.28 07:06:18.
