data_PCOD8147944
_publ_section_title
;
Structure prediction by ZEFSAII (Michael W. Deem and Ramdas Pophale) SiO2 
 PCOD8147944
Probable space group: C 2/C
;
_chemical_formula_sum "Si O2"
_cell_formula_units_Z 56
_cell_length_a 7.223069
_cell_length_b 21.074265
_cell_length_c 14.458289
_cell_angle_alpha 90.000000
_cell_angle_beta 99.015090
_cell_angle_gamma 90.000000
_cell_volume 2173.666426
_symmetry_space_group_name_H-M "C 2/C"
_symmetry_group_IT_number 15
_symmetry_cell_setting 'monoclinic'
loop_
_space_group_symop_operation_xyz
x,y,z
-x,y,1/2-z
-x,-y,-z
x,-y,1/2+z
1/2+x,1/2+y,z
1/2-x,1/2+y,1/2-z
1/2-x,1/2-y,-z
1/2+x,1/2-y,1/2+z
loop_
_atom_site_type_symbol
_atom_site_label
_atom_site_fract_x
_atom_site_fract_y
_atom_site_fract_z
Si Si1 0.217204 0.003868 0.345681
Si Si2 0.305607 0.471681 0.857321
Si Si3 0.204782 0.339748 0.927894
Si Si4 0.220967 0.302720 0.574195
Si Si5 0.792312 0.367087 0.378091
Si Si6 0.275056 0.753583 0.731414
Si Si7 0.326038 0.925729 0.017079
O O1 0.293290 0.023351 0.250867
O O2 0.371581 0.025428 0.434527
O O3 0.025814 0.039156 0.358519
O O4 0.173921 0.928627 0.340570
O O5 0.210969 0.413865 0.903336
O O6 0.285518 0.536684 0.913247
O O7 0.308154 0.298073 0.857735
O O8 0.993245 0.316297 0.917703
O O9 0.297163 0.332177 0.037778
O O10 0.250000 0.250000 0.500000
O O11 0.312751 0.278569 0.678501
O O12 0.302404 0.368934 0.538683
O O13 0.796319 0.318058 0.293201
O O14 0.996617 0.392683 0.422154
O O15 0.500000 0.754276 0.750000
#
# Coordination Sequence:
#
# PCOD8147944 Si02
#       7
#     8   8   8   8   8   8   8
#     4  11  25  44  71 109 145 193 247 310 368 449
#     4  11  25  44  74 107 146 196 251 299 377 449
#     4  10  22  46  72 103 140 194 241 302 362 441
#     4  10  24  44  71 103 146 191 242 298 366 432
#     4  11  24  42  72 109 143 186 250 305 373 445
#     4  10  23  45  73 101 141 197 250 302 365 445
#     4  11  24  47  70 108 150 189 240 310 380 441
#
# _framework density 25.762922
#
# number of rings (size 3 to 8) (size 9 to 14) (size 15 to 20)
#    0.000    1.429    1.429    2.143    6.000    2.857 
#    7.714    0.000    0.000    0.000    0.000    0.000 
#    0.000    0.000    0.000    0.000    0.000    0.000 
#
# Total GULP energy -347036.334218 kJ/mol
# GULP energy per Si atom -12394.154794 kJ/mol
# Density = 2.570428 g / cm^3
# Si number density = 25.762922 Si / 1000 Ang^3
#
#
#
# Elastic Constant Matrix: (Units=GPa)
#
#
# Indices 1 2 3 4 5 6 
#
# 1 33.4108 33.3709 27.3101 0.0000 -7.0023 0.0000
# 2 33.3709 154.3289 64.4040 0.0000 -17.9622 0.0000
# 3 27.3101 64.4040 170.5991 0.0000 -16.0032 0.0000
# 4 0.0000 0.0000 0.0000 58.4758 0.0000 9.4386
# 5 -7.0023 -17.9622 -16.0032 0.0000 26.7821 0.0000
# 6 0.0000 0.0000 0.0000 9.4386 0.0000 24.9828
#
#
#
# Elastic Compliance Matrix: (Units=1/GPa)
#
#
# Indices 1 2 3 4 5 6 
#
# 1 0.040445 -0.006817 -0.003536 0.000000 0.003889 0.000000
# 2 -0.006817 0.009188 -0.002083 0.000000 0.003135 0.000000
# 3 -0.003536 -0.002083 0.007412 0.000000 0.002107 0.000000
# 4 0.000000 0.000000 0.000000 0.018212 0.000000 -0.006880
# 5 0.003889 0.003135 0.002107 0.000000 0.041717 0.000000
# 6 0.000000 0.000000 0.000000 -0.006880 0.000000 0.042627
#
#
# Mechanical properties :
#
#
# Convention : Reuss Voigt Hill
#
# Bulk Modulus (GPa) = 31.08306 67.61210 49.34758
# Shear Modulus (GPa) = 25.61508 37.59839 31.60674
#
# Velocity S-wave (km/s) = 3.15661 3.82435 3.50641
# Velocity P-wave (km/s) = 5.03754 6.76770 5.96568
#
# Compressibility (1/GPa) = 0.03217186
#
# Stress axis : x y z
#
# Youngs Moduli (GPa) = 24.72493 108.83742 134.91842
#
# Poissons Ratio (x) = 0.74196 0.47709
# Poissons Ratio (y) = 0.16855 0.28107
# Poissons Ratio (z) = 0.08743 0.22673
#
# Static dielectric constant tensor:
#      x y z
#    x 4.058530 0.000000 0.064670 
#    y 0.000000 5.041420 0.000000 
#    z 0.064670 0.000000 5.444830 
# 
# 
# High freq. dielectric constant tensor:
#      x y z
#    x 1.998060 0.000000 0.000780 
#    y 0.000000 2.044700 0.000000 
#    z 0.000780 0.000000 2.052200 
# 
# From -- ./inp_files/136450.got.cif
#   From: 2010.06.25/outbox.cif.g09.slc.cpg/sg15_69_cif.got.tgz:136450.got - 2010.06.28 07:06:18.
