data_PCOD8147643
_publ_section_title
;
Structure prediction by ZEFSAII (Michael W. Deem and Ramdas Pophale) SiO2 
 PCOD8147643
Probable space group: C 2/C
;
_chemical_formula_sum "Si O2"
_cell_formula_units_Z 40
_cell_length_a 9.015804
_cell_length_b 7.989788
_cell_length_c 23.459308
_cell_angle_alpha 90.000000
_cell_angle_beta 86.101166
_cell_angle_gamma 90.000000
_cell_volume 1685.965355
_symmetry_space_group_name_H-M "C 2/C"
_symmetry_group_IT_number 15
_symmetry_cell_setting 'monoclinic'
loop_
_space_group_symop_operation_xyz
x,y,z
-x,y,1/2-z
-x,-y,-z
x,-y,1/2+z
1/2+x,1/2+y,z
1/2-x,1/2+y,1/2-z
1/2-x,1/2-y,-z
1/2+x,1/2-y,1/2+z
loop_
_atom_site_type_symbol
_atom_site_label
_atom_site_fract_x
_atom_site_fract_y
_atom_site_fract_z
Si Si1 0.627877 0.063820 0.424938
Si Si2 0.701407 0.088654 0.034432
Si Si3 0.142206 0.199363 0.368283
Si Si4 0.674814 0.696741 0.172428
Si Si5 0.832843 0.558534 0.270713
O O1 0.457619 0.120133 0.431709
O O2 0.720918 0.198687 0.386464
O O3 0.693370 0.060828 0.488196
O O4 0.636194 0.884415 0.393986
O O5 0.820210 0.063918 0.082486
O O6 0.750000 0.250000 0.000000
O O7 0.270799 0.193650 0.317216
O O8 0.989303 0.144508 0.342834
O O9 0.733787 0.560527 0.216018
O O10 0.675360 0.876510 0.201547
O O11 0.000000 0.608533 0.250000
#
# Coordination Sequence:
#
# PCOD8147643 Si02
#       5
#     8   8   8   8   8
#     4  10  22  44  68  96 133 169 211 263 318 383
#     4   9  20  41  69  97 131 171 210 259 320 383
#     4  11  23  43  67  96 129 167 215 266 319 379
#     4  12  25  42  66  94 127 168 217 268 320 382
#     4  12  26  44  64  92 129 170 216 268 322 383
#
# _framework density 23.725280999999999
#
# number of rings (size 3 to 8) (size 9 to 14) (size 15 to 20)
#    0.000    1.200    0.000    6.600    0.000    7.200 
#    0.000   17.000    0.000    0.000    0.000    0.000 
#    0.000    0.000    0.000    0.000    0.000    0.000 
#
# Total GULP energy -247950.403122 kJ/mol
# GULP energy per Si atom -12397.520156 kJ/mol
# Density = 2.367128 g / cm^3
# Si number density = 23.725281 Si / 1000 Ang^3
#
#
#
# Elastic Constant Matrix: (Units=GPa)
#
#
# Indices 1 2 3 4 5 6 
#
# 1 191.8131 62.8437 113.0353 0.0000 5.5926 0.0000
# 2 62.8437 50.5638 39.2310 0.0000 -5.6934 0.0000
# 3 113.0353 39.2310 166.2043 0.0000 -13.4895 0.0000
# 4 0.0000 0.0000 0.0000 41.7277 0.0000 -13.0752
# 5 5.5926 -5.6934 -13.4895 0.0000 56.2053 0.0000
# 6 0.0000 0.0000 0.0000 -13.0752 0.0000 27.3016
#
#
#
# Elastic Compliance Matrix: (Units=1/GPa)
#
#
# Indices 1 2 3 4 5 6 
#
# 1 0.012814 -0.011459 -0.006331 0.000000 -0.003955 0.000000
# 2 -0.011459 0.034526 0.000021 0.000000 0.004643 0.000000
# 3 -0.006331 0.000021 0.010575 0.000000 0.003170 0.000000
# 4 0.000000 0.000000 0.000000 0.028196 0.000000 0.013504
# 5 -0.003955 0.004643 0.003170 0.000000 0.019417 0.000000
# 6 0.000000 0.000000 0.000000 0.013504 0.000000 0.043095
#
#
# Mechanical properties :
#
#
# Convention : Reuss Voigt Hill
#
# Bulk Modulus (GPa) = 44.69143 93.20013 68.94578
# Shear Modulus (GPa) = 26.09332 37.94500 32.01916
#
# Velocity S-wave (km/s) = 3.31994 4.00352 3.67765
# Velocity P-wave (km/s) = 5.79430 7.79354 6.86707
#
# Compressibility (1/GPa) = 0.02237565
#
# Stress axis : x y z
#
# Youngs Moduli (GPa) = 78.04003 28.96371 94.56519
#
# Poissons Ratio (x) = 0.33190 0.59868
# Poissons Ratio (y) = 0.89429 -0.00196
# Poissons Ratio (z) = 0.49406 -0.00060
#
# Static dielectric constant tensor:
#      x y z
#    x 4.515300 0.000000 0.269060 
#    y 0.000000 3.866900 0.000000 
#    z 0.269060 0.000000 5.380720 
# 
# 
# High freq. dielectric constant tensor:
#      x y z
#    x 1.942520 0.000000 0.003940 
#    y 0.000000 1.911830 0.000000 
#    z 0.003940 0.000000 1.979220 
# 
# From -- ./inp_files/262460.got.cif
#   From: 2010.06.25/outbox.cif.g09.slc.cpg/sg15_132_cif.got.tgz:262460.got - 2010.06.28 07:06:18.
