data_PCOD8147706
_publ_section_title
;
Structure prediction by ZEFSAII (Michael W. Deem and Ramdas Pophale) SiO2 
 PCOD8147706
Probable space group: C 2/C
;
_chemical_formula_sum "Si O2"
_cell_formula_units_Z 56
_cell_length_a 7.898693
_cell_length_b 30.264153
_cell_length_c 10.749989
_cell_angle_alpha 90.000000
_cell_angle_beta 71.394380
_cell_angle_gamma 90.000000
_cell_volume 2435.452529
_symmetry_space_group_name_H-M "C 2/C"
_symmetry_group_IT_number 15
_symmetry_cell_setting 'monoclinic'
loop_
_space_group_symop_operation_xyz
x,y,z
-x,y,1/2-z
-x,-y,-z
x,-y,1/2+z
1/2+x,1/2+y,z
1/2-x,1/2+y,1/2-z
1/2-x,1/2-y,-z
1/2+x,1/2-y,1/2+z
loop_
_atom_site_type_symbol
_atom_site_label
_atom_site_fract_x
_atom_site_fract_y
_atom_site_fract_z
Si Si1 0.391247 0.464146 0.901109
Si Si2 0.500000 0.095703 0.250000
Si Si3 0.280454 0.446394 0.501921
Si Si4 0.700618 0.885453 0.060768
Si Si5 0.717573 0.126563 0.830764
Si Si6 0.317308 0.171473 0.147998
Si Si7 0.872893 0.716636 0.546264
Si Si8 0.000000 0.765947 0.750000
O O1 0.500000 0.457251 0.750000
O O2 0.538021 0.458408 0.972085
O O3 0.265065 0.508131 0.926383
O O4 0.247974 0.426669 0.963643
O O5 0.390010 0.063875 0.369701
O O6 0.351727 0.127133 0.220173
O O7 0.319834 0.405072 0.402663
O O8 0.488219 0.886594 0.120363
O O9 0.793460 0.882241 0.174216
O O10 0.757504 0.841928 0.970692
O O11 0.746346 0.177648 0.863628
O O12 0.172356 0.204193 0.238054
O O13 0.504862 0.196639 0.091322
O O14 0.750000 0.750000 0.500000
O O15 0.002313 0.736422 0.624316
#
# Coordination Sequence:
#
# PCOD8147706 Si02
#       8
#     8   4   8   8   8   8   8   4
#     4  11  27  45  67 105 140 177 230 287 355 419
#     4  12  22  46  72  99 138 192 237 282 352 434
#     4  11  26  44  70  98 137 179 228 293 338 422
#     4  10  22  44  71 100 139 182 230 287 350 418
#     4  10  23  45  72 100 136 183 241 285 352 420
#     4  11  24  43  68 106 140 188 234 287 362 423
#     4  11  23  45  69 103 142 189 240 300 351 421
#     4  12  26  40  72 103 150 178 239 306 350 426
#
# _framework density 22.993673000000001
#
# number of rings (size 3 to 8) (size 9 to 14) (size 15 to 20)
#    0.000    1.143    2.857    3.857    7.000    1.714 
#    0.000    1.429    0.000    0.000    0.000    0.000 
#    0.000    0.000    0.000    0.000    0.000    0.000 
#
# Total GULP energy -346969.303643 kJ/mol
# GULP energy per Si atom -12391.760844 kJ/mol
# Density = 2.294134 g / cm^3
# Si number density = 22.993673 Si / 1000 Ang^3
#
#
#
# Elastic Constant Matrix: (Units=GPa)
#
#
# Indices 1 2 3 4 5 6 
#
# 1 48.4409 41.4488 20.7134 0.0000 12.7551 0.0000
# 2 41.4488 159.7913 63.8881 0.0000 -0.3194 0.0000
# 3 20.7134 63.8881 123.1718 0.0000 9.1364 0.0000
# 4 0.0000 0.0000 0.0000 81.1549 0.0000 22.6747
# 5 12.7551 -0.3194 9.1364 0.0000 27.4424 0.0000
# 6 0.0000 0.0000 0.0000 22.6747 0.0000 55.0179
#
#
#
# Elastic Compliance Matrix: (Units=1/GPa)
#
#
# Indices 1 2 3 4 5 6 
#
# 1 0.031563 -0.008242 0.000064 0.000000 -0.014787 0.000000
# 2 -0.008242 0.010108 -0.004255 0.000000 0.005365 0.000000
# 3 0.000064 -0.004255 0.010582 0.000000 -0.003603 0.000000
# 4 0.000000 0.000000 0.000000 0.013926 0.000000 -0.005739
# 5 -0.014787 0.005365 -0.003603 0.000000 0.044575 0.000000
# 6 0.000000 0.000000 0.000000 -0.005739 0.000000 0.020541
#
#
# Mechanical properties :
#
#
# Convention : Reuss Voigt Hill
#
# Bulk Modulus (GPa) = 36.51374 64.83384 50.67379
# Shear Modulus (GPa) = 30.24999 46.41329 38.33164
#
# Velocity S-wave (km/s) = 3.63103 4.49767 4.08738
# Velocity P-wave (km/s) = 5.78736 7.43167 6.66045
#
# Compressibility (1/GPa) = 0.02738695
#
# Stress axis : x y z
#
# Youngs Moduli (GPa) = 31.68311 98.93061 94.49928
#
# Poissons Ratio (x) = 0.81543 -0.00608
# Poissons Ratio (y) = 0.26115 0.40208
# Poissons Ratio (z) = -0.00204 0.42093
#
# Static dielectric constant tensor:
#      x y z
#    x 3.892470 0.000000 0.215460 
#    y 0.000000 4.518590 0.000000 
#    z 0.215460 0.000000 4.667400 
# 
# 
# High freq. dielectric constant tensor:
#      x y z
#    x 1.893590 0.000000 0.010570 
#    y 0.000000 1.919190 0.000000 
#    z 0.010570 0.000000 1.919410 
# 
# From -- ./inp_files/81305.got.cif
#   From: 2010.06.25/outbox.cif.g09.slc.cpg/sg15_41_cif.got.tgz:81305.got - 2010.06.28 07:06:18.
