data_PCOD8147017
_publ_section_title
;
Structure prediction by ZEFSAII (Michael W. Deem and Ramdas Pophale) SiO2 
 PCOD8147017
Probable space group: C 2/C
;
_chemical_formula_sum "Si O2"
_cell_formula_units_Z 56
_cell_length_a 20.794654
_cell_length_b 15.551948
_cell_length_c 8.624100
_cell_angle_alpha 90.000000
_cell_angle_beta 116.625932
_cell_angle_gamma 90.000000
_cell_volume 2493.240830
_symmetry_space_group_name_H-M "C 2/C"
_symmetry_group_IT_number 15
_symmetry_cell_setting 'monoclinic'
loop_
_space_group_symop_operation_xyz
x,y,z
-x,y,1/2-z
-x,-y,-z
x,-y,1/2+z
1/2+x,1/2+y,z
1/2-x,1/2+y,1/2-z
1/2-x,1/2-y,-z
1/2+x,1/2-y,1/2+z
loop_
_atom_site_type_symbol
_atom_site_label
_atom_site_fract_x
_atom_site_fract_y
_atom_site_fract_z
Si Si1 0.976528 0.378907 0.400052
Si Si2 0.446859 0.315461 0.835364
Si Si3 0.387018 0.041584 0.342417
Si Si4 0.300764 0.671591 0.009602
Si Si5 0.067489 0.946458 0.416834
Si Si6 0.785852 0.487853 0.988191
Si Si7 0.344840 0.418302 0.284522
O O1 0.952344 0.281952 0.398596
O O2 0.911006 0.441291 0.373106
O O3 0.000000 0.398782 0.250000
O O4 0.043377 0.397017 0.589533
O O5 0.500000 0.334037 0.750000
O O6 0.364775 0.333897 0.701735
O O7 0.464976 0.375336 0.001553
O O8 0.343788 0.064911 0.450605
O O9 0.330919 0.054965 0.142055
O O10 0.258140 0.582155 0.962981
O O11 0.333758 0.672041 0.868690
O O12 0.250000 0.750000 0.000000
O O13 0.120782 0.902904 0.347806
O O14 0.000000 0.987223 0.250000
O O15 0.106092 0.020717 0.554560
O O16 0.733467 0.540812 0.821197
#
# Coordination Sequence:
#
# PCOD8147017 Si02
#       7
#     8   8   8   8   8   8   8
#     4  10  22  42  68  97 136 184 235 277 351 422
#     4  11  25  47  66 101 143 184 232 294 359 420
#     4  11  22  40  70 101 131 183 233 289 343 425
#     4  12  26  45  73 102 141 190 236 294 362 421
#     4  12  24  45  71 100 132 181 236 288 345 415
#     4  12  22  42  70 102 137 176 234 288 351 425
#     4  12  24  45  71 105 135 180 238 288 351 430
#
# _framework density 22.460726999999999
#
# number of rings (size 3 to 8) (size 9 to 14) (size 15 to 20)
#    0.000    0.571    5.714    2.143    2.000    1.143 
#    2.571    0.714    0.000    0.000    0.000    0.000 
#    0.000    0.000    0.000    0.000    0.000    0.000 
#
# Total GULP energy -347144.110323 kJ/mol
# GULP energy per Si atom -12398.003940 kJ/mol
# Density = 2.240961 g / cm^3
# Si number density = 22.460727 Si / 1000 Ang^3
#
#
#
# Elastic Constant Matrix: (Units=GPa)
#
#
# Indices 1 2 3 4 5 6 
#
# 1 103.4795 31.7645 42.2060 0.0000 -6.3002 0.0000
# 2 31.7645 81.6000 42.0544 0.0000 -7.9707 0.0000
# 3 42.2060 42.0544 137.0767 0.0000 16.9299 0.0000
# 4 0.0000 0.0000 0.0000 26.2488 0.0000 -1.9594
# 5 -6.3002 -7.9707 16.9299 0.0000 52.6020 0.0000
# 6 0.0000 0.0000 0.0000 -1.9594 0.0000 38.6992
#
#
#
# Elastic Compliance Matrix: (Units=1/GPa)
#
#
# Indices 1 2 3 4 5 6 
#
# 1 0.011901 -0.002884 -0.003022 0.000000 0.001961 0.000000
# 2 -0.002884 0.016021 -0.004462 0.000000 0.003518 0.000000
# 3 -0.003022 -0.004462 0.010125 0.000000 -0.004297 0.000000
# 4 0.000000 0.000000 0.000000 0.038242 0.000000 0.001936
# 5 0.001961 0.003518 -0.004297 0.000000 0.021162 0.000000
# 6 0.000000 0.000000 0.000000 0.001936 0.000000 0.025938
#
#
# Mechanical properties :
#
#
# Convention : Reuss Voigt Hill
#
# Bulk Modulus (GPa) = 57.76289 61.57844 59.67066
# Shear Modulus (GPa) = 33.35717 37.25208 35.30462
#
# Velocity S-wave (km/s) = 3.85792 4.07694 3.96894
# Velocity P-wave (km/s) = 6.75410 7.04539 6.90128
#
# Compressibility (1/GPa) = 0.01731215
#
# Stress axis : x y z
#
# Youngs Moduli (GPa) = 84.02778 62.41994 98.76498
#
# Poissons Ratio (x) = 0.18001 0.29844
# Poissons Ratio (y) = 0.24232 0.44065
# Poissons Ratio (z) = 0.25391 0.27849
#
# Static dielectric constant tensor:
#      x y z
#    x 4.355070 0.000000 0.028140 
#    y 0.000000 3.757000 0.000000 
#    z 0.028140 0.000000 4.478910 
# 
# 
# High freq. dielectric constant tensor:
#      x y z
#    x 1.908980 0.000000 0.009300 
#    y 0.000000 1.847700 0.000000 
#    z 0.009300 0.000000 1.900210 
# 
# From -- ./inp_files/56737.got.cif
#   From: 2010.06.25/outbox.cif.g09.slc.cpg/sg15_29_cif.got.tgz:56737.got - 2010.06.28 07:06:18.
