data_PCOD8147399
_publ_section_title
;
Structure prediction by ZEFSAII (Michael W. Deem and Ramdas Pophale) SiO2 
 PCOD8147399
Probable space group: C 2/C
;
_chemical_formula_sum "Si O2"
_cell_formula_units_Z 32
_cell_length_a 5.408294
_cell_length_b 29.662900
_cell_length_c 8.469915
_cell_angle_alpha 90.000000
_cell_angle_beta 94.355840
_cell_angle_gamma 90.000000
_cell_volume 1354.867155
_symmetry_space_group_name_H-M "C 2/C"
_symmetry_group_IT_number 15
_symmetry_cell_setting 'monoclinic'
loop_
_space_group_symop_operation_xyz
x,y,z
-x,y,1/2-z
-x,-y,-z
x,-y,1/2+z
1/2+x,1/2+y,z
1/2-x,1/2+y,1/2-z
1/2-x,1/2-y,-z
1/2+x,1/2-y,1/2+z
loop_
_atom_site_type_symbol
_atom_site_label
_atom_site_fract_x
_atom_site_fract_y
_atom_site_fract_z
Si Si1 0.234157 0.715764 0.144654
Si Si2 0.000000 0.920593 0.250000
Si Si3 0.500000 0.434252 0.750000
Si Si4 0.666624 0.042740 0.479370
Si Si5 0.289053 0.880878 0.003324
O O1 0.500000 0.714811 0.250000
O O2 0.000000 0.727111 0.250000
O O3 0.250000 0.750000 0.000000
O O4 0.168678 0.669512 0.052429
O O5 0.117220 0.955680 0.380083
O O6 0.206721 0.887027 0.182516
O O7 0.726115 0.464199 0.693534
O O8 0.437918 0.401943 0.602552
O O9 0.533937 0.090923 0.479890
O O10 0.500000 0.000000 0.500000
#
# Coordination Sequence:
#
# PCOD8147399 Si02
#       5
#     8   4   4   8   8
#     4  12  28  51  82 119 159 205 261 322 395 473
#     4  10  26  43  68 104 144 188 248 312 367 450
#     4  10  22  43  70  94 140 188 238 304 361 452
#     4  11  25  44  68 103 141 193 248 307 373 448
#     4  11  24  44  73 102 146 189 248 299 383 447
#
# _framework density 23.618549000000002
#
# number of rings (size 3 to 8) (size 9 to 14) (size 15 to 20)
#    0.000    1.000    1.250    3.750    5.250   12.000 
#    0.000    3.750    0.000    0.000    0.000    0.000 
#    0.000    0.000    0.000    0.000    0.000    0.000 
#
# Total GULP energy -198295.298319 kJ/mol
# GULP energy per Si atom -12393.456145 kJ/mol
# Density = 2.356479 g / cm^3
# Si number density = 23.618549 Si / 1000 Ang^3
#
#
#
# Elastic Constant Matrix: (Units=GPa)
#
#
# Indices 1 2 3 4 5 6 
#
# 1 144.2823 64.2281 56.6310 0.0000 -41.4809 0.0000
# 2 64.2281 161.2222 73.4117 0.0000 -18.7212 0.0000
# 3 56.6310 73.4117 129.6563 0.0000 -50.3715 0.0000
# 4 0.0000 0.0000 0.0000 35.5574 0.0000 -2.2403
# 5 -41.4809 -18.7212 -50.3715 0.0000 62.0578 0.0000
# 6 0.0000 0.0000 0.0000 -2.2403 0.0000 32.8842
#
#
#
# Elastic Compliance Matrix: (Units=1/GPa)
#
#
# Indices 1 2 3 4 5 6 
#
# 1 0.010084 -0.003149 -0.000543 0.000000 0.005349 0.000000
# 2 -0.003149 0.009501 -0.005417 0.000000 -0.003635 0.000000
# 3 -0.000543 -0.005417 0.014958 0.000000 0.010144 0.000000
# 4 0.000000 0.000000 0.000000 0.028245 0.000000 0.001924
# 5 0.005349 -0.003635 0.010144 0.000000 0.026827 0.000000
# 6 0.000000 0.000000 0.000000 0.001924 0.000000 0.030541
#
#
# Mechanical properties :
#
#
# Convention : Reuss Voigt Hill
#
# Bulk Modulus (GPa) = 61.25344 91.52251 76.38797
# Shear Modulus (GPa) = 34.76719 42.15923 38.46321
#
# Velocity S-wave (km/s) = 3.84087 4.22952 4.03987
# Velocity P-wave (km/s) = 6.75725 7.91746 7.36025
#
# Compressibility (1/GPa) = 0.01632561
#
# Stress axis : x y z
#
# Youngs Moduli (GPa) = 99.17060 105.24912 66.85488
#
# Poissons Ratio (x) = 0.33138 0.03633
# Poissons Ratio (y) = 0.31224 0.36212
# Poissons Ratio (z) = 0.05389 0.57009
#
# Static dielectric constant tensor:
#      x y z
#    x 3.408290 0.000000 0.828270 
#    y 0.000000 4.163220 0.000000 
#    z 0.828270 0.000000 4.198380 
# 
# 
# High freq. dielectric constant tensor:
#      x y z
#    x 1.955050 0.000000 -0.007880 
#    y 0.000000 1.918820 0.000000 
#    z -0.007880 0.000000 1.962940 
# 
# From -- ./inp_files/19979.got.cif
#   From: 2010.06.25/outbox.cif.g09.slc.cpg/sg15_10_cif.got.tgz:19979.got - 2010.06.28 07:06:18.
