data_PCOD8147750
_publ_section_title
;
Structure prediction by ZEFSAII (Michael W. Deem and Ramdas Pophale) SiO2 
 PCOD8147750
Probable space group: C 2/C
;
_chemical_formula_sum "Si O2"
_cell_formula_units_Z 32
_cell_length_a 17.157503
_cell_length_b 9.195763
_cell_length_c 9.697902
_cell_angle_alpha 90.000000
_cell_angle_beta 61.846582
_cell_angle_gamma 90.000000
_cell_volume 1349.069282
_symmetry_space_group_name_H-M "C 2/C"
_symmetry_group_IT_number 15
_symmetry_cell_setting 'monoclinic'
loop_
_space_group_symop_operation_xyz
x,y,z
-x,y,1/2-z
-x,-y,-z
x,-y,1/2+z
1/2+x,1/2+y,z
1/2-x,1/2+y,1/2-z
1/2-x,1/2-y,-z
1/2+x,1/2-y,1/2+z
loop_
_atom_site_type_symbol
_atom_site_label
_atom_site_fract_x
_atom_site_fract_y
_atom_site_fract_z
Si Si1 0.949576 0.159738 0.109763
Si Si2 0.791703 0.590332 0.445533
Si Si3 0.899813 0.530379 0.622655
Si Si4 0.890265 0.972037 0.926025
O O1 0.902368 0.309525 0.189078
O O2 0.912611 0.033597 0.244117
O O3 0.057159 0.163144 0.043726
O O4 0.927656 0.118502 0.969834
O O5 0.750000 0.750000 0.500000
O O6 0.836296 0.530540 0.545185
O O7 0.863466 0.587031 0.262539
O O8 0.715317 0.473758 0.468003
O O9 0.000000 0.500000 0.500000
#
# Coordination Sequence:
#
# PCOD8147750 Si02
#       4
#     8   8   8   8
#     4  10  23  45  71 107 142 190 240 298 381 437
#     4  12  27  50  75 110 147 197 253 309 375 446
#     4  12  29  49  72 108 152 197 246 315 374 447
#     4  10  22  44  73 103 141 189 242 301 362 448
#
# _framework density 23.720057000000001
#
# number of rings (size 3 to 8) (size 9 to 14) (size 15 to 20)
#    0.000    1.000    2.500    2.250    7.000    9.000 
#    0.000    0.000    0.000    0.000    0.000    0.000 
#    0.000    0.000    0.000    0.000    0.000    0.000 
#
# Total GULP energy -198225.486764 kJ/mol
# GULP energy per Si atom -12389.092923 kJ/mol
# Density = 2.366607 g / cm^3
# Si number density = 23.720057 Si / 1000 Ang^3
#
#
#
# Elastic Constant Matrix: (Units=GPa)
#
#
# Indices 1 2 3 4 5 6 
#
# 1 183.9211 44.0729 55.0069 0.0000 -9.4000 0.0000
# 2 44.0729 76.4190 71.5090 0.0000 2.5384 0.0000
# 3 55.0069 71.5090 156.8776 0.0000 -4.5142 0.0000
# 4 0.0000 0.0000 0.0000 39.4573 0.0000 -8.1690
# 5 -9.4000 2.5384 -4.5142 0.0000 45.1915 0.0000
# 6 0.0000 0.0000 0.0000 -8.1690 0.0000 39.1161
#
#
#
# Elastic Compliance Matrix: (Units=1/GPa)
#
#
# Indices 1 2 3 4 5 6 
#
# 1 0.006483 -0.002960 -0.000883 0.000000 0.001427 0.000000
# 2 -0.002960 0.024417 -0.010179 0.000000 -0.003004 0.000000
# 3 -0.000883 -0.010179 0.011367 0.000000 0.001524 0.000000
# 4 0.000000 0.000000 0.000000 0.026489 0.000000 0.005532
# 5 0.001427 -0.003004 0.001524 0.000000 0.022746 0.000000
# 6 0.000000 0.000000 0.000000 0.005532 0.000000 0.026720
#
#
# Mechanical properties :
#
#
# Convention : Reuss Voigt Hill
#
# Bulk Modulus (GPa) = 70.30017 84.26616 77.28317
# Shear Modulus (GPa) = 33.11067 41.19491 37.15279
#
# Velocity S-wave (km/s) = 3.74022 4.17191 3.96195
# Velocity P-wave (km/s) = 6.95371 7.66869 7.31994
#
# Compressibility (1/GPa) = 0.01422472
#
# Stress axis : x y z
#
# Youngs Moduli (GPa) = 154.23807 40.95428 87.97067
#
# Poissons Ratio (x) = 0.12124 0.07766
# Poissons Ratio (y) = 0.45662 0.89541
# Poissons Ratio (z) = 0.13616 0.41685
#
# Static dielectric constant tensor:
#      x y z
#    x 4.836840 0.000000 -0.092880 
#    y 0.000000 4.276000 0.000000 
#    z -0.092880 0.000000 4.176830 
# 
# 
# High freq. dielectric constant tensor:
#      x y z
#    x 1.973400 0.000000 0.006220 
#    y 0.000000 1.910230 0.000000 
#    z 0.006220 0.000000 1.932450 
# 
# From -- ./inp_files/102395.got.cif
#   From: 2010.06.25/outbox.cif.g09.slc.cpg/sg15_52_cif.got.tgz:102395.got - 2010.06.28 07:06:18.
