data_PCOD8147806
_publ_section_title
;
Structure prediction by ZEFSAII (Michael W. Deem and Ramdas Pophale) SiO2 
 PCOD8147806
Probable space group: C 2/C
;
_chemical_formula_sum "Si O2"
_cell_formula_units_Z 56
_cell_length_a 12.734304
_cell_length_b 28.013932
_cell_length_c 9.046951
_cell_angle_alpha 90.000000
_cell_angle_beta 58.054411
_cell_angle_gamma 90.000000
_cell_volume 2738.605315
_symmetry_space_group_name_H-M "C 2/C"
_symmetry_group_IT_number 15
_symmetry_cell_setting 'monoclinic'
loop_
_space_group_symop_operation_xyz
x,y,z
-x,y,1/2-z
-x,-y,-z
x,-y,1/2+z
1/2+x,1/2+y,z
1/2-x,1/2+y,1/2-z
1/2-x,1/2-y,-z
1/2+x,1/2-y,1/2+z
loop_
_atom_site_type_symbol
_atom_site_label
_atom_site_fract_x
_atom_site_fract_y
_atom_site_fract_z
Si Si1 0.557330 0.543302 0.868290
Si Si2 0.319021 0.970161 0.276578
Si Si3 0.610583 0.193367 0.054362
Si Si4 0.299858 0.060527 0.125546
Si Si5 0.516832 0.119633 0.899353
Si Si6 0.391269 0.696944 0.948580
Si Si7 0.941214 0.881291 0.638425
O O1 0.500000 0.545284 0.750000
O O2 0.703569 0.537105 0.752753
O O3 0.500000 0.500000 0.000000
O O4 0.542142 0.593890 0.959971
O O5 0.291620 0.964798 0.470809
O O6 0.422320 0.932730 0.152495
O O7 0.357010 0.024567 0.206916
O O8 0.500000 0.180072 0.250000
O O9 0.593276 0.247949 0.018217
O O10 0.595638 0.158120 0.928254
O O11 0.751882 0.185601 0.999267
O O12 0.164747 0.078807 0.268905
O O13 0.382267 0.108655 0.067232
O O14 0.500000 0.141985 0.750000
O O15 0.500000 0.683124 0.750000
O O16 0.402716 0.667881 0.091163
O O17 0.000000 0.867163 0.750000
#
# Coordination Sequence:
#
# PCOD8147806 Si02
#       7
#     8   8   8   8   8   8   8
#     4  12  23  37  58  86 120 165 202 252 311 362
#     4  11  23  39  58  86 124 161 209 253 297 364
#     4  10  22  45  67  94 126 160 206 257 318 379
#     4  11  23  40  58  87 123 164 206 255 299 362
#     4  10  24  40  62  88 122 162 209 253 307 368
#     4  10  24  42  68  96 124 160 207 261 313 380
#     4  12  24  39  60  92 126 157 206 254 312 371
#
# _framework density 20.448364000000002
#
# number of rings (size 3 to 8) (size 9 to 14) (size 15 to 20)
#    0.000    1.143    2.857    3.000    4.000    1.714 
#    0.000    0.000    0.000    7.714    0.000    0.000 
#    0.000    0.000    0.000    0.000    0.000    0.000 
#
# Total GULP energy -347102.030140 kJ/mol
# GULP energy per Si atom -12396.501076 kJ/mol
# Density = 2.040182 g / cm^3
# Si number density = 20.448364 Si / 1000 Ang^3
#
#
#
# Elastic Constant Matrix: (Units=GPa)
#
#
# Indices 1 2 3 4 5 6 
#
# 1 102.5182 41.7754 43.6235 0.0000 8.3746 0.0000
# 2 41.7754 104.3756 50.6304 0.0000 23.7293 0.0000
# 3 43.6235 50.6304 95.3371 0.0000 10.1462 0.0000
# 4 0.0000 0.0000 0.0000 13.2938 0.0000 8.5853
# 5 8.3746 23.7293 10.1462 0.0000 42.5090 0.0000
# 6 0.0000 0.0000 0.0000 8.5853 0.0000 35.0115
#
#
#
# Elastic Compliance Matrix: (Units=1/GPa)
#
#
# Indices 1 2 3 4 5 6 
#
# 1 0.012808 -0.003131 -0.004223 0.000000 0.000232 0.000000
# 2 -0.003131 0.015181 -0.005944 0.000000 -0.006439 0.000000
# 3 -0.004223 -0.005944 0.015531 0.000000 0.000443 0.000000
# 4 0.000000 0.000000 0.000000 0.089377 0.000000 -0.021916
# 5 0.000232 -0.006439 0.000443 0.000000 0.026967 0.000000
# 6 0.000000 0.000000 0.000000 -0.021916 0.000000 0.033936
#
#
# Mechanical properties :
#
#
# Convention : Reuss Voigt Hill
#
# Bulk Modulus (GPa) = 59.08602 63.80992 61.44797
# Shear Modulus (GPa) = 22.12024 29.24297 25.68160
#
# Velocity S-wave (km/s) = 3.29258 3.78575 3.54775
# Velocity P-wave (km/s) = 6.58884 7.09805 6.84818
#
# Compressibility (1/GPa) = 0.01692448
#
# Stress axis : x y z
#
# Youngs Moduli (GPa) = 78.07637 65.87090 64.38743
#
# Poissons Ratio (x) = 0.20623 0.27188
# Poissons Ratio (y) = 0.24444 0.38275
# Poissons Ratio (z) = 0.32969 0.39157
#
# Static dielectric constant tensor:
#      x y z
#    x 9.550550 0.000000 1.420250 
#    y 0.000000 3.650900 0.000000 
#    z 1.420250 0.000000 4.169760 
# 
# 
# High freq. dielectric constant tensor:
#      x y z
#    x 1.810560 0.000000 -0.009750 
#    y 0.000000 1.797900 0.000000 
#    z -0.009750 0.000000 1.801360 
# 
# From -- ./inp_files/34192.got.cif
#   From: 2010.06.25/outbox.cif.g09.slc.cpg/sg15_18_cif.got.tgz:34192.got - 2010.06.28 07:06:18.
