data_PCOD8147811
_publ_section_title
;
Structure prediction by ZEFSAII (Michael W. Deem and Ramdas Pophale) SiO2 
 PCOD8147811
Probable space group: C 2/C
;
_chemical_formula_sum "Si O2"
_cell_formula_units_Z 48
_cell_length_a 11.614287
_cell_length_b 23.363009
_cell_length_c 11.092253
_cell_angle_alpha 90.000000
_cell_angle_beta 49.847790
_cell_angle_gamma 90.000000
_cell_volume 2300.511200
_symmetry_space_group_name_H-M "C 2/C"
_symmetry_group_IT_number 15
_symmetry_cell_setting 'monoclinic'
loop_
_space_group_symop_operation_xyz
x,y,z
-x,y,1/2-z
-x,-y,-z
x,-y,1/2+z
1/2+x,1/2+y,z
1/2-x,1/2+y,1/2-z
1/2-x,1/2-y,-z
1/2+x,1/2-y,1/2+z
loop_
_atom_site_type_symbol
_atom_site_label
_atom_site_fract_x
_atom_site_fract_y
_atom_site_fract_z
Si Si1 0.055777 0.795243 0.970669
Si Si2 0.493174 0.580785 0.896895
Si Si3 0.500000 0.948109 0.250000
Si Si4 0.500000 0.326723 0.750000
Si Si5 0.896818 0.692430 0.210960
Si Si6 0.296763 0.104034 0.083963
Si Si7 0.734088 0.509076 0.308200
O O1 0.015658 0.786384 0.856602
O O2 0.234084 0.789800 0.871805
O O3 0.999237 0.857428 0.047809
O O4 0.971846 0.748325 0.104586
O O5 0.500000 0.587039 0.750000
O O6 0.635444 0.546883 0.851588
O O7 0.339755 0.548806 0.038692
O O8 0.403443 0.906278 0.398913
O O9 0.397562 0.989712 0.239767
O O10 0.353529 0.366091 0.862195
O O11 0.885539 0.642295 0.120874
O O12 0.000000 0.669284 0.250000
O O13 0.249068 0.043805 0.174145
#
# Coordination Sequence:
#
# PCOD8147811 Si02
#       7
#     8   8   4   4   8   8   8
#     4  11  24  43  67  99 127 176 217 277 324 389
#     4  11  23  41  69  97 129 178 228 261 327 404
#     4  12  26  39  66 106 136 167 226 270 334 396
#     4  10  22  45  68  88 136 171 228 258 326 404
#     4  11  25  44  68  94 135 174 218 272 332 390
#     4  11  25  44  68  97 137 177 213 278 329 384
#     4  11  24  42  65  99 136 179 213 276 328 387
#
# _framework density 20.864927999999999
#
# number of rings (size 3 to 8) (size 9 to 14) (size 15 to 20)
#    0.000    1.000    3.333    3.500    4.667    7.333 
#    0.000    0.000    0.000    0.000    0.000    0.000 
#    0.000    0.000    0.000    0.000    0.000    0.000 
#
# Total GULP energy -297764.446288 kJ/mol
# GULP energy per Si atom -12406.851929 kJ/mol
# Density = 2.081744 g / cm^3
# Si number density = 20.864928 Si / 1000 Ang^3
#
#
#
# Elastic Constant Matrix: (Units=GPa)
#
#
# Indices 1 2 3 4 5 6 
#
# 1 114.8953 13.1147 34.0767 0.0000 -4.6976 0.0000
# 2 13.1147 69.2258 35.2574 0.0000 -4.9177 0.0000
# 3 34.0767 35.2574 114.6467 0.0000 -5.6179 0.0000
# 4 0.0000 0.0000 0.0000 6.5022 0.0000 -11.0672
# 5 -4.6976 -4.9177 -5.6179 0.0000 32.6692 0.0000
# 6 0.0000 0.0000 0.0000 -11.0672 0.0000 38.8420
#
#
#
# Elastic Compliance Matrix: (Units=1/GPa)
#
#
# Indices 1 2 3 4 5 6 
#
# 1 0.009580 -0.000386 -0.002687 0.000000 0.000857 0.000000
# 2 -0.000386 0.017236 -0.005105 0.000000 0.001661 0.000000
# 3 -0.002687 -0.005105 0.011128 0.000000 0.000759 0.000000
# 4 0.000000 0.000000 0.000000 0.298612 0.000000 0.085083
# 5 0.000857 0.001661 0.000759 0.000000 0.031114 0.000000
# 6 0.000000 0.000000 0.000000 0.085083 0.000000 0.049988
#
#
# Mechanical properties :
#
#
# Convention : Reuss Voigt Hill
#
# Bulk Modulus (GPa) = 46.31774 51.51837 48.91805
# Shear Modulus (GPa) = 11.33251 30.02395 20.67823
#
# Velocity S-wave (km/s) = 2.33306 3.79749 3.15151
# Velocity P-wave (km/s) = 5.43181 6.63120 6.06125
#
# Compressibility (1/GPa) = 0.02159000
#
# Stress axis : x y z
#
# Youngs Moduli (GPa) = 104.38951 58.01664 89.86267
#
# Poissons Ratio (x) = 0.02237 0.24144
# Poissons Ratio (y) = 0.04024 0.45872
# Poissons Ratio (z) = 0.28047 0.29616
#
# Static dielectric constant tensor:
#      x y z
#    x 3.990090 0.000000 0.060520 
#    y 0.000000 3.716560 0.000000 
#    z 0.060520 0.000000 4.049160 
# 
# 
# High freq. dielectric constant tensor:
#      x y z
#    x 1.828440 0.000000 0.000580 
#    y 0.000000 1.816520 0.000000 
#    z 0.000580 0.000000 1.831030 
# 
# From -- ./inp_files/89452.got.cif
#   From: 2010.06.25/outbox.cif.g09.slc.cpg/sg15_45_cif.got.tgz:89452.got - 2010.06.28 07:06:18.
