data_PCOD8147444
_publ_section_title
;
Structure prediction by ZEFSAII (Michael W. Deem and Ramdas Pophale) SiO2 
 PCOD8147444
Probable space group: C 2/C
;
_chemical_formula_sum "Si O2"
_cell_formula_units_Z 60
_cell_length_a 9.688901
_cell_length_b 17.741653
_cell_length_c 17.536660
_cell_angle_alpha 90.000000
_cell_angle_beta 122.053224
_cell_angle_gamma 90.000000
_cell_volume 2554.957101
_symmetry_space_group_name_H-M "C 2/C"
_symmetry_group_IT_number 15
_symmetry_cell_setting 'monoclinic'
loop_
_space_group_symop_operation_xyz
x,y,z
-x,y,1/2-z
-x,-y,-z
x,-y,1/2+z
1/2+x,1/2+y,z
1/2-x,1/2+y,1/2-z
1/2-x,1/2-y,-z
1/2+x,1/2-y,1/2+z
loop_
_atom_site_type_symbol
_atom_site_label
_atom_site_fract_x
_atom_site_fract_y
_atom_site_fract_z
Si Si1 0.142569 0.713716 0.139128
Si Si2 0.013718 0.068097 0.560419
Si Si3 0.670283 0.647977 0.114143
Si Si4 0.665354 0.429076 0.760772
Si Si5 0.349746 0.848140 0.153429
Si Si6 0.455226 0.806589 0.430286
Si Si7 0.500000 0.794208 0.750000
Si Si8 0.153913 0.083387 0.834435
O O1 0.193724 0.628528 0.173697
O O2 0.295329 0.764299 0.160086
O O3 0.069767 0.751289 0.196310
O O4 0.015497 0.708485 0.033137
O O5 0.201459 0.094003 0.623388
O O6 0.908824 0.135606 0.491667
O O7 0.922709 0.047260 0.611693
O O8 0.000000 0.000000 0.500000
O O9 0.632186 0.577930 0.159979
O O10 0.598195 0.727727 0.124267
O O11 0.864928 0.653859 0.168891
O O12 0.500000 0.402435 0.750000
O O13 0.715134 0.513841 0.799575
O O14 0.500000 0.874437 0.250000
O O15 0.407024 0.846235 0.081630
O O16 0.297045 0.858907 0.390591
O O17 0.000000 0.126034 0.750000
#
# Coordination Sequence:
#
# PCOD8147444 Si02
#       8
#     8   8   8   8   8   8   4   8
#     4  11  23  43  74 106 143 189 242 306 364 435
#     4  12  27  47  72 102 149 193 244 300 371 433
#     4  11  24  45  70 104 143 191 238 303 365 434
#     4  10  22  43  72  95 140 188 240 287 372 436
#     4  12  26  46  70 109 144 191 245 310 362 436
#     4  12  26  43  76 109 144 188 252 306 364 433
#     4  10  24  42  68 108 144 188 236 296 370 436
#     4  11  26  46  72 103 144 196 245 302 364 439
#
# _framework density 23.48376
#
# number of rings (size 3 to 8) (size 9 to 14) (size 15 to 20)
#    0.000    0.800    1.333    6.400    6.533    1.600 
#    6.000    0.000    0.000    0.000    0.000    0.000 
#    0.000    0.000    0.000    0.000    0.000    0.000 
#
# Total GULP energy -371873.725156 kJ/mol
# GULP energy per Si atom -12395.790839 kJ/mol
# Density = 2.343031 g / cm^3
# Si number density = 23.483760 Si / 1000 Ang^3
#
#
#
# Elastic Constant Matrix: (Units=GPa)
#
#
# Indices 1 2 3 4 5 6 
#
# 1 115.9565 20.5121 53.0210 0.0000 -5.8586 0.0000
# 2 20.5121 80.7902 32.9400 0.0000 5.1723 0.0000
# 3 53.0210 32.9400 151.9464 0.0000 4.2798 0.0000
# 4 0.0000 0.0000 0.0000 34.1207 0.0000 -2.0193
# 5 -5.8586 5.1723 4.2798 0.0000 50.5411 0.0000
# 6 0.0000 0.0000 0.0000 -2.0193 0.0000 29.9567
#
#
#
# Elastic Compliance Matrix: (Units=1/GPa)
#
#
# Indices 1 2 3 4 5 6 
#
# 1 0.010513 -0.001382 -0.003415 0.000000 0.001649 0.000000
# 2 -0.001382 0.013826 -0.002476 0.000000 -0.001365 0.000000
# 3 -0.003415 -0.002476 0.008334 0.000000 -0.000848 0.000000
# 4 0.000000 0.000000 0.000000 0.029425 0.000000 0.001983
# 5 0.001649 -0.001365 -0.000848 0.000000 0.020189 0.000000
# 6 0.000000 0.000000 0.000000 0.001983 0.000000 0.033515
#
#
# Mechanical properties :
#
#
# Convention : Reuss Voigt Hill
#
# Bulk Modulus (GPa) = 55.17330 62.40438 58.78884
# Shear Modulus (GPa) = 36.65903 39.07170 37.86536
#
# Velocity S-wave (km/s) = 3.95528 4.08337 4.01983
# Velocity P-wave (km/s) = 6.66365 6.99020 6.82888
#
# Compressibility (1/GPa) = 0.01812471
#
# Stress axis : x y z
#
# Youngs Moduli (GPa) = 95.11594 72.32842 119.99316
#
# Poissons Ratio (x) = 0.09998 0.40983
# Poissons Ratio (y) = 0.13148 0.29715
# Poissons Ratio (z) = 0.32486 0.17912
#
# Static dielectric constant tensor:
#      x y z
#    x 4.285290 0.000000 -0.146000 
#    y 0.000000 4.090800 0.000000 
#    z -0.146000 0.000000 4.671250 
# 
# 
# High freq. dielectric constant tensor:
#      x y z
#    x 1.933000 0.000000 -0.003950 
#    y 0.000000 1.923940 0.000000 
#    z -0.003950 0.000000 1.951000 
# 
# From -- ./inp_files/192557.got.cif
#   From: 2010.06.25/outbox.cif.g09.slc.cpg/sg15_97_cif.got.tgz:192557.got - 2010.06.28 07:06:18.
