data_PCOD8147382
_publ_section_title
;
Structure prediction by ZEFSAII (Michael W. Deem and Ramdas Pophale) SiO2 
 PCOD8147382
Probable space group: C 2/C
;
_chemical_formula_sum "Si O2"
_cell_formula_units_Z 48
_cell_length_a 17.574506
_cell_length_b 13.833508
_cell_length_c 17.790664
_cell_angle_alpha 90.000000
_cell_angle_beta 150.279532
_cell_angle_gamma 90.000000
_cell_volume 2144.306813
_symmetry_space_group_name_H-M "C 2/C"
_symmetry_group_IT_number 15
_symmetry_cell_setting 'monoclinic'
loop_
_space_group_symop_operation_xyz
x,y,z
-x,y,1/2-z
-x,-y,-z
x,-y,1/2+z
1/2+x,1/2+y,z
1/2-x,1/2+y,1/2-z
1/2-x,1/2-y,-z
1/2+x,1/2-y,1/2+z
loop_
_atom_site_type_symbol
_atom_site_label
_atom_site_fract_x
_atom_site_fract_y
_atom_site_fract_z
Si Si1 0.161530 0.497294 0.349760
Si Si2 0.968398 0.148706 0.434767
Si Si3 0.736912 0.531029 0.729231
Si Si4 0.114200 0.706563 0.285767
Si Si5 0.379018 0.175989 0.955563
Si Si6 0.867408 0.833680 0.577164
O O1 0.168647 0.469377 0.267751
O O2 0.200606 0.610929 0.391346
O O3 0.285349 0.437316 0.502872
O O4 0.000000 0.472869 0.250000
O O5 0.894576 0.243485 0.405581
O O6 0.089845 0.101679 0.596330
O O7 0.052468 0.187550 0.433113
O O8 0.827712 0.073594 0.300390
O O9 0.849124 0.572210 0.890615
O O10 0.230767 0.794098 0.376310
O O11 0.000000 0.747481 0.250000
O O12 0.027685 0.670741 0.135839
O O13 0.750000 0.750000 0.500000
O O14 0.000000 0.842316 0.750000
#
# Coordination Sequence:
#
# PCOD8147382 Si02
#       6
#     8   8   8   8   8   8
#     4  10  23  45  66  99 147 176 232 290 343 412
#     4  10  23  42  67 101 143 177 236 286 344 420
#     4  10  22  43  69  98 138 188 226 290 351 412
#     4  11  25  44  66  99 135 179 229 289 342 416
#     4  12  23  43  71 100 132 185 235 286 351 420
#     4  11  26  43  70 103 141 188 227 279 353 416
#
# _framework density 22.384855999999999
#
# number of rings (size 3 to 8) (size 9 to 14) (size 15 to 20)
#    0.000    1.333    3.333    1.000    7.000    3.333 
#    0.000    1.667    0.000    0.000    0.000    0.000 
#    0.000    0.000    0.000    0.000    0.000    0.000 
#
# Total GULP energy -297610.204201 kJ/mol
# GULP energy per Si atom -12400.425175 kJ/mol
# Density = 2.233391 g / cm^3
# Si number density = 22.384856 Si / 1000 Ang^3
#
#
#
# Elastic Constant Matrix: (Units=GPa)
#
#
# Indices 1 2 3 4 5 6 
#
# 1 125.8277 51.2782 15.8256 0.0035 20.1019 0.0007
# 2 51.2782 100.1705 34.2870 0.0030 4.3553 0.0012
# 3 15.8256 34.2870 85.5475 0.0044 -3.3494 0.0013
# 4 0.0035 0.0030 0.0044 16.5235 0.0019 3.7499
# 5 20.1019 4.3553 -3.3494 0.0019 26.3062 0.0005
# 6 0.0007 0.0012 0.0013 3.7499 0.0005 35.7458
#
#
#
# Elastic Compliance Matrix: (Units=1/GPa)
#
#
# Indices 1 2 3 4 5 6 
#
# 1 0.011453 -0.005435 -0.000249 0.000000 -0.007884 0.000000
# 2 -0.005435 0.014318 -0.004687 0.000000 0.001186 0.000000
# 3 -0.000249 -0.004687 0.013720 -0.000003 0.002713 0.000000
# 4 0.000000 0.000000 -0.000003 0.061996 -0.000004 -0.006504
# 5 -0.007884 0.001186 0.002713 -0.000004 0.044187 0.000000
# 6 0.000000 0.000000 0.000000 -0.006504 0.000000 0.028658
#
#
# Mechanical properties :
#
#
# Convention : Reuss Voigt Hill
#
# Bulk Modulus (GPa) = 53.33437 57.14747 55.24092
# Shear Modulus (GPa) = 24.83575 29.72543 27.28059
#
# Velocity S-wave (km/s) = 3.33451 3.64803 3.49479
# Velocity P-wave (km/s) = 6.22118 6.58248 6.40438
#
# Compressibility (1/GPa) = 0.01874964
#
# Stress axis : x y z
#
# Youngs Moduli (GPa) = 87.31292 69.84329 72.88565
#
# Poissons Ratio (x) = 0.37959 0.01816
# Poissons Ratio (y) = 0.47454 0.34159
# Poissons Ratio (z) = 0.02175 0.32733
#
# Static dielectric constant tensor:
#      x y z
#    x 4.281630 0.000000 0.165470 
#    y 0.000000 4.060250 -0.000010 
#    z 0.165470 -0.000010 3.936100 
# 
# 
# High freq. dielectric constant tensor:
#      x y z
#    x 1.900170 0.000000 0.011610 
#    y 0.000000 1.880830 0.000000 
#    z 0.011610 0.000000 1.870220 
# 
# From -- ./inp_files/47472.got.cif
#   From: 2010.06.25/outbox.cif.g09.slc.cpg/sg15_24_cif.got.tgz:47472.got - 2010.06.28 07:06:18.
