data_PCOD8147910
_publ_section_title
;
Structure prediction by ZEFSAII (Michael W. Deem and Ramdas Pophale) SiO2 
 PCOD8147910
Probable space group: C 2/C
;
_chemical_formula_sum "Si O2"
_cell_formula_units_Z 56
_cell_length_a 16.701728
_cell_length_b 6.570907
_cell_length_c 23.859549
_cell_angle_alpha 90.000000
_cell_angle_beta 97.688179
_cell_angle_gamma 90.000000
_cell_volume 2594.940203
_symmetry_space_group_name_H-M "C 2/C"
_symmetry_group_IT_number 15
_symmetry_cell_setting 'monoclinic'
loop_
_space_group_symop_operation_xyz
x,y,z
-x,y,1/2-z
-x,-y,-z
x,-y,1/2+z
1/2+x,1/2+y,z
1/2-x,1/2+y,1/2-z
1/2-x,1/2-y,-z
1/2+x,1/2-y,1/2+z
loop_
_atom_site_type_symbol
_atom_site_label
_atom_site_fract_x
_atom_site_fract_y
_atom_site_fract_z
Si Si1 0.208855 0.572876 0.092092
Si Si2 0.221594 0.475628 0.351978
Si Si3 0.589300 0.043968 0.988917
Si Si4 0.414211 0.851459 0.228591
Si Si5 0.652517 0.297018 0.427854
Si Si6 0.372309 0.267116 0.844769
Si Si7 0.549211 0.661866 0.386759
O O1 0.265367 0.749152 0.122299
O O2 0.267879 0.434273 0.059393
O O3 0.166816 0.446367 0.138685
O O4 0.139873 0.654385 0.043331
O O5 0.165860 0.484428 0.290548
O O6 0.169341 0.616310 0.386749
O O7 0.310818 0.551063 0.348437
O O8 0.592623 0.186725 0.934616
O O9 0.629052 0.820134 0.982652
O O10 0.500000 0.000000 0.000000
O O11 0.500000 0.968654 0.250000
O O12 0.393436 0.722238 0.281336
O O13 0.425466 0.713512 0.174392
O O14 0.575611 0.430271 0.400910
O O15 0.453144 0.315969 0.887273
#
# Coordination Sequence:
#
# PCOD8147910 Si02
#       7
#     8   8   8   8   8   8   8
#     4  11  24  45  66  99 139 176 223 277 332 406
#     4  11  24  44  67 100 133 174 223 273 337 404
#     4  12  25  42  70  99 135 180 227 278 338 393
#     4  10  22  46  68  92 135 174 222 277 331 405
#     4  11  24  43  69  94 137 170 224 270 339 393
#     4  10  25  41  69  98 137 175 224 279 340 393
#     4  11  23  46  65 100 135 175 225 282 333 409
#
# _framework density 21.580456999999999
#
# number of rings (size 3 to 8) (size 9 to 14) (size 15 to 20)
#    0.000    1.143    4.286    0.429    4.000    5.143 
#    0.000    0.714    0.000    0.000    0.000    0.000 
#    0.000    0.000    0.000    0.000    0.000    0.000 
#
# Total GULP energy -346990.025447 kJ/mol
# GULP energy per Si atom -12392.500909 kJ/mol
# Density = 2.153134 g / cm^3
# Si number density = 21.580457 Si / 1000 Ang^3
#
#
#
# Elastic Constant Matrix: (Units=GPa)
#
#
# Indices 1 2 3 4 5 6 
#
# 1 122.9899 53.1139 50.4857 0.0000 16.0730 0.0000
# 2 53.1139 100.6710 39.8348 0.0000 8.2166 0.0000
# 3 50.4857 39.8348 111.6278 0.0000 17.5907 0.0000
# 4 0.0000 0.0000 0.0000 15.7246 0.0000 8.3122
# 5 16.0730 8.2166 17.5907 0.0000 47.8817 0.0000
# 6 0.0000 0.0000 0.0000 8.3122 0.0000 37.8334
#
#
#
# Elastic Compliance Matrix: (Units=1/GPa)
#
#
# Indices 1 2 3 4 5 6 
#
# 1 0.011804 -0.004749 -0.003341 0.000000 -0.001920 0.000000
# 2 -0.004749 0.013488 -0.002709 0.000000 0.000275 0.000000
# 3 -0.003341 -0.002709 0.011874 0.000000 -0.002776 0.000000
# 4 0.000000 0.000000 0.000000 0.071951 0.000000 -0.015808
# 5 -0.001920 0.000275 -0.002776 0.000000 0.022502 0.000000
# 6 0.000000 0.000000 0.000000 -0.015808 0.000000 0.029905
#
#
# Mechanical properties :
#
#
# Convention : Reuss Voigt Hill
#
# Bulk Modulus (GPa) = 64.23573 69.12860 66.68216
# Shear Modulus (GPa) = 26.55182 33.07822 29.81502
#
# Velocity S-wave (km/s) = 3.51146 3.91933 3.72099
# Velocity P-wave (km/s) = 6.80226 7.25148 7.03046
#
# Compressibility (1/GPa) = 0.01556766
#
# Stress axis : x y z
#
# Youngs Moduli (GPa) = 84.71615 74.13809 84.22046
#
# Poissons Ratio (x) = 0.35208 0.28141
# Poissons Ratio (y) = 0.40231 0.22814
# Poissons Ratio (z) = 0.28307 0.20083
#
# Static dielectric constant tensor:
#      x y z
#    x 4.337900 0.000000 0.178630 
#    y 0.000000 3.784800 0.000000 
#    z 0.178630 0.000000 3.961100 
# 
# 
# High freq. dielectric constant tensor:
#      x y z
#    x 1.880960 0.000000 0.007950 
#    y 0.000000 1.822040 0.000000 
#    z 0.007950 0.000000 1.847700 
# 
# From -- ./inp_files/297797.got.cif
#   From: 2010.06.25/outbox.cif.g09.slc.cpg/sg15_149_cif.got.tgz:297797.got - 2010.06.28 07:06:18.
