data_PCOD8147439
_publ_section_title
;
Structure prediction by ZEFSAII (Michael W. Deem and Ramdas Pophale) SiO2 
 PCOD8147439
Probable space group: C 2/C
;
_chemical_formula_sum "Si O2"
_cell_formula_units_Z 40
_cell_length_a 14.440368
_cell_length_b 14.436725
_cell_length_c 10.150316
_cell_angle_alpha 90.000000
_cell_angle_beta 61.518313
_cell_angle_gamma 90.000000
_cell_volume 1859.946070
_symmetry_space_group_name_H-M "C 2/C"
_symmetry_group_IT_number 15
_symmetry_cell_setting 'monoclinic'
loop_
_space_group_symop_operation_xyz
x,y,z
-x,y,1/2-z
-x,-y,-z
x,-y,1/2+z
1/2+x,1/2+y,z
1/2-x,1/2+y,1/2-z
1/2-x,1/2-y,-z
1/2+x,1/2-y,1/2+z
loop_
_atom_site_type_symbol
_atom_site_label
_atom_site_fract_x
_atom_site_fract_y
_atom_site_fract_z
Si Si1 0.610582 0.173791 0.112120
Si Si2 0.074838 0.002628 0.574095
Si Si3 0.318095 0.676985 0.107267
Si Si4 0.229117 0.851874 0.569310
Si Si5 0.069617 0.473683 0.078760
O O1 0.500000 0.195106 0.250000
O O2 0.698303 0.206188 0.156681
O O3 0.631425 0.066059 0.074639
O O4 0.613899 0.231648 0.973513
O O5 0.152437 0.912739 0.527746
O O6 0.000000 0.011241 0.750000
O O7 0.147234 0.093180 0.511350
O O8 0.000000 0.000000 0.500000
O O9 0.331951 0.653236 0.250549
O O10 0.250000 0.750000 0.500000
O O11 0.343587 0.897211 0.514385
O O12 0.000000 0.438785 0.250000
O O13 0.000000 0.500000 0.000000
#
# Coordination Sequence:
#
# PCOD8147439 Si02
#       5
#     8   8   8   8   8
#     4  10  22  43  72 104 137 184 234 290 356 432
#     4  12  26  47  74 102 145 191 243 297 366 431
#     4  11  24  45  72 104 141 187 240 294 357 437
#     4  12  28  45  71 108 147 187 241 301 360 425
#     4  11  25  44  74 102 139 182 233 290 357 422
#
# _framework density 21.506
#
# number of rings (size 3 to 8) (size 9 to 14) (size 15 to 20)
#    0.000    0.800    4.000    3.000    2.800    7.200 
#    0.000    0.000    0.000    0.000    0.000    0.000 
#    0.000    0.000    0.000    0.000    0.000    0.000 
#
# Total GULP energy -248001.029250 kJ/mol
# GULP energy per Si atom -12400.051462 kJ/mol
# Density = 2.145705 g / cm^3
# Si number density = 21.506000 Si / 1000 Ang^3
#
#
#
# Elastic Constant Matrix: (Units=GPa)
#
#
# Indices 1 2 3 4 5 6 
#
# 1 122.8552 39.6507 47.8693 0.0000 -1.6686 0.0000
# 2 39.6507 109.8655 54.8104 0.0000 -27.9255 0.0000
# 3 47.8693 54.8104 137.3582 0.0000 -4.4441 0.0000
# 4 0.0000 0.0000 0.0000 28.9896 0.0000 10.0766
# 5 -1.6686 -27.9255 -4.4441 0.0000 34.8258 0.0000
# 6 0.0000 0.0000 0.0000 10.0766 0.0000 7.7646
#
#
#
# Elastic Compliance Matrix: (Units=1/GPa)
#
#
# Indices 1 2 3 4 5 6 
#
# 1 0.009996 -0.002995 -0.002360 0.000000 -0.002224 0.000000
# 2 -0.002995 0.015544 -0.004780 0.000000 0.011711 0.000000
# 3 -0.002360 -0.004780 0.009923 0.000000 -0.002680 0.000000
# 4 0.000000 0.000000 0.000000 0.062844 0.000000 -0.081557
# 5 -0.002224 0.011711 -0.002680 0.000000 0.037656 0.000000
# 6 0.000000 0.000000 0.000000 -0.081557 0.000000 0.234632
#
#
# Mechanical properties :
#
#
# Convention : Reuss Voigt Hill
#
# Bulk Modulus (GPa) = 65.82161 72.74885 69.28523
# Shear Modulus (GPa) = 12.62845 29.49924 21.06384
#
# Velocity S-wave (km/s) = 2.42586 3.70763 3.13300
# Velocity P-wave (km/s) = 6.20637 7.22699 6.73604
#
# Compressibility (1/GPa) = 0.01519258
#
# Stress axis : x y z
#
# Youngs Moduli (GPa) = 100.04165 64.33181 100.77144
#
# Poissons Ratio (x) = 0.19270 0.23785
# Poissons Ratio (y) = 0.29966 0.48168
# Poissons Ratio (z) = 0.23612 0.30750
#
# Static dielectric constant tensor:
#      x y z
#    x 3.841320 0.000000 -0.197730 
#    y 0.000000 6.407470 0.000000 
#    z -0.197730 0.000000 3.688210 
# 
# 
# High freq. dielectric constant tensor:
#      x y z
#    x 1.854050 0.000000 -0.010900 
#    y 0.000000 1.851840 0.000000 
#    z -0.010900 0.000000 1.848910 
# 
# From -- ./inp_files/37829.got.cif
#   From: 2010.06.25/outbox.cif.g09.slc.cpg/sg15_19_cif.got.tgz:37829.got - 2010.06.28 07:06:18.
