data_PCOD8147334
_publ_section_title
;
Structure prediction by ZEFSAII (Michael W. Deem and Ramdas Pophale) SiO2 
 PCOD8147334
Probable space group: C 2/C
;
_chemical_formula_sum "Si O2"
_cell_formula_units_Z 56
_cell_length_a 9.072373
_cell_length_b 25.635577
_cell_length_c 10.866438
_cell_angle_alpha 90.000000
_cell_angle_beta 72.116990
_cell_angle_gamma 90.000000
_cell_volume 2405.163777
_symmetry_space_group_name_H-M "C 2/C"
_symmetry_group_IT_number 15
_symmetry_cell_setting 'monoclinic'
loop_
_space_group_symop_operation_xyz
x,y,z
-x,y,1/2-z
-x,-y,-z
x,-y,1/2+z
1/2+x,1/2+y,z
1/2-x,1/2+y,1/2-z
1/2-x,1/2-y,-z
1/2+x,1/2-y,1/2+z
loop_
_atom_site_type_symbol
_atom_site_label
_atom_site_fract_x
_atom_site_fract_y
_atom_site_fract_z
Si Si1 0.632317 0.511230 0.619261
Si Si2 0.243434 0.342084 0.698941
Si Si3 0.508634 0.413737 0.949076
Si Si4 0.602081 0.934154 0.340366
Si Si5 0.508949 0.149577 0.042572
Si Si6 0.128064 0.731499 0.817350
Si Si7 0.641449 0.352983 0.305770
O O1 0.500000 0.528193 0.750000
O O2 0.613580 0.450698 0.588773
O O3 0.614667 0.549712 0.508516
O O4 0.809014 0.515705 0.625510
O O5 0.379642 0.384811 0.676559
O O6 0.135679 0.360092 0.614706
O O7 0.308806 0.285556 0.645697
O O8 0.156416 0.339638 0.852043
O O9 0.419049 0.368139 0.044209
O O10 0.500000 0.951937 0.250000
O O11 0.494545 0.902986 0.464248
O O12 0.742444 0.896868 0.269154
O O13 0.555643 0.198758 0.947594
O O14 0.268003 0.701523 0.712943
O O15 0.000000 0.744162 0.750000
O O16 0.500000 0.347093 0.250000
#
# Coordination Sequence:
#
# PCOD8147334 Si02
#       7
#     8   8   8   8   8   8   8
#     4  11  22  45  72 106 135 188 249 301 358 442
#     4  11  24  42  71 106 142 193 236 316 358 429
#     4  11  22  42  76  99 143 179 255 305 361 419
#     4  11  21  44  75 103 143 190 236 296 368 442
#     4  10  22  43  68 104 147 184 245 292 370 432
#     4  11  26  44  66 103 148 192 247 295 369 435
#     4  11  20  41  74 102 134 195 243 294 354 441
#
# _framework density 23.283239999999999
#
# number of rings (size 3 to 8) (size 9 to 14) (size 15 to 20)
#    0.000    1.143    4.286    3.000    4.000    1.143 
#    7.714    0.714    3.143    0.000    0.000    0.000 
#    0.000    0.000    0.000    0.000    0.000    0.000 
#
# Total GULP energy -347279.322044 kJ/mol
# GULP energy per Si atom -12402.832930 kJ/mol
# Density = 2.323025 g / cm^3
# Si number density = 23.283240 Si / 1000 Ang^3
#
#
#
# Elastic Constant Matrix: (Units=GPa)
#
#
# Indices 1 2 3 4 5 6 
#
# 1 103.3087 57.5815 42.2630 0.0000 10.0112 0.0000
# 2 57.5815 134.6351 59.9597 0.0000 -8.1497 0.0000
# 3 42.2630 59.9597 127.2901 0.0000 -17.8306 0.0000
# 4 0.0000 0.0000 0.0000 22.1977 0.0000 -25.2084
# 5 10.0112 -8.1497 -17.8306 0.0000 37.6535 0.0000
# 6 0.0000 0.0000 0.0000 -25.2084 0.0000 32.0931
#
#
#
# Elastic Compliance Matrix: (Units=1/GPa)
#
#
# Indices 1 2 3 4 5 6 
#
# 1 0.014536 -0.005132 -0.003326 0.000000 -0.006551 0.000000
# 2 -0.005132 0.011211 -0.003263 0.000000 0.002246 0.000000
# 3 -0.003326 -0.003263 0.011270 0.000000 0.005515 0.000000
# 4 0.000000 0.000000 0.000000 0.417181 0.000000 0.327686
# 5 -0.006551 0.002246 0.005515 0.000000 0.031397 0.000000
# 6 0.000000 0.000000 0.000000 0.327686 0.000000 0.288549
#
#
# Mechanical properties :
#
#
# Convention : Reuss Voigt Hill
#
# Bulk Modulus (GPa) = 73.66360 76.09359 74.87859
# Shear Modulus (GPa) = 6.23355 32.08418 19.15886
#
# Velocity S-wave (km/s) = 1.63801 3.71616 2.87167
# Velocity P-wave (km/s) = 5.94005 7.15303 6.57457
#
# Compressibility (1/GPa) = 0.01357523
#
# Stress axis : x y z
#
# Youngs Moduli (GPa) = 68.79628 89.19653 88.73226
#
# Poissons Ratio (x) = 0.45774 0.29516
# Poissons Ratio (y) = 0.35305 0.28949
# Poissons Ratio (z) = 0.22885 0.29101
#
# Static dielectric constant tensor:
#      x y z
#    x 4.299640 0.000000 -0.113940 
#    y 0.000000 4.207380 0.000000 
#    z -0.113940 0.000000 4.344080 
# 
# 
# High freq. dielectric constant tensor:
#      x y z
#    x 1.922600 0.000000 -0.001170 
#    y 0.000000 1.915620 0.000000 
#    z -0.001170 0.000000 1.922540 
# 
# From -- ./inp_files/81236.got.cif
#   From: 2010.06.25/outbox.cif.g09.slc.cpg/sg15_41_cif.got.tgz:81236.got - 2010.06.28 07:06:18.
