data_PCOD8147676
_publ_section_title
;
Structure prediction by ZEFSAII (Michael W. Deem and Ramdas Pophale) SiO2 
 PCOD8147676
Probable space group: C 2/C
;
_chemical_formula_sum "Si O2"
_cell_formula_units_Z 52
_cell_length_a 9.058696
_cell_length_b 11.669311
_cell_length_c 25.325328
_cell_angle_alpha 90.000000
_cell_angle_beta 121.304694
_cell_angle_gamma 90.000000
_cell_volume 2287.365076
_symmetry_space_group_name_H-M "C 2/C"
_symmetry_group_IT_number 15
_symmetry_cell_setting 'monoclinic'
loop_
_space_group_symop_operation_xyz
x,y,z
-x,y,1/2-z
-x,-y,-z
x,-y,1/2+z
1/2+x,1/2+y,z
1/2-x,1/2+y,1/2-z
1/2-x,1/2-y,-z
1/2+x,1/2-y,1/2+z
loop_
_atom_site_type_symbol
_atom_site_label
_atom_site_fract_x
_atom_site_fract_y
_atom_site_fract_z
Si Si1 0.500000 0.760546 0.750000
Si Si2 0.561467 0.426166 0.061800
Si Si3 0.263950 0.969942 0.443015
Si Si4 0.305881 0.151363 0.312389
Si Si5 0.022127 0.333396 0.550465
Si Si6 0.289022 0.099121 0.834228
Si Si7 0.404100 0.134436 0.682495
O O1 0.614064 0.833260 0.730486
O O2 0.626885 0.681775 0.806841
O O3 0.441927 0.462646 0.089241
O O4 0.531678 0.298064 0.035604
O O5 0.754557 0.438139 0.123708
O O6 0.500000 0.500000 0.000000
O O7 0.339916 0.893574 0.504656
O O8 0.343002 0.916232 0.404673
O O9 0.326021 0.102156 0.454623
O O10 0.460733 0.154951 0.383355
O O11 0.167263 0.246994 0.305269
O O12 0.227563 0.023117 0.298186
O O13 0.447710 0.158371 0.832975
O O14 0.500000 0.069179 0.750000
#
# Coordination Sequence:
#
# PCOD8147676 Si02
#       7
#     4   8   8   8   8   8   8
#     4  12  24  40  68  98 128 180 230 270 352 418
#     4  11  25  42  69 105 140 181 231 290 354 412
#     4  10  22  44  70 100 134 183 233 285 347 415
#     4  10  24  44  68 101 133 179 227 280 346 411
#     4   9  21  44  71  95 138 174 231 289 339 411
#     4  11  25  43  71  95 139 180 230 286 344 412
#     4  11  24  48  67  99 144 178 231 292 339 417
#
# _framework density 22.733581000000001
#
# number of rings (size 3 to 8) (size 9 to 14) (size 15 to 20)
#    0.000    1.538    1.538    2.308    8.615    0.615 
#    5.538    0.000    0.000    0.000    0.000    0.000 
#    0.000    0.000    0.000    0.000    0.000    0.000 
#
# Total GULP energy -322120.317124 kJ/mol
# GULP energy per Si atom -12389.242966 kJ/mol
# Density = 2.268184 g / cm^3
# Si number density = 22.733581 Si / 1000 Ang^3
#
#
#
# Elastic Constant Matrix: (Units=GPa)
#
#
# Indices 1 2 3 4 5 6 
#
# 1 116.8560 15.4782 26.6386 0.0000 -6.8956 0.0000
# 2 15.4782 96.8428 26.2097 0.0000 -8.3192 0.0000
# 3 26.6386 26.2097 107.3084 0.0000 -2.7775 0.0000
# 4 0.0000 0.0000 0.0000 27.0011 0.0000 -4.8231
# 5 -6.8956 -8.3192 -2.7775 0.0000 40.5250 0.0000
# 6 0.0000 0.0000 0.0000 -4.8231 0.0000 20.9960
#
#
#
# Elastic Compliance Matrix: (Units=1/GPa)
#
#
# Indices 1 2 3 4 5 6 
#
# 1 0.009207 -0.000807 -0.002056 0.000000 0.001260 0.000000
# 2 -0.000807 0.011307 -0.002509 0.000000 0.002012 0.000000
# 3 -0.002056 -0.002509 0.010438 0.000000 -0.000150 0.000000
# 4 0.000000 0.000000 0.000000 0.038620 0.000000 0.008872
# 5 0.001260 0.002012 -0.000150 0.000000 0.025293 0.000000
# 6 0.000000 0.000000 0.000000 0.008872 0.000000 0.049666
#
#
# Mechanical properties :
#
#
# Convention : Reuss Voigt Hill
#
# Bulk Modulus (GPa) = 49.48456 50.85114 50.16785
# Shear Modulus (GPa) = 30.86173 34.54978 32.70575
#
# Velocity S-wave (km/s) = 3.68848 3.90265 3.79707
# Velocity P-wave (km/s) = 6.32094 6.53639 6.42957
#
# Compressibility (1/GPa) = 0.02020832
#
# Stress axis : x y z
#
# Youngs Moduli (GPa) = 108.60747 88.44130 95.80068
#
# Poissons Ratio (x) = 0.07137 0.19697
# Poissons Ratio (y) = 0.08764 0.24039
# Poissons Ratio (z) = 0.22330 0.22193
#
# Static dielectric constant tensor:
#      x y z
#    x 4.075370 0.000000 0.132400 
#    y 0.000000 4.196330 0.000000 
#    z 0.132400 0.000000 4.285580 
# 
# 
# High freq. dielectric constant tensor:
#      x y z
#    x 1.895010 0.000000 -0.001540 
#    y 0.000000 1.890820 0.000000 
#    z -0.001540 0.000000 1.904620 
# 
# From -- ./inp_files/288128.got.cif
#   From: 2010.06.25/outbox.cif.g09.slc.cpg/sg15_145_cif.got.tgz:288128.got - 2010.06.28 07:06:18.
