data_PCOD8147660
_publ_section_title
;
Structure prediction by ZEFSAII (Michael W. Deem and Ramdas Pophale) SiO2 
 PCOD8147660
Probable space group: C 2/C
;
_chemical_formula_sum "Si O2"
_cell_formula_units_Z 48
_cell_length_a 26.763712
_cell_length_b 11.589439
_cell_length_c 13.910204
_cell_angle_alpha 90.000000
_cell_angle_beta 149.390848
_cell_angle_gamma 90.000000
_cell_volume 2196.911982
_symmetry_space_group_name_H-M "C 2/C"
_symmetry_group_IT_number 15
_symmetry_cell_setting 'monoclinic'
loop_
_space_group_symop_operation_xyz
x,y,z
-x,y,1/2-z
-x,-y,-z
x,-y,1/2+z
1/2+x,1/2+y,z
1/2-x,1/2+y,1/2-z
1/2-x,1/2-y,-z
1/2+x,1/2-y,1/2+z
loop_
_atom_site_type_symbol
_atom_site_label
_atom_site_fract_x
_atom_site_fract_y
_atom_site_fract_z
Si Si1 0.430072 0.754959 0.547143
Si Si2 0.077588 0.597924 0.646255
Si Si3 0.255936 0.065319 0.016428
Si Si4 0.766149 0.760810 0.176928
Si Si5 0.968058 0.965599 0.307482
Si Si6 0.471889 0.708964 0.093053
O O1 0.500000 0.800569 0.750000
O O2 0.400838 0.854735 0.424643
O O3 0.328515 0.711571 0.425207
O O4 0.482845 0.653007 0.571784
O O5 0.175598 0.546852 0.858124
O O6 0.000000 0.500000 0.500000
O O7 0.036777 0.695690 0.648431
O O8 0.299912 0.169506 0.152393
O O9 0.255653 0.113165 0.906441
O O10 0.147873 0.032830 0.871636
O O11 0.856329 0.767707 0.399101
O O12 0.000000 0.961486 0.250000
O O13 0.009399 0.082446 0.424582
O O14 0.500000 0.705640 0.250000
#
# Coordination Sequence:
#
# PCOD8147660 Si02
#       6
#     8   8   8   8   8   8
#     4  11  23  42  73 101 134 186 239 276 339 415
#     4  12  26  43  68 104 145 177 224 289 346 406
#     4  11  23  44  70 101 136 183 236 276 342 419
#     4  11  23  44  73  97 138 188 230 279 344 414
#     4  10  22  44  69  95 134 181 234 281 331 416
#     4  11  27  48  69 102 142 178 230 294 349 399
#
# _framework density 21.848849000000001
#
# number of rings (size 3 to 8) (size 9 to 14) (size 15 to 20)
#    0.000    1.000    5.000    2.000    4.667    5.333 
#    3.000    0.000    0.000    0.000    0.000    0.000 
#    0.000    0.000    0.000    0.000    0.000    0.000 
#
# Total GULP energy -297580.360737 kJ/mol
# GULP energy per Si atom -12399.181697 kJ/mol
# Density = 2.179912 g / cm^3
# Si number density = 21.848849 Si / 1000 Ang^3
#
#
#
# Elastic Constant Matrix: (Units=GPa)
#
#
# Indices 1 2 3 4 5 6 
#
# 1 62.1805 28.5759 40.5389 0.0000 13.3351 0.0000
# 2 28.5759 113.1685 44.2543 0.0000 8.3273 0.0000
# 3 40.5389 44.2543 158.7838 0.0000 20.9282 0.0000
# 4 0.0000 0.0000 0.0000 32.4747 0.0000 3.5669
# 5 13.3351 8.3273 20.9282 0.0000 40.8550 0.0000
# 6 0.0000 0.0000 0.0000 3.5669 0.0000 19.0000
#
#
#
# Elastic Compliance Matrix: (Units=1/GPa)
#
#
# Indices 1 2 3 4 5 6 
#
# 1 0.021112 -0.003514 -0.003857 0.000000 -0.004199 0.000000
# 2 -0.003514 0.010518 -0.002041 0.000000 0.000048 0.000000
# 3 -0.003857 -0.002041 0.008183 0.000000 -0.002517 0.000000
# 4 0.000000 0.000000 0.000000 0.031441 0.000000 -0.005903
# 5 -0.004199 0.000048 -0.002517 0.000000 0.027127 0.000000
# 6 0.000000 0.000000 0.000000 -0.005903 0.000000 0.053740
#
#
# Mechanical properties :
#
#
# Convention : Reuss Voigt Hill
#
# Bulk Modulus (GPa) = 47.64196 62.31900 54.98048
# Shear Modulus (GPa) = 28.09907 33.18353 30.64130
#
# Velocity S-wave (km/s) = 3.59007 3.90138 3.74895
# Velocity P-wave (km/s) = 6.24799 6.99135 6.63010
#
# Compressibility (1/GPa) = 0.02098990
#
# Stress axis : x y z
#
# Youngs Moduli (GPa) = 47.36573 95.07439 122.20108
#
# Poissons Ratio (x) = 0.33405 0.47139
# Poissons Ratio (y) = 0.16642 0.24939
# Poissons Ratio (z) = 0.18271 0.19403
#
# Static dielectric constant tensor:
#      x y z
#    x 3.846110 0.000000 0.099680 
#    y 0.000000 4.711760 0.000000 
#    z 0.099680 0.000000 3.506530 
# 
# 
# High freq. dielectric constant tensor:
#      x y z
#    x 1.859250 0.000000 0.006630 
#    y 0.000000 1.863300 0.000000 
#    z 0.006630 0.000000 1.863890 
# 
# From -- ./inp_files/152444.got.cif
#   From: 2010.06.25/outbox.cif.g09.slc.cpg/sg15_77_cif.got.tgz:152444.got - 2010.06.28 07:06:18.
