data_PCOD8147113
_publ_section_title
;
Structure prediction by ZEFSAII (Michael W. Deem and Ramdas Pophale) SiO2 
 PCOD8147113
Probable space group: C 2/C
;
_chemical_formula_sum "Si O2"
_cell_formula_units_Z 48
_cell_length_a 11.231379
_cell_length_b 21.666576
_cell_length_c 14.229208
_cell_angle_alpha 90.000000
_cell_angle_beta 36.272376
_cell_angle_gamma 90.000000
_cell_volume 2048.567511
_symmetry_space_group_name_H-M "C 2/C"
_symmetry_group_IT_number 15
_symmetry_cell_setting 'monoclinic'
loop_
_space_group_symop_operation_xyz
x,y,z
-x,y,1/2-z
-x,-y,-z
x,-y,1/2+z
1/2+x,1/2+y,z
1/2-x,1/2+y,1/2-z
1/2-x,1/2-y,-z
1/2+x,1/2-y,1/2+z
loop_
_atom_site_type_symbol
_atom_site_label
_atom_site_fract_x
_atom_site_fract_y
_atom_site_fract_z
Si Si1 0.156648 0.094612 0.482272
Si Si2 0.000000 0.911350 0.750000
Si Si3 0.163521 0.524581 0.553271
Si Si4 0.286257 0.670274 0.237055
Si Si5 0.717778 0.083921 0.705701
Si Si6 0.500000 0.326448 0.250000
Si Si7 0.384102 0.798247 0.109446
O O1 0.251779 0.135353 0.337700
O O2 0.942899 0.064763 0.589778
O O3 0.122125 0.133745 0.597271
O O4 0.310937 0.040524 0.410981
O O5 0.940442 0.869269 0.700422
O O6 0.179097 0.960783 0.626917
O O7 0.196139 0.581311 0.606793
O O8 0.937348 0.531568 0.655240
O O9 0.416837 0.732420 0.137597
O O10 0.073016 0.683125 0.423969
O O11 0.656268 0.150377 0.785953
O O12 0.676272 0.286149 0.184355
#
# Coordination Sequence:
#
# PCOD8147113 Si02
#       7
#     8   4   8   8   8   4   8
#     4  11  24  47  70 107 144 189 241 300 358 427
#     4  12  25  44  70 108 136 195 238 288 370 422
#     4  11  23  43  69 102 143 188 238 296 353 432
#     4  12  27  45  76 105 145 189 241 300 362 424
#     4  10  22  42  70  99 143 189 234 292 359 417
#     4  10  25  48  74 100 146 189 242 294 368 420
#     4  11  25  47  70 108 142 187 243 297 353 434
#
# _framework density 23.431006
#
# number of rings (size 3 to 8) (size 9 to 14) (size 15 to 20)
#    0.000    1.000    3.333    3.000    0.000    8.000 
#    0.000    3.333    0.000    0.000    0.000    0.000 
#    0.000    0.000    0.000    0.000    0.000    0.000 
#
# Total GULP energy -297399.494820 kJ/mol
# GULP energy per Si atom -12391.645617 kJ/mol
# Density = 2.337768 g / cm^3
# Si number density = 23.431006 Si / 1000 Ang^3
#
#
#
# Elastic Constant Matrix: (Units=GPa)
#
#
# Indices 1 2 3 4 5 6 
#
# 1 25.1826 9.2556 -9.6635 -0.0004 3.3605 0.0233
# 2 9.2556 112.6114 28.9438 0.0008 8.3146 0.0205
# 3 -9.6635 28.9438 108.8606 -0.0468 -5.3808 0.0373
# 4 -0.0004 0.0008 -0.0468 24.8189 0.0191 0.7927
# 5 3.3605 8.3146 -5.3808 0.0191 49.6553 -0.0085
# 6 0.0233 0.0205 0.0373 0.7927 -0.0085 16.3795
#
#
#
# Elastic Compliance Matrix: (Units=1/GPa)
#
#
# Indices 1 2 3 4 5 6 
#
# 1 0.043618 -0.004767 0.005060 0.000014 -0.001605 -0.000069
# 2 -0.004767 0.010230 -0.003229 -0.000005 -0.001740 0.000001
# 3 0.005060 -0.003229 0.010560 0.000020 0.001343 -0.000027
# 4 0.000014 -0.000005 0.000020 0.040354 -0.000014 -0.001953
# 5 -0.001605 -0.001740 0.001343 -0.000014 0.020684 0.000013
# 6 -0.000069 0.000001 -0.000027 -0.001953 0.000013 0.061147
#
#
# Mechanical properties :
#
#
# Convention : Reuss Voigt Hill
#
# Bulk Modulus (GPa) = 17.08339 33.74738 25.41538
# Shear Modulus (GPa) = 23.58727 32.71197 28.14962
#
# Velocity S-wave (km/s) = 3.17625 3.74049 3.46986
# Velocity P-wave (km/s) = 4.55611 5.75232 5.18880
#
# Compressibility (1/GPa) = 0.05853641
#
# Stress axis : x y z
#
# Youngs Moduli (GPa) = 22.92622 97.74794 94.69510
#
# Poissons Ratio (x) = 0.46597 -0.47917
# Poissons Ratio (y) = 0.10929 0.30579
# Poissons Ratio (z) = -0.11601 0.31565
#
# Static dielectric constant tensor:
#      x y z
#    x 4.338360 0.000000 -0.115020 
#    y 0.000000 4.016950 0.000010 
#    z -0.115020 0.000010 4.616560 
# 
# 
# High freq. dielectric constant tensor:
#      x y z
#    x 1.921410 0.000000 -0.006110 
#    y 0.000000 1.918560 0.000000 
#    z -0.006110 0.000000 1.956180 
# 
# From -- ./inp_files/147415.got.cif
#   From: 2010.06.25/outbox.cif.g09.slc.cpg/sg15_74_cif.got.tgz:147415.got - 2010.06.28 07:06:18.
