data_PCOD8147907
_publ_section_title
;
Structure prediction by ZEFSAII (Michael W. Deem and Ramdas Pophale) SiO2 
 PCOD8147907
Probable space group: C 2/C
;
_chemical_formula_sum "Si O2"
_cell_formula_units_Z 44
_cell_length_a 16.406449
_cell_length_b 6.720118
_cell_length_c 22.202349
_cell_angle_alpha 90.000000
_cell_angle_beta 49.275488
_cell_angle_gamma 90.000000
_cell_volume 1855.140057
_symmetry_space_group_name_H-M "C 2/C"
_symmetry_group_IT_number 15
_symmetry_cell_setting 'monoclinic'
loop_
_space_group_symop_operation_xyz
x,y,z
-x,y,1/2-z
-x,-y,-z
x,-y,1/2+z
1/2+x,1/2+y,z
1/2-x,1/2+y,1/2-z
1/2-x,1/2-y,-z
1/2+x,1/2-y,1/2+z
loop_
_atom_site_type_symbol
_atom_site_label
_atom_site_fract_x
_atom_site_fract_y
_atom_site_fract_z
Si Si1 0.999072 0.100743 0.623200
Si Si2 0.303122 0.332892 0.689815
Si Si3 0.467459 0.023205 0.584154
Si Si4 0.153046 0.191164 0.004827
Si Si5 0.500000 0.598471 0.250000
Si Si6 0.785047 0.678834 0.825682
O O1 0.979370 0.331549 0.620323
O O2 0.111508 0.034523 0.536814
O O3 0.899035 0.990920 0.641500
O O4 0.005757 0.049076 0.690617
O O5 0.212178 0.438851 0.691298
O O6 0.255575 0.300025 0.779357
O O7 0.347562 0.120299 0.644669
O O8 0.500000 0.000000 0.500000
O O9 0.552064 0.175047 0.573059
O O10 0.188184 0.221459 0.918770
O O11 0.250000 0.250000 0.000000
O O12 0.601725 0.747417 0.202774
#
# Coordination Sequence:
#
# PCOD8147907 Si02
#       6
#     8   8   8   8   4   8
#     4  10  22  46  68 105 140 186 234 295 356 420
#     4  10  25  42  70 103 142 186 236 295 348 425
#     4  11  24  44  72 100 137 183 240 289 351 423
#     4  11  23  44  69 101 142 181 230 295 353 421
#     4  10  22  46  74 102 152 180 238 298 364 432
#     4  11  23  45  71 101 142 186 237 296 360 425
#
# _framework density 23.717886
#
# number of rings (size 3 to 8) (size 9 to 14) (size 15 to 20)
#    0.000    1.455    1.818    2.182    5.091    3.636 
#    3.273    0.000    0.000    0.000    0.000    0.000 
#    0.000    0.000    0.000    0.000    0.000    0.000 
#
# Total GULP energy -272691.226410 kJ/mol
# GULP energy per Si atom -12395.055746 kJ/mol
# Density = 2.366390 g / cm^3
# Si number density = 23.717886 Si / 1000 Ang^3
#
#
#
# Elastic Constant Matrix: (Units=GPa)
#
#
# Indices 1 2 3 4 5 6 
#
# 1 81.2454 59.5079 32.7796 0.0005 7.2447 0.0021
# 2 59.5079 169.2817 59.2915 0.0034 -1.5169 0.0070
# 3 32.7796 59.2915 140.1347 -0.0006 16.2915 -0.0005
# 4 0.0005 0.0034 -0.0006 32.9241 -0.0002 0.4254
# 5 7.2447 -1.5169 16.2915 -0.0002 36.2992 0.0008
# 6 0.0021 0.0070 -0.0005 0.4254 0.0008 48.0369
#
#
#
# Elastic Compliance Matrix: (Units=1/GPa)
#
#
# Indices 1 2 3 4 5 6 
#
# 1 0.017230 -0.005634 -0.001287 0.000000 -0.003097 0.000000
# 2 -0.005634 0.008878 -0.002756 -0.000001 0.002732 -0.000001
# 3 -0.001287 -0.002756 0.009059 0.000000 -0.003924 0.000001
# 4 0.000000 -0.000001 0.000000 0.030376 0.000000 -0.000269
# 5 -0.003097 0.002732 -0.003924 0.000000 0.030042 -0.000001
# 6 0.000000 -0.000001 0.000001 -0.000269 -0.000001 0.020820
#
#
# Mechanical properties :
#
#
# Convention : Reuss Voigt Hill
#
# Bulk Modulus (GPa) = 63.23536 77.09110 70.16323
# Shear Modulus (GPa) = 35.45341 39.39089 37.42215
#
# Velocity S-wave (km/s) = 3.87045 4.07972 3.97647
# Velocity P-wave (km/s) = 6.83324 7.40041 7.12248
#
# Compressibility (1/GPa) = 0.01581394
#
# Stress axis : x y z
#
# Youngs Moduli (GPa) = 58.03715 112.64254 110.38515
#
# Poissons Ratio (x) = 0.63464 0.14202
# Poissons Ratio (y) = 0.32699 0.30421
# Poissons Ratio (z) = 0.07467 0.31043
#
# Static dielectric constant tensor:
#      x y z
#    x 4.387180 -0.000020 -0.244210 
#    y -0.000020 4.625290 0.000010 
#    z -0.244210 0.000010 4.757090 
# 
# 
# High freq. dielectric constant tensor:
#      x y z
#    x 1.927330 0.000000 -0.004790 
#    y 0.000000 1.943040 0.000000 
#    z -0.004790 0.000000 1.962080 
# 
# From -- ./inp_files/297645.got.cif
#   From: 2010.06.25/outbox.cif.g09.slc.cpg/sg15_149_cif.got.tgz:297645.got - 2010.06.28 07:06:18.
