data_PCOD8147565
_publ_section_title
;
Structure prediction by ZEFSAII (Michael W. Deem and Ramdas Pophale) SiO2 
 PCOD8147565
Probable space group: C 2/C
;
_chemical_formula_sum "Si O2"
_cell_formula_units_Z 52
_cell_length_a 9.573258
_cell_length_b 27.581115
_cell_length_c 10.939875
_cell_angle_alpha 90.000000
_cell_angle_beta 60.740727
_cell_angle_gamma 90.000000
_cell_volume 2520.043396
_symmetry_space_group_name_H-M "C 2/C"
_symmetry_group_IT_number 15
_symmetry_cell_setting 'monoclinic'
loop_
_space_group_symop_operation_xyz
x,y,z
-x,y,1/2-z
-x,-y,-z
x,-y,1/2+z
1/2+x,1/2+y,z
1/2-x,1/2+y,1/2-z
1/2-x,1/2-y,-z
1/2+x,1/2-y,1/2+z
loop_
_atom_site_type_symbol
_atom_site_label
_atom_site_fract_x
_atom_site_fract_y
_atom_site_fract_z
Si Si1 0.742484 0.272269 0.706595
Si Si2 0.500000 0.830488 0.750000
Si Si3 0.655041 0.085666 0.049672
Si Si4 0.276911 0.451603 0.258317
Si Si5 0.074527 0.203297 0.042114
Si Si6 0.000000 0.496533 0.750000
Si Si7 0.000000 0.967824 0.750000
Si Si8 0.013939 0.905137 0.974757
O O1 0.862472 0.298257 0.748137
O O2 0.829803 0.224206 0.616246
O O3 0.577182 0.262333 0.853347
O O4 0.694995 0.303483 0.605978
O O5 0.435177 0.863986 0.887426
O O6 0.543147 0.038695 0.118404
O O7 0.801745 0.082065 0.081601
O O8 0.705966 0.085719 0.887250
O O9 0.144163 0.467649 0.219198
O O10 0.344874 0.499354 0.294541
O O11 0.416747 0.422313 0.133387
O O12 0.004516 0.151740 0.035797
O O13 0.954095 0.934278 0.883182
#
# Coordination Sequence:
#
# PCOD8147565 Si02
#       8
#     8   4   8   8   8   4   4   8
#     4  10  22  44  66  96 129 165 219 263 338 394
#     4  11  24  40  67  96 128 168 207 268 330 393
#     4  11  23  41  62  96 132 166 218 270 317 386
#     4  12  24  41  62  94 132 170 219 271 317 377
#     4  10  23  43  69  94 128 173 213 272 324 399
#     4  11  24  40  60  92 132 176 212 268 334 367
#     4  12  22  38  67  86 124 172 217 258 312 388
#     4  12  23  41  68  95 124 174 226 262 318 389
#
# _framework density 20.634564999999998
#
# number of rings (size 3 to 8) (size 9 to 14) (size 15 to 20)
#    0.000    0.923    4.615    2.769    0.000    3.077 
#    2.769    1.538    0.000    0.000    0.000    0.000 
#    0.000    0.000    0.000    0.000    0.000    0.000 
#
# Total GULP energy -322426.140479 kJ/mol
# GULP energy per Si atom -12401.005403 kJ/mol
# Density = 2.058760 g / cm^3
# Si number density = 20.634565 Si / 1000 Ang^3
#
#
#
# Elastic Constant Matrix: (Units=GPa)
#
#
# Indices 1 2 3 4 5 6 
#
# 1 84.9997 13.5349 2.3944 0.0000 -9.1298 0.0000
# 2 13.5349 64.1688 33.4800 0.0000 -2.0715 0.0000
# 3 2.3944 33.4800 109.7399 0.0000 -5.0371 0.0000
# 4 0.0000 0.0000 0.0000 12.3320 0.0000 1.3163
# 5 -9.1298 -2.0715 -5.0371 0.0000 29.6305 0.0000
# 6 0.0000 0.0000 0.0000 1.3163 0.0000 7.0192
#
#
#
# Elastic Compliance Matrix: (Units=1/GPa)
#
#
# Indices 1 2 3 4 5 6 
#
# 1 0.012623 -0.002958 0.000802 0.000000 0.003819 0.000000
# 2 -0.002958 0.019231 -0.005828 0.000000 -0.000558 0.000000
# 3 0.000802 -0.005828 0.010951 0.000000 0.001701 0.000000
# 4 0.000000 0.000000 0.000000 0.082746 0.000000 -0.015517
# 5 0.003819 -0.000558 0.001701 0.000000 0.035176 0.000000
# 6 0.000000 0.000000 0.000000 -0.015517 0.000000 0.145376
#
#
# Mechanical properties :
#
#
# Convention : Reuss Voigt Hill
#
# Bulk Modulus (GPa) = 37.26096 39.74745 38.50421
# Shear Modulus (GPa) = 15.10499 23.76295 19.43397
#
# Velocity S-wave (km/s) = 2.70853 3.39722 3.07223
# Velocity P-wave (km/s) = 5.27999 5.89003 5.59333
#
# Compressibility (1/GPa) = 0.02683774
#
# Stress axis : x y z
#
# Youngs Moduli (GPa) = 79.21826 52.00058 91.31513
#
# Poissons Ratio (x) = 0.15381 -0.07326
# Poissons Ratio (y) = 0.23432 0.53219
# Poissons Ratio (z) = -0.06356 0.30306
#
# Static dielectric constant tensor:
#      x y z
#    x 3.990910 0.000000 -0.002460 
#    y 0.000000 3.531500 0.000000 
#    z -0.002460 0.000000 3.997920 
# 
# 
# High freq. dielectric constant tensor:
#      x y z
#    x 1.817400 0.000000 -0.008420 
#    y 0.000000 1.788070 0.000000 
#    z -0.008420 0.000000 1.815740 
# 
# From -- ./inp_files/81214.got.cif
#   From: 2010.06.25/outbox.cif.g09.slc.cpg/sg15_41_cif.got.tgz:81214.got - 2010.06.28 07:06:18.
