data_PCOD8147957
_publ_section_title
;
Structure prediction by ZEFSAII (Michael W. Deem and Ramdas Pophale) SiO2 
 PCOD8147957
Probable space group: C 2/C
;
_chemical_formula_sum "Si O2"
_cell_formula_units_Z 52
_cell_length_a 9.157540
_cell_length_b 27.224636
_cell_length_c 16.277217
_cell_angle_alpha 90.000000
_cell_angle_beta 143.718182
_cell_angle_gamma 90.000000
_cell_volume 2401.401383
_symmetry_space_group_name_H-M "C 2/C"
_symmetry_group_IT_number 15
_symmetry_cell_setting 'monoclinic'
loop_
_space_group_symop_operation_xyz
x,y,z
-x,y,1/2-z
-x,-y,-z
x,-y,1/2+z
1/2+x,1/2+y,z
1/2-x,1/2+y,1/2-z
1/2-x,1/2-y,-z
1/2+x,1/2-y,1/2+z
loop_
_atom_site_type_symbol
_atom_site_label
_atom_site_fract_x
_atom_site_fract_y
_atom_site_fract_z
Si Si1 0.000000 0.224761 0.250000
Si Si2 0.666150 0.689766 0.894422
Si Si3 0.484920 0.724821 0.975604
Si Si4 0.728242 0.006046 0.415484
Si Si5 0.571461 0.648591 0.147297
Si Si6 0.460935 0.098601 0.088092
Si Si7 0.224303 0.066111 0.412335
O O1 0.785038 0.258939 0.116226
O O2 0.877305 0.191765 0.264653
O O3 0.500000 0.663589 0.750000
O O4 0.488024 0.715438 0.879784
O O5 0.823032 0.731577 0.918220
O O6 0.827534 0.649720 0.013254
O O7 0.546660 0.673335 0.047599
O O8 0.500000 0.992767 0.250000
O O9 0.708089 0.062270 0.435576
O O10 0.709133 0.973220 0.488297
O O11 0.000000 0.000000 0.500000
O O12 0.796798 0.610225 0.247864
O O13 0.332278 0.617766 0.067449
O O14 0.534470 0.073978 0.034428
O O15 0.000000 0.049633 0.250000
#
# Coordination Sequence:
#
# PCOD8147957 Si02
#       7
#     4   8   8   8   8   8   8
#     4  12  20  44  64 102 140 180 240 290 348 434
#     4  11  25  42  60  99 138 182 241 281 355 422
#     4  11  25  39  67 100 138 188 234 295 348 416
#     4  12  28  48  76 113 144 184 249 314 379 440
#     4  11  21  42  73  99 142 189 242 287 366 435
#     4  11  24  45  73  96 141 197 233 288 368 449
#     4  10  22  46  73 106 141 193 243 293 373 451
#
# _framework density 21.654022000000001
#
# number of rings (size 3 to 8) (size 9 to 14) (size 15 to 20)
#    0.000    0.923    3.846    3.692    6.462    3.077 
#    1.385    0.000    0.000    0.000    0.000    0.000 
#    0.000    0.000    0.000    0.000    0.000    0.000 
#
# Total GULP energy -322420.348660 kJ/mol
# GULP energy per Si atom -12400.782641 kJ/mol
# Density = 2.160474 g / cm^3
# Si number density = 21.654022 Si / 1000 Ang^3
#
#
#
# Elastic Constant Matrix: (Units=GPa)
#
#
# Indices 1 2 3 4 5 6 
#
# 1 109.4710 49.6038 43.8422 0.0000 13.8019 0.0000
# 2 49.6038 109.5743 41.4165 0.0000 -4.1608 0.0000
# 3 43.8422 41.4165 96.7840 0.0000 -8.0233 0.0000
# 4 0.0000 0.0000 0.0000 41.2324 0.0000 -6.0510
# 5 13.8019 -4.1608 -8.0233 0.0000 28.0892 0.0000
# 6 0.0000 0.0000 0.0000 -6.0510 0.0000 50.9950
#
#
#
# Elastic Compliance Matrix: (Units=1/GPa)
#
#
# Indices 1 2 3 4 5 6 
#
# 1 0.014738 -0.005024 -0.005314 0.000000 -0.009504 0.000000
# 2 -0.005024 0.012602 -0.002824 0.000000 0.003529 0.000000
# 3 -0.005314 -0.002824 0.014473 0.000000 0.006327 0.000000
# 4 0.000000 0.000000 0.000000 0.024683 0.000000 0.002929
# 5 -0.009504 0.003529 0.006327 0.000000 0.042600 0.000000
# 6 0.000000 0.000000 0.000000 0.002929 0.000000 0.019957
#
#
# Mechanical properties :
#
#
# Convention : Reuss Voigt Hill
#
# Bulk Modulus (GPa) = 64.56787 65.06157 64.81472
# Shear Modulus (GPa) = 31.14487 36.12778 33.63633
#
# Velocity S-wave (km/s) = 3.79660 4.08905 3.94553
# Velocity P-wave (km/s) = 7.00725 7.23913 7.12413
#
# Compressibility (1/GPa) = 0.01548758
#
# Stress axis : x y z
#
# Youngs Moduli (GPa) = 67.85300 79.35162 69.09610
#
# Poissons Ratio (x) = 0.39866 0.36718
# Poissons Ratio (y) = 0.34089 0.19516
# Poissons Ratio (z) = 0.36057 0.22412
#
# Static dielectric constant tensor:
#      x y z
#    x 4.041700 0.000000 -0.020910 
#    y 0.000000 3.851090 0.000000 
#    z -0.020910 0.000000 3.803070 
# 
# 
# High freq. dielectric constant tensor:
#      x y z
#    x 1.865030 0.000000 -0.006620 
#    y 0.000000 1.851160 0.000000 
#    z -0.006620 0.000000 1.836120 
# 
# From -- ./inp_files/139901.got.cif
#   From: 2010.06.25/outbox.cif.g09.slc.cpg/sg15_70_cif.got.tgz:139901.got - 2010.06.28 07:06:18.
