data_PCOD8147486
_publ_section_title
;
Structure prediction by ZEFSAII (Michael W. Deem and Ramdas Pophale) SiO2 
 PCOD8147486
Probable space group: C 2/C
;
_chemical_formula_sum "Si O2"
_cell_formula_units_Z 48
_cell_length_a 9.995861
_cell_length_b 11.182187
_cell_length_c 20.729994
_cell_angle_alpha 90.000000
_cell_angle_beta 98.643407
_cell_angle_gamma 90.000000
_cell_volume 2290.791419
_symmetry_space_group_name_H-M "C 2/C"
_symmetry_group_IT_number 15
_symmetry_cell_setting 'monoclinic'
loop_
_space_group_symop_operation_xyz
x,y,z
-x,y,1/2-z
-x,-y,-z
x,-y,1/2+z
1/2+x,1/2+y,z
1/2-x,1/2+y,1/2-z
1/2-x,1/2-y,-z
1/2+x,1/2-y,1/2+z
loop_
_atom_site_type_symbol
_atom_site_label
_atom_site_fract_x
_atom_site_fract_y
_atom_site_fract_z
Si Si1 0.939993 0.564989 0.433599
Si Si2 0.424428 0.896176 0.308234
Si Si3 0.144305 0.023572 0.760286
Si Si4 0.611274 0.650344 0.142430
Si Si5 0.856901 0.032543 0.100845
Si Si6 0.336846 0.254603 0.070026
O O1 0.950850 0.483998 0.370271
O O2 0.780928 0.588560 0.438680
O O3 0.000000 0.500000 0.500000
O O4 0.018994 0.688625 0.427675
O O5 0.500000 0.942723 0.250000
O O6 0.465745 0.763199 0.331340
O O7 0.266786 0.884944 0.276861
O O8 0.162102 0.944951 0.698037
O O9 0.143045 0.936725 0.822686
O O10 0.000000 0.094212 0.750000
O O11 0.496763 0.593189 0.085355
O O12 0.746904 0.687295 0.116093
O O13 0.135879 0.109663 0.908485
O O14 0.250000 0.250000 0.000000
#
# Coordination Sequence:
#
# PCOD8147486 Si02
#       6
#     8   8   8   8   8   8
#     4  11  22  44  67  96 132 172 221 270 326 390
#     4  11  21  40  62  95 132 167 217 273 325 389
#     4   9  19  39  60  92 124 163 209 264 321 383
#     4  11  22  43  66  93 134 169 217 273 327 389
#     4  10  22  44  63  95 129 168 216 268 326 385
#     4  12  23  44  68  91 134 176 213 273 324 391
#
# _framework density 20.953458000000001
#
# number of rings (size 3 to 8) (size 9 to 14) (size 15 to 20)
#    0.000    1.333    5.000    2.500    0.000    0.667 
#   21.000    1.667    0.000    0.000    0.000    0.000 
#    0.000    0.000    0.000    0.000    0.000    0.000 
#
# Total GULP energy -297400.368984 kJ/mol
# GULP energy per Si atom -12391.682041 kJ/mol
# Density = 2.090577 g / cm^3
# Si number density = 20.953458 Si / 1000 Ang^3
#
#
#
# Elastic Constant Matrix: (Units=GPa)
#
#
# Indices 1 2 3 4 5 6 
#
# 1 142.9449 66.9900 22.2349 0.0000 25.4273 0.0000
# 2 66.9900 111.4528 27.3619 0.0000 7.2077 0.0000
# 3 22.2349 27.3619 87.8229 0.0000 13.0865 0.0000
# 4 0.0000 0.0000 0.0000 15.9283 0.0000 4.7585
# 5 25.4273 7.2077 13.0865 0.0000 35.2699 0.0000
# 6 0.0000 0.0000 0.0000 4.7585 0.0000 42.2286
#
#
#
# Elastic Compliance Matrix: (Units=1/GPa)
#
#
# Indices 1 2 3 4 5 6 
#
# 1 0.011126 -0.006286 0.000154 0.000000 -0.006794 0.000000
# 2 -0.006286 0.013295 -0.002986 0.000000 0.002923 0.000000
# 3 0.000154 -0.002986 0.012918 0.000000 -0.004294 0.000000
# 4 0.000000 0.000000 0.000000 0.064969 0.000000 -0.007321
# 5 -0.006794 0.002923 -0.004294 0.000000 0.034246 0.000000
# 6 0.000000 0.000000 0.000000 -0.007321 0.000000 0.024506
#
#
# Mechanical properties :
#
#
# Convention : Reuss Voigt Hill
#
# Bulk Modulus (GPa) = 52.34998 63.93267 58.14133
# Shear Modulus (GPa) = 26.93055 33.72761 30.32908
#
# Velocity S-wave (km/s) = 3.58894 4.01639 3.80866
# Velocity P-wave (km/s) = 6.49709 7.21710 6.86654
#
# Compressibility (1/GPa) = 0.01910220
#
# Stress axis : x y z
#
# Youngs Moduli (GPa) = 89.87912 75.21804 77.41287
#
# Poissons Ratio (x) = 0.47281 -0.01191
# Poissons Ratio (y) = 0.56497 0.23117
# Poissons Ratio (z) = -0.01383 0.22461
#
# Static dielectric constant tensor:
#      x y z
#    x 4.457720 0.000000 0.038280 
#    y 0.000000 3.578140 0.000000 
#    z 0.038280 0.000000 3.999780 
# 
# 
# High freq. dielectric constant tensor:
#      x y z
#    x 1.837170 0.000000 0.008650 
#    y 0.000000 1.799810 0.000000 
#    z 0.008650 0.000000 1.825150 
# 
# From -- ./inp_files/230746.got.cif
#   From: 2010.06.25/outbox.cif.g09.slc.cpg/sg15_116_cif.got.tgz:230746.got - 2010.06.28 07:06:18.
