data_PCOD8147263
_publ_section_title
;
Structure prediction by ZEFSAII (Michael W. Deem and Ramdas Pophale) SiO2 
 PCOD8147263
Probable space group: C 2/C
;
_chemical_formula_sum "Si O2"
_cell_formula_units_Z 48
_cell_length_a 11.988401
_cell_length_b 14.062642
_cell_length_c 14.976838
_cell_angle_alpha 90.000000
_cell_angle_beta 61.534438
_cell_angle_gamma 90.000000
_cell_volume 2219.670185
_symmetry_space_group_name_H-M "C 2/C"
_symmetry_group_IT_number 15
_symmetry_cell_setting 'monoclinic'
loop_
_space_group_symop_operation_xyz
x,y,z
-x,y,1/2-z
-x,-y,-z
x,-y,1/2+z
1/2+x,1/2+y,z
1/2-x,1/2+y,1/2-z
1/2-x,1/2-y,-z
1/2+x,1/2-y,1/2+z
loop_
_atom_site_type_symbol
_atom_site_label
_atom_site_fract_x
_atom_site_fract_y
_atom_site_fract_z
Si Si1 0.987364 0.156815 0.500505
Si Si2 0.500000 0.449955 0.750000
Si Si3 0.357969 0.285864 0.714587
Si Si4 0.350416 0.493418 0.470311
Si Si5 0.500000 0.128600 0.750000
Si Si6 0.067376 0.713218 0.312593
Si Si7 0.056647 0.480603 0.574950
O O1 0.045947 0.228926 0.405426
O O2 0.867164 0.099918 0.504587
O O3 0.945299 0.213560 0.602459
O O4 0.099277 0.082245 0.477744
O O5 0.388878 0.384673 0.751924
O O6 0.565428 0.516914 0.651515
O O7 0.379630 0.196161 0.772125
O O8 0.215392 0.295363 0.734600
O O9 0.206267 0.468059 0.504589
O O10 0.532733 0.066518 0.651537
O O11 0.000000 0.754176 0.250000
O O12 0.005990 0.612794 0.360117
O O13 0.000000 0.500000 0.500000
#
# Coordination Sequence:
#
# PCOD8147263 Si02
#       7
#     8   4   8   8   4   8   8
#     4  10  23  42  66  92 129 179 212 271 324 384
#     4   9  20  40  67  92 120 170 217 276 322 379
#     4  10  22  43  66  90 130 170 222 266 321 393
#     4  10  22  43  65  97 130 168 229 262 322 397
#     4  11  24  44  69  98 126 180 223 266 322 385
#     4  12  25  41  61  99 133 171 213 270 337 385
#     4  12  25  42  66  98 132 171 216 275 328 385
#
# _framework density 21.624835999999998
#
# number of rings (size 3 to 8) (size 9 to 14) (size 15 to 20)
#    0.000    1.333    0.833    4.000    1.167    4.000 
#    6.000    6.667    0.000    0.000    0.000    0.000 
#    0.000    0.000    0.000    0.000    0.000    0.000 
#
# Total GULP energy -297669.597477 kJ/mol
# GULP energy per Si atom -12402.899895 kJ/mol
# Density = 2.157562 g / cm^3
# Si number density = 21.624836 Si / 1000 Ang^3
#
#
#
# Elastic Constant Matrix: (Units=GPa)
#
#
# Indices 1 2 3 4 5 6 
#
# 1 115.8051 5.1095 16.6243 0.0000 -5.1554 0.0000
# 2 5.1095 63.7586 27.7420 0.0000 -6.3309 0.0000
# 3 16.6243 27.7420 90.7613 0.0000 18.0513 0.0000
# 4 0.0000 0.0000 0.0000 26.0122 0.0000 3.4700
# 5 -5.1554 -6.3309 18.0513 0.0000 37.5159 0.0000
# 6 0.0000 0.0000 0.0000 3.4700 0.0000 23.1193
#
#
#
# Elastic Compliance Matrix: (Units=1/GPa)
#
#
# Indices 1 2 3 4 5 6 
#
# 1 0.009051 0.000518 -0.002301 0.000000 0.002439 0.000000
# 2 0.000518 0.019583 -0.007467 0.000000 0.006969 0.000000
# 3 -0.002301 -0.007467 0.015520 0.000000 -0.009044 0.000000
# 4 0.000000 0.000000 0.000000 0.039229 0.000000 -0.005888
# 5 0.002439 0.006969 -0.009044 0.000000 0.032518 0.000000
# 6 0.000000 0.000000 0.000000 -0.005888 0.000000 0.044138
#
#
# Mechanical properties :
#
#
# Convention : Reuss Voigt Hill
#
# Bulk Modulus (GPa) = 38.97815 41.03072 40.00443
# Shear Modulus (GPa) = 26.72489 32.05276 29.38883
#
# Velocity S-wave (km/s) = 3.51927 3.85414 3.69050
# Velocity P-wave (km/s) = 5.88027 6.23064 6.05799
#
# Compressibility (1/GPa) = 0.02565540
#
# Stress axis : x y z
#
# Youngs Moduli (GPa) = 110.48202 51.06350 64.43108
#
# Poissons Ratio (x) = -0.02645 0.14827
# Poissons Ratio (y) = -0.05724 0.48109
# Poissons Ratio (z) = 0.25424 0.38128
#
# Static dielectric constant tensor:
#      x y z
#    x 4.112610 0.000000 0.347030 
#    y 0.000000 3.883460 0.000000 
#    z 0.347030 0.000000 4.005270 
# 
# 
# High freq. dielectric constant tensor:
#      x y z
#    x 1.856620 0.000000 0.013990 
#    y 0.000000 1.847550 0.000000 
#    z 0.013990 0.000000 1.858460 
# 
# From -- ./inp_files/144101.got.cif
#   From: 2010.06.25/outbox.cif.g09.slc.cpg/sg15_73_cif.got.tgz:144101.got - 2010.06.28 07:06:18.
