data_PCOD8147159
_publ_section_title
;
Structure prediction by ZEFSAII (Michael W. Deem and Ramdas Pophale) SiO2 
 PCOD8147159
Probable space group: C 2/C
;
_chemical_formula_sum "Si O2"
_cell_formula_units_Z 52
_cell_length_a 21.211835
_cell_length_b 8.540611
_cell_length_c 18.672591
_cell_angle_alpha 90.000000
_cell_angle_beta 43.140058
_cell_angle_gamma 90.000000
_cell_volume 2313.080574
_symmetry_space_group_name_H-M "C 2/C"
_symmetry_group_IT_number 15
_symmetry_cell_setting 'monoclinic'
loop_
_space_group_symop_operation_xyz
x,y,z
-x,y,1/2-z
-x,-y,-z
x,-y,1/2+z
1/2+x,1/2+y,z
1/2-x,1/2+y,1/2-z
1/2-x,1/2-y,-z
1/2+x,1/2-y,1/2+z
loop_
_atom_site_type_symbol
_atom_site_label
_atom_site_fract_x
_atom_site_fract_y
_atom_site_fract_z
Si Si1 0.144522 0.302935 0.156621
Si Si2 0.031345 0.786746 0.619135
Si Si3 0.067801 0.901045 0.325928
Si Si4 0.745624 0.948793 0.852107
Si Si5 0.820084 0.607207 0.454697
Si Si6 0.500000 0.761327 0.750000
Si Si7 0.070041 0.358689 0.940378
O O1 0.107969 0.204447 0.118148
O O2 0.222644 0.207022 0.132747
O O3 0.191533 0.466874 0.094039
O O4 0.056412 0.318490 0.282663
O O5 0.077016 0.707042 0.514159
O O6 0.005734 0.959594 0.612964
O O7 0.066985 0.836820 0.245827
O O8 0.040625 0.770140 0.406524
O O9 0.169794 0.964118 0.256438
O O10 0.676039 0.915862 0.843003
O O11 0.694818 0.058316 0.951513
O O12 0.750000 0.750000 0.500000
O O13 0.929278 0.644468 0.358797
O O14 0.000000 0.500000 0.000000
#
# Coordination Sequence:
#
# PCOD8147159 Si02
#       7
#     8   8   8   8   8   4   8
#     4  10  22  42  73 103 133 176 235 294 356 419
#     4  10  22  43  72  99 134 182 233 290 356 430
#     4  11  25  45  69 101 137 188 234 292 357 430
#     4  11  24  46  65 101 140 180 241 292 348 433
#     4  12  24  38  70 106 140 178 225 297 358 419
#     4  12  24  44  70 104 136 166 240 292 346 418
#     4  12  27  44  67  98 144 186 233 291 361 434
#
# _framework density 22.480841999999999
#
# number of rings (size 3 to 8) (size 9 to 14) (size 15 to 20)
#    0.000    0.923    3.077    4.615    2.154    2.462 
#    0.000    3.077    0.000    0.000    0.000    0.000 
#    0.000    0.000    0.000    0.000    0.000    0.000 
#
# Total GULP energy -322309.137264 kJ/mol
# GULP energy per Si atom -12396.505279 kJ/mol
# Density = 2.242967 g / cm^3
# Si number density = 22.480842 Si / 1000 Ang^3
#
#
#
# Elastic Constant Matrix: (Units=GPa)
#
#
# Indices 1 2 3 4 5 6 
#
# 1 113.3490 49.4059 19.0667 0.0010 -16.7121 -0.0012
# 2 49.4059 135.6123 38.6039 0.0025 -15.7347 -0.0038
# 3 19.0667 38.6039 65.0439 0.0008 -7.8566 -0.0014
# 4 0.0010 0.0025 0.0008 41.9203 -0.0003 1.8305
# 5 -16.7121 -15.7347 -7.8566 -0.0003 36.1283 0.0004
# 6 -0.0012 -0.0038 -0.0014 1.8305 0.0004 23.8875
#
#
#
# Elastic Compliance Matrix: (Units=1/GPa)
#
#
# Indices 1 2 3 4 5 6 
#
# 1 0.010923 -0.003356 -0.000797 0.000000 0.003418 0.000000
# 2 -0.003356 0.010187 -0.004841 0.000000 0.001832 0.000001
# 3 -0.000797 -0.004841 0.018672 0.000000 0.001583 0.000000
# 4 0.000000 0.000000 0.000000 0.023935 0.000000 -0.001834
# 5 0.003418 0.001832 0.001583 0.000000 0.030402 0.000000
# 6 0.000000 0.000001 0.000000 -0.001834 0.000000 0.042003
#
#
# Mechanical properties :
#
#
# Convention : Reuss Voigt Hill
#
# Bulk Modulus (GPa) = 45.88452 58.68425 52.28439
# Shear Modulus (GPa) = 30.98336 34.18245 32.58291
#
# Velocity S-wave (km/s) = 3.71646 3.90361 3.81118
# Velocity P-wave (km/s) = 6.23465 6.81750 6.53258
#
# Compressibility (1/GPa) = 0.02179384
#
# Stress axis : x y z
#
# Youngs Moduli (GPa) = 91.54886 98.16219 53.55479
#
# Poissons Ratio (x) = 0.32943 0.04270
# Poissons Ratio (y) = 0.30723 0.25927
# Poissons Ratio (z) = 0.07300 0.47522
#
# Static dielectric constant tensor:
#      x y z
#    x 4.029010 0.000000 0.061280 
#    y 0.000000 4.381510 -0.000010 
#    z 0.061280 -0.000010 4.504320 
# 
# 
# High freq. dielectric constant tensor:
#      x y z
#    x 1.881100 0.000000 -0.013680 
#    y 0.000000 1.888000 0.000000 
#    z -0.013680 0.000000 1.892500 
# 
# From -- ./inp_files/254995.got.cif
#   From: 2010.06.25/outbox.cif.g09.slc.cpg/sg15_128_cif.got.tgz:254995.got - 2010.06.28 07:06:18.
