data_PCOD8147061
_publ_section_title
;
Structure prediction by ZEFSAII (Michael W. Deem and Ramdas Pophale) SiO2 
 PCOD8147061
Probable space group: C 2/C
;
_chemical_formula_sum "Si O2"
_cell_formula_units_Z 28
_cell_length_a 11.795639
_cell_length_b 8.755970
_cell_length_c 10.651399
_cell_angle_alpha 90.000000
_cell_angle_beta 108.125483
_cell_angle_gamma 90.000000
_cell_volume 1045.510790
_symmetry_space_group_name_H-M "C 2/C"
_symmetry_group_IT_number 15
_symmetry_cell_setting 'monoclinic'
loop_
_space_group_symop_operation_xyz
x,y,z
-x,y,1/2-z
-x,-y,-z
x,-y,1/2+z
1/2+x,1/2+y,z
1/2-x,1/2+y,1/2-z
1/2-x,1/2-y,-z
1/2+x,1/2-y,1/2+z
loop_
_atom_site_type_symbol
_atom_site_label
_atom_site_fract_x
_atom_site_fract_y
_atom_site_fract_z
Si Si1 0.626714 0.098053 0.430120
Si Si2 0.534748 0.394517 0.127296
Si Si3 0.000000 0.338694 0.250000
Si Si4 0.730144 0.217021 0.701625
O O1 0.535195 0.236717 0.409069
O O2 0.554526 0.943027 0.380440
O O3 0.702107 0.088698 0.584709
O O4 0.717582 0.130179 0.345313
O O5 0.500000 0.469833 0.250000
O O6 0.675943 0.357303 0.169689
O O7 0.500000 0.500000 0.000000
O O8 0.892896 0.236450 0.269755
#
# Coordination Sequence:
#
# PCOD8147061 Si02
#       4
#     8   8   4   8
#     4  10  22  46  64  94 145 181 221 293 349 398
#     4  10  22  42  69  99 137 190 227 288 354 408
#     4  12  22  42  70 100 132 186 232 276 350 414
#     4  10  23  39  69  97 130 186 228 280 342 418
#
# _framework density 26.781167
#
# number of rings (size 3 to 8) (size 9 to 14) (size 15 to 20)
#    0.000    1.714    4.286    0.857   12.000    0.000 
#    2.571    1.429    0.000    0.000    0.000    0.000 
#    0.000    0.000    0.000    0.000    0.000    0.000 
#
# Total GULP energy -173597.855087 kJ/mol
# GULP energy per Si atom -12399.846792 kJ/mol
# Density = 2.672021 g / cm^3
# Si number density = 26.781167 Si / 1000 Ang^3
#
#
#
# Elastic Constant Matrix: (Units=GPa)
#
#
# Indices 1 2 3 4 5 6 
#
# 1 234.3164 47.3714 48.0461 0.0000 -4.6877 0.0000
# 2 47.3714 29.9894 18.2519 0.0000 -8.6070 0.0000
# 3 48.0461 18.2519 139.0004 0.0000 14.8585 0.0000
# 4 0.0000 0.0000 0.0000 33.9225 0.0000 -4.5901
# 5 -4.6877 -8.6070 14.8585 0.0000 43.7587 0.0000
# 6 0.0000 0.0000 0.0000 -4.5901 0.0000 25.8292
#
#
#
# Elastic Compliance Matrix: (Units=1/GPa)
#
#
# Indices 1 2 3 4 5 6 
#
# 1 0.006423 -0.009938 -0.000809 0.000000 -0.000992 0.000000
# 2 -0.009938 0.055458 -0.005084 0.000000 0.011570 0.000000
# 3 -0.000809 -0.005084 0.008569 0.000000 -0.003996 0.000000
# 4 0.000000 0.000000 0.000000 0.030205 0.000000 0.005368
# 5 -0.000992 0.011570 -0.003996 0.000000 0.026379 0.000000
# 6 0.000000 0.000000 0.000000 0.005368 0.000000 0.039670
#
#
# Mechanical properties :
#
#
# Convention : Reuss Voigt Hill
#
# Bulk Modulus (GPa) = 25.78139 70.07165 47.92652
# Shear Modulus (GPa) = 23.66370 40.01121 31.83745
#
# Velocity S-wave (km/s) = 2.97576 3.86943 3.45164
# Velocity P-wave (km/s) = 4.63189 6.79593 5.81546
#
# Compressibility (1/GPa) = 0.03878766
#
# Stress axis : x y z
#
# Youngs Moduli (GPa) = 155.69189 18.03175 116.70498
#
# Poissons Ratio (x) = 0.17920 0.09443
# Poissons Ratio (y) = 1.54726 0.59330
# Poissons Ratio (z) = 0.12598 0.09167
#
# Static dielectric constant tensor:
#      x y z
#    x 5.508030 0.000000 -0.110130 
#    y 0.000000 4.288910 0.000000 
#    z -0.110130 0.000000 6.026560 
# 
# 
# High freq. dielectric constant tensor:
#      x y z
#    x 2.098930 0.000000 0.014120 
#    y 0.000000 2.036690 0.000000 
#    z 0.014120 0.000000 2.081610 
# 
# From -- ./inp_files/83624.got.cif
#   From: 2010.06.25/outbox.cif.g09.slc.cpg/sg15_42_cif.got.tgz:83624.got - 2010.06.28 07:06:18.
