data_PCOD8147398
_publ_section_title
;
Structure prediction by ZEFSAII (Michael W. Deem and Ramdas Pophale) SiO2 
 PCOD8147398
Probable space group: C 2/C
;
_chemical_formula_sum "Si O2"
_cell_formula_units_Z 36
_cell_length_a 26.051959
_cell_length_b 7.367192
_cell_length_c 17.056193
_cell_angle_alpha 90.000000
_cell_angle_beta 150.717065
_cell_angle_gamma 90.000000
_cell_volume 1601.187858
_symmetry_space_group_name_H-M "C 2/C"
_symmetry_group_IT_number 15
_symmetry_cell_setting 'monoclinic'
loop_
_space_group_symop_operation_xyz
x,y,z
-x,y,1/2-z
-x,-y,-z
x,-y,1/2+z
1/2+x,1/2+y,z
1/2-x,1/2+y,1/2-z
1/2-x,1/2-y,-z
1/2+x,1/2-y,1/2+z
loop_
_atom_site_type_symbol
_atom_site_label
_atom_site_fract_x
_atom_site_fract_y
_atom_site_fract_z
Si Si1 0.035044 0.151665 0.191253
Si Si2 0.685674 0.831747 0.085312
Si Si3 0.000000 0.519866 0.750000
Si Si4 0.828510 0.959286 0.492992
Si Si5 0.829817 0.172809 0.270609
O O1 0.042301 0.355124 0.235629
O O2 0.117382 0.028033 0.349614
O O3 0.063910 0.146596 0.138015
O O4 0.917548 0.074658 0.044511
O O5 0.730676 0.648019 0.105109
O O6 0.641982 0.781274 0.113140
O O7 0.777156 0.978258 0.217596
O O8 0.591924 0.895329 0.905132
O O9 0.748964 0.791898 0.387042
#
# Coordination Sequence:
#
# PCOD8147398 Si02
#       5
#     8   8   4   8   8
#     4  10  22  43  70  94 137 174 221 273 338 385
#     4  12  24  44  67  96 140 171 223 273 331 388
#     4  10  22  44  68  96 132 180 220 272 330 404
#     4  10  22  44  63  97 134 173 218 278 320 401
#     4  12  24  43  67  99 134 176 221 279 324 394
#
# _framework density 22.483309999999999
#
# number of rings (size 3 to 8) (size 9 to 14) (size 15 to 20)
#    0.000    1.333    6.667    2.000    0.000    2.667 
#    4.000    0.000    0.000    0.000    0.000    0.000 
#    0.000    0.000    0.000    0.000    0.000    0.000 
#
# Total GULP energy -223212.461865 kJ/mol
# GULP energy per Si atom -12400.692326 kJ/mol
# Density = 2.243214 g / cm^3
# Si number density = 22.483310 Si / 1000 Ang^3
#
#
#
# Elastic Constant Matrix: (Units=GPa)
#
#
# Indices 1 2 3 4 5 6 
#
# 1 110.6983 31.5670 -10.4248 0.0000 1.9839 0.0000
# 2 31.5670 131.3556 19.4754 0.0000 -4.2449 0.0000
# 3 -10.4248 19.4754 45.4716 0.0000 0.6016 0.0000
# 4 0.0000 0.0000 0.0000 28.8981 0.0000 -14.9413
# 5 1.9839 -4.2449 0.6016 0.0000 19.0817 0.0000
# 6 0.0000 0.0000 0.0000 -14.9413 0.0000 11.7755
#
#
#
# Elastic Compliance Matrix: (Units=1/GPa)
#
#
# Indices 1 2 3 4 5 6 
#
# 1 0.010296 -0.003084 0.003706 0.000000 -0.001873 0.000000
# 2 -0.003084 0.009124 -0.004648 0.000000 0.002497 0.000000
# 3 0.003706 -0.004648 0.024861 0.000000 -0.002203 0.000000
# 4 0.000000 0.000000 0.000000 0.100606 0.000000 0.127654
# 5 -0.001873 0.002497 -0.002203 0.000000 0.053226 0.000000
# 6 0.000000 0.000000 0.000000 0.127654 0.000000 0.246897
#
#
# Mechanical properties :
#
#
# Convention : Reuss Voigt Hill
#
# Bulk Modulus (GPa) = 27.60232 40.97343 34.28788
# Shear Modulus (GPa) = 10.74949 28.41157 19.58053
#
# Velocity S-wave (km/s) = 2.18894 3.55868 2.95429
# Velocity P-wave (km/s) = 4.32344 5.92866 5.18850
#
# Compressibility (1/GPa) = 0.03622883
#
# Stress axis : x y z
#
# Youngs Moduli (GPa) = 97.12815 109.60185 40.22325
#
# Poissons Ratio (x) = 0.33804 -0.14907
# Poissons Ratio (y) = 0.29957 0.18695
# Poissons Ratio (z) = -0.35997 0.50942
#
# Static dielectric constant tensor:
#      x y z
#    x 3.852820 0.000000 -0.138530 
#    y 0.000000 4.216980 0.000000 
#    z -0.138530 0.000000 3.875070 
# 
# 
# High freq. dielectric constant tensor:
#      x y z
#    x 1.866800 0.000000 -0.018100 
#    y 0.000000 1.895920 0.000000 
#    z -0.018100 0.000000 1.881200 
# 
# From -- ./inp_files/171547.got.cif
#   From: 2010.06.25/outbox.cif.g09.slc.cpg/sg15_86_cif.got.tgz:171547.got - 2010.06.28 07:06:18.
