data_PCOD8147203
_publ_section_title
;
Structure prediction by ZEFSAII (Michael W. Deem and Ramdas Pophale) SiO2 
 PCOD8147203
Probable space group: C 2/C
;
_chemical_formula_sum "Si O2"
_cell_formula_units_Z 56
_cell_length_a 15.489422
_cell_length_b 12.236347
_cell_length_c 29.743273
_cell_angle_alpha 90.000000
_cell_angle_beta 28.940310
_cell_angle_gamma 90.000000
_cell_volume 2727.908199
_symmetry_space_group_name_H-M "C 2/C"
_symmetry_group_IT_number 15
_symmetry_cell_setting 'monoclinic'
loop_
_space_group_symop_operation_xyz
x,y,z
-x,y,1/2-z
-x,-y,-z
x,-y,1/2+z
1/2+x,1/2+y,z
1/2-x,1/2+y,1/2-z
1/2-x,1/2-y,-z
1/2+x,1/2-y,1/2+z
loop_
_atom_site_type_symbol
_atom_site_label
_atom_site_fract_x
_atom_site_fract_y
_atom_site_fract_z
Si Si1 0.583651 0.089745 0.994546
Si Si2 0.204837 0.405678 0.797501
Si Si3 0.771816 0.284914 0.213082
Si Si4 0.091661 0.181979 0.438555
Si Si5 0.492083 0.438553 0.306530
Si Si6 0.403001 0.054532 0.722293
Si Si7 0.743678 0.459260 0.386866
O O1 0.584035 0.211720 0.973703
O O2 0.785791 0.056290 0.916249
O O3 0.459678 0.084562 0.094111
O O4 0.500000 0.000000 0.000000
O O5 0.253031 0.279707 0.768547
O O6 0.389447 0.463170 0.727921
O O7 0.141324 0.432941 0.775054
O O8 0.881420 0.223704 0.124396
O O9 0.580432 0.324064 0.281159
O O10 0.881259 0.387403 0.183132
O O11 0.916312 0.107256 0.518602
O O12 0.236668 0.092722 0.389435
O O13 0.500000 0.447259 0.250000
O O14 0.598324 0.071452 0.651948
O O15 0.268441 0.083761 0.824369
#
# Coordination Sequence:
#
# PCOD8147203 Si02
#       7
#     8   8   8   8   8   8   8
#     4  12  24  42  69 100 131 177 229 273 331 408
#     4  11  24  41  65 101 133 165 226 280 323 395
#     4  11  23  41  67  96 134 170 221 277 330 384
#     4  11  23  41  68  96 131 179 228 270 332 410
#     4  11  23  44  68  93 131 178 213 269 341 392
#     4  10  22  43  63  95 132 176 221 280 333 395
#     4  10  23  42  67  92 133 182 223 268 344 405
#
# _framework density 20.528551
#
# number of rings (size 3 to 8) (size 9 to 14) (size 15 to 20)
#    0.000    1.143    4.286    1.714    2.000    3.429 
#    5.143    0.000    0.000    0.000    0.000    0.000 
#    0.000    0.000    0.000    0.000    0.000    0.000 
#
# Total GULP energy -346885.200480 kJ/mol
# GULP energy per Si atom -12388.757160 kJ/mol
# Density = 2.048183 g / cm^3
# Si number density = 20.528551 Si / 1000 Ang^3
#
#
#
# Elastic Constant Matrix: (Units=GPa)
#
#
# Indices 1 2 3 4 5 6 
#
# 1 142.3543 68.0489 67.2048 0.0002 -10.0895 -0.0009
# 2 68.0489 129.0625 54.9440 -0.0011 -18.9736 -0.0012
# 3 67.2048 54.9440 119.4629 -0.0074 -17.0081 -0.0024
# 4 0.0002 -0.0011 -0.0074 33.2735 -0.0017 14.0775
# 5 -10.0895 -18.9736 -17.0081 -0.0017 24.7479 0.0006
# 6 -0.0009 -0.0012 -0.0024 14.0775 0.0006 25.3611
#
#
#
# Elastic Compliance Matrix: (Units=1/GPa)
#
#
# Indices 1 2 3 4 5 6 
#
# 1 0.011027 -0.004140 -0.004557 -0.000002 -0.001810 0.000001
# 2 -0.004140 0.011735 -0.002248 0.000000 0.005765 0.000000
# 3 -0.004557 -0.002248 0.012701 0.000004 0.005148 -0.000001
# 4 -0.000002 0.000000 0.000004 0.039278 0.000005 -0.021803
# 5 -0.001810 0.005765 0.005148 0.000005 0.047627 -0.000003
# 6 0.000001 0.000000 -0.000001 -0.021803 -0.000003 0.051533
#
#
# Mechanical properties :
#
#
# Convention : Reuss Voigt Hill
#
# Bulk Modulus (GPa) = 73.67038 85.69726 79.68382
# Shear Modulus (GPa) = 24.96072 30.05529 27.50800
#
# Velocity S-wave (km/s) = 3.49076 3.83047 3.66456
# Velocity P-wave (km/s) = 7.22578 7.83578 7.53695
#
# Compressibility (1/GPa) = 0.01357398
#
# Stress axis : x y z
#
# Youngs Moduli (GPa) = 90.68865 85.21209 78.73475
#
# Poissons Ratio (x) = 0.35279 0.35877
# Poissons Ratio (y) = 0.37547 0.17697
# Poissons Ratio (z) = 0.41325 0.19152
#
# Static dielectric constant tensor:
#      x y z
#    x 3.860070 0.000000 -0.046760 
#    y 0.000000 4.090630 0.000000 
#    z -0.046760 0.000000 3.870630 
# 
# 
# High freq. dielectric constant tensor:
#      x y z
#    x 1.807360 0.000000 0.005860 
#    y 0.000000 1.818320 0.000000 
#    z 0.005860 0.000000 1.804820 
# 
# From -- ./inp_files/313738.got.cif
#   From: 2010.06.25/outbox.cif.g09.slc.cpg/sg15_157_cif.got.tgz:313738.got - 2010.06.28 07:06:18.
