data_PCOD8147554
_publ_section_title
;
Structure prediction by ZEFSAII (Michael W. Deem and Ramdas Pophale) SiO2 
 PCOD8147554
Probable space group: C 2/C
;
_chemical_formula_sum "Si O2"
_cell_formula_units_Z 44
_cell_length_a 16.999815
_cell_length_b 7.183890
_cell_length_c 23.236114
_cell_angle_alpha 90.000000
_cell_angle_beta 48.495317
_cell_angle_gamma 90.000000
_cell_volume 2125.162298
_symmetry_space_group_name_H-M "C 2/C"
_symmetry_group_IT_number 15
_symmetry_cell_setting 'monoclinic'
loop_
_space_group_symop_operation_xyz
x,y,z
-x,y,1/2-z
-x,-y,-z
x,-y,1/2+z
1/2+x,1/2+y,z
1/2-x,1/2+y,1/2-z
1/2-x,1/2-y,-z
1/2+x,1/2-y,1/2+z
loop_
_atom_site_type_symbol
_atom_site_label
_atom_site_fract_x
_atom_site_fract_y
_atom_site_fract_z
Si Si1 0.781876 0.459686 0.497076
Si Si2 0.319997 0.255794 0.672200
Si Si3 0.989804 0.535237 0.072935
Si Si4 0.716678 0.773840 0.604798
Si Si5 0.500000 0.706782 0.750000
Si Si6 0.901479 0.870687 0.180291
O O1 0.750000 0.250000 0.500000
O O2 0.721694 0.557979 0.579990
O O3 0.745514 0.579599 0.460238
O O4 0.905839 0.464031 0.446771
O O5 0.391128 0.074687 0.646422
O O6 0.299860 0.293391 0.615080
O O7 0.211347 0.228470 0.758543
O O8 0.387673 0.426042 0.662121
O O9 0.971239 0.749697 0.101519
O O10 0.000000 0.500000 0.000000
O O11 0.598880 0.829736 0.681457
O O12 0.541289 0.593594 0.785786
#
# Coordination Sequence:
#
# PCOD8147554 Si02
#       6
#     8   8   8   8   4   8
#     4  11  25  43  65  95 132 176 219 265 333 397
#     4  11  24  42  70  95 133 175 218 277 337 395
#     4  12  25  44  66 102 136 173 229 277 330 411
#     4  10  23  44  63  94 134 169 216 282 323 391
#     4  10  22  44  66  90 134 172 220 278 334 384
#     4  11  24  45  67  98 132 177 223 281 338 399
#
# _framework density 20.704301999999998
#
# number of rings (size 3 to 8) (size 9 to 14) (size 15 to 20)
#    0.000    1.091    5.455    0.000    5.091    0.727 
#    0.000    1.818    0.000    0.000    0.000    0.000 
#    0.000    0.000    0.000    0.000    0.000    0.000 
#
# Total GULP energy -272712.801522 kJ/mol
# GULP energy per Si atom -12396.036433 kJ/mol
# Density = 2.065718 g / cm^3
# Si number density = 20.704302 Si / 1000 Ang^3
#
#
#
# Elastic Constant Matrix: (Units=GPa)
#
#
# Indices 1 2 3 4 5 6 
#
# 1 99.6334 35.7891 30.2537 0.0000 0.1810 0.0016
# 2 35.7891 113.6856 27.4864 -0.0001 8.1378 0.0038
# 3 30.2537 27.4864 82.5390 0.0003 3.8972 -0.0005
# 4 0.0000 -0.0001 0.0003 25.3359 -0.0003 -6.7329
# 5 0.1810 8.1378 3.8972 -0.0003 43.1884 0.0001
# 6 0.0016 0.0038 -0.0005 -6.7329 0.0001 32.3274
#
#
#
# Elastic Compliance Matrix: (Units=1/GPa)
#
#
# Indices 1 2 3 4 5 6 
#
# 1 0.012193 -0.003054 -0.003492 0.000000 0.000839 0.000000
# 2 -0.003054 0.010432 -0.002272 0.000000 -0.001748 -0.000001
# 3 -0.003492 -0.002272 0.014191 0.000000 -0.000838 0.000001
# 4 0.000000 0.000000 0.000000 0.041782 0.000000 0.008702
# 5 0.000839 -0.001748 -0.000838 0.000000 0.023556 0.000000
# 6 0.000000 -0.000001 0.000001 0.008702 0.000000 0.032746
#
#
# Mechanical properties :
#
#
# Convention : Reuss Voigt Hill
#
# Bulk Modulus (GPa) = 52.13622 53.65737 52.89679
# Shear Modulus (GPa) = 31.46057 33.65894 32.55976
#
# Velocity S-wave (km/s) = 3.90233 4.03637 3.96991
# Velocity P-wave (km/s) = 6.74835 6.90618 6.82772
#
# Compressibility (1/GPa) = 0.01918052
#
# Stress axis : x y z
#
# Youngs Moduli (GPa) = 82.01706 95.85791 70.46502
#
# Poissons Ratio (x) = 0.29277 0.24603
# Poissons Ratio (y) = 0.25050 0.16010
# Poissons Ratio (z) = 0.28637 0.21779
#
# Static dielectric constant tensor:
#      x y z
#    x 3.998430 -0.000010 0.034310 
#    y -0.000010 3.543590 -0.000010 
#    z 0.034310 -0.000010 4.393730 
# 
# 
# High freq. dielectric constant tensor:
#      x y z
#    x 1.832110 0.000000 -0.003540 
#    y 0.000000 1.786830 0.000000 
#    z -0.003540 0.000000 1.819360 
# 
# From -- ./inp_files/246458.got.cif
#   From: 2010.06.25/outbox.cif.g09.slc.cpg/sg15_124_cif.got.tgz:246458.got - 2010.06.28 07:06:18.
