data_PCOD8147834
_publ_section_title
;
Structure prediction by ZEFSAII (Michael W. Deem and Ramdas Pophale) SiO2 
 PCOD8147834
Probable space group: C 2/C
;
_chemical_formula_sum "Si O2"
_cell_formula_units_Z 56
_cell_length_a 24.891758
_cell_length_b 11.481686
_cell_length_c 11.322246
_cell_angle_alpha 90.000000
_cell_angle_beta 131.862838
_cell_angle_gamma 90.000000
_cell_volume 2409.911829
_symmetry_space_group_name_H-M "C 2/C"
_symmetry_group_IT_number 15
_symmetry_cell_setting 'monoclinic'
loop_
_space_group_symop_operation_xyz
x,y,z
-x,y,1/2-z
-x,-y,-z
x,-y,1/2+z
1/2+x,1/2+y,z
1/2-x,1/2+y,1/2-z
1/2-x,1/2-y,-z
1/2+x,1/2-y,1/2+z
loop_
_atom_site_type_symbol
_atom_site_label
_atom_site_fract_x
_atom_site_fract_y
_atom_site_fract_z
Si Si1 0.172394 0.635815 0.357335
Si Si2 0.140425 0.911559 0.684707
Si Si3 0.426761 0.065656 0.881119
Si Si4 0.425463 0.728954 0.204267
Si Si5 0.921502 0.263710 0.581658
Si Si6 0.773456 0.734522 0.400837
Si Si7 0.709887 0.360046 0.287628
O O1 0.135682 0.520456 0.253733
O O2 0.128449 0.719107 0.379813
O O3 0.242070 0.593412 0.533293
O O4 0.188801 0.723571 0.274459
O O5 0.105192 0.875298 0.758354
O O6 0.094592 0.856968 0.509998
O O7 0.225008 0.875794 0.790015
O O8 0.141334 0.052414 0.676980
O O9 0.444491 0.161455 0.810806
O O10 0.406964 0.126023 0.975324
O O11 0.500000 0.000000 0.000000
O O12 0.500000 0.689325 0.250000
O O13 0.361308 0.772523 0.021727
O O14 0.000000 0.258631 0.750000
O O15 0.750000 0.750000 0.500000
O O16 0.751102 0.845759 0.284173
#
# Coordination Sequence:
#
# PCOD8147834 Si02
#       7
#     8   8   8   8   8   8   8
#     4  11  25  45  69 110 142 189 248 304 369 440
#     4  10  23  47  71 104 145 195 246 304 367 441
#     4  11  24  40  71  99 142 185 234 301 369 435
#     4  10  24  42  69 105 141 189 250 301 365 437
#     4  11  23  44  70 106 147 186 241 308 371 436
#     4  10  22  45  70 103 143 186 244 299 357 442
#     4  11  25  46  74 103 146 194 248 301 371 442
#
# _framework density 23.237363999999999
#
# number of rings (size 3 to 8) (size 9 to 14) (size 15 to 20)
#    0.000    1.429    2.857    0.857    4.000    4.571 
#    0.000    4.286    0.000    0.000    0.000    0.000 
#    0.000    0.000    0.000    0.000    0.000    0.000 
#
# Total GULP energy -346939.587003 kJ/mol
# GULP energy per Si atom -12390.699536 kJ/mol
# Density = 2.318447 g / cm^3
# Si number density = 23.237364 Si / 1000 Ang^3
#
#
#
# Elastic Constant Matrix: (Units=GPa)
#
#
# Indices 1 2 3 4 5 6 
#
# 1 107.2974 42.2627 46.8496 0.0000 10.6882 0.0000
# 2 42.2627 114.0981 38.6065 0.0000 -14.4524 0.0000
# 3 46.8496 38.6065 107.5055 0.0000 -19.6060 0.0000
# 4 0.0000 0.0000 0.0000 50.2664 0.0000 6.2581
# 5 10.6882 -14.4524 -19.6060 0.0000 27.0325 0.0000
# 6 0.0000 0.0000 0.0000 6.2581 0.0000 27.3041
#
#
#
# Elastic Compliance Matrix: (Units=1/GPa)
#
#
# Indices 1 2 3 4 5 6 
#
# 1 0.016402 -0.005281 -0.008009 0.000000 -0.015117 0.000000
# 2 -0.005281 0.011915 -0.000502 0.000000 0.008094 0.000000
# 3 -0.008009 -0.000502 0.015559 0.000000 0.014183 0.000000
# 4 0.000000 0.000000 0.000000 0.020478 0.000000 -0.004694
# 5 -0.015117 0.008094 0.014183 0.000000 0.057583 0.000000
# 6 0.000000 0.000000 0.000000 -0.004694 0.000000 0.037700
#
#
# Mechanical properties :
#
#
# Convention : Reuss Voigt Hill
#
# Bulk Modulus (GPa) = 61.36875 64.92652 63.14764
# Shear Modulus (GPa) = 25.95361 34.33274 30.14318
#
# Velocity S-wave (km/s) = 3.34562 3.84797 3.60555
# Velocity P-wave (km/s) = 6.43359 6.90968 6.67588
#
# Compressibility (1/GPa) = 0.01629494
#
# Stress axis : x y z
#
# Youngs Moduli (GPa) = 60.96638 83.92544 64.27346
#
# Poissons Ratio (x) = 0.44318 0.51474
# Poissons Ratio (y) = 0.32194 0.03223
# Poissons Ratio (z) = 0.48826 0.04209
#
# Static dielectric constant tensor:
#      x y z
#    x 4.475060 0.000000 0.126730 
#    y 0.000000 3.886120 0.000000 
#    z 0.126730 0.000000 4.834600 
# 
# 
# High freq. dielectric constant tensor:
#      x y z
#    x 1.916950 0.000000 -0.009130 
#    y 0.000000 1.902720 0.000000 
#    z -0.009130 0.000000 1.941130 
# 
# From -- ./inp_files/122714.got.cif
#   From: 2010.06.25/outbox.cif.g09.slc.cpg/sg15_62_cif.got.tgz:122714.got - 2010.06.28 07:06:18.
