data_PCOD8147042
_publ_section_title
;
Structure prediction by ZEFSAII (Michael W. Deem and Ramdas Pophale) SiO2 
 PCOD8147042
Probable space group: C 2/C
;
_chemical_formula_sum "Si O2"
_cell_formula_units_Z 52
_cell_length_a 17.751850
_cell_length_b 9.828511
_cell_length_c 20.252851
_cell_angle_alpha 90.000000
_cell_angle_beta 40.996923
_cell_angle_gamma 90.000000
_cell_volume 2318.107650
_symmetry_space_group_name_H-M "C 2/C"
_symmetry_group_IT_number 15
_symmetry_cell_setting 'monoclinic'
loop_
_space_group_symop_operation_xyz
x,y,z
-x,y,1/2-z
-x,-y,-z
x,-y,1/2+z
1/2+x,1/2+y,z
1/2-x,1/2+y,1/2-z
1/2-x,1/2-y,-z
1/2+x,1/2-y,1/2+z
loop_
_atom_site_type_symbol
_atom_site_label
_atom_site_fract_x
_atom_site_fract_y
_atom_site_fract_z
Si Si1 0.207276 0.780373 0.385668
Si Si2 0.240912 0.976870 0.120972
Si Si3 0.500000 0.466658 0.750000
Si Si4 0.518279 0.270963 0.613615
Si Si5 0.837839 0.552411 0.305415
Si Si6 0.225039 0.268223 0.294726
Si Si7 0.084230 0.525874 0.103658
O O1 0.259785 0.640226 0.378084
O O2 0.099868 0.826933 0.500679
O O3 0.305798 0.894475 0.320832
O O4 0.177475 0.760202 0.327373
O O5 0.113032 0.936792 0.180122
O O6 0.265266 0.915311 0.176912
O O7 0.341105 0.920203 0.007093
O O8 0.508076 0.380884 0.677561
O O9 0.397629 0.244854 0.658544
O O10 0.575822 0.137988 0.607809
O O11 0.741539 0.650991 0.338658
O O12 0.852854 0.580872 0.372802
O O13 0.954832 0.582753 0.187617
#
# Coordination Sequence:
#
# PCOD8147042 Si02
#       7
#     8   8   4   8   8   8   8
#     4  11  23  43  68  97 129 174 216 268 317 391
#     4  11  25  43  70  94 134 171 221 263 331 379
#     4  12  22  44  64 100 130 170 214 282 314 384
#     4  11  24  41  72  95 130 171 227 263 321 380
#     4  11  23  43  69  97 134 167 223 267 322 382
#     4  12  26  43  64 103 133 170 211 277 323 391
#     4  10  22  42  69  94 127 180 219 258 319 401
#
# _framework density 22.432091
#
# number of rings (size 3 to 8) (size 9 to 14) (size 15 to 20)
#    0.000    0.923    3.077    3.692    2.154    6.154 
#    2.769    0.000    0.000    0.000    0.000    0.000 
#    0.000    0.000    0.000    0.000    0.000    0.000 
#
# Total GULP energy -322335.787265 kJ/mol
# GULP energy per Si atom -12397.530279 kJ/mol
# Density = 2.238103 g / cm^3
# Si number density = 22.432091 Si / 1000 Ang^3
#
#
#
# Elastic Constant Matrix: (Units=GPa)
#
#
# Indices 1 2 3 4 5 6 
#
# 1 134.3506 31.7739 68.7661 0.0000 3.2926 0.0000
# 2 31.7739 47.9297 20.8019 0.0000 0.7170 0.0000
# 3 68.7661 20.8019 167.0513 0.0000 15.3100 0.0000
# 4 0.0000 0.0000 0.0000 15.7552 0.0000 6.1699
# 5 3.2926 0.7170 15.3100 0.0000 26.6675 0.0000
# 6 0.0000 0.0000 0.0000 6.1699 0.0000 41.7681
#
#
#
# Elastic Compliance Matrix: (Units=1/GPa)
#
#
# Indices 1 2 3 4 5 6 
#
# 1 0.010646 -0.005424 -0.003800 0.000000 0.001013 0.000000
# 2 -0.005424 0.024846 -0.000909 0.000000 0.000524 0.000000
# 3 -0.003800 -0.000909 0.008041 0.000000 -0.004123 0.000000
# 4 0.000000 0.000000 0.000000 0.067368 0.000000 -0.009951
# 5 0.001013 0.000524 -0.004123 0.000000 0.039727 0.000000
# 6 0.000000 0.000000 0.000000 -0.009951 0.000000 0.025412
#
#
# Mechanical properties :
#
#
# Convention : Reuss Voigt Hill
#
# Bulk Modulus (GPa) = 42.97718 65.77949 54.37833
# Shear Modulus (GPa) = 24.50239 32.03747 28.26993
#
# Velocity S-wave (km/s) = 3.30857 3.78325 3.55384
# Velocity P-wave (km/s) = 5.81342 6.96215 6.41355
#
# Compressibility (1/GPa) = 0.02326816
#
# Stress axis : x y z
#
# Youngs Moduli (GPa) = 93.93226 40.24772 124.35505
#
# Poissons Ratio (x) = 0.21828 0.47253
# Poissons Ratio (y) = 0.50944 0.11308
# Poissons Ratio (z) = 0.35693 0.03660
#
# Static dielectric constant tensor:
#      x y z
#    x 4.117520 0.000000 0.179570 
#    y 0.000000 3.669960 0.000000 
#    z 0.179570 0.000000 4.570120 
# 
# 
# High freq. dielectric constant tensor:
#      x y z
#    x 1.886050 0.000000 0.010750 
#    y 0.000000 1.857790 0.000000 
#    z 0.010750 0.000000 1.901940 
# 
# From -- ./inp_files/248547.got.cif
#   From: 2010.06.25/outbox.cif.g09.slc.cpg/sg15_125_cif.got.tgz:248547.got - 2010.06.28 07:06:18.
