data_PCOD8147909
_publ_section_title
;
Structure prediction by ZEFSAII (Michael W. Deem and Ramdas Pophale) SiO2 
 PCOD8147909
Probable space group: C 2/C
;
_chemical_formula_sum "Si O2"
_cell_formula_units_Z 56
_cell_length_a 14.026575
_cell_length_b 8.489226
_cell_length_c 23.050554
_cell_angle_alpha 90.000000
_cell_angle_beta 67.895669
_cell_angle_gamma 90.000000
_cell_volume 2543.001486
_symmetry_space_group_name_H-M "C 2/C"
_symmetry_group_IT_number 15
_symmetry_cell_setting 'monoclinic'
loop_
_space_group_symop_operation_xyz
x,y,z
-x,y,1/2-z
-x,-y,-z
x,-y,1/2+z
1/2+x,1/2+y,z
1/2-x,1/2+y,1/2-z
1/2-x,1/2-y,-z
1/2+x,1/2-y,1/2+z
loop_
_atom_site_type_symbol
_atom_site_label
_atom_site_fract_x
_atom_site_fract_y
_atom_site_fract_z
Si Si1 0.646222 0.842346 0.455305
Si Si2 0.966774 0.840971 0.950869
Si Si3 0.437325 0.234218 0.185585
Si Si4 0.889425 0.232874 0.351850
Si Si5 0.500000 0.481412 0.250000
Si Si6 0.000000 0.527347 0.750000
Si Si7 0.151225 0.686857 0.417931
Si Si8 0.881088 0.825952 0.424814
O O1 0.588560 0.699345 0.433701
O O2 0.769155 0.849311 0.422820
O O3 0.618458 0.815806 0.528888
O O4 0.607783 0.012106 0.441413
O O5 0.939982 0.730403 0.902510
O O6 0.936965 0.020494 0.940892
O O7 0.902781 0.802097 0.023665
O O8 0.413294 0.377053 0.235807
O O9 0.429821 0.070041 0.221258
O O10 0.370446 0.238145 0.143079
O O11 0.556771 0.260717 0.143466
O O12 0.772211 0.203658 0.395215
O O13 0.937527 0.077698 0.312318
O O14 0.912356 0.374344 0.303104
#
# Coordination Sequence:
#
# PCOD8147909 Si02
#       8
#     8   8   8   8   4   4   8   8
#     4  11  24  40  66 102 140 181 218 278 360 421
#     4  12  23  43  70 103 144 177 227 288 354 427
#     4  11  23  45  66  96 136 176 233 286 345 410
#     4  11  24  44  68  98 135 179 234 282 350 414
#     4  10  22  46  68  86 134 188 226 290 330 412
#     4  10  26  44  68  94 130 188 230 288 340 408
#     4  12  25  41  69 103 137 177 224 293 352 417
#     4  11  24  42  65  99 141 180 225 279 349 427
#
# _framework density 22.021221000000001
#
# number of rings (size 3 to 8) (size 9 to 14) (size 15 to 20)
#    0.000    0.857    4.286    2.143    2.000    2.286 
#    0.000    5.714    0.000    0.000    0.000    0.000 
#    0.000    0.000    0.000    0.000    0.000    0.000 
#
# Total GULP energy -346931.007541 kJ/mol
# GULP energy per Si atom -12390.393126 kJ/mol
# Density = 2.197110 g / cm^3
# Si number density = 22.021221 Si / 1000 Ang^3
#
#
#
# Elastic Constant Matrix: (Units=GPa)
#
#
# Indices 1 2 3 4 5 6 
#
# 1 115.8254 39.4499 27.5391 0.0000 13.1080 0.0000
# 2 39.4499 91.8978 24.2755 0.0000 6.3909 0.0001
# 3 27.5391 24.2755 77.7835 0.0000 26.1056 0.0000
# 4 0.0000 0.0000 0.0000 57.7105 0.0000 -25.4135
# 5 13.1080 6.3909 26.1056 0.0000 40.8164 0.0000
# 6 0.0000 0.0001 0.0000 -25.4135 0.0000 68.1974
#
#
#
# Elastic Compliance Matrix: (Units=1/GPa)
#
#
# Indices 1 2 3 4 5 6 
#
# 1 0.010621 -0.003918 -0.002036 0.000000 -0.001495 0.000000
# 2 -0.003918 0.013318 -0.003173 0.000000 0.001202 0.000000
# 3 -0.002036 -0.003173 0.018057 0.000000 -0.010399 0.000000
# 4 0.000000 0.000000 0.000000 0.020730 0.000000 0.007725
# 5 -0.001495 0.001202 -0.010399 0.000000 0.031443 0.000000
# 6 0.000000 0.000000 0.000000 0.007725 0.000000 0.017542
#
#
# Mechanical properties :
#
#
# Convention : Reuss Voigt Hill
#
# Bulk Modulus (GPa) = 42.11662 52.00396 47.06029
# Shear Modulus (GPa) = 36.26392 46.29435 41.27913
#
# Velocity S-wave (km/s) = 4.06245 4.59002 4.33427
# Velocity P-wave (km/s) = 6.41651 7.19428 6.81650
#
# Compressibility (1/GPa) = 0.02374360
#
# Stress axis : x y z
#
# Youngs Moduli (GPa) = 94.14992 75.08644 55.37980
#
# Poissons Ratio (x) = 0.29417 0.11275
# Poissons Ratio (y) = 0.36886 0.17571
# Poissons Ratio (z) = 0.19168 0.23824
#
# Static dielectric constant tensor:
#      x y z
#    x 4.000190 0.000000 0.113940 
#    y 0.000000 4.127120 0.000000 
#    z 0.113940 0.000000 4.212360 
# 
# 
# High freq. dielectric constant tensor:
#      x y z
#    x 1.856560 0.000000 0.015390 
#    y 0.000000 1.872940 0.000000 
#    z 0.015390 0.000000 1.883190 
# 
# From -- ./inp_files/272700.got.cif
#   From: 2010.06.25/outbox.cif.g09.slc.cpg/sg15_137_cif.got.tgz:272700.got - 2010.06.28 07:06:18.
