data_PCOD8147688
_publ_section_title
;
Structure prediction by ZEFSAII (Michael W. Deem and Ramdas Pophale) SiO2 
 PCOD8147688
Probable space group: C 2/C
;
_chemical_formula_sum "Si O2"
_cell_formula_units_Z 52
_cell_length_a 27.472658
_cell_length_b 8.691416
_cell_length_c 10.459249
_cell_angle_alpha 90.000000
_cell_angle_beta 109.272899
_cell_angle_gamma 90.000000
_cell_volume 2357.458267
_symmetry_space_group_name_H-M "C 2/C"
_symmetry_group_IT_number 15
_symmetry_cell_setting 'monoclinic'
loop_
_space_group_symop_operation_xyz
x,y,z
-x,y,1/2-z
-x,-y,-z
x,-y,1/2+z
1/2+x,1/2+y,z
1/2-x,1/2+y,1/2-z
1/2-x,1/2-y,-z
1/2+x,1/2-y,1/2+z
loop_
_atom_site_type_symbol
_atom_site_label
_atom_site_fract_x
_atom_site_fract_y
_atom_site_fract_z
Si Si1 0.684758 0.084539 0.063346
Si Si2 0.000000 0.857386 0.750000
Si Si3 0.343092 0.417406 0.407671
Si Si4 0.960745 0.635526 0.931786
Si Si5 0.149468 0.403299 0.263551
Si Si6 0.802059 0.081633 0.141894
Si Si7 0.050448 0.941899 0.468862
O O1 0.651555 0.233501 0.075578
O O2 0.742902 0.136609 0.083258
O O3 0.684974 0.964180 0.179105
O O4 0.660457 0.014553 0.910393
O O5 0.014616 0.747398 0.648964
O O6 0.047112 0.973648 0.827625
O O7 0.306697 0.452027 0.254712
O O8 0.318864 0.485895 0.518162
O O9 0.397513 0.496239 0.421379
O O10 0.909143 0.562245 0.829204
O O11 0.948582 0.753741 0.039335
O O12 0.000000 0.500000 0.000000
O O13 0.161221 0.223742 0.289741
O O14 0.000000 0.000000 0.500000
#
# Coordination Sequence:
#
# PCOD8147688 Si02
#       7
#     8   4   8   8   8   8   8
#     4  11  24  42  68  98 136 181 225 287 342 410
#     4  10  22  44  70  90 136 172 240 278 342 410
#     4  11  23  41  69  95 134 177 227 280 347 406
#     4  11  25  43  67 100 137 180 229 289 349 417
#     4  11  24  43  65  99 137 174 227 274 352 409
#     4  11  22  44  68  97 135 178 231 284 340 411
#     4  10  23  42  67  94 128 179 229 281 339 415
#
# _framework density 22.057655
#
# number of rings (size 3 to 8) (size 9 to 14) (size 15 to 20)
#    0.000    1.231    1.538    5.538    8.615    1.846 
#    0.000    3.077    0.000    0.000    0.000    0.000 
#    0.000    0.000    0.000    0.000    0.000    0.000 
#
# Total GULP energy -322247.538486 kJ/mol
# GULP energy per Si atom -12394.136096 kJ/mol
# Density = 2.200745 g / cm^3
# Si number density = 22.057655 Si / 1000 Ang^3
#
#
#
# Elastic Constant Matrix: (Units=GPa)
#
#
# Indices 1 2 3 4 5 6 
#
# 1 93.7068 37.9059 34.1621 0.0000 8.3952 0.0000
# 2 37.9059 79.5515 50.3357 0.0000 -2.8518 0.0000
# 3 34.1621 50.3357 129.7671 0.0000 -15.5833 0.0000
# 4 0.0000 0.0000 0.0000 39.5834 0.0000 -7.4886
# 5 8.3952 -2.8518 -15.5833 0.0000 50.2528 0.0000
# 6 0.0000 0.0000 0.0000 -7.4886 0.0000 23.7082
#
#
#
# Elastic Compliance Matrix: (Units=1/GPa)
#
#
# Indices 1 2 3 4 5 6 
#
# 1 0.013891 -0.005534 -0.001897 0.000000 -0.003223 0.000000
# 2 -0.005534 0.018923 -0.005861 0.000000 0.000181 0.000000
# 3 -0.001897 -0.005861 0.010883 0.000000 0.003359 0.000000
# 4 0.000000 0.000000 0.000000 0.026869 0.000000 0.008487
# 5 -0.003223 0.000181 0.003359 0.000000 0.021490 0.000000
# 6 0.000000 0.000000 0.000000 0.008487 0.000000 0.044860
#
#
# Mechanical properties :
#
#
# Convention : Reuss Voigt Hill
#
# Bulk Modulus (GPa) = 58.44321 60.87032 59.65677
# Shear Modulus (GPa) = 29.55035 34.75033 32.15034
#
# Velocity S-wave (km/s) = 3.66414 3.97348 3.82194
# Velocity P-wave (km/s) = 6.66742 6.97906 6.82502
#
# Compressibility (1/GPa) = 0.01711063
#
# Stress axis : x y z
#
# Youngs Moduli (GPa) = 71.99150 52.84703 91.89024
#
# Poissons Ratio (x) = 0.29245 0.17434
# Poissons Ratio (y) = 0.39839 0.53861
# Poissons Ratio (z) = 0.13659 0.30976
#
# Static dielectric constant tensor:
#      x y z
#    x 3.585820 0.000000 0.658020 
#    y 0.000000 4.079880 0.000000 
#    z 0.658020 0.000000 4.108200 
# 
# 
# High freq. dielectric constant tensor:
#      x y z
#    x 1.866880 0.000000 0.005280 
#    y 0.000000 1.853200 0.000000 
#    z 0.005280 0.000000 1.883790 
# 
# From -- ./inp_files/122044.got.cif
#   From: 2010.06.25/outbox.cif.g09.slc.cpg/sg15_62_cif.got.tgz:122044.got - 2010.06.28 07:06:18.
