data_PCOD8147713
_publ_section_title
;
Structure prediction by ZEFSAII (Michael W. Deem and Ramdas Pophale) SiO2 
 PCOD8147713
Probable space group: C 2/C
;
_chemical_formula_sum "Si O2"
_cell_formula_units_Z 28
_cell_length_a 9.993016
_cell_length_b 10.244637
_cell_length_c 14.346507
_cell_angle_alpha 90.000000
_cell_angle_beta 50.025712
_cell_angle_gamma 90.000000
_cell_volume 1125.529181
_symmetry_space_group_name_H-M "C 2/C"
_symmetry_group_IT_number 15
_symmetry_cell_setting 'monoclinic'
loop_
_space_group_symop_operation_xyz
x,y,z
-x,y,1/2-z
-x,-y,-z
x,-y,1/2+z
1/2+x,1/2+y,z
1/2-x,1/2+y,1/2-z
1/2-x,1/2-y,-z
1/2+x,1/2-y,1/2+z
loop_
_atom_site_type_symbol
_atom_site_label
_atom_site_fract_x
_atom_site_fract_y
_atom_site_fract_z
Si Si1 0.122774 0.818682 0.413086
Si Si2 0.500000 0.877828 0.250000
Si Si3 0.922553 0.568333 0.448149
Si Si4 0.045276 0.030012 0.123328
O O1 0.329583 0.783063 0.318626
O O2 0.002544 0.713756 0.414113
O O3 0.109180 0.951051 0.358504
O O4 0.071792 0.840824 0.545821
O O5 0.491131 0.980665 0.335676
O O6 0.712741 0.566296 0.545343
O O7 0.000000 0.500000 0.500000
O O8 0.000000 0.068268 0.250000
#
# Coordination Sequence:
#
# PCOD8147713 Si02
#       4
#     8   4   8   8
#     4  10  23  46  71 101 140 179 231 285 343 416
#     4  10  24  46  70 108 138 184 230 280 354 412
#     4  11  24  46  67 106 139 176 233 285 344 416
#     4  10  22  44  71 104 135 186 230 278 350 410
#
# _framework density 24.877186999999999
#
# number of rings (size 3 to 8) (size 9 to 14) (size 15 to 20)
#    0.000    1.714    0.000    2.571    2.000    4.571 
#   36.000    0.000    0.000    0.000    0.000    0.000 
#    0.000    0.000    0.000    0.000    0.000    0.000 
#
# Total GULP energy -173468.456421 kJ/mol
# GULP energy per Si atom -12390.604030 kJ/mol
# Density = 2.482057 g / cm^3
# Si number density = 24.877187 Si / 1000 Ang^3
#
#
#
# Elastic Constant Matrix: (Units=GPa)
#
#
# Indices 1 2 3 4 5 6 
#
# 1 89.9803 16.9646 14.5385 0.0000 1.9522 0.0000
# 2 16.9646 72.8529 6.2226 0.0000 -14.7437 0.0000
# 3 14.5385 6.2226 100.3053 0.0000 22.4086 0.0000
# 4 0.0000 0.0000 0.0000 31.3217 0.0000 1.2681
# 5 1.9522 -14.7437 22.4086 0.0000 51.0360 0.0000
# 6 0.0000 0.0000 0.0000 1.2681 0.0000 63.6992
#
#
#
# Elastic Compliance Matrix: (Units=1/GPa)
#
#
# Indices 1 2 3 4 5 6 
#
# 1 0.011878 -0.002775 -0.001407 0.000000 -0.000638 0.000000
# 2 -0.002775 0.015616 -0.001772 0.000000 0.005395 0.000000
# 3 -0.001407 -0.001772 0.011515 0.000000 -0.005514 0.000000
# 4 0.000000 0.000000 0.000000 0.031953 0.000000 -0.000636
# 5 -0.000638 0.005395 -0.005514 0.000000 0.023598 0.000000
# 6 0.000000 0.000000 0.000000 -0.000636 0.000000 0.015711
#
#
# Mechanical properties :
#
#
# Convention : Reuss Voigt Hill
#
# Bulk Modulus (GPa) = 36.89828 37.62111 37.25969
# Shear Modulus (GPa) = 38.10623 44.23890 41.17256
#
# Velocity S-wave (km/s) = 3.91803 4.22155 4.07262
# Velocity P-wave (km/s) = 5.94410 6.23840 6.09303
#
# Compressibility (1/GPa) = 0.02710153
#
# Stress axis : x y z
#
# Youngs Moduli (GPa) = 84.19008 64.03817 86.84114
#
# Poissons Ratio (x) = 0.17770 0.12218
# Poissons Ratio (y) = 0.23362 0.15387
# Poissons Ratio (z) = 0.11845 0.11347
#
# Static dielectric constant tensor:
#      x y z
#    x 4.591230 0.000000 -0.045460 
#    y 0.000000 3.477520 0.000000 
#    z -0.045460 0.000000 4.529150 
# 
# 
# High freq. dielectric constant tensor:
#      x y z
#    x 2.020620 0.000000 0.005650 
#    y 0.000000 1.983280 0.000000 
#    z 0.005650 0.000000 1.992160 
# 
# From -- ./inp_files/116650.got.cif
#   From: 2010.06.25/outbox.cif.g09.slc.cpg/sg15_59_cif.got.tgz:116650.got - 2010.06.28 07:06:18.
