data_PCOD8147968
_publ_section_title
;
Structure prediction by ZEFSAII (Michael W. Deem and Ramdas Pophale) SiO2 
 PCOD8147968
Probable space group: C 2/C
;
_chemical_formula_sum "Si O2"
_cell_formula_units_Z 60
_cell_length_a 21.354837
_cell_length_b 5.337603
_cell_length_c 25.831888
_cell_angle_alpha 90.000000
_cell_angle_beta 108.427227
_cell_angle_gamma 90.000000
_cell_volume 2793.440588
_symmetry_space_group_name_H-M "C 2/C"
_symmetry_group_IT_number 15
_symmetry_cell_setting 'monoclinic'
loop_
_space_group_symop_operation_xyz
x,y,z
-x,y,1/2-z
-x,-y,-z
x,-y,1/2+z
1/2+x,1/2+y,z
1/2-x,1/2+y,1/2-z
1/2-x,1/2-y,-z
1/2+x,1/2-y,1/2+z
loop_
_atom_site_type_symbol
_atom_site_label
_atom_site_fract_x
_atom_site_fract_y
_atom_site_fract_z
Si Si1 0.343845 0.532036 0.863712
Si Si2 0.458630 0.472515 0.821220
Si Si3 0.156240 0.221082 0.273430
Si Si4 0.182801 0.000409 0.525280
Si Si5 0.784469 0.468230 0.299928
Si Si6 0.500000 0.141295 0.250000
Si Si7 0.832730 0.507473 0.040309
Si Si8 0.915169 0.656090 0.652877
O O1 0.419727 0.535624 0.863739
O O2 0.347596 0.525369 0.926244
O O3 0.308640 0.786136 0.836584
O O4 0.306471 0.283805 0.834745
O O5 0.414546 0.298648 0.773106
O O6 0.470342 0.717500 0.791095
O O7 0.528469 0.342980 0.853187
O O8 0.190478 0.460015 0.253500
O O9 0.204635 0.983116 0.275773
O O10 0.147734 0.218610 0.334076
O O11 0.153359 0.749445 0.491375
O O12 0.261651 0.974262 0.548814
O O13 0.160973 0.246645 0.488426
O O14 0.559916 0.993529 0.290656
O O15 0.889265 0.511726 0.099023
#
# Coordination Sequence:
#
# PCOD8147968 Si02
#       8
#     8   8   8   8   8   4   8   8
#     4  11  24  43  68  94 134 171 223 276 337 390
#     4  11  24  40  61  94 131 182 218 263 321 393
#     4  11  21  42  58  95 140 167 222 270 321 406
#     4  10  22  47  66 100 124 168 214 297 333 383
#     4  11  24  38  65  99 131 178 213 268 342 392
#     4  12  22  42  66  92 140 182 226 260 320 394
#     4  10  24  41  72  94 130 163 227 270 345 394
#     4  12  24  42  63  98 130 182 220 267 325 402
#
# _framework density 21.478885999999999
#
# number of rings (size 3 to 8) (size 9 to 14) (size 15 to 20)
#    0.000    1.067    2.667    4.000    3.733    4.267 
#    0.000    1.333    0.000    0.000    0.000    0.000 
#    0.000    0.000    0.000    0.000    0.000    0.000 
#
# Total GULP energy -371755.077685 kJ/mol
# GULP energy per Si atom -12391.835923 kJ/mol
# Density = 2.143000 g / cm^3
# Si number density = 21.478886 Si / 1000 Ang^3
#
#
#
# Elastic Constant Matrix: (Units=GPa)
#
#
# Indices 1 2 3 4 5 6 
#
# 1 91.0614 15.6833 33.5743 0.0006 -16.4415 0.0000
# 2 15.6833 103.4420 10.3575 0.0015 3.1535 0.0002
# 3 33.5743 10.3575 67.2863 0.0015 -4.3522 0.0001
# 4 0.0006 0.0015 0.0015 24.7642 -0.0002 -0.4431
# 5 -16.4415 3.1535 -4.3522 -0.0002 41.4170 0.0000
# 6 0.0000 0.0002 0.0001 -0.4431 0.0000 34.7797
#
#
#
# Elastic Compliance Matrix: (Units=1/GPa)
#
#
# Indices 1 2 3 4 5 6 
#
# 1 0.014711 -0.001716 -0.006736 0.000000 0.005263 0.000000
# 2 -0.001716 0.010053 -0.000790 -0.000001 -0.001530 0.000000
# 3 -0.006736 -0.000790 0.018300 -0.000001 -0.000691 0.000000
# 4 0.000000 -0.000001 -0.000001 0.040390 0.000000 0.000515
# 5 0.005263 -0.001530 -0.000691 0.000000 0.026278 0.000000
# 6 0.000000 0.000000 0.000000 0.000515 0.000000 0.028759
#
#
# Mechanical properties :
#
#
# Convention : Reuss Voigt Hill
#
# Bulk Modulus (GPa) = 40.68425 42.33553 41.50989
# Shear Modulus (GPa) = 30.27217 33.67050 31.97133
#
# Velocity S-wave (km/s) = 3.75826 3.96360 3.86229
# Velocity P-wave (km/s) = 6.14942 6.37965 6.26559
#
# Compressibility (1/GPa) = 0.02457954
#
# Stress axis : x y z
#
# Youngs Moduli (GPa) = 67.97680 99.47062 54.64540
#
# Poissons Ratio (x) = 0.17073 0.36808
# Poissons Ratio (y) = 0.11667 0.04317
# Poissons Ratio (z) = 0.45788 0.07858
#
# Static dielectric constant tensor:
#      x y z
#    x -74.663240 -0.000670 5.314210 
#    y -0.000670 4.198500 0.000050 
#    z 5.314210 0.000050 3.354570 
# 
# 
# High freq. dielectric constant tensor:
#      x y z
#    x 1.851630 0.000000 -0.010090 
#    y 0.000000 1.851120 0.000000 
#    z -0.010090 0.000000 1.827990 
# 
# From -- ./inp_files/299960.got.cif
#   From: 2010.06.25/outbox.cif.g09.slc.cpg/sg15_150_cif.got.tgz:299960.got - 2010.06.28 07:06:18.
