data_PCOD8147018
_publ_section_title
;
Structure prediction by ZEFSAII (Michael W. Deem and Ramdas Pophale) SiO2 
 PCOD8147018
Probable space group: C 2/C
;
_chemical_formula_sum "Si O2"
_cell_formula_units_Z 36
_cell_length_a 18.067473
_cell_length_b 4.959186
_cell_length_c 22.004702
_cell_angle_alpha 90.000000
_cell_angle_beta 133.005069
_cell_angle_gamma 90.000000
_cell_volume 1441.832911
_symmetry_space_group_name_H-M "C 2/C"
_symmetry_group_IT_number 15
_symmetry_cell_setting 'monoclinic'
loop_
_space_group_symop_operation_xyz
x,y,z
-x,y,1/2-z
-x,-y,-z
x,-y,1/2+z
1/2+x,1/2+y,z
1/2-x,1/2+y,1/2-z
1/2-x,1/2-y,-z
1/2+x,1/2-y,1/2+z
loop_
_atom_site_type_symbol
_atom_site_label
_atom_site_fract_x
_atom_site_fract_y
_atom_site_fract_z
Si Si1 0.020449 0.007614 0.893021
Si Si2 0.000000 0.116062 0.750000
Si Si3 0.153787 0.476424 0.477741
Si Si4 0.210274 0.368174 0.882317
Si Si5 0.296168 0.477037 0.807341
O O1 0.916801 0.993455 0.871767
O O2 0.101590 0.803223 0.968325
O O3 0.005057 0.929282 0.813134
O O4 0.063013 0.308600 0.919693
O O5 0.902797 0.307037 0.702487
O O6 0.211651 0.448039 0.444606
O O7 0.232902 0.583278 0.572225
O O8 0.265788 0.532701 0.860145
O O9 0.241422 0.680404 0.731283
#
# Coordination Sequence:
#
# PCOD8147018 Si02
#       5
#     8   4   8   8   8
#     4  11  24  43  67 100 131 173 220 264 335 382
#     4  10  22  42  68  98 128 180 214 278 304 412
#     4  10  25  44  69  97 131 177 215 272 323 393
#     4  10  24  45  68  98 135 171 223 267 328 386
#     4  12  26  42  66 102 132 171 216 279 325 385
#
# _framework density 24.968216999999999
#
# number of rings (size 3 to 8) (size 9 to 14) (size 15 to 20)
#    0.000    1.333    2.222    1.333    6.222   12.444 
#    0.000    0.000    0.000    0.000    0.000    0.000 
#    0.000    0.000    0.000    0.000    0.000    0.000 
#
# Total GULP energy -223328.098854 kJ/mol
# GULP energy per Si atom -12407.116603 kJ/mol
# Density = 2.491139 g / cm^3
# Si number density = 24.968217 Si / 1000 Ang^3
#
#
#
# Elastic Constant Matrix: (Units=GPa)
#
#
# Indices 1 2 3 4 5 6 
#
# 1 184.5991 26.4054 40.3337 -0.0008 22.6824 0.0006
# 2 26.4054 43.2297 -9.5045 -0.0009 -7.4520 -0.0205
# 3 40.3337 -9.5045 88.0227 -0.0015 9.9405 -0.0022
# 4 -0.0008 -0.0009 -0.0015 32.3117 -0.0002 2.5056
# 5 22.6824 -7.4520 9.9405 -0.0002 39.4293 -0.0037
# 6 0.0006 -0.0205 -0.0022 2.5056 -0.0037 24.6031
#
#
#
# Elastic Compliance Matrix: (Units=1/GPa)
#
#
# Indices 1 2 3 4 5 6 
#
# 1 0.007704 -0.006325 -0.003682 0.000000 -0.004699 -0.000007
# 2 -0.006325 0.029500 0.005191 -0.000001 0.007905 0.000026
# 3 -0.003682 0.005191 0.013647 0.000000 -0.000341 0.000006
# 4 0.000000 -0.000001 0.000000 0.031195 -0.000001 -0.003177
# 5 -0.004699 0.007905 -0.000341 -0.000001 0.029645 0.000011
# 6 -0.000007 0.000026 0.000006 -0.003177 0.000011 0.040969
#
#
# Mechanical properties :
#
#
# Convention : Reuss Voigt Hill
#
# Bulk Modulus (GPa) = 24.26165 47.81341 36.03753
# Shear Modulus (GPa) = 28.40389 36.50995 32.45692
#
# Velocity S-wave (km/s) = 3.37649 3.82810 3.60936
# Velocity P-wave (km/s) = 4.99390 6.22337 5.64223
#
# Compressibility (1/GPa) = 0.04121732
#
# Stress axis : x y z
#
# Youngs Moduli (GPa) = 129.80492 33.89846 73.27581
#
# Poissons Ratio (x) = 0.21442 0.26983
# Poissons Ratio (y) = 0.82105 -0.38037
# Poissons Ratio (z) = 0.47799 -0.17596
#
# Static dielectric constant tensor:
#      x y z
#    x 4.623920 -0.000010 0.107520 
#    y -0.000010 4.122470 0.000000 
#    z 0.107520 0.000000 4.550340 
# 
# 
# High freq. dielectric constant tensor:
#      x y z
#    x 2.002270 0.000000 0.018560 
#    y 0.000000 1.981760 0.000000 
#    z 0.018560 0.000000 2.006650 
# 
# From -- ./inp_files/207842.got.cif
#   From: 2010.06.25/outbox.cif.g09.slc.cpg/sg15_104_cif.got.tgz:207842.got - 2010.06.28 07:06:18.
