data_PCOD8147147
_publ_section_title
;
Structure prediction by ZEFSAII (Michael W. Deem and Ramdas Pophale) SiO2 
 PCOD8147147
Probable space group: C 2/C
;
_chemical_formula_sum "Si O2"
_cell_formula_units_Z 36
_cell_length_a 4.766469
_cell_length_b 16.080464
_cell_length_c 18.465798
_cell_angle_alpha 90.000000
_cell_angle_beta 100.807249
_cell_angle_gamma 90.000000
_cell_volume 1390.245351
_symmetry_space_group_name_H-M "C 2/C"
_symmetry_group_IT_number 15
_symmetry_cell_setting 'monoclinic'
loop_
_space_group_symop_operation_xyz
x,y,z
-x,y,1/2-z
-x,-y,-z
x,-y,1/2+z
1/2+x,1/2+y,z
1/2-x,1/2+y,1/2-z
1/2-x,1/2-y,-z
1/2+x,1/2-y,1/2+z
loop_
_atom_site_type_symbol
_atom_site_label
_atom_site_fract_x
_atom_site_fract_y
_atom_site_fract_z
Si Si1 0.634869 0.937046 0.561826
Si Si2 0.434045 0.934474 0.324854
Si Si3 0.000000 0.803765 0.250000
Si Si4 0.387144 0.676546 0.457754
Si Si5 0.780743 0.210856 0.886684
O O1 0.933970 0.907973 0.543465
O O2 0.442703 0.853669 0.566707
O O3 0.500000 0.000000 0.500000
O O4 0.688922 0.987684 0.637615
O O5 0.500000 0.973167 0.250000
O O6 0.705588 0.887868 0.375354
O O7 0.212914 0.860164 0.305961
O O8 0.853174 0.751963 0.309248
O O9 0.501868 0.740509 0.402434
O O10 0.448291 0.714672 0.542478
#
# Coordination Sequence:
#
# PCOD8147147 Si02
#       5
#     8   8   4   8   8
#     4  12  24  43  68 102 135 176 220 285 337 404
#     4  10  23  41  66  93 133 182 225 269 341 411
#     4  10  22  42  72  92 134 186 234 272 340 422
#     4  11  26  41  72 101 138 169 231 285 341 391
#     4  10  23  43  67  99 131 182 225 281 336 411
#
# _framework density 25.894708999999999
#
# number of rings (size 3 to 8) (size 9 to 14) (size 15 to 20)
#    0.000    1.333    2.222    2.000    9.333    1.778 
#    2.000    0.000    0.000    0.000    0.000    0.000 
#    0.000    0.000    0.000    0.000    0.000    0.000 
#
# Total GULP energy -223134.335452 kJ/mol
# GULP energy per Si atom -12396.351970 kJ/mol
# Density = 2.583577 g / cm^3
# Si number density = 25.894709 Si / 1000 Ang^3
#
#
#
# Elastic Constant Matrix: (Units=GPa)
#
#
# Indices 1 2 3 4 5 6 
#
# 1 74.1013 -8.6925 24.4577 0.0000 -16.0824 0.0000
# 2 -8.6925 73.4648 51.6882 0.0000 -21.1872 0.0000
# 3 24.4577 51.6882 151.4501 0.0000 -31.3276 0.0000
# 4 0.0000 0.0000 0.0000 49.1003 0.0000 -14.7175
# 5 -16.0824 -21.1872 -31.3276 0.0000 55.1822 0.0000
# 6 0.0000 0.0000 0.0000 -14.7175 0.0000 34.9093
#
#
#
# Elastic Compliance Matrix: (Units=1/GPa)
#
#
# Indices 1 2 3 4 5 6 
#
# 1 0.016496 0.005980 -0.003666 0.000000 0.005022 0.000000
# 2 0.005980 0.020837 -0.006868 0.000000 0.005844 0.000000
# 3 -0.003666 -0.006868 0.009940 0.000000 0.001937 0.000000
# 4 0.000000 0.000000 0.000000 0.023312 0.000000 0.009828
# 5 0.005022 0.005844 0.001937 0.000000 0.022929 0.000000
# 6 0.000000 0.000000 0.000000 0.009828 0.000000 0.032789
#
#
# Mechanical properties :
#
#
# Convention : Reuss Voigt Hill
#
# Bulk Modulus (GPa) = 26.20261 48.21368 37.20815
# Shear Modulus (GPa) = 33.75300 43.27589 38.51445
#
# Velocity S-wave (km/s) = 3.61428 4.09250 3.86080
# Velocity P-wave (km/s) = 5.24959 6.40242 5.85445
#
# Compressibility (1/GPa) = 0.03816413
#
# Stress axis : x y z
#
# Youngs Moduli (GPa) = 60.61907 47.99090 100.60684
#
# Poissons Ratio (x) = -0.28697 0.36881
# Poissons Ratio (y) = -0.36248 0.69100
# Poissons Ratio (z) = 0.22222 0.32962
#
# Static dielectric constant tensor:
#      x y z
#    x 5.291760 0.000000 -0.057050 
#    y 0.000000 4.813000 0.000000 
#    z -0.057050 0.000000 5.115750 
# 
# 
# High freq. dielectric constant tensor:
#      x y z
#    x 2.051800 0.000000 -0.015440 
#    y 0.000000 2.033000 0.000000 
#    z -0.015440 0.000000 2.040400 
# 
# From -- ./inp_files/184096.got.cif
#   From: 2010.06.25/outbox.cif.g09.slc.cpg/sg15_93_cif.got.tgz:184096.got - 2010.06.28 07:06:18.
