data_PCOD8147359
_publ_section_title
;
Structure prediction by ZEFSAII (Michael W. Deem and Ramdas Pophale) SiO2 
 PCOD8147359
Probable space group: C 2/C
;
_chemical_formula_sum "Si O2"
_cell_formula_units_Z 52
_cell_length_a 14.084258
_cell_length_b 8.688975
_cell_length_c 26.529742
_cell_angle_alpha 90.000000
_cell_angle_beta 46.147435
_cell_angle_gamma 90.000000
_cell_volume 2341.240650
_symmetry_space_group_name_H-M "C 2/C"
_symmetry_group_IT_number 15
_symmetry_cell_setting 'monoclinic'
loop_
_space_group_symop_operation_xyz
x,y,z
-x,y,1/2-z
-x,-y,-z
x,-y,1/2+z
1/2+x,1/2+y,z
1/2-x,1/2+y,1/2-z
1/2-x,1/2-y,-z
1/2+x,1/2-y,1/2+z
loop_
_atom_site_type_symbol
_atom_site_label
_atom_site_fract_x
_atom_site_fract_y
_atom_site_fract_z
Si Si1 0.314968 0.597876 0.997357
Si Si2 0.906400 0.805811 0.134165
Si Si3 0.882399 0.463531 0.106363
Si Si4 0.882177 0.188437 0.759183
Si Si5 0.835280 0.388807 0.520079
Si Si6 0.000000 0.482441 0.750000
Si Si7 0.769007 0.593248 0.886290
O O1 0.469724 0.619227 0.939057
O O2 0.267734 0.452227 0.982336
O O3 0.250000 0.750000 0.000000
O O4 0.275130 0.566300 0.070392
O O5 0.903747 0.621998 0.128741
O O6 0.908171 0.853106 0.191659
O O7 0.785316 0.884719 0.150131
O O8 0.763151 0.368410 0.173974
O O9 0.846677 0.490272 0.061294
O O10 0.019497 0.367604 0.058388
O O11 0.000000 0.110901 0.750000
O O12 0.888950 0.373216 0.764736
O O13 0.776067 0.229510 0.560866
O O14 0.072751 0.586436 0.680881
#
# Coordination Sequence:
#
# PCOD8147359 Si02
#       7
#     8   8   8   8   8   4   8
#     4  12  23  43  74 100 142 180 233 278 350 415
#     4  11  24  43  66 105 138 179 229 287 342 411
#     4  10  22  43  69 100 138 178 233 283 346 414
#     4  10  24  42  70  96 136 187 230 276 352 411
#     4  10  23  43  70 103 138 182 226 290 344 412
#     4  10  26  46  66  96 142 180 234 284 354 410
#     4  11  26  45  67 103 140 182 235 291 343 412
#
# _framework density 22.210446000000001
#
# number of rings (size 3 to 8) (size 9 to 14) (size 15 to 20)
#    0.462    0.923    1.538    2.769    4.308    1.231 
#   11.077    0.000    0.000    0.000    0.000    0.000 
#    0.000    0.000    0.000    0.000    0.000    0.000 
#
# Total GULP energy -322321.835093 kJ/mol
# GULP energy per Si atom -12396.993657 kJ/mol
# Density = 2.215989 g / cm^3
# Si number density = 22.210446 Si / 1000 Ang^3
#
#
#
# Elastic Constant Matrix: (Units=GPa)
#
#
# Indices 1 2 3 4 5 6 
#
# 1 94.7615 48.8740 49.5148 0.0000 9.8072 0.0000
# 2 48.8740 90.7729 76.9681 0.0000 -13.6950 0.0002
# 3 49.5148 76.9681 193.5778 0.0000 -17.8779 0.0000
# 4 0.0000 0.0000 0.0000 39.5332 0.0000 -14.0581
# 5 9.8072 -13.6950 -17.8779 0.0000 46.7959 0.0000
# 6 0.0000 0.0002 0.0000 -14.0581 0.0000 27.3325
#
#
#
# Elastic Compliance Matrix: (Units=1/GPa)
#
#
# Indices 1 2 3 4 5 6 
#
# 1 0.016397 -0.008664 -0.001348 0.000000 -0.006487 0.000000
# 2 -0.008664 0.021467 -0.005775 0.000000 0.005892 0.000000
# 3 -0.001348 -0.005775 0.007958 0.000000 0.001633 0.000000
# 4 0.000000 0.000000 0.000000 0.030957 0.000000 0.015922
# 5 -0.006487 0.005892 0.001633 0.000000 0.025077 0.000000
# 6 0.000000 0.000000 0.000000 0.015922 0.000000 0.044776
#
#
# Mechanical properties :
#
#
# Convention : Reuss Voigt Hill
#
# Bulk Modulus (GPa) = 70.19030 81.09176 75.64103
# Shear Modulus (GPa) = 27.32884 36.31602 31.82243
#
# Velocity S-wave (km/s) = 3.51158 4.04801 3.78930
# Velocity P-wave (km/s) = 6.93632 7.64450 7.29901
#
# Compressibility (1/GPa) = 0.01424698
#
# Stress axis : x y z
#
# Youngs Moduli (GPa) = 60.98558 46.58270 125.66150
#
# Poissons Ratio (x) = 0.40359 0.16945
# Poissons Ratio (y) = 0.52838 0.72573
# Poissons Ratio (z) = 0.08224 0.26903
#
# Static dielectric constant tensor:
#      x y z
#    x 2.253550 0.000000 3.658310 
#    y 0.000000 3.903540 -0.000010 
#    z 3.658310 -0.000010 -3.172900 
# 
# 
# High freq. dielectric constant tensor:
#      x y z
#    x 1.878440 0.000000 0.002370 
#    y 0.000000 1.859840 0.000000 
#    z 0.002370 0.000000 1.885120 
# 
# From -- ./inp_files/313083.got.cif
#   From: 2010.06.25/outbox.cif.g09.slc.cpg/sg15_157_cif.got.tgz:313083.got - 2010.06.28 07:06:18.
