data_PCOD8147870
_publ_section_title
;
Structure prediction by ZEFSAII (Michael W. Deem and Ramdas Pophale) SiO2 
 PCOD8147870
Probable space group: C 2/C
;
_chemical_formula_sum "Si O2"
_cell_formula_units_Z 52
_cell_length_a 7.826394
_cell_length_b 20.645498
_cell_length_c 13.382754
_cell_angle_alpha 90.000000
_cell_angle_beta 85.514410
_cell_angle_gamma 90.000000
_cell_volume 2155.759434
_symmetry_space_group_name_H-M "C 2/C"
_symmetry_group_IT_number 15
_symmetry_cell_setting 'monoclinic'
loop_
_space_group_symop_operation_xyz
x,y,z
-x,y,1/2-z
-x,-y,-z
x,-y,1/2+z
1/2+x,1/2+y,z
1/2-x,1/2+y,1/2-z
1/2-x,1/2-y,-z
1/2+x,1/2-y,1/2+z
loop_
_atom_site_type_symbol
_atom_site_label
_atom_site_fract_x
_atom_site_fract_y
_atom_site_fract_z
Si Si1 0.791947 0.472486 0.444873
Si Si2 0.641889 0.769974 0.100699
Si Si3 0.169080 0.600240 0.181161
Si Si4 0.338185 0.818705 0.000191
Si Si5 0.178023 0.561145 0.892257
Si Si6 0.826073 0.119257 0.699267
Si Si7 0.000000 0.836066 0.750000
O O1 0.781374 0.538507 0.384701
O O2 0.747939 0.493479 0.562718
O O3 0.654839 0.420607 0.406260
O O4 0.977146 0.438861 0.429382
O O5 0.500772 0.817745 0.064731
O O6 0.747361 0.809743 0.180606
O O7 0.550531 0.707740 0.152785
O O8 0.750000 0.750000 0.000000
O O9 0.335196 0.619209 0.237823
O O10 0.000000 0.582128 0.250000
O O11 0.116038 0.661379 0.114666
O O12 0.229263 0.876501 0.057862
O O13 0.250000 0.750000 0.000000
O O14 0.208334 0.570614 0.772692
O O15 0.000000 0.130998 0.750000
#
# Coordination Sequence:
#
# PCOD8147870 Si02
#       7
#     8   8   8   8   8   8   4
#     4  10  23  45  72 104 138 190 244 309 369 447
#     4  12  27  45  69 104 146 190 253 309 377 454
#     4  11  24  42  69 103 140 186 245 305 379 452
#     4  11  22  42  68  92 132 186 233 298 369 443
#     4  10  22  45  73  99 139 187 245 298 375 442
#     4  12  27  43  71 108 146 195 245 310 371 457
#     4  12  26  46  72 102 148 198 242 318 380 454
#
# _framework density 24.12143
#
# number of rings (size 3 to 8) (size 9 to 14) (size 15 to 20)
#    0.000    0.923    3.077    3.231    3.231    1.231 
#    2.769    0.000    0.000    0.000    0.000    0.000 
#    0.000    0.000    0.000    0.000    0.000    0.000 
#
# Total GULP energy -322174.642892 kJ/mol
# GULP energy per Si atom -12391.332419 kJ/mol
# Density = 2.406653 g / cm^3
# Si number density = 24.121430 Si / 1000 Ang^3
#
#
#
# Elastic Constant Matrix: (Units=GPa)
#
#
# Indices 1 2 3 4 5 6 
#
# 1 95.3200 22.1991 20.3874 0.0000 24.4509 0.0000
# 2 22.1991 92.8941 10.5877 0.0000 12.1081 0.0000
# 3 20.3874 10.5877 81.6660 0.0000 5.2358 0.0000
# 4 0.0000 0.0000 0.0000 48.9437 0.0000 13.0124
# 5 24.4509 12.1081 5.2358 0.0000 47.3079 0.0000
# 6 0.0000 0.0000 0.0000 13.0124 0.0000 35.7595
#
#
#
# Elastic Compliance Matrix: (Units=1/GPa)
#
#
# Indices 1 2 3 4 5 6 
#
# 1 0.013048 -0.002047 -0.002612 0.000000 -0.005931 0.000000
# 2 -0.002047 0.011590 -0.000875 0.000000 -0.001811 0.000000
# 3 -0.002612 -0.000875 0.013002 0.000000 0.000135 0.000000
# 4 0.000000 0.000000 0.000000 0.022620 0.000000 -0.008231
# 5 -0.005931 -0.001811 0.000135 0.000000 0.024652 0.000000
# 6 0.000000 0.000000 0.000000 -0.008231 0.000000 0.030960
#
#
# Mechanical properties :
#
#
# Convention : Reuss Voigt Hill
#
# Bulk Modulus (GPa) = 37.63521 41.80315 39.71918
# Shear Modulus (GPa) = 36.81969 40.84928 38.83448
#
# Velocity S-wave (km/s) = 3.91119 4.11966 4.01678
# Velocity P-wave (km/s) = 6.00274 6.32430 6.16561
#
# Compressibility (1/GPa) = 0.02657086
#
# Stress axis : x y z
#
# Youngs Moduli (GPa) = 76.64221 86.28074 76.91232
#
# Poissons Ratio (x) = 0.17665 0.20086
# Poissons Ratio (y) = 0.15691 0.06733
# Poissons Ratio (z) = 0.20016 0.07553
#
# Static dielectric constant tensor:
#      x y z
#    x 4.073860 0.000000 0.260650 
#    y 0.000000 4.227900 0.000000 
#    z 0.260650 0.000000 4.965190 
# 
# 
# High freq. dielectric constant tensor:
#      x y z
#    x 1.932300 0.000000 0.023590 
#    y 0.000000 1.975890 0.000000 
#    z 0.023590 0.000000 1.967460 
# 
# From -- ./inp_files/136066.got.cif
#   From: 2010.06.25/outbox.cif.g09.slc.cpg/sg15_69_cif.got.tgz:136066.got - 2010.06.28 07:06:18.
