data_PCOD8147771
_publ_section_title
;
Structure prediction by ZEFSAII (Michael W. Deem and Ramdas Pophale) SiO2 
 PCOD8147771
Probable space group: C 2/C
;
_chemical_formula_sum "Si O2"
_cell_formula_units_Z 44
_cell_length_a 23.874086
_cell_length_b 8.790412
_cell_length_c 12.132699
_cell_angle_alpha 90.000000
_cell_angle_beta 51.330653
_cell_angle_gamma 90.000000
_cell_volume 1987.987421
_symmetry_space_group_name_H-M "C 2/C"
_symmetry_group_IT_number 15
_symmetry_cell_setting 'monoclinic'
loop_
_space_group_symop_operation_xyz
x,y,z
-x,y,1/2-z
-x,-y,-z
x,-y,1/2+z
1/2+x,1/2+y,z
1/2-x,1/2+y,1/2-z
1/2-x,1/2-y,-z
1/2+x,1/2-y,1/2+z
loop_
_atom_site_type_symbol
_atom_site_label
_atom_site_fract_x
_atom_site_fract_y
_atom_site_fract_z
Si Si1 0.903800 0.326482 0.785293
Si Si2 0.500000 0.423416 0.250000
Si Si3 0.299579 0.183759 0.221582
Si Si4 0.947023 0.350319 0.168312
Si Si5 0.415755 0.698137 0.432638
Si Si6 0.156158 0.647338 0.900737
O O1 0.955476 0.180174 0.719583
O O2 0.833272 0.291301 0.800826
O O3 0.947896 0.467756 0.680806
O O4 0.881424 0.368519 0.936038
O O5 0.444551 0.525678 0.388835
O O6 0.216165 0.222306 0.329291
O O7 0.306399 0.010486 0.175668
O O8 0.338793 0.295361 0.085466
O O9 0.909883 0.268540 0.318063
O O10 0.903417 0.301681 0.114121
O O11 0.029777 0.297529 0.058280
#
# Coordination Sequence:
#
# PCOD8147771 Si02
#       6
#     8   4   8   8   8   8
#     4  11  23  42  65  98 125 165 215 266 311 376
#     4  10  24  38  68  96 128 162 206 276 312 366
#     4  11  26  43  66  92 134 166 214 260 315 380
#     4   9  21  43  67  89 126 166 215 253 323 376
#     4  10  22  45  62  99 124 167 209 264 318 377
#     4  11  25  42  65  94 126 178 205 262 314 382
#
# _framework density 22.132936000000001
#
# number of rings (size 3 to 8) (size 9 to 14) (size 15 to 20)
#    0.000    1.818    1.818    1.636    5.091    5.818 
#    0.000    0.000    0.000    0.000    0.000    0.000 
#    0.000    0.000    0.000    0.000    0.000    0.000 
#
# Total GULP energy -272919.687982 kJ/mol
# GULP energy per Si atom -12405.440363 kJ/mol
# Density = 2.208256 g / cm^3
# Si number density = 22.132936 Si / 1000 Ang^3
#
#
#
# Elastic Constant Matrix: (Units=GPa)
#
#
# Indices 1 2 3 4 5 6 
#
# 1 81.9382 20.7535 9.2027 0.0000 20.1413 0.0000
# 2 20.7535 92.9013 -3.5056 0.0000 7.4385 0.0000
# 3 9.2027 -3.5056 21.2695 0.0000 11.7712 0.0000
# 4 0.0000 0.0000 0.0000 20.9949 0.0000 6.2818
# 5 20.1413 7.4385 11.7712 0.0000 34.8076 0.0000
# 6 0.0000 0.0000 0.0000 6.2818 0.0000 20.3738
#
#
#
# Elastic Compliance Matrix: (Units=1/GPa)
#
#
# Indices 1 2 3 4 5 6 
#
# 1 0.015014 -0.002908 -0.003090 0.000000 -0.007021 0.000000
# 2 -0.002908 0.011772 0.004502 0.000000 -0.002355 0.000000
# 3 -0.003090 0.004502 0.059836 0.000000 -0.019410 0.000000
# 4 0.000000 0.000000 0.000000 0.052471 0.000000 -0.016178
# 5 -0.007021 -0.002355 -0.019410 0.000000 0.039860 0.000000
# 6 0.000000 0.000000 0.000000 -0.016178 0.000000 0.054071
#
#
# Mechanical properties :
#
#
# Convention : Reuss Voigt Hill
#
# Bulk Modulus (GPa) = 11.95727 27.66780 19.81254
# Shear Modulus (GPa) = 18.94708 26.54582 22.74645
#
# Velocity S-wave (km/s) = 2.92902 3.46697 3.20928
# Velocity P-wave (km/s) = 4.10525 5.34363 4.76484
#
# Compressibility (1/GPa) = 0.08363110
#
# Stress axis : x y z
#
# Youngs Moduli (GPa) = 66.60495 84.94509 16.71222
#
# Poissons Ratio (x) = 0.24705 0.05163
# Poissons Ratio (y) = 0.19371 -0.07524
# Poissons Ratio (z) = 0.20578 -0.38244
#
# Static dielectric constant tensor:
#      x y z
#    x 4.034610 0.000000 0.123740 
#    y 0.000000 4.005810 0.000000 
#    z 0.123740 0.000000 3.842340 
# 
# 
# High freq. dielectric constant tensor:
#      x y z
#    x 1.871570 0.000000 0.008220 
#    y 0.000000 1.874620 0.000000 
#    z 0.008220 0.000000 1.872100 
# 
# From -- ./inp_files/116688.got.cif
#   From: 2010.06.25/outbox.cif.g09.slc.cpg/sg15_59_cif.got.tgz:116688.got - 2010.06.28 07:06:18.
