data_PCOD8147088
_publ_section_title
;
Structure prediction by ZEFSAII (Michael W. Deem and Ramdas Pophale) SiO2 
 PCOD8147088
Probable space group: C 2/C
;
_chemical_formula_sum "Si O2"
_cell_formula_units_Z 52
_cell_length_a 28.840718
_cell_length_b 8.853594
_cell_length_c 19.857326
_cell_angle_alpha 90.000000
_cell_angle_beta 28.170484
_cell_angle_gamma 90.000000
_cell_volume 2393.742325
_symmetry_space_group_name_H-M "C 2/C"
_symmetry_group_IT_number 15
_symmetry_cell_setting 'monoclinic'
loop_
_space_group_symop_operation_xyz
x,y,z
-x,y,1/2-z
-x,-y,-z
x,-y,1/2+z
1/2+x,1/2+y,z
1/2-x,1/2+y,1/2-z
1/2-x,1/2-y,-z
1/2+x,1/2-y,1/2+z
loop_
_atom_site_type_symbol
_atom_site_label
_atom_site_fract_x
_atom_site_fract_y
_atom_site_fract_z
Si Si1 0.891802 0.932256 0.130305
Si Si2 0.809071 0.185887 0.321187
Si Si3 0.016082 0.433479 0.406122
Si Si4 0.000000 0.108611 0.250000
Si Si5 0.363883 0.802938 0.777342
Si Si6 0.618702 0.273799 0.489277
Si Si7 0.180398 0.963203 0.071260
O O1 0.876478 0.770333 0.186985
O O2 0.818006 0.054695 0.254390
O O3 0.866242 0.907601 0.084409
O O4 0.000000 0.000000 0.000000
O O5 0.901794 0.298950 0.199926
O O6 0.709486 0.269706 0.425271
O O7 0.790452 0.106292 0.418136
O O8 0.050421 0.576358 0.317546
O O9 0.000000 0.500000 0.500000
O O10 0.910224 0.379018 0.513843
O O11 0.983681 0.205310 0.338283
O O12 0.903005 0.008495 0.373505
O O13 0.369749 0.667485 0.821508
O O14 0.265337 0.900245 0.914685
#
# Coordination Sequence:
#
# PCOD8147088 Si02
#       7
#     8   8   8   4   8   8   8
#     4  11  21  47  69  93 132 176 222 275 336 399
#     4  11  25  43  68  96 138 173 219 284 331 398
#     4  12  23  43  66  99 131 169 222 280 329 395
#     4  12  24  44  66  94 132 184 220 258 340 410
#     4  10  22  42  70  94 131 168 222 280 328 387
#     4  12  26  39  68  99 127 177 223 266 338 393
#     4  10  23  46  66  95 132 179 218 272 333 399
#
# _framework density 21.723307999999999
#
# number of rings (size 3 to 8) (size 9 to 14) (size 15 to 20)
#    0.000    0.923    4.615    1.846    4.308    2.462 
#    8.308    0.000    0.000    0.000    0.000    0.000 
#    0.000    0.000    0.000    0.000    0.000    0.000 
#
# Total GULP energy -322148.635785 kJ/mol
# GULP energy per Si atom -12390.332146 kJ/mol
# Density = 2.167386 g / cm^3
# Si number density = 21.723308 Si / 1000 Ang^3
#
#
#
# Elastic Constant Matrix: (Units=GPa)
#
#
# Indices 1 2 3 4 5 6 
#
# 1 95.4190 26.5476 35.4552 0.0062 -8.8274 -0.0015
# 2 26.5476 102.4190 35.8182 0.0008 -1.0744 -0.0028
# 3 35.4552 35.8182 83.6008 0.0381 8.1042 -0.0124
# 4 0.0062 0.0008 0.0381 45.1704 -0.0290 5.0491
# 5 -8.8274 -1.0744 8.1042 -0.0290 36.3370 0.0064
# 6 -0.0015 -0.0028 -0.0124 5.0491 0.0064 25.8041
#
#
#
# Elastic Compliance Matrix: (Units=1/GPa)
#
#
# Indices 1 2 3 4 5 6 
#
# 1 0.013326 -0.001508 -0.005432 0.000006 0.004404 -0.000004
# 2 -0.001508 0.011733 -0.004482 0.000005 0.000980 -0.000002
# 3 -0.005432 -0.004482 0.016687 -0.000018 -0.005174 0.000012
# 4 0.000006 0.000005 -0.000018 0.022633 0.000024 -0.004429
# 5 0.004404 0.000980 -0.005174 0.000024 0.029773 -0.000014
# 6 -0.000004 -0.000002 0.000012 -0.004429 -0.000014 0.039620
#
#
# Mechanical properties :
#
#
# Convention : Reuss Voigt Hill
#
# Bulk Modulus (GPa) = 52.90863 53.00900 52.95881
# Shear Modulus (GPa) = 30.69044 33.70348 32.19696
#
# Velocity S-wave (km/s) = 3.76279 3.94317 3.85403
# Velocity P-wave (km/s) = 6.57926 6.72208 6.65105
#
# Compressibility (1/GPa) = 0.01890051
#
# Stress axis : x y z
#
# Youngs Moduli (GPa) = 75.04362 85.23319 59.92566
#
# Poissons Ratio (x) = 0.12854 0.32553
# Poissons Ratio (y) = 0.11317 0.26860
# Poissons Ratio (z) = 0.40765 0.38203
#
# Static dielectric constant tensor:
#      x y z
#    x 3.663900 -0.000010 0.326820 
#    y -0.000010 4.356480 0.000000 
#    z 0.326820 0.000000 4.302550 
# 
# 
# High freq. dielectric constant tensor:
#      x y z
#    x 1.836540 0.000000 0.019780 
#    y 0.000000 1.868710 0.000000 
#    z 0.019780 0.000000 1.870800 
# 
# From -- ./inp_files/258817.got.cif
#   From: 2010.06.25/outbox.cif.g09.slc.cpg/sg15_130_cif.got.tgz:258817.got - 2010.06.28 07:06:18.
