data_PCOD8147816
_publ_section_title
;
Structure prediction by ZEFSAII (Michael W. Deem and Ramdas Pophale) SiO2 
 PCOD8147816
Probable space group: C 2/C
;
_chemical_formula_sum "Si O2"
_cell_formula_units_Z 32
_cell_length_a 7.763251
_cell_length_b 23.249436
_cell_length_c 9.263967
_cell_angle_alpha 90.000000
_cell_angle_beta 116.672559
_cell_angle_gamma 90.000000
_cell_volume 1494.134311
_symmetry_space_group_name_H-M "C 2/C"
_symmetry_group_IT_number 15
_symmetry_cell_setting 'monoclinic'
loop_
_space_group_symop_operation_xyz
x,y,z
-x,y,1/2-z
-x,-y,-z
x,-y,1/2+z
1/2+x,1/2+y,z
1/2-x,1/2+y,1/2-z
1/2-x,1/2-y,-z
1/2+x,1/2-y,1/2+z
loop_
_atom_site_type_symbol
_atom_site_label
_atom_site_fract_x
_atom_site_fract_y
_atom_site_fract_z
Si Si1 0.500000 0.510233 0.250000
Si Si2 0.852884 0.074519 0.464456
Si Si3 0.500000 0.142681 0.250000
Si Si4 0.462968 0.310720 0.401908
Si Si5 0.312609 0.277579 0.759889
O O1 0.371821 0.548330 0.310668
O O2 0.637525 0.472015 0.404199
O O3 0.643902 0.103651 0.399808
O O4 0.023761 0.121919 0.551596
O O5 0.372169 0.179882 0.314827
O O6 0.500000 0.298790 0.250000
O O7 0.620491 0.273218 0.548536
O O8 0.247902 0.282939 0.340001
O O9 0.500000 0.304256 0.750000
#
# Coordination Sequence:
#
# PCOD8147816 Si02
#       5
#     4   8   4   8   8
#     4  10  22  45  68  94 122 167 224 274 318 376
#     4  10  23  41  69  93 128 167 217 269 323 374
#     4  10  24  39  68  98 132 167 208 266 320 384
#     4  11  22  40  63  96 132 174 205 263 320 379
#     4  11  24  41  65  97 137 170 213 254 316 397
#
# _framework density 21.417085
#
# number of rings (size 3 to 8) (size 9 to 14) (size 15 to 20)
#    0.000    1.500    2.500    1.500   10.500    1.000 
#    0.000    0.000   11.000    0.000    0.000    0.000 
#    0.000    0.000    0.000    0.000    0.000    0.000 
#
# Total GULP energy -198218.912756 kJ/mol
# GULP energy per Si atom -12388.682047 kJ/mol
# Density = 2.136834 g / cm^3
# Si number density = 21.417085 Si / 1000 Ang^3
#
#
#
# Elastic Constant Matrix: (Units=GPa)
#
#
# Indices 1 2 3 4 5 6 
#
# 1 140.0792 63.2458 50.4903 0.0000 0.8165 0.0000
# 2 63.2458 117.9491 66.3347 0.0000 11.8286 0.0000
# 3 50.4903 66.3347 134.4196 0.0000 -3.0630 0.0000
# 4 0.0000 0.0000 0.0000 16.5090 0.0000 30.4747
# 5 0.8165 11.8286 -3.0630 0.0000 22.7925 0.0000
# 6 0.0000 0.0000 0.0000 30.4747 0.0000 16.3139
#
#
#
# Elastic Compliance Matrix: (Units=1/GPa)
#
#
# Indices 1 2 3 4 5 6 
#
# 1 0.009701 -0.004660 -0.001301 0.000000 0.001896 0.000000
# 2 -0.004660 0.015162 -0.005925 0.000000 -0.008498 0.000000
# 3 -0.001301 -0.005925 0.010957 0.000000 0.004594 0.000000
# 4 0.000000 0.000000 0.000000 -0.024741 0.000000 0.046217
# 5 0.001896 -0.008498 0.004594 0.000000 0.048834 0.000000
# 6 0.000000 0.000000 0.000000 0.046217 0.000000 -0.025037
#
#
# Mechanical properties :
#
#
# Convention : Reuss Voigt Hill
#
# Bulk Modulus (GPa) = 83.01153 83.62106 83.31630
# Shear Modulus (GPa) = 79.79248 25.28157 52.53702
#
# Velocity S-wave (km/s) = 6.11043 3.43948 4.95819
# Velocity P-wave (km/s) = 9.41418 7.40960 8.47139
#
# Compressibility (1/GPa) = 0.01204652
#
# Stress axis : x y z
#
# Youngs Moduli (GPa) = 103.08513 65.95550 91.26794
#
# Poissons Ratio (x) = 0.30737 0.11872
# Poissons Ratio (y) = 0.48040 0.54079
# Poissons Ratio (z) = 0.13409 0.39081
#
# Static dielectric constant tensor:
#      x y z
#    x 3.761440 0.000000 0.227740 
#    y 0.000000 4.068980 0.000000 
#    z 0.227740 0.000000 4.298030 
# 
# 
# High freq. dielectric constant tensor:
#      x y z
#    x 1.814780 0.000000 0.001900 
#    y 0.000000 1.838480 0.000000 
#    z 0.001900 0.000000 1.858070 
# 
# From -- ./inp_files/23252.got.cif
#   From: 2010.06.25/outbox.cif.g09.slc.cpg/sg15_12_cif.got.tgz:23252.got - 2010.06.28 07:06:18.
