data_PCOD8147498
_publ_section_title
;
Structure prediction by ZEFSAII (Michael W. Deem and Ramdas Pophale) SiO2 
 PCOD8147498
Probable space group: C 2/C
;
_chemical_formula_sum "Si O2"
_cell_formula_units_Z 36
_cell_length_a 27.578702
_cell_length_b 11.046673
_cell_length_c 14.210569
_cell_angle_alpha 90.000000
_cell_angle_beta 19.835071
_cell_angle_gamma 90.000000
_cell_volume 1468.988101
_symmetry_space_group_name_H-M "C 2/C"
_symmetry_group_IT_number 15
_symmetry_cell_setting 'monoclinic'
loop_
_space_group_symop_operation_xyz
x,y,z
-x,y,1/2-z
-x,-y,-z
x,-y,1/2+z
1/2+x,1/2+y,z
1/2-x,1/2+y,1/2-z
1/2-x,1/2-y,-z
1/2+x,1/2-y,1/2+z
loop_
_atom_site_type_symbol
_atom_site_label
_atom_site_fract_x
_atom_site_fract_y
_atom_site_fract_z
Si Si1 0.140487 0.528396 0.047321
Si Si2 0.761425 0.004878 0.131639
Si Si3 0.500000 0.352347 0.750000
Si Si4 0.665997 0.258036 0.279240
Si Si5 0.381340 0.839501 0.248491
O O1 0.100910 0.419096 0.189034
O O2 0.000000 0.579404 0.250000
O O3 0.243978 0.483616 0.775556
O O4 0.231043 0.631128 0.938784
O O5 0.635438 0.927743 0.310580
O O6 0.765131 0.140233 0.085363
O O7 0.911373 0.936745 0.838599
O O8 0.610035 0.270705 0.489422
O O9 0.525087 0.240019 0.471383
O O10 0.250000 0.750000 0.500000
#
# Coordination Sequence:
#
# PCOD8147498 Si02
#       5
#     8   8   4   8   8
#     4  11  26  45  71 106 139 185 235 285 350 413
#     4  11  24  44  72 100 142 183 231 288 349 405
#     4  10  22  44  64 106 134 186 228 286 346 414
#     4  11  23  43  70  98 141 181 231 283 345 408
#     4  12  25  47  72 101 144 186 231 288 348 417
#
# _framework density 24.506665999999999
#
# number of rings (size 3 to 8) (size 9 to 14) (size 15 to 20)
#    0.000    0.889    4.444    2.000    4.667    1.778 
#    0.000    0.000    0.000    0.000    0.000    0.000 
#    0.000    0.000    0.000    0.000    0.000    0.000 
#
# Total GULP energy -223126.560098 kJ/mol
# GULP energy per Si atom -12395.920005 kJ/mol
# Density = 2.445089 g / cm^3
# Si number density = 24.506666 Si / 1000 Ang^3
#
#
#
# Elastic Constant Matrix: (Units=GPa)
#
#
# Indices 1 2 3 4 5 6 
#
# 1 98.7047 33.1536 34.9031 0.0000 -25.5652 0.0000
# 2 33.1536 114.4813 39.6908 0.0000 -31.4883 0.0000
# 3 34.9031 39.6908 68.9031 0.0000 -22.6018 0.0000
# 4 0.0000 0.0000 0.0000 36.3121 0.0000 -17.3919
# 5 -25.5652 -31.4883 -22.6018 0.0000 51.9482 0.0000
# 6 0.0000 0.0000 0.0000 -17.3919 0.0000 31.6434
#
#
#
# Elastic Compliance Matrix: (Units=1/GPa)
#
#
# Indices 1 2 3 4 5 6 
#
# 1 0.013169 -0.001128 -0.004805 0.000000 0.003706 0.000000
# 2 -0.001128 0.012007 -0.004829 0.000000 0.004622 0.000000
# 3 -0.004805 -0.004829 0.020988 0.000000 0.003840 0.000000
# 4 0.000000 0.000000 0.000000 0.037379 0.000000 0.020544
# 5 0.003706 0.004622 0.003840 0.000000 0.025546 0.000000
# 6 0.000000 0.000000 0.000000 0.020544 0.000000 0.042894
#
#
# Mechanical properties :
#
#
# Convention : Reuss Voigt Hill
#
# Bulk Modulus (GPa) = 40.58449 55.28711 47.93580
# Shear Modulus (GPa) = 27.51449 35.60352 31.55900
#
# Velocity S-wave (km/s) = 3.35436 3.81571 3.59245
# Velocity P-wave (km/s) = 5.62128 6.48243 6.06715
#
# Compressibility (1/GPa) = 0.02463995
#
# Stress axis : x y z
#
# Youngs Moduli (GPa) = 75.93361 83.28259 47.64524
#
# Poissons Ratio (x) = 0.09398 0.22895
# Poissons Ratio (y) = 0.08568 0.23008
# Poissons Ratio (z) = 0.36488 0.40217
#
# Static dielectric constant tensor:
#      x y z
#    x 4.522950 0.000000 -0.313590 
#    y 0.000000 4.552780 0.000000 
#    z -0.313590 0.000000 4.341390 
# 
# 
# High freq. dielectric constant tensor:
#      x y z
#    x 1.972960 0.000000 -0.013990 
#    y 0.000000 1.974600 0.000000 
#    z -0.013990 0.000000 1.969290 
# 
# From -- ./inp_files/141605.got.cif
#   From: 2010.06.25/outbox.cif.g09.slc.cpg/sg15_71_cif.got.tgz:141605.got - 2010.06.28 07:06:18.
