data_PCOD8147119
_publ_section_title
;
Structure prediction by ZEFSAII (Michael W. Deem and Ramdas Pophale) SiO2 
 PCOD8147119
Probable space group: C 2/C
;
_chemical_formula_sum "Si O2"
_cell_formula_units_Z 64
_cell_length_a 8.173335
_cell_length_b 15.628775
_cell_length_c 23.252088
_cell_angle_alpha 90.000000
_cell_angle_beta 68.683309
_cell_angle_gamma 90.000000
_cell_volume 2766.998064
_symmetry_space_group_name_H-M "C 2/C"
_symmetry_group_IT_number 15
_symmetry_cell_setting 'monoclinic'
loop_
_space_group_symop_operation_xyz
x,y,z
-x,y,1/2-z
-x,-y,-z
x,-y,1/2+z
1/2+x,1/2+y,z
1/2-x,1/2+y,1/2-z
1/2-x,1/2-y,-z
1/2+x,1/2-y,1/2+z
loop_
_atom_site_type_symbol
_atom_site_label
_atom_site_fract_x
_atom_site_fract_y
_atom_site_fract_z
Si Si1 0.171336 0.391619 0.508087
Si Si2 0.008365 0.780664 0.999713
Si Si3 0.198395 0.003125 0.611706
Si Si4 0.965386 0.174138 0.377830
Si Si5 0.040615 0.512603 0.620003
Si Si6 0.734491 0.171608 0.629924
Si Si7 0.619408 0.431005 0.289008
Si Si8 0.816666 0.588416 0.293385
O O1 0.059818 0.319190 0.489878
O O2 0.328170 0.344972 0.520816
O O3 0.232832 0.466123 0.458174
O O4 0.055311 0.442914 0.568047
O O5 0.920675 0.801102 0.949703
O O6 0.900326 0.795057 0.072167
O O7 0.331765 0.033017 0.645716
O O8 0.011716 0.047281 0.642434
O O9 0.167210 0.902096 0.618892
O O10 0.907622 0.252566 0.344747
O O11 0.171127 0.154547 0.336334
O O12 0.151137 0.599071 0.599360
O O13 0.109574 0.474549 0.669049
O O14 0.771096 0.144029 0.692315
O O15 0.500000 0.400550 0.250000
O O16 0.728452 0.519081 0.259990
O O17 0.000000 0.635797 0.250000
#
# Coordination Sequence:
#
# PCOD8147119 Si02
#       8
#     8   8   8   8   8   8   8   8
#     4  11  22  37  64  98 138 180 218 267 331 405
#     4  11  22  39  64  98 144 176 220 271 337 401
#     4  11  22  39  66  98 131 173 223 267 330 406
#     4  11  23  41  68 102 137 175 221 279 336 400
#     4  11  22  39  66  98 131 173 223 267 330 406
#     4  11  23  41  68 102 137 175 221 279 336 400
#     4  10  22  42  71  96 125 170 225 284 336 405
#     4  10  22  42  71  96 125 170 225 284 336 405
#
# _framework density 23.129760000000001
#
# number of rings (size 3 to 8) (size 9 to 14) (size 15 to 20)
#    0.000    1.250    2.500    3.750    0.000    1.000 
#    0.000    0.000    0.000   76.500    0.000    0.000 
#    0.000    0.000    0.000    0.000    0.000    0.000 
#
# Total GULP energy -396449.421329 kJ/mol
# GULP energy per Si atom -12389.044417 kJ/mol
# Density = 2.307712 g / cm^3
# Si number density = 23.129760 Si / 1000 Ang^3
#
#
#
# Elastic Constant Matrix: (Units=GPa)
#
#
# Indices 1 2 3 4 5 6 
#
# 1 98.6438 36.7509 17.3831 0.0000 5.7895 0.0000
# 2 36.7509 86.5238 11.6018 0.0000 5.6941 0.0000
# 3 17.3831 11.6018 51.9285 0.0000 1.1781 0.0000
# 4 0.0000 0.0000 0.0000 17.9332 0.0000 5.3180
# 5 5.7895 5.6941 1.1781 0.0000 44.2279 0.0000
# 6 0.0000 0.0000 0.0000 5.3180 0.0000 27.8300
#
#
#
# Elastic Compliance Matrix: (Units=1/GPa)
#
#
# Indices 1 2 3 4 5 6 
#
# 1 0.012545 -0.004852 -0.003094 0.000000 -0.000935 0.000000
# 2 -0.004852 0.013887 -0.001453 0.000000 -0.001114 0.000000
# 3 -0.003094 -0.001453 0.020617 0.000000 0.000043 0.000000
# 4 0.000000 0.000000 0.000000 0.059112 0.000000 -0.011296
# 5 -0.000935 -0.001114 0.000043 0.000000 0.022875 0.000000
# 6 0.000000 0.000000 0.000000 -0.011296 0.000000 0.038091
#
#
# Mechanical properties :
#
#
# Convention : Reuss Voigt Hill
#
# Bulk Modulus (GPa) = 35.39851 40.95196 38.17523
# Shear Modulus (GPa) = 25.59612 29.42225 27.50918
#
# Velocity S-wave (km/s) = 3.33022 3.57045 3.45242
# Velocity P-wave (km/s) = 5.48859 5.89417 5.69499
#
# Compressibility (1/GPa) = 0.02824978
#
# Stress axis : x y z
#
# Youngs Moduli (GPa) = 79.71058 72.01183 48.50434
#
# Poissons Ratio (x) = 0.34941 0.15009
# Poissons Ratio (y) = 0.38677 0.07048
# Poissons Ratio (z) = 0.24665 0.10463
#
# Static dielectric constant tensor:
#      x y z
#    x 5.417680 0.000000 -0.352520 
#    y 0.000000 4.105120 0.000000 
#    z -0.352520 0.000000 3.938090 
# 
# 
# High freq. dielectric constant tensor:
#      x y z
#    x 1.935240 0.000000 -0.002830 
#    y 0.000000 1.907240 0.000000 
#    z -0.002830 0.000000 1.900530 
# 
# From -- ./inp_files/288721.got.cif
#   From: 2010.06.25/outbox.cif.g09.slc.cpg/sg15_145_cif.got.tgz:288721.got - 2010.06.28 07:06:18.
