data_PCOD8147086
_publ_section_title
;
Structure prediction by ZEFSAII (Michael W. Deem and Ramdas Pophale) SiO2 
 PCOD8147086
Probable space group: C 2/C
;
_chemical_formula_sum "Si O2"
_cell_formula_units_Z 44
_cell_length_a 14.491613
_cell_length_b 9.212051
_cell_length_c 18.878272
_cell_angle_alpha 90.000000
_cell_angle_beta 56.711240
_cell_angle_gamma 90.000000
_cell_volume 2106.674531
_symmetry_space_group_name_H-M "C 2/C"
_symmetry_group_IT_number 15
_symmetry_cell_setting 'monoclinic'
loop_
_space_group_symop_operation_xyz
x,y,z
-x,y,1/2-z
-x,-y,-z
x,-y,1/2+z
1/2+x,1/2+y,z
1/2-x,1/2+y,1/2-z
1/2-x,1/2-y,-z
1/2+x,1/2-y,1/2+z
loop_
_atom_site_type_symbol
_atom_site_label
_atom_site_fract_x
_atom_site_fract_y
_atom_site_fract_z
Si Si1 0.000000 0.666366 0.250000
Si Si2 0.902393 0.089691 0.003525
Si Si3 0.039269 0.597815 0.079833
Si Si4 0.755562 0.909268 0.965936
Si Si5 0.736451 0.782312 0.685647
Si Si6 0.698526 0.962194 0.841053
O O1 0.011804 0.570739 0.174319
O O2 0.113655 0.757223 0.208795
O O3 0.804963 0.125596 0.099515
O O4 0.941939 0.234323 0.947690
O O5 0.856203 0.988962 0.960945
O O6 0.000000 0.000000 0.000000
O O7 0.929908 0.554450 0.082750
O O8 0.142974 0.498971 0.020005
O O9 0.775611 0.904682 0.872873
O O10 0.750000 0.750000 0.000000
O O11 0.734638 0.873569 0.757720
O O12 0.792661 0.631455 0.678855
#
# Coordination Sequence:
#
# PCOD8147086 Si02
#       6
#     4   8   8   8   8   8
#     4  10  22  42  70  94 128 184 224 282 346 416
#     4  12  26  45  71  99 140 191 237 284 356 428
#     4  11  23  45  69  97 139 183 226 287 360 411
#     4  12  25  42  70 104 138 177 237 287 349 417
#     4  11  25  45  70  99 140 182 237 283 355 417
#     4  11  26  44  70 100 140 180 231 294 348 420
#
# _framework density 20.885998000000001
#
# number of rings (size 3 to 8) (size 9 to 14) (size 15 to 20)
#    0.000    0.727    3.636    3.273   10.182    0.000 
#    0.000    0.000    0.000    0.000    0.000    0.000 
#    0.000    0.000    0.000    0.000    0.000    0.000 
#
# Total GULP energy -272739.868935 kJ/mol
# GULP energy per Si atom -12397.266770 kJ/mol
# Density = 2.083846 g / cm^3
# Si number density = 20.885998 Si / 1000 Ang^3
#
#
#
# Elastic Constant Matrix: (Units=GPa)
#
#
# Indices 1 2 3 4 5 6 
#
# 1 161.6958 64.7296 56.6100 0.0000 10.2695 0.0000
# 2 64.7296 134.9678 20.2081 0.0000 3.3636 0.0000
# 3 56.6100 20.2081 88.4963 0.0000 9.1227 0.0000
# 4 0.0000 0.0000 0.0000 22.8564 0.0000 -4.3748
# 5 10.2695 3.3636 9.1227 0.0000 36.6897 0.0000
# 6 0.0000 0.0000 0.0000 -4.3748 0.0000 37.7738
#
#
#
# Elastic Compliance Matrix: (Units=1/GPa)
#
#
# Indices 1 2 3 4 5 6 
#
# 1 0.009573 -0.003794 -0.005149 0.000000 -0.001051 0.000000
# 2 -0.003794 0.009178 0.000317 0.000000 0.000142 0.000000
# 3 -0.005149 0.000317 0.014754 0.000000 -0.002256 0.000000
# 4 0.000000 0.000000 0.000000 0.044743 0.000000 0.005182
# 5 -0.001051 0.000142 -0.002256 0.000000 0.028098 0.000000
# 6 0.000000 0.000000 0.000000 0.005182 0.000000 0.027074
#
#
# Mechanical properties :
#
#
# Convention : Reuss Voigt Hill
#
# Bulk Modulus (GPa) = 61.53092 74.25060 67.89076
# Shear Modulus (GPa) = 32.03313 35.70477 33.86895
#
# Velocity S-wave (km/s) = 3.92051 4.13910 4.03129
# Velocity P-wave (km/s) = 7.07236 7.64660 7.36508
#
# Compressibility (1/GPa) = 0.01625199
#
# Stress axis : x y z
#
# Youngs Moduli (GPa) = 104.46539 108.95922 67.77904
#
# Poissons Ratio (x) = 0.41337 0.34898
# Poissons Ratio (y) = 0.39632 -0.02145
# Poissons Ratio (z) = 0.53787 -0.03449
#
# Static dielectric constant tensor:
#      x y z
#    x 4.232160 0.000000 0.072910 
#    y 0.000000 3.663190 0.000000 
#    z 0.072910 0.000000 4.052650 
# 
# 
# High freq. dielectric constant tensor:
#      x y z
#    x 1.839760 0.000000 0.011150 
#    y 0.000000 1.810930 0.000000 
#    z 0.011150 0.000000 1.833960 
# 
# From -- ./inp_files/202582.got.cif
#   From: 2010.06.25/outbox.cif.g09.slc.cpg/sg15_102_cif.got.tgz:202582.got - 2010.06.28 07:06:18.
