data_PCOD8147786
_publ_section_title
;
Structure prediction by ZEFSAII (Michael W. Deem and Ramdas Pophale) SiO2 
 PCOD8147786
Probable space group: C 2/C
;
_chemical_formula_sum "Si O2"
_cell_formula_units_Z 48
_cell_length_a 22.517135
_cell_length_b 8.833909
_cell_length_c 11.349765
_cell_angle_alpha 90.000000
_cell_angle_beta 76.620462
_cell_angle_gamma 90.000000
_cell_volume 2196.355499
_symmetry_space_group_name_H-M "C 2/C"
_symmetry_group_IT_number 15
_symmetry_cell_setting 'monoclinic'
loop_
_space_group_symop_operation_xyz
x,y,z
-x,y,1/2-z
-x,-y,-z
x,-y,1/2+z
1/2+x,1/2+y,z
1/2-x,1/2+y,1/2-z
1/2-x,1/2-y,-z
1/2+x,1/2-y,1/2+z
loop_
_atom_site_type_symbol
_atom_site_label
_atom_site_fract_x
_atom_site_fract_y
_atom_site_fract_z
Si Si1 0.886677 0.406436 0.413339
Si Si2 0.177119 0.254036 0.262065
Si Si3 0.295659 0.081584 0.163596
Si Si4 0.959963 0.790878 0.036902
Si Si5 0.608106 0.216835 0.209520
Si Si6 0.594745 0.602932 0.492647
O O1 0.873897 0.292868 0.311519
O O2 0.826438 0.415861 0.521581
O O3 0.944301 0.351559 0.462437
O O4 0.907541 0.570325 0.360363
O O5 0.227963 0.146449 0.181451
O O6 0.207697 0.409288 0.291614
O O7 0.146568 0.163305 0.382388
O O8 0.331359 0.186944 0.241297
O O9 0.948387 0.754365 0.179093
O O10 0.913876 0.923707 0.016014
O O11 0.030608 0.822587 0.986312
O O12 0.615820 0.357755 0.116257
#
# Coordination Sequence:
#
# PCOD8147786 Si02
#       6
#     8   8   8   8   8   8
#     4  10  22  45  65  95 131 168 221 266 329 387
#     4  11  24  41  65  94 131 173 217 271 322 386
#     4  10  23  42  63  97 129 172 219 266 327 384
#     4  10  25  43  68  96 131 173 215 267 332 388
#     4  10  22  45  66  95 131 166 218 270 320 394
#     4  11  24  44  65  97 132 169 221 267 325 392
#
# _framework density 21.854384
#
# number of rings (size 3 to 8) (size 9 to 14) (size 15 to 20)
#    0.000    1.667    1.667    1.000    7.000    2.000 
#    6.000    0.000    0.000    0.000    0.000    0.000 
#    0.000    0.000    0.000    0.000    0.000    0.000 
#
# Total GULP energy -297707.689717 kJ/mol
# GULP energy per Si atom -12404.487072 kJ/mol
# Density = 2.180464 g / cm^3
# Si number density = 21.854384 Si / 1000 Ang^3
#
#
#
# Elastic Constant Matrix: (Units=GPa)
#
#
# Indices 1 2 3 4 5 6 
#
# 1 31.7253 22.1058 0.9665 0.0000 -8.1268 0.0000
# 2 22.1058 79.4422 36.0349 0.0000 -5.0960 0.0000
# 3 0.9665 36.0349 91.5097 0.0000 10.1929 0.0000
# 4 0.0000 0.0000 0.0000 37.3605 0.0000 3.9988
# 5 -8.1268 -5.0960 10.1929 0.0000 33.1506 0.0000
# 6 0.0000 0.0000 0.0000 3.9988 0.0000 35.8316
#
#
#
# Elastic Compliance Matrix: (Units=1/GPa)
#
#
# Indices 1 2 3 4 5 6 
#
# 1 0.042370 -0.013106 0.003915 0.000000 0.007168 0.000000
# 2 -0.013106 0.020013 -0.008001 0.000000 0.002324 0.000000
# 3 0.003915 -0.008001 0.014566 0.000000 -0.004749 0.000000
# 4 0.000000 0.000000 0.000000 0.027090 0.000000 -0.003023
# 5 0.007168 0.002324 -0.004749 0.000000 0.033740 0.000000
# 6 0.000000 0.000000 0.000000 -0.003023 0.000000 0.028246
#
#
# Mechanical properties :
#
#
# Convention : Reuss Voigt Hill
#
# Bulk Modulus (GPa) = 23.49376 35.65463 29.57420
# Shear Modulus (GPa) = 23.29949 30.83985 27.06967
#
# Velocity S-wave (km/s) = 3.26870 3.76061 3.52325
# Velocity P-wave (km/s) = 5.00193 5.93349 5.48751
#
# Compressibility (1/GPa) = 0.04256449
#
# Stress axis : x y z
#
# Youngs Moduli (GPa) = 23.60181 49.96742 68.65235
#
# Poissons Ratio (x) = 0.65487 -0.26877
# Poissons Ratio (y) = 0.30932 0.54930
# Poissons Ratio (z) = -0.09240 0.39980
#
# Static dielectric constant tensor:
#      x y z
#    x 3.608180 0.000000 0.065450 
#    y 0.000000 4.076750 0.000000 
#    z 0.065450 0.000000 4.034570 
# 
# 
# High freq. dielectric constant tensor:
#      x y z
#    x 1.845940 0.000000 0.004290 
#    y 0.000000 1.867860 0.000000 
#    z 0.004290 0.000000 1.871230 
# 
# From -- ./inp_files/116711.got.cif
#   From: 2010.06.25/outbox.cif.g09.slc.cpg/sg15_59_cif.got.tgz:116711.got - 2010.06.28 07:06:18.
