data_PCOD8147043
_publ_section_title
;
Structure prediction by ZEFSAII (Michael W. Deem and Ramdas Pophale) SiO2 
 PCOD8147043
Probable space group: C 2/C
;
_chemical_formula_sum "Si O2"
_cell_formula_units_Z 60
_cell_length_a 20.564233
_cell_length_b 12.131967
_cell_length_c 11.457690
_cell_angle_alpha 90.000000
_cell_angle_beta 88.285178
_cell_angle_gamma 90.000000
_cell_volume 2857.236982
_symmetry_space_group_name_H-M "C 2/C"
_symmetry_group_IT_number 15
_symmetry_cell_setting 'monoclinic'
loop_
_space_group_symop_operation_xyz
x,y,z
-x,y,1/2-z
-x,-y,-z
x,-y,1/2+z
1/2+x,1/2+y,z
1/2-x,1/2+y,1/2-z
1/2-x,1/2-y,-z
1/2+x,1/2-y,1/2+z
loop_
_atom_site_type_symbol
_atom_site_label
_atom_site_fract_x
_atom_site_fract_y
_atom_site_fract_z
Si Si1 0.240429 0.643870 0.357415
Si Si2 0.900294 0.280879 0.108757
Si Si3 0.965072 0.706866 0.012544
Si Si4 0.602041 0.928191 0.172480
Si Si5 0.190498 0.081566 0.381657
Si Si6 0.000000 0.599235 0.250000
Si Si7 0.686845 0.958520 0.501148
Si Si8 0.660884 0.339643 0.437607
O O1 0.272367 0.617736 0.234640
O O2 0.191545 0.545036 0.395039
O O3 0.298767 0.659964 0.445284
O O4 0.195469 0.752618 0.348930
O O5 0.890239 0.323369 0.242506
O O6 0.868579 0.162778 0.092135
O O7 0.867826 0.368550 0.022867
O O8 0.975090 0.258907 0.073604
O O9 0.992872 0.674779 0.137045
O O10 0.913490 0.806100 0.029905
O O11 0.932576 0.604074 0.947686
O O12 0.563076 0.022512 0.241334
O O13 0.670730 0.977682 0.124366
O O14 0.241795 0.093990 0.485196
O O15 0.161383 0.958330 0.375245
#
# Coordination Sequence:
#
# PCOD8147043 Si02
#       8
#     8   8   8   8   8   4   8   8
#     4  10  22  42  69  94 129 174 221 271 330 389
#     4  12  25  41  67 100 133 174 219 271 327 393
#     4  12  24  43  66  97 134 173 218 270 331 395
#     4  12  22  40  69 100 131 167 221 273 333 389
#     4  11  26  42  65  97 133 179 219 263 325 397
#     4  12  24  40  64 102 136 166 216 282 336 378
#     4  11  23  41  64 101 133 167 213 286 329 382
#     4  10  24  44  65  94 131 176 219 269 323 398
#
# _framework density 20.999310000000001
#
# number of rings (size 3 to 8) (size 9 to 14) (size 15 to 20)
#    0.000    0.800    4.000    3.200    7.467    0.533 
#    4.800    0.000    2.933    0.000    0.000    0.000 
#    0.000    0.000    0.000    0.000    0.000    0.000 
#
# Total GULP energy -372072.562413 kJ/mol
# GULP energy per Si atom -12402.418747 kJ/mol
# Density = 2.095151 g / cm^3
# Si number density = 20.999310 Si / 1000 Ang^3
#
#
#
# Elastic Constant Matrix: (Units=GPa)
#
#
# Indices 1 2 3 4 5 6 
#
# 1 94.7751 55.4808 8.5947 0.0000 -9.2669 0.0000
# 2 55.4808 134.1862 30.5254 0.0000 -7.2289 0.0000
# 3 8.5947 30.5254 75.6943 0.0000 -3.7859 0.0000
# 4 0.0000 0.0000 0.0000 7.2895 0.0000 -11.1728
# 5 -9.2669 -7.2289 -3.7859 0.0000 28.1041 0.0000
# 6 0.0000 0.0000 0.0000 -11.1728 0.0000 32.3977
#
#
#
# Elastic Compliance Matrix: (Units=1/GPa)
#
#
# Indices 1 2 3 4 5 6 
#
# 1 0.014262 -0.005932 0.000938 0.000000 0.003303 0.000000
# 2 -0.005932 0.010752 -0.003646 0.000000 0.000318 0.000000
# 3 0.000938 -0.003646 0.014642 0.000000 0.001344 0.000000
# 4 0.000000 0.000000 0.000000 0.291003 0.000000 0.100357
# 5 0.003303 0.000318 0.001344 0.000000 0.036934 0.000000
# 6 0.000000 0.000000 0.000000 0.100357 0.000000 0.065476
#
#
# Mechanical properties :
#
#
# Convention : Reuss Voigt Hill
#
# Bulk Modulus (GPa) = 44.69289 54.87305 49.78297
# Shear Modulus (GPa) = 10.92162 27.56190 19.24176
#
# Velocity S-wave (km/s) = 2.28303 3.62679 3.03034
# Velocity P-wave (km/s) = 5.31779 6.61255 6.00019
#
# Compressibility (1/GPa) = 0.02237492
#
# Stress axis : x y z
#
# Youngs Moduli (GPa) = 70.11703 93.00840 68.29567
#
# Poissons Ratio (x) = 0.55174 -0.06407
# Poissons Ratio (y) = 0.41595 0.24903
# Poissons Ratio (z) = -0.06578 0.33914
#
# Static dielectric constant tensor:
#      x y z
#    x 3.980780 0.000000 -0.076730 
#    y 0.000000 3.891740 0.000000 
#    z -0.076730 0.000000 3.776950 
# 
# 
# High freq. dielectric constant tensor:
#      x y z
#    x 1.832100 0.000000 -0.007460 
#    y 0.000000 1.811980 0.000000 
#    z -0.007460 0.000000 1.822020 
# 
# From -- ./inp_files/111653.got.cif
#   From: 2010.06.25/outbox.cif.g09.slc.cpg/sg15_56_cif.got.tgz:111653.got - 2010.06.28 07:06:18.
