data_PCOD8147837
_publ_section_title
;
Structure prediction by ZEFSAII (Michael W. Deem and Ramdas Pophale) SiO2 
 PCOD8147837
Probable space group: C 2/C
;
_chemical_formula_sum "Si O2"
_cell_formula_units_Z 52
_cell_length_a 14.090702
_cell_length_b 12.374483
_cell_length_c 15.263411
_cell_angle_alpha 90.000000
_cell_angle_beta 109.415763
_cell_angle_gamma 90.000000
_cell_volume 2510.056068
_symmetry_space_group_name_H-M "C 2/C"
_symmetry_group_IT_number 15
_symmetry_cell_setting 'monoclinic'
loop_
_space_group_symop_operation_xyz
x,y,z
-x,y,1/2-z
-x,-y,-z
x,-y,1/2+z
1/2+x,1/2+y,z
1/2-x,1/2+y,1/2-z
1/2-x,1/2-y,-z
1/2+x,1/2-y,1/2+z
loop_
_atom_site_type_symbol
_atom_site_label
_atom_site_fract_x
_atom_site_fract_y
_atom_site_fract_z
Si Si1 0.887378 0.966196 0.817930
Si Si2 0.104317 0.721662 0.414272
Si Si3 0.049277 0.383672 0.518033
Si Si4 0.292822 0.414685 0.967180
Si Si5 0.000000 0.142513 0.750000
Si Si6 0.783463 0.089189 0.111419
Si Si7 0.034005 0.233991 0.353235
O O1 0.829683 0.978930 0.892222
O O2 0.805556 0.948288 0.716998
O O3 0.964538 0.868576 0.850997
O O4 0.952757 0.071823 0.814407
O O5 0.175573 0.617410 0.421365
O O6 0.148819 0.802142 0.501469
O O7 0.087897 0.783240 0.317601
O O8 0.996481 0.681499 0.414731
O O9 0.167742 0.381905 0.567289
O O10 0.018563 0.327413 0.418172
O O11 0.000000 0.500000 0.500000
O O12 0.311731 0.491947 0.055196
O O13 0.849899 0.194815 0.110267
O O14 0.000000 0.284358 0.250000
#
# Coordination Sequence:
#
# PCOD8147837 Si02
#       7
#     8   8   8   8   4   8   8
#     4  11  22  43  73 101 131 175 227 285 332 390
#     4  11  25  43  67  98 138 174 222 276 339 402
#     4  12  25  46  65  96 141 184 217 280 340 407
#     4  11  23  44  69  98 136 177 215 276 346 395
#     4  12  24  44  70 104 130 168 234 284 326 410
#     4  11  23  44  68 102 132 174 236 272 333 411
#     4  10  22  45  70  96 131 175 232 280 329 398
#
# _framework density 20.716667999999999
#
# number of rings (size 3 to 8) (size 9 to 14) (size 15 to 20)
#    0.000    0.923    6.923    0.462    4.308    1.231 
#    4.154    0.000    0.000    0.000    0.000    0.000 
#    0.000    0.000    0.000    0.000    0.000    0.000 
#
# Total GULP energy -322479.656203 kJ/mol
# GULP energy per Si atom -12403.063700 kJ/mol
# Density = 2.066952 g / cm^3
# Si number density = 20.716668 Si / 1000 Ang^3
#
#
#
# Elastic Constant Matrix: (Units=GPa)
#
#
# Indices 1 2 3 4 5 6 
#
# 1 125.5403 46.8979 61.7502 0.0000 -2.1192 0.0000
# 2 46.8979 91.4944 48.9980 0.0000 2.1217 0.0000
# 3 61.7502 48.9980 113.6957 0.0000 3.4774 0.0000
# 4 0.0000 0.0000 0.0000 34.2596 0.0000 -1.2772
# 5 -2.1192 2.1217 3.4774 0.0000 34.3544 0.0000
# 6 0.0000 0.0000 0.0000 -1.2772 0.0000 30.2401
#
#
#
# Elastic Compliance Matrix: (Units=1/GPa)
#
#
# Indices 1 2 3 4 5 6 
#
# 1 0.011676 -0.003378 -0.004929 0.000000 0.001428 0.000000
# 2 -0.003378 0.015189 -0.004690 0.000000 -0.000672 0.000000
# 3 -0.004929 -0.004690 0.013536 0.000000 -0.001385 0.000000
# 4 0.000000 0.000000 0.000000 0.029235 0.000000 0.001235
# 5 0.001428 -0.000672 -0.001385 0.000000 0.029378 0.000000
# 6 0.000000 0.000000 0.000000 0.001235 0.000000 0.033121
#
#
# Mechanical properties :
#
#
# Convention : Reuss Voigt Hill
#
# Bulk Modulus (GPa) = 69.41883 71.78028 70.59956
# Shear Modulus (GPa) = 30.68747 31.30976 30.99862
#
# Velocity S-wave (km/s) = 3.85293 3.89180 3.87242
# Velocity P-wave (km/s) = 7.30581 7.41071 7.35845
#
# Compressibility (1/GPa) = 0.01440531
#
# Stress axis : x y z
#
# Youngs Moduli (GPa) = 85.64318 65.83867 73.87528
#
# Poissons Ratio (x) = 0.22242 0.36416
# Poissons Ratio (y) = 0.28933 0.34650
# Poissons Ratio (z) = 0.42217 0.30880
#
# Static dielectric constant tensor:
#      x y z
#    x 3.857140 0.000000 -0.039700 
#    y 0.000000 3.671910 0.000000 
#    z -0.039700 0.000000 3.883150 
# 
# 
# High freq. dielectric constant tensor:
#      x y z
#    x 1.815010 0.000000 0.005170 
#    y 0.000000 1.805460 0.000000 
#    z 0.005170 0.000000 1.815860 
# 
# From -- ./inp_files/152704.got.cif
#   From: 2010.06.25/outbox.cif.g09.slc.cpg/sg15_77_cif.got.tgz:152704.got - 2010.06.28 07:06:18.
