data_PCOD8147862
_publ_section_title
;
Structure prediction by ZEFSAII (Michael W. Deem and Ramdas Pophale) SiO2 
 PCOD8147862
Probable space group: C 2/C
;
_chemical_formula_sum "Si O2"
_cell_formula_units_Z 48
_cell_length_a 14.165420
_cell_length_b 11.640283
_cell_length_c 21.614710
_cell_angle_alpha 90.000000
_cell_angle_beta 144.186511
_cell_angle_gamma 90.000000
_cell_volume 2085.492259
_symmetry_space_group_name_H-M "C 2/C"
_symmetry_group_IT_number 15
_symmetry_cell_setting 'monoclinic'
loop_
_space_group_symop_operation_xyz
x,y,z
-x,y,1/2-z
-x,-y,-z
x,-y,1/2+z
1/2+x,1/2+y,z
1/2-x,1/2+y,1/2-z
1/2-x,1/2-y,-z
1/2+x,1/2-y,1/2+z
loop_
_atom_site_type_symbol
_atom_site_label
_atom_site_fract_x
_atom_site_fract_y
_atom_site_fract_z
Si Si1 0.689357 0.607745 0.623935
Si Si2 0.323783 0.746904 0.671606
Si Si3 0.166247 0.416421 0.716541
Si Si4 0.679808 0.357443 0.822831
Si Si5 0.643339 0.573701 0.000436
Si Si6 0.820378 0.451730 0.472051
O O1 0.806379 0.524732 0.724632
O O2 0.782223 0.723230 0.657102
O O3 0.528938 0.634841 0.578737
O O4 0.640775 0.550425 0.532605
O O5 0.500000 0.700161 0.750000
O O6 0.314536 0.796248 0.736183
O O7 0.285839 0.849009 0.603687
O O8 0.202633 0.640394 0.595934
O O9 0.302768 0.410882 0.736404
O O10 0.991427 0.431174 0.594039
O O11 0.500000 0.380313 0.750000
O O12 0.806819 0.421331 0.935708
O O13 0.676520 0.562102 0.945478
#
# Coordination Sequence:
#
# PCOD8147862 Si02
#       6
#     8   8   8   8   8   8
#     4  10  25  46  70 100 148 198 239 289 372 433
#     4  11  23  41  75 107 138 188 237 303 368 422
#     4  11  26  47  73 103 149 192 245 301 363 437
#     4  12  28  46  70 107 147 196 240 302 365 440
#     4  10  22  45  72 106 142 189 244 301 359 433
#     4  12  25  44  75 109 145 186 251 306 364 432
#
# _framework density 23.016148999999999
#
# number of rings (size 3 to 8) (size 9 to 14) (size 15 to 20)
#    0.000    1.000    1.667    3.500    7.000    0.667 
#    6.000    0.000    0.000    0.000    0.000    0.000 
#    0.000    0.000    0.000    0.000    0.000    0.000 
#
# Total GULP energy -297694.319393 kJ/mol
# GULP energy per Si atom -12403.929975 kJ/mol
# Density = 2.296376 g / cm^3
# Si number density = 23.016149 Si / 1000 Ang^3
#
#
#
# Elastic Constant Matrix: (Units=GPa)
#
#
# Indices 1 2 3 4 5 6 
#
# 1 135.3010 38.9758 48.3574 0.0000 -6.7703 0.0000
# 2 38.9758 128.2814 57.8177 0.0000 -5.3166 0.0000
# 3 48.3574 57.8177 135.5231 0.0001 0.8187 0.0001
# 4 0.0000 0.0000 0.0001 31.5523 0.0001 -5.0428
# 5 -6.7703 -5.3166 0.8187 0.0001 28.7829 0.0000
# 6 0.0000 0.0000 0.0001 -5.0428 0.0000 28.4535
#
#
#
# Elastic Compliance Matrix: (Units=1/GPa)
#
#
# Indices 1 2 3 4 5 6 
#
# 1 0.008810 -0.001457 -0.002533 0.000000 0.001875 0.000000
# 2 -0.001457 0.009997 -0.003755 0.000000 0.001611 0.000000
# 3 -0.002533 -0.003755 0.009894 0.000000 -0.001571 0.000000
# 4 0.000000 0.000000 0.000000 0.032617 0.000000 0.005781
# 5 0.001875 0.001611 -0.001571 0.000000 0.035526 0.000000
# 6 0.000000 0.000000 0.000000 0.005781 0.000000 0.036170
#
#
# Mechanical properties :
#
#
# Convention : Reuss Voigt Hill
#
# Bulk Modulus (GPa) = 75.69626 76.60081 76.14854
# Shear Modulus (GPa) = 32.69933 34.68805 33.69369
#
# Velocity S-wave (km/s) = 3.77332 3.88637 3.83027
# Velocity P-wave (km/s) = 7.20720 7.31383 7.26071
#
# Compressibility (1/GPa) = 0.01321069
#
# Stress axis : x y z
#
# Youngs Moduli (GPa) = 113.50838 100.02791 101.07042
#
# Poissons Ratio (x) = 0.14577 0.25603
# Poissons Ratio (y) = 0.16541 0.37950
# Poissons Ratio (z) = 0.28754 0.37559
#
# Static dielectric constant tensor:
#      x y z
#    x 4.242510 0.000000 -0.156160 
#    y 0.000000 4.075120 0.000000 
#    z -0.156160 0.000000 4.115070 
# 
# 
# High freq. dielectric constant tensor:
#      x y z
#    x 1.912570 0.000000 -0.002710 
#    y 0.000000 1.910290 0.000000 
#    z -0.002710 0.000000 1.915530 
# 
# From -- ./inp_files/243975.got.cif
#   From: 2010.06.25/outbox.cif.g09.slc.cpg/sg15_122_cif.got.tgz:243975.got - 2010.06.28 07:06:18.
