data_PCOD8147166
_publ_section_title
;
Structure prediction by ZEFSAII (Michael W. Deem and Ramdas Pophale) SiO2 
 PCOD8147166
Probable space group: C 2/C
;
_chemical_formula_sum "Si O2"
_cell_formula_units_Z 44
_cell_length_a 7.407348
_cell_length_b 16.530808
_cell_length_c 14.295003
_cell_angle_alpha 90.000000
_cell_angle_beta 99.202420
_cell_angle_gamma 90.000000
_cell_volume 1727.886521
_symmetry_space_group_name_H-M "C 2/C"
_symmetry_group_IT_number 15
_symmetry_cell_setting 'monoclinic'
loop_
_space_group_symop_operation_xyz
x,y,z
-x,y,1/2-z
-x,-y,-z
x,-y,1/2+z
1/2+x,1/2+y,z
1/2-x,1/2+y,1/2-z
1/2-x,1/2-y,-z
1/2+x,1/2-y,1/2+z
loop_
_atom_site_type_symbol
_atom_site_label
_atom_site_fract_x
_atom_site_fract_y
_atom_site_fract_z
Si Si1 0.069388 0.578188 0.452812
Si Si2 0.451035 0.757784 0.350681
Si Si3 0.630977 0.361938 0.407855
Si Si4 0.651923 0.779022 0.593149
Si Si5 0.774942 0.383361 0.721424
Si Si6 0.500000 0.515230 0.750000
O O1 0.281899 0.592648 0.495960
O O2 0.068027 0.579752 0.336886
O O3 0.000000 0.500000 0.500000
O O4 0.932417 0.648613 0.476793
O O5 0.500000 0.783242 0.250000
O O6 0.308775 0.825588 0.370915
O O7 0.646424 0.751264 0.424513
O O8 0.369900 0.667170 0.353228
O O9 0.495043 0.292131 0.426626
O O10 0.516785 0.427305 0.340561
O O11 0.659793 0.813853 0.700189
O O12 0.679998 0.459565 0.762711
#
# Coordination Sequence:
#
# PCOD8147166 Si02
#       6
#     8   8   8   8   8   4
#     4  12  28  45  71 112 155 190 237 302 378 433
#     4  10  22  42  74 104 131 191 250 288 355 429
#     4  12  27  46  72 111 146 188 245 305 360 440
#     4  11  23  48  77 100 143 199 243 300 358 437
#     4  11  23  46  76 102 142 198 241 294 371 431
#     4  12  24  46  78 106 144 192 248 306 360 434
#
# _framework density 25.464637
#
# number of rings (size 3 to 8) (size 9 to 14) (size 15 to 20)
#    0.000    0.727    4.545    4.364    2.545    4.364 
#    0.000    0.000    0.000    0.000    0.000    0.000 
#    0.000    0.000    0.000    0.000    0.000    0.000 
#
# Total GULP energy -272672.780066 kJ/mol
# GULP energy per Si atom -12394.217276 kJ/mol
# Density = 2.540668 g / cm^3
# Si number density = 25.464637 Si / 1000 Ang^3
#
#
#
# Elastic Constant Matrix: (Units=GPa)
#
#
# Indices 1 2 3 4 5 6 
#
# 1 140.7556 51.7221 17.3092 0.0000 -0.8420 0.0000
# 2 51.7221 147.7184 32.3825 0.0000 -1.2659 0.0000
# 3 17.3092 32.3825 56.9027 0.0000 -4.2458 0.0000
# 4 0.0000 0.0000 0.0000 33.4105 0.0000 7.0996
# 5 -0.8420 -1.2659 -4.2458 0.0000 55.0393 0.0000
# 6 0.0000 0.0000 0.0000 7.0996 0.0000 41.0325
#
#
#
# Elastic Compliance Matrix: (Units=1/GPa)
#
#
# Indices 1 2 3 4 5 6 
#
# 1 0.008201 -0.002656 -0.000984 0.000000 -0.000012 0.000000
# 2 -0.002656 0.008596 -0.004096 0.000000 -0.000159 0.000000
# 3 -0.000984 -0.004096 0.020313 0.000000 0.001458 0.000000
# 4 0.000000 0.000000 0.000000 0.031073 0.000000 -0.005376
# 5 -0.000012 -0.000159 0.001458 0.000000 0.018277 0.000000
# 6 0.000000 0.000000 0.000000 -0.005376 0.000000 0.025301
#
#
# Mechanical properties :
#
#
# Convention : Reuss Voigt Hill
#
# Bulk Modulus (GPa) = 46.21410 60.91160 53.56285
# Shear Modulus (GPa) = 37.18934 42.16064 39.67499
#
# Velocity S-wave (km/s) = 3.82570 4.07339 3.95149
# Velocity P-wave (km/s) = 6.14023 6.78935 6.47293
#
# Compressibility (1/GPa) = 0.02163842
#
# Stress axis : x y z
#
# Youngs Moduli (GPa) = 121.92966 116.33138 49.22982
#
# Poissons Ratio (x) = 0.30898 0.04845
# Poissons Ratio (y) = 0.32385 0.20164
# Poissons Ratio (z) = 0.12000 0.47648
#
# Static dielectric constant tensor:
#      x y z
#    x 5.111030 0.000000 0.445250 
#    y 0.000000 4.509920 0.000000 
#    z 0.445250 0.000000 5.333710 
# 
# 
# High freq. dielectric constant tensor:
#      x y z
#    x 2.035840 0.000000 0.017030 
#    y 0.000000 2.007650 0.000000 
#    z 0.017030 0.000000 2.046170 
# 
# From -- ./inp_files/134502.got.cif
#   From: 2010.06.25/outbox.cif.g09.slc.cpg/sg15_68_cif.got.tgz:134502.got - 2010.06.28 07:06:18.
