data_PCOD8147646
_publ_section_title
;
Structure prediction by ZEFSAII (Michael W. Deem and Ramdas Pophale) SiO2 
 PCOD8147646
Probable space group: C 2/C
;
_chemical_formula_sum "Si O2"
_cell_formula_units_Z 60
_cell_length_a 19.086540
_cell_length_b 26.865669
_cell_length_c 13.103525
_cell_angle_alpha 90.000000
_cell_angle_beta 156.692379
_cell_angle_gamma 90.000000
_cell_volume 2658.542246
_symmetry_space_group_name_H-M "C 2/C"
_symmetry_group_IT_number 15
_symmetry_cell_setting 'monoclinic'
loop_
_space_group_symop_operation_xyz
x,y,z
-x,y,1/2-z
-x,-y,-z
x,-y,1/2+z
1/2+x,1/2+y,z
1/2-x,1/2+y,1/2-z
1/2-x,1/2-y,-z
1/2+x,1/2-y,1/2+z
loop_
_atom_site_type_symbol
_atom_site_label
_atom_site_fract_x
_atom_site_fract_y
_atom_site_fract_z
Si Si1 0.500000 0.172632 0.750000
Si Si2 0.851781 0.397136 0.220906
Si Si3 0.825463 0.629967 0.231602
Si Si4 0.918201 0.116245 0.971867
Si Si5 0.292637 0.926614 0.487465
Si Si6 0.437333 0.773235 0.775195
Si Si7 0.341208 0.687908 0.320557
Si Si8 0.128270 0.975107 0.831541
O O1 0.614879 0.139424 0.827868
O O2 0.351006 0.203486 0.486149
O O3 0.683992 0.374618 0.058521
O O4 0.025692 0.405552 0.521217
O O5 0.804444 0.451990 0.117802
O O6 0.740921 0.601270 0.023567
O O7 0.922905 0.680942 0.331657
O O8 0.680003 0.644236 0.122431
O O9 0.771127 0.108417 0.688654
O O10 0.030997 0.165437 0.095494
O O11 0.040849 0.067323 0.143871
O O12 0.500000 0.935623 0.750000
O O13 0.187658 0.978630 0.342126
O O14 0.500000 0.793402 0.750000
O O15 0.250000 0.750000 0.500000
O O16 0.574051 0.735330 0.010873
O O17 0.000000 0.993923 0.750000
#
# Coordination Sequence:
#
# PCOD8147646 Si02
#       8
#     4   8   8   8   8   8   8   8
#     4  10  22  46  72 100 136 178 232 278 348 406
#     4  10  22  44  68  97 138 179 225 286 339 408
#     4  11  25  44  67 103 137 178 232 278 348 415
#     4  11  23  43  68 100 137 178 232 281 350 401
#     4  12  25  41  65 100 139 181 230 284 342 410
#     4  12  25  45  70 103 142 179 225 284 349 418
#     4  11  25  43  75 100 135 186 227 285 348 410
#     4  10  24  43  64  96 137 185 234 281 341 408
#
# _framework density 22.568760000000001
#
# number of rings (size 3 to 8) (size 9 to 14) (size 15 to 20)
#    0.000    1.067    4.000    1.600    4.667    0.533 
#    0.000    2.667    4.400    0.000    0.000    0.000 
#    0.000    0.000    0.000    0.000    0.000    0.000 
#
# Total GULP energy -372013.642933 kJ/mol
# GULP energy per Si atom -12400.454764 kJ/mol
# Density = 2.251739 g / cm^3
# Si number density = 22.568760 Si / 1000 Ang^3
#
#
#
# Elastic Constant Matrix: (Units=GPa)
#
#
# Indices 1 2 3 4 5 6 
#
# 1 100.5525 15.4789 21.1732 0.0000 0.6452 0.0000
# 2 15.4789 60.4172 32.1156 0.0000 -2.5869 0.0000
# 3 21.1732 32.1156 112.1113 0.0000 -11.3540 0.0001
# 4 0.0000 0.0000 0.0000 34.4638 0.0000 -0.0479
# 5 0.6452 -2.5869 -11.3540 0.0000 34.9453 0.0000
# 6 0.0000 0.0000 0.0001 -0.0479 0.0000 26.1574
#
#
#
# Elastic Compliance Matrix: (Units=1/GPa)
#
#
# Indices 1 2 3 4 5 6 
#
# 1 0.010569 -0.001932 -0.001527 0.000000 -0.000834 0.000000
# 2 -0.001932 0.019883 -0.005354 0.000000 -0.000232 0.000000
# 3 -0.001527 -0.005354 0.011069 0.000000 0.003228 0.000000
# 4 0.000000 0.000000 0.000000 0.029016 0.000000 0.000053
# 5 -0.000834 -0.000232 0.003228 0.000000 0.029663 0.000000
# 6 0.000000 0.000000 0.000000 0.000053 0.000000 0.038230
#
#
# Mechanical properties :
#
#
# Convention : Reuss Voigt Hill
#
# Bulk Modulus (GPa) = 41.85099 45.62407 43.73753
# Shear Modulus (GPa) = 30.48373 32.73418 31.60896
#
# Velocity S-wave (km/s) = 3.67918 3.81257 3.74647
# Velocity P-wave (km/s) = 6.05248 6.29606 6.17547
#
# Compressibility (1/GPa) = 0.02389430
#
# Stress axis : x y z
#
# Youngs Moduli (GPa) = 94.61304 50.29493 90.34333
#
# Poissons Ratio (x) = 0.09716 0.13798
# Poissons Ratio (y) = 0.18277 0.48373
# Poissons Ratio (z) = 0.14450 0.26930
#
# Static dielectric constant tensor:
#      x y z
#    x 4.186310 0.000010 -0.068470 
#    y 0.000010 8.067660 0.000000 
#    z -0.068470 0.000000 4.229400 
# 
# 
# High freq. dielectric constant tensor:
#      x y z
#    x 1.906710 0.000000 -0.002100 
#    y 0.000000 1.860050 0.000000 
#    z -0.002100 0.000000 1.905140 
# 
# From -- ./inp_files/169978.got.cif
#   From: 2010.06.25/outbox.cif.g09.slc.cpg/sg15_85_cif.got.tgz:169978.got - 2010.06.28 07:06:18.
