data_PCOD8147654
_publ_section_title
;
Structure prediction by ZEFSAII (Michael W. Deem and Ramdas Pophale) SiO2 
 PCOD8147654
Probable space group: C 2/C
;
_chemical_formula_sum "Si O2"
_cell_formula_units_Z 44
_cell_length_a 15.587682
_cell_length_b 10.627784
_cell_length_c 21.383758
_cell_angle_alpha 90.000000
_cell_angle_beta 145.219009
_cell_angle_gamma 90.000000
_cell_volume 2020.780298
_symmetry_space_group_name_H-M "C 2/C"
_symmetry_group_IT_number 15
_symmetry_cell_setting 'monoclinic'
loop_
_space_group_symop_operation_xyz
x,y,z
-x,y,1/2-z
-x,-y,-z
x,-y,1/2+z
1/2+x,1/2+y,z
1/2-x,1/2+y,1/2-z
1/2-x,1/2-y,-z
1/2+x,1/2-y,1/2+z
loop_
_atom_site_type_symbol
_atom_site_label
_atom_site_fract_x
_atom_site_fract_y
_atom_site_fract_z
Si Si1 0.278457 0.043844 0.398912
Si Si2 0.899197 0.665505 0.898237
Si Si3 0.517347 0.620258 0.969709
Si Si4 0.000000 0.512555 0.750000
Si Si5 0.754331 0.602317 0.013692
Si Si6 0.311857 0.210573 0.712276
O O1 0.441328 0.102777 0.497454
O O2 0.167703 0.159172 0.314382
O O3 0.272402 0.938609 0.339950
O O4 0.242624 0.980350 0.443885
O O5 0.873445 0.780272 0.930560
O O6 0.902774 0.719986 0.830735
O O7 0.598916 0.572873 0.956006
O O8 0.500000 0.500000 0.000000
O O9 0.356723 0.685594 0.864172
O O10 0.092613 0.429868 0.855973
O O11 0.126006 0.597012 0.792011
O O12 0.750000 0.750000 0.000000
#
# Coordination Sequence:
#
# PCOD8147654 Si02
#       6
#     8   8   8   4   8   8
#     4  10  23  44  71 101 141 185 234 291 352 416
#     4  10  22  44  69 101 138 184 233 288 344 418
#     4  11  24  42  70 105 136 181 228 293 347 412
#     4  12  26  46  74 100 144 194 230 294 366 424
#     4  12  25  48  73 105 146 181 239 301 357 417
#     4  11  25  43  73 101 142 190 232 285 356 429
#
# _framework density 21.773766999999999
#
# number of rings (size 3 to 8) (size 9 to 14) (size 15 to 20)
#    0.000    1.091    5.455    0.000    2.545    3.636 
#    0.000    0.000    0.000    0.000    0.000    0.000 
#    0.000    0.000    0.000    0.000    0.000    0.000 
#
# Total GULP energy -272667.627752 kJ/mol
# GULP energy per Si atom -12393.983080 kJ/mol
# Density = 2.172421 g / cm^3
# Si number density = 21.773767 Si / 1000 Ang^3
#
#
#
# Elastic Constant Matrix: (Units=GPa)
#
#
# Indices 1 2 3 4 5 6 
#
# 1 122.9114 59.3525 26.0080 0.0000 -19.6150 0.0000
# 2 59.3525 162.0567 51.8064 0.0000 -15.9614 0.0000
# 3 26.0080 51.8064 71.9806 0.0000 -21.2761 0.0000
# 4 0.0000 0.0000 0.0000 39.0156 0.0000 -10.4296
# 5 -19.6150 -15.9614 -21.2761 0.0000 37.2417 0.0000
# 6 0.0000 0.0000 0.0000 -10.4296 0.0000 40.6275
#
#
#
# Elastic Compliance Matrix: (Units=1/GPa)
#
#
# Indices 1 2 3 4 5 6 
#
# 1 0.010433 -0.003377 -0.000172 0.000000 0.003950 0.000000
# 2 -0.003377 0.009109 -0.005664 0.000000 -0.001111 0.000000
# 3 -0.000172 -0.005664 0.020799 0.000000 0.009365 0.000000
# 4 0.000000 0.000000 0.000000 0.027519 0.000000 0.007065
# 5 0.003950 -0.001111 0.009365 0.000000 0.033806 0.000000
# 6 0.000000 0.000000 0.000000 0.007065 0.000000 0.026427
#
#
# Mechanical properties :
#
#
# Convention : Reuss Voigt Hill
#
# Bulk Modulus (GPa) = 45.62920 70.14250 57.88585
# Shear Modulus (GPa) = 32.50451 38.02908 35.26680
#
# Velocity S-wave (km/s) = 3.86791 4.18371 4.02891
# Velocity P-wave (km/s) = 6.39915 7.45802 6.94879
#
# Compressibility (1/GPa) = 0.02191579
#
# Stress axis : x y z
#
# Youngs Moduli (GPa) = 95.84560 109.78329 48.07903
#
# Poissons Ratio (x) = 0.37077 0.00825
# Poissons Ratio (y) = 0.32370 0.27231
# Poissons Ratio (z) = 0.01645 0.62180
#
# Static dielectric constant tensor:
#      x y z
#    x 3.658130 0.000000 -0.320060 
#    y 0.000000 3.792090 0.000000 
#    z -0.320060 0.000000 3.628860 
# 
# 
# High freq. dielectric constant tensor:
#      x y z
#    x 1.865490 0.000000 -0.007720 
#    y 0.000000 1.874860 0.000000 
#    z -0.007720 0.000000 1.838790 
# 
# From -- ./inp_files/243833.got.cif
#   From: 2010.06.25/outbox.cif.g09.slc.cpg/sg15_122_cif.got.tgz:243833.got - 2010.06.28 07:06:18.
