data_PCOD8147684
_publ_section_title
;
Structure prediction by ZEFSAII (Michael W. Deem and Ramdas Pophale) SiO2 
 PCOD8147684
Probable space group: C 2/C
;
_chemical_formula_sum "Si O2"
_cell_formula_units_Z 36
_cell_length_a 14.937723
_cell_length_b 13.978073
_cell_length_c 9.517308
_cell_angle_alpha 90.000000
_cell_angle_beta 52.562159
_cell_angle_gamma 90.000000
_cell_volume 1577.878689
_symmetry_space_group_name_H-M "C 2/C"
_symmetry_group_IT_number 15
_symmetry_cell_setting 'monoclinic'
loop_
_space_group_symop_operation_xyz
x,y,z
-x,y,1/2-z
-x,-y,-z
x,-y,1/2+z
1/2+x,1/2+y,z
1/2-x,1/2+y,1/2-z
1/2-x,1/2-y,-z
1/2+x,1/2-y,1/2+z
loop_
_atom_site_type_symbol
_atom_site_label
_atom_site_fract_x
_atom_site_fract_y
_atom_site_fract_z
Si Si1 0.880333 0.469117 0.675739
Si Si2 0.495676 0.350934 0.408388
Si Si3 0.000000 0.334171 0.750000
Si Si4 0.703298 0.652485 0.205781
Si Si5 0.286038 0.359089 0.121350
O O1 0.896955 0.403122 0.800003
O O2 0.816487 0.408684 0.617557
O O3 0.808409 0.560372 0.785431
O O4 0.000000 0.500000 0.500000
O O5 0.500000 0.401070 0.250000
O O6 0.474326 0.235901 0.407468
O O7 0.393116 0.390419 0.599883
O O8 0.612170 0.378967 0.370139
O O9 0.726913 0.761508 0.224518
O O10 0.662542 0.647468 0.084079
#
# Coordination Sequence:
#
# PCOD8147684 Si02
#       5
#     8   8   4   8   8
#     4  12  25  44  71 108 144 186 243 298 354 430
#     4  10  23  44  73 100 139 190 237 288 357 418
#     4  10  22  44  70 106 136 190 236 294 338 436
#     4  11  24  45  70 102 151 183 237 298 362 427
#     4  11  25  43  72 107 142 194 230 300 365 419
#
# _framework density 22.815441
#
# number of rings (size 3 to 8) (size 9 to 14) (size 15 to 20)
#    0.667    0.444    2.222    3.333    0.000    8.000 
#    0.000    0.000    0.000    0.000    0.000    0.000 
#    0.000    0.000    0.000    0.000    0.000    0.000 
#
# Total GULP energy -223156.627555 kJ/mol
# GULP energy per Si atom -12397.590420 kJ/mol
# Density = 2.276351 g / cm^3
# Si number density = 22.815441 Si / 1000 Ang^3
#
#
#
# Elastic Constant Matrix: (Units=GPa)
#
#
# Indices 1 2 3 4 5 6 
#
# 1 139.0068 10.8200 51.8047 0.0000 -12.6718 0.0000
# 2 10.8200 80.6735 15.2495 0.0000 -17.9830 0.0000
# 3 51.8047 15.2495 134.9503 0.0000 -12.5751 0.0000
# 4 0.0000 0.0000 0.0000 17.6495 0.0000 -5.4019
# 5 -12.6718 -17.9830 -12.5751 0.0000 24.9119 0.0000
# 6 0.0000 0.0000 0.0000 -5.4019 0.0000 50.5970
#
#
#
# Elastic Compliance Matrix: (Units=1/GPa)
#
#
# Indices 1 2 3 4 5 6 
#
# 1 0.008582 0.000065 -0.003033 0.000000 0.002881 0.000000
# 2 0.000065 0.014838 -0.000735 0.000000 0.010373 0.000000
# 3 -0.003033 -0.000735 0.008882 0.000000 0.002410 0.000000
# 4 0.000000 0.000000 0.000000 0.058573 0.000000 0.006253
# 5 0.002881 0.010373 0.002410 0.000000 0.050311 0.000000
# 6 0.000000 0.000000 0.000000 0.006253 0.000000 0.020432
#
#
# Mechanical properties :
#
#
# Convention : Reuss Voigt Hill
#
# Bulk Modulus (GPa) = 40.16886 56.70878 48.43882
# Shear Modulus (GPa) = 28.19707 37.08212 32.63959
#
# Velocity S-wave (km/s) = 3.51932 4.03588 3.78642
# Velocity P-wave (km/s) = 5.84451 6.82841 6.35553
#
# Compressibility (1/GPa) = 0.02489491
#
# Stress axis : x y z
#
# Youngs Moduli (GPa) = 116.52408 67.39386 112.58497
#
# Poissons Ratio (x) = -0.00435 0.34150
# Poissons Ratio (y) = -0.00752 0.08274
# Poissons Ratio (z) = 0.35345 0.04953
#
# Static dielectric constant tensor:
#      x y z
#    x 4.264580 0.000000 0.136470 
#    y 0.000000 4.130900 0.000000 
#    z 0.136470 0.000000 3.755260 
# 
# 
# High freq. dielectric constant tensor:
#      x y z
#    x 1.914580 0.000000 0.006060 
#    y 0.000000 1.905890 0.000000 
#    z 0.006060 0.000000 1.882470 
# 
# From -- ./inp_files/95497.got.cif
#   From: 2010.06.25/outbox.cif.g09.slc.cpg/sg15_48_cif.got.tgz:95497.got - 2010.06.28 07:06:18.
