data_PCOD8147290
_publ_section_title
;
Structure prediction by ZEFSAII (Michael W. Deem and Ramdas Pophale) SiO2 
 PCOD8147290
Probable space group: C 2/C
;
_chemical_formula_sum "Si O2"
_cell_formula_units_Z 64
_cell_length_a 27.291996
_cell_length_b 8.540201
_cell_length_c 15.068350
_cell_angle_alpha 90.000000
_cell_angle_beta 59.257260
_cell_angle_gamma 90.000000
_cell_volume 3018.564182
_symmetry_space_group_name_H-M "C 2/C"
_symmetry_group_IT_number 15
_symmetry_cell_setting 'monoclinic'
loop_
_space_group_symop_operation_xyz
x,y,z
-x,y,1/2-z
-x,-y,-z
x,-y,1/2+z
1/2+x,1/2+y,z
1/2-x,1/2+y,1/2-z
1/2-x,1/2-y,-z
1/2+x,1/2-y,1/2+z
loop_
_atom_site_type_symbol
_atom_site_label
_atom_site_fract_x
_atom_site_fract_y
_atom_site_fract_z
Si Si1 0.889723 0.435497 0.262138
Si Si2 0.625961 0.561840 0.541331
Si Si3 0.500259 0.403172 0.351987
Si Si4 0.885143 0.070059 0.258407
Si Si5 0.814482 0.436991 0.678780
Si Si6 0.370942 0.927457 0.961126
Si Si7 0.997240 0.437831 0.904465
Si Si8 0.191370 0.929411 0.322469
O O1 0.881254 0.252027 0.282075
O O2 0.864322 0.492151 0.192674
O O3 0.857600 0.522838 0.372509
O O4 0.956570 0.476940 0.200349
O O5 0.561312 0.520962 0.570025
O O6 0.635629 0.521938 0.635361
O O7 0.639658 0.744052 0.514955
O O8 0.667922 0.459315 0.442864
O O9 0.500000 0.349192 0.250000
O O10 0.549762 0.526985 0.327764
O O11 0.510526 0.247167 0.399067
O O12 0.844439 0.028501 0.214980
O O13 0.828290 0.477423 0.564035
O O14 0.811879 0.252541 0.696762
O O15 0.755986 0.515951 0.761258
O O16 0.435901 0.973995 0.920277
O O17 0.000000 0.500000 0.000000
#
# Coordination Sequence:
#
# PCOD8147290 Si02
#       8
#     8   8   8   8   8   8   8   8
#     4  12  24  42  65  97 132 171 214 264 314 387
#     4  10  22  43  66  96 130 171 211 263 323 377
#     4   9  20  40  62  92 131 171 210 262 318 382
#     4  11  24  41  65  96 132 171 217 259 322 380
#     4  12  26  46  66  97 123 168 218 265 326 377
#     4  11  23  42  69  94 133 169 214 265 320 381
#     4  11  21  37  64  96 133 168 214 258 322 382
#     4  12  26  44  69  91 130 164 216 273 318 384
#
# _framework density 21.202134000000001
#
# number of rings (size 3 to 8) (size 9 to 14) (size 15 to 20)
#    0.000    1.000    1.250    7.125    1.750    5.500 
#    0.000    5.000    0.000    0.000    0.000    0.000 
#    0.000    0.000    0.000    0.000    0.000    0.000 
#
# Total GULP energy -397027.528152 kJ/mol
# GULP energy per Si atom -12407.110255 kJ/mol
# Density = 2.115388 g / cm^3
# Si number density = 21.202134 Si / 1000 Ang^3
#
#
#
# Elastic Constant Matrix: (Units=GPa)
#
#
# Indices 1 2 3 4 5 6 
#
# 1 41.8796 21.6199 18.2573 0.0000 -8.8776 0.0000
# 2 21.6199 98.0189 17.2173 0.0000 -10.3316 0.0002
# 3 18.2573 17.2173 116.9108 0.0000 -10.3178 0.0000
# 4 0.0000 0.0000 0.0000 44.4110 0.0000 2.1465
# 5 -8.8776 -10.3316 -10.3178 0.0000 36.6696 0.0000
# 6 0.0000 0.0002 0.0000 2.1465 0.0000 32.3831
#
#
#
# Elastic Compliance Matrix: (Units=1/GPa)
#
#
# Indices 1 2 3 4 5 6 
#
# 1 0.029067 -0.005339 -0.003348 0.000000 0.004591 0.000000
# 2 -0.005339 0.011698 -0.000730 0.000000 0.001798 0.000000
# 3 -0.003348 -0.000730 0.009326 0.000000 0.001608 0.000000
# 4 0.000000 0.000000 0.000000 0.022589 0.000000 -0.001497
# 5 0.004591 0.001798 0.001608 0.000000 0.029341 0.000000
# 6 0.000000 0.000000 0.000000 -0.001497 0.000000 0.030980
#
#
# Mechanical properties :
#
#
# Convention : Reuss Voigt Hill
#
# Bulk Modulus (GPa) = 31.99423 41.22203 36.60813
# Shear Modulus (GPa) = 30.81606 36.00707 33.41157
#
# Velocity S-wave (km/s) = 3.81654 4.12548 3.97402
# Velocity P-wave (km/s) = 5.87743 6.49442 6.19361
#
# Compressibility (1/GPa) = 0.03125564
#
# Stress axis : x y z
#
# Youngs Moduli (GPa) = 34.40335 85.48801 107.22992
#
# Poissons Ratio (x) = 0.45645 0.35898
# Poissons Ratio (y) = 0.18369 0.07830
# Poissons Ratio (z) = 0.11517 0.06243
#
# Static dielectric constant tensor:
#      x y z
#    x 3.778790 0.000000 -0.140680 
#    y 0.000000 3.806930 0.000000 
#    z -0.140680 0.000000 3.905020 
# 
# 
# High freq. dielectric constant tensor:
#      x y z
#    x 1.824760 0.000000 0.001670 
#    y 0.000000 1.837920 0.000000 
#    z 0.001670 0.000000 1.844470 
# 
# From -- ./inp_files/181150.got.cif
#   From: 2010.06.25/outbox.cif.g09.slc.cpg/sg15_91_cif.got.tgz:181150.got - 2010.06.28 07:06:18.
