data_PCOD8147655
_publ_section_title
;
Structure prediction by ZEFSAII (Michael W. Deem and Ramdas Pophale) SiO2 
 PCOD8147655
Probable space group: C 2/C
;
_chemical_formula_sum "Si O2"
_cell_formula_units_Z 32
_cell_length_a 18.036224
_cell_length_b 8.661769
_cell_length_c 19.270762
_cell_angle_alpha 90.000000
_cell_angle_beta 158.011886
_cell_angle_gamma 90.000000
_cell_volume 1127.206449
_symmetry_space_group_name_H-M "C 2/C"
_symmetry_group_IT_number 15
_symmetry_cell_setting 'monoclinic'
loop_
_space_group_symop_operation_xyz
x,y,z
-x,y,1/2-z
-x,-y,-z
x,-y,1/2+z
1/2+x,1/2+y,z
1/2-x,1/2+y,1/2-z
1/2-x,1/2-y,-z
1/2+x,1/2-y,1/2+z
loop_
_atom_site_type_symbol
_atom_site_label
_atom_site_fract_x
_atom_site_fract_y
_atom_site_fract_z
Si Si1 0.692957 0.582048 0.120669
Si Si2 0.287254 0.057434 0.839315
Si Si3 0.915102 0.071765 0.103125
Si Si4 0.085944 0.581882 0.916054
O O1 0.704236 0.760494 0.145512
O O2 0.643350 0.485907 0.148476
O O3 0.902446 0.528707 0.270919
O O4 0.542335 0.550130 0.923699
O O5 0.500000 0.000000 0.000000
O O6 0.246685 0.966604 0.878033
O O7 0.973869 0.240093 0.124872
O O8 0.000000 0.019432 0.250000
O O9 0.677754 0.070019 0.917547
#
# Coordination Sequence:
#
# PCOD8147655 Si02
#       4
#     8   8   8   8
#     4  11  23  45  73 102 143 185 235 292 348 418
#     4  10  24  45  72 103 137 183 239 296 351 414
#     4  11  23  41  72 106 143 186 228 283 350 423
#     4  10  22  44  69 103 141 183 234 285 352 419
#
# _framework density 28.388766
#
# number of rings (size 3 to 8) (size 9 to 14) (size 15 to 20)
#    0.000    1.500    0.000    5.250    0.000    7.000 
#    0.000   12.500    0.000    0.000    0.000    0.000 
#    0.000    0.000    0.000    0.000    0.000    0.000 
#
# Total GULP energy -198442.480931 kJ/mol
# GULP energy per Si atom -12402.655058 kJ/mol
# Density = 2.832415 g / cm^3
# Si number density = 28.388766 Si / 1000 Ang^3
#
#
#
# Elastic Constant Matrix: (Units=GPa)
#
#
# Indices 1 2 3 4 5 6 
#
# 1 236.1120 133.2166 68.5794 -0.0027 -18.8171 -0.0003
# 2 133.2166 251.4886 51.9092 -0.0073 -13.9276 -0.0014
# 3 68.5794 51.9092 131.9323 -0.0292 -31.0717 -0.0064
# 4 -0.0027 -0.0073 -0.0292 46.8075 -0.0054 -2.1204
# 5 -18.8171 -13.9276 -31.0717 -0.0054 50.7417 -0.0006
# 6 -0.0003 -0.0014 -0.0064 -2.1204 -0.0006 64.1844
#
#
#
# Elastic Compliance Matrix: (Units=1/GPa)
#
#
# Indices 1 2 3 4 5 6 
#
# 1 0.006599 -0.003032 -0.002170 -0.000001 0.000286 0.000000
# 2 -0.003032 0.005722 -0.000666 0.000000 0.000038 0.000000
# 3 -0.002170 -0.000666 0.010210 0.000007 0.005264 0.000001
# 4 -0.000001 0.000000 0.000007 0.021396 0.000006 0.000707
# 5 0.000286 0.000038 0.005264 0.000006 0.023048 0.000001
# 6 0.000000 0.000000 0.000001 0.000707 0.000001 0.015603
#
#
# Mechanical properties :
#
#
# Convention : Reuss Voigt Hill
#
# Bulk Modulus (GPa) = 92.64141 125.21594 108.92868
# Shear Modulus (GPa) = 51.06625 56.73522 53.90073
#
# Velocity S-wave (km/s) = 4.24585 4.47532 4.36209
# Velocity P-wave (km/s) = 7.53261 8.42069 7.98900
#
# Compressibility (1/GPa) = 0.01079431
#
# Stress axis : x y z
#
# Youngs Moduli (GPa) = 151.54042 174.76520 97.94759
#
# Poissons Ratio (x) = 0.52985 0.21253
# Poissons Ratio (y) = 0.45944 0.06527
# Poissons Ratio (z) = 0.32882 0.11646
#
# Static dielectric constant tensor:
#      x y z
#    x 7.870320 0.000070 -1.821890 
#    y 0.000070 4.867570 -0.000110 
#    z -1.821890 -0.000110 10.058240 
# 
# 
# High freq. dielectric constant tensor:
#      x y z
#    x 2.219820 0.000000 0.019420 
#    y 0.000000 2.103930 0.000000 
#    z 0.019420 0.000000 2.246530 
# 
# From -- ./inp_files/247716.got.cif
#   From: 2010.06.25/outbox.cif.g09.slc.cpg/sg15_124_cif.got.tgz:247716.got - 2010.06.28 07:06:18.
