data_PCOD8147449
_publ_section_title
;
Structure prediction by ZEFSAII (Michael W. Deem and Ramdas Pophale) SiO2 
 PCOD8147449
Probable space group: C 2/C
;
_chemical_formula_sum "Si O2"
_cell_formula_units_Z 44
_cell_length_a 16.484464
_cell_length_b 8.957871
_cell_length_c 13.606125
_cell_angle_alpha 90.000000
_cell_angle_beta 75.955024
_cell_angle_gamma 90.000000
_cell_volume 1949.095274
_symmetry_space_group_name_H-M "C 2/C"
_symmetry_group_IT_number 15
_symmetry_cell_setting 'monoclinic'
loop_
_space_group_symop_operation_xyz
x,y,z
-x,y,1/2-z
-x,-y,-z
x,-y,1/2+z
1/2+x,1/2+y,z
1/2-x,1/2+y,1/2-z
1/2-x,1/2-y,-z
1/2+x,1/2-y,1/2+z
loop_
_atom_site_type_symbol
_atom_site_label
_atom_site_fract_x
_atom_site_fract_y
_atom_site_fract_z
Si Si1 0.740237 0.871501 0.287738
Si Si2 0.261448 0.555269 0.105166
Si Si3 0.379450 0.433989 0.389754
Si Si4 0.918994 0.616194 0.416036
Si Si5 0.500000 0.647850 0.250000
Si Si6 0.440419 0.893608 0.134519
O O1 0.734829 0.698610 0.322672
O O2 0.804687 0.959582 0.336297
O O3 0.652032 0.960868 0.323236
O O4 0.767240 0.901659 0.166360
O O5 0.176569 0.556741 0.064538
O O6 0.342112 0.557332 0.010882
O O7 0.423731 0.274166 0.359454
O O8 0.448553 0.556380 0.346282
O O9 0.950392 0.643576 0.517326
O O10 0.985071 0.501223 0.348503
O O11 0.439073 0.745162 0.200604
#
# Coordination Sequence:
#
# PCOD8147449 Si02
#       6
#     8   8   8   8   4   8
#     4  11  22  43  72  96 135 176 233 268 338 402
#     4  11  22  45  69 102 135 183 223 281 330 412
#     4  11  24  47  66 100 135 186 216 289 335 407
#     4  10  22  43  73  90 140 178 225 268 352 387
#     4  12  28  42  68 102 144 166 240 280 344 388
#     4  11  22  45  65 102 130 182 223 286 316 417
#
# _framework density 22.574576
#
# number of rings (size 3 to 8) (size 9 to 14) (size 15 to 20)
#    0.000    1.091    3.636    3.273    0.000    4.364 
#    6.545    2.727    0.000    0.000    0.000    0.000 
#    0.000    0.000    0.000    0.000    0.000    0.000 
#
# Total GULP energy -272697.704049 kJ/mol
# GULP energy per Si atom -12395.350184 kJ/mol
# Density = 2.252320 g / cm^3
# Si number density = 22.574576 Si / 1000 Ang^3
#
#
#
# Elastic Constant Matrix: (Units=GPa)
#
#
# Indices 1 2 3 4 5 6 
#
# 1 115.6729 50.4840 34.4907 0.0000 -11.4097 0.0000
# 2 50.4840 93.8459 63.1081 0.0000 -6.5569 0.0000
# 3 34.4907 63.1081 110.2898 0.0000 1.2710 0.0000
# 4 0.0000 0.0000 0.0000 38.2335 0.0000 -1.5893
# 5 -11.4097 -6.5569 1.2710 0.0000 30.6772 0.0000
# 6 0.0000 0.0000 0.0000 -1.5893 0.0000 23.4906
#
#
#
# Elastic Compliance Matrix: (Units=1/GPa)
#
#
# Indices 1 2 3 4 5 6 
#
# 1 0.011574 -0.005775 -0.000351 0.000000 0.003085 0.000000
# 2 -0.005775 0.020737 -0.010091 0.000000 0.002702 0.000000
# 3 -0.000351 -0.010091 0.014984 0.000000 -0.002908 0.000000
# 4 0.000000 0.000000 0.000000 0.026229 0.000000 0.001775
# 5 0.003085 0.002702 -0.002908 0.000000 0.034443 0.000000
# 6 0.000000 0.000000 0.000000 0.001775 0.000000 0.042690
#
#
# Mechanical properties :
#
#
# Convention : Reuss Voigt Hill
#
# Bulk Modulus (GPa) = 67.28390 68.44158 67.86274
# Shear Modulus (GPa) = 26.58937 29.92864 28.25900
#
# Velocity S-wave (km/s) = 3.43570 3.64506 3.54193
# Velocity P-wave (km/s) = 6.75341 6.93535 6.84499
#
# Compressibility (1/GPa) = 0.01486240
#
# Stress axis : x y z
#
# Youngs Moduli (GPa) = 86.39784 48.22304 66.73675
#
# Poissons Ratio (x) = 0.27849 0.02341
# Poissons Ratio (y) = 0.49895 0.67343
# Poissons Ratio (z) = 0.03030 0.48661
#
# Static dielectric constant tensor:
#      x y z
#    x 4.218150 0.000000 0.061770 
#    y 0.000000 3.859450 0.000000 
#    z 0.061770 0.000000 4.008280 
# 
# 
# High freq. dielectric constant tensor:
#      x y z
#    x 1.906350 0.000000 0.009920 
#    y 0.000000 1.867690 0.000000 
#    z 0.009920 0.000000 1.892720 
# 
# From -- ./inp_files/159221.got.cif
#   From: 2010.06.25/outbox.cif.g09.slc.cpg/sg15_80_cif.got.tgz:159221.got - 2010.06.28 07:06:18.
