data_PCOD8147429
_publ_section_title
;
Structure prediction by ZEFSAII (Michael W. Deem and Ramdas Pophale) SiO2 
 PCOD8147429
Probable space group: C 2/C
;
_chemical_formula_sum "Si O2"
_cell_formula_units_Z 40
_cell_length_a 15.813878
_cell_length_b 8.216402
_cell_length_c 13.609407
_cell_angle_alpha 90.000000
_cell_angle_beta 101.987175
_cell_angle_gamma 90.000000
_cell_volume 1729.753872
_symmetry_space_group_name_H-M "C 2/C"
_symmetry_group_IT_number 15
_symmetry_cell_setting 'monoclinic'
loop_
_space_group_symop_operation_xyz
x,y,z
-x,y,1/2-z
-x,-y,-z
x,-y,1/2+z
1/2+x,1/2+y,z
1/2-x,1/2+y,1/2-z
1/2-x,1/2-y,-z
1/2+x,1/2-y,1/2+z
loop_
_atom_site_type_symbol
_atom_site_label
_atom_site_fract_x
_atom_site_fract_y
_atom_site_fract_z
Si Si1 0.819018 0.423295 0.887820
Si Si2 0.967859 0.097198 0.348944
Si Si3 0.182746 0.376295 0.939593
Si Si4 0.005355 0.752412 0.059520
Si Si5 0.717933 0.724447 0.209405
O O1 0.751715 0.288057 0.830360
O O2 0.801451 0.592032 0.825479
O O3 0.917850 0.370268 0.895004
O O4 0.800140 0.452358 0.999551
O O5 0.000000 0.157437 0.250000
O O6 0.012564 0.202514 0.445779
O O7 0.865348 0.114314 0.328876
O O8 0.990279 0.909279 0.369976
O O9 0.084277 0.333601 0.938660
O O10 0.203631 0.370158 0.829394
O O11 0.250000 0.250000 0.000000
#
# Coordination Sequence:
#
# PCOD8147429 Si02
#       5
#     8   8   8   8   8
#     4  11  24  43  72 104 138 179 236 281 350 413
#     4  11  26  43  71 102 141 182 239 281 347 412
#     4  10  22  43  71  97 140 181 225 281 352 411
#     4  11  24  46  72 100 141 188 229 289 349 411
#     4  11  25  45  71 103 141 185 233 283 353 417
#
# _framework density 23.124676999999998
#
# number of rings (size 3 to 8) (size 9 to 14) (size 15 to 20)
#    0.000    1.200    4.000    1.800    8.400    1.600 
#    0.000    3.000    0.000    0.000    0.000    0.000 
#    0.000    0.000    0.000    0.000    0.000    0.000 
#
# Total GULP energy -247890.107244 kJ/mol
# GULP energy per Si atom -12394.505362 kJ/mol
# Density = 2.307204 g / cm^3
# Si number density = 23.124677 Si / 1000 Ang^3
#
#
#
# Elastic Constant Matrix: (Units=GPa)
#
#
# Indices 1 2 3 4 5 6 
#
# 1 77.7233 42.2279 52.6710 0.0000 14.1642 0.0000
# 2 42.2279 70.9711 53.4507 0.0000 2.2183 0.0000
# 3 52.6710 53.4507 103.0844 0.0000 3.4990 0.0000
# 4 0.0000 0.0000 0.0000 43.9294 0.0000 10.3725
# 5 14.1642 2.2183 3.4990 0.0000 43.1241 0.0000
# 6 0.0000 0.0000 0.0000 10.3725 0.0000 29.5314
#
#
#
# Elastic Compliance Matrix: (Units=1/GPa)
#
#
# Indices 1 2 3 4 5 6 
#
# 1 0.023705 -0.008112 -0.007677 0.000000 -0.006746 0.000000
# 2 -0.008112 0.025896 -0.009354 0.000000 0.002091 0.000000
# 3 -0.007677 -0.009354 0.018422 0.000000 0.001508 0.000000
# 4 0.000000 0.000000 0.000000 0.024822 0.000000 -0.008719
# 5 -0.006746 0.002091 0.001508 0.000000 0.025175 0.000000
# 6 0.000000 0.000000 0.000000 -0.008719 0.000000 0.036925
#
#
# Mechanical properties :
#
#
# Convention : Reuss Voigt Hill
#
# Bulk Modulus (GPa) = 56.37551 60.94199 58.65875
# Shear Modulus (GPa) = 23.68054 30.21225 26.94640
#
# Velocity S-wave (km/s) = 3.20353 3.61847 3.41730
# Velocity P-wave (km/s) = 6.17376 6.62334 6.40250
#
# Compressibility (1/GPa) = 0.01773820
#
# Stress axis : x y z
#
# Youngs Moduli (GPa) = 42.18435 38.61584 54.28223
#
# Poissons Ratio (x) = 0.31325 0.41673
# Poissons Ratio (y) = 0.34220 0.50774
# Poissons Ratio (z) = 0.32385 0.36120
#
# Static dielectric constant tensor:
#      x y z
#    x 10.338150 0.000000 -3.063520 
#    y 0.000000 4.121520 0.000000 
#    z -3.063520 0.000000 6.309140 
# 
# 
# High freq. dielectric constant tensor:
#      x y z
#    x 1.911880 0.000000 0.011570 
#    y 0.000000 1.904600 0.000000 
#    z 0.011570 0.000000 1.931900 
# 
# From -- ./inp_files/150797.got.cif
#   From: 2010.06.25/outbox.cif.g09.slc.cpg/sg15_76_cif.got.tgz:150797.got - 2010.06.28 07:06:18.
