data_PCOD8147770
_publ_section_title
;
Structure prediction by ZEFSAII (Michael W. Deem and Ramdas Pophale) SiO2 
 PCOD8147770
Probable space group: C 2/C
;
_chemical_formula_sum "Si O2"
_cell_formula_units_Z 52
_cell_length_a 13.548312
_cell_length_b 14.129382
_cell_length_c 15.901359
_cell_angle_alpha 90.000000
_cell_angle_beta 56.967704
_cell_angle_gamma 90.000000
_cell_volume 2551.966261
_symmetry_space_group_name_H-M "C 2/C"
_symmetry_group_IT_number 15
_symmetry_cell_setting 'monoclinic'
loop_
_space_group_symop_operation_xyz
x,y,z
-x,y,1/2-z
-x,-y,-z
x,-y,1/2+z
1/2+x,1/2+y,z
1/2-x,1/2+y,1/2-z
1/2-x,1/2-y,-z
1/2+x,1/2-y,1/2+z
loop_
_atom_site_type_symbol
_atom_site_label
_atom_site_fract_x
_atom_site_fract_y
_atom_site_fract_z
Si Si1 0.500000 0.120257 0.250000
Si Si2 0.421807 0.408481 0.040434
Si Si3 0.088201 0.673489 0.868108
Si Si4 0.779669 0.169076 0.282133
Si Si5 0.624369 0.717633 0.090135
Si Si6 0.017121 0.279420 0.913518
Si Si7 0.795512 0.495234 0.275792
O O1 0.524212 0.188320 0.159234
O O2 0.385011 0.056041 0.290847
O O3 0.479922 0.334802 0.079790
O O4 0.286445 0.430417 0.127364
O O5 0.500000 0.500000 0.000000
O O6 0.425568 0.364761 0.945846
O O7 0.187949 0.751573 0.801626
O O8 0.130523 0.569552 0.822303
O O9 0.967681 0.695523 0.872929
O O10 0.069213 0.674296 0.977360
O O11 0.869483 0.178318 0.318092
O O12 0.647134 0.183521 0.375337
O O13 0.789918 0.064938 0.236981
O O14 0.750000 0.750000 0.000000
#
# Coordination Sequence:
#
# PCOD8147770 Si02
#       7
#     4   8   8   8   8   8   8
#     4  10  26  40  64  96 130 172 216 266 322 398
#     4  11  23  43  65  95 131 172 213 267 325 392
#     4  11  22  39  70  93 127 169 212 277 321 374
#     4  11  22  41  62  97 127 163 213 270 322 378
#     4  11  21  39  66  91 127 166 212 264 329 372
#     4  10  22  45  62  90 137 166 210 269 333 376
#     4  11  24  39  66  96 128 169 225 259 321 396
#
# _framework density 20.376445
#
# number of rings (size 3 to 8) (size 9 to 14) (size 15 to 20)
#    0.000    1.231    4.615    2.308    4.308    3.692 
#    2.769    6.923    0.000    0.000    0.000    0.000 
#    0.000    0.000    0.000    0.000    0.000    0.000 
#
# Total GULP energy -322472.034345 kJ/mol
# GULP energy per Si atom -12402.770552 kJ/mol
# Density = 2.033007 g / cm^3
# Si number density = 20.376445 Si / 1000 Ang^3
#
#
#
# Elastic Constant Matrix: (Units=GPa)
#
#
# Indices 1 2 3 4 5 6 
#
# 1 94.0236 47.9720 45.3815 0.0000 22.6474 0.0000
# 2 47.9720 121.7863 41.5405 0.0000 13.6190 0.0000
# 3 45.3815 41.5405 112.8961 0.0000 18.2242 0.0000
# 4 0.0000 0.0000 0.0000 39.8933 0.0000 -8.3935
# 5 22.6474 13.6190 18.2242 0.0000 40.8712 0.0000
# 6 0.0000 0.0000 0.0000 -8.3935 0.0000 33.4774
#
#
#
# Elastic Compliance Matrix: (Units=1/GPa)
#
#
# Indices 1 2 3 4 5 6 
#
# 1 0.016159 -0.004373 -0.003961 0.000000 -0.005731 0.000000
# 2 -0.004373 0.010685 -0.002145 0.000000 -0.000181 0.000000
# 3 -0.003961 -0.002145 0.011605 0.000000 -0.002265 0.000000
# 4 0.000000 0.000000 0.000000 0.026463 0.000000 0.006635
# 5 -0.005731 -0.000181 -0.002265 0.000000 0.028713 0.000000
# 6 0.000000 0.000000 0.000000 0.006635 0.000000 0.031534
#
#
# Mechanical properties :
#
#
# Convention : Reuss Voigt Hill
#
# Bulk Modulus (GPa) = 57.17203 66.49933 61.83568
# Shear Modulus (GPa) = 32.90598 35.76918 34.33758
#
# Velocity S-wave (km/s) = 4.02294 4.19432 4.10952
# Velocity P-wave (km/s) = 7.04965 7.49417 7.27531
#
# Compressibility (1/GPa) = 0.01749107
#
# Stress axis : x y z
#
# Youngs Moduli (GPa) = 61.88424 93.58513 86.17098
#
# Poissons Ratio (x) = 0.40926 0.34136
# Poissons Ratio (y) = 0.27063 0.18480
# Poissons Ratio (z) = 0.24515 0.20071
#
# Static dielectric constant tensor:
#      x y z
#    x 3.854700 0.000000 0.182100 
#    y 0.000000 3.784040 0.000000 
#    z 0.182100 0.000000 4.152160 
# 
# 
# High freq. dielectric constant tensor:
#      x y z
#    x 1.781450 0.000000 -0.008840 
#    y 0.000000 1.798180 0.000000 
#    z -0.008840 0.000000 1.814030 
# 
# From -- ./inp_files/204992.got.cif
#   From: 2010.06.25/outbox.cif.g09.slc.cpg/sg15_103_cif.got.tgz:204992.got - 2010.06.28 07:06:18.
