data_PCOD8147541
_publ_section_title
;
Structure prediction by ZEFSAII (Michael W. Deem and Ramdas Pophale) SiO2 
 PCOD8147541
Probable space group: C 2/C
;
_chemical_formula_sum "Si O2"
_cell_formula_units_Z 56
_cell_length_a 27.721063
_cell_length_b 11.902556
_cell_length_c 21.982385
_cell_angle_alpha 90.000000
_cell_angle_beta 161.243985
_cell_angle_gamma 90.000000
_cell_volume 2332.160360
_symmetry_space_group_name_H-M "C 2/C"
_symmetry_group_IT_number 15
_symmetry_cell_setting 'monoclinic'
loop_
_space_group_symop_operation_xyz
x,y,z
-x,y,1/2-z
-x,-y,-z
x,-y,1/2+z
1/2+x,1/2+y,z
1/2-x,1/2+y,1/2-z
1/2-x,1/2-y,-z
1/2+x,1/2-y,1/2+z
loop_
_atom_site_type_symbol
_atom_site_label
_atom_site_fract_x
_atom_site_fract_y
_atom_site_fract_z
Si Si1 0.018516 0.954446 0.374852
Si Si2 0.102714 0.798662 0.973578
Si Si3 0.228071 0.622554 0.584875
Si Si4 0.936470 0.327609 0.375149
Si Si5 0.500000 0.727133 0.750000
Si Si6 0.183643 0.652409 0.266246
Si Si7 0.000000 0.370619 0.250000
Si Si8 0.437286 0.015408 0.279134
O O1 0.175871 0.917264 0.594367
O O2 0.872131 0.954571 0.242265
O O3 0.978851 0.855629 0.280754
O O4 0.046746 0.079625 0.381929
O O5 0.006328 0.771083 0.917949
O O6 0.090344 0.707725 0.904446
O O7 0.271824 0.792087 0.200214
O O8 0.281406 0.716142 0.696245
O O9 0.141300 0.687235 0.425901
O O10 0.112700 0.540910 0.481135
O O11 0.911885 0.435240 0.304972
O O12 0.034178 0.366642 0.549165
O O13 0.157870 0.622120 0.308827
O O14 0.112595 0.452976 0.344304
#
# Coordination Sequence:
#
# PCOD8147541 Si02
#       8
#     8   8   8   8   4   8   4   8
#     4  11  24  42  70 104 137 188 236 295 353 423
#     4  11  26  48  71 107 140 190 239 299 351 420
#     4  11  25  42  68 105 136 185 235 294 358 418
#     4  11  27  46  73 102 144 188 240 292 360 422
#     4  10  22  44  66 100 144 182 236 296 354 428
#     4  11  24  47  71 103 143 185 239 291 362 420
#     4  10  26  48  72 102 144 182 244 286 360 418
#     4  11  24  46  71 101 142 192 225 295 361 417
#
# _framework density 24.012070999999999
#
# number of rings (size 3 to 8) (size 9 to 14) (size 15 to 20)
#    0.000    1.143    1.429    3.429    8.000    5.714 
#    2.571    1.429    0.000    0.000    0.000    0.000 
#    0.000    0.000    0.000    0.000    0.000    0.000 
#
# Total GULP energy -346881.483037 kJ/mol
# GULP energy per Si atom -12388.624394 kJ/mol
# Density = 2.395742 g / cm^3
# Si number density = 24.012071 Si / 1000 Ang^3
#
#
#
# Elastic Constant Matrix: (Units=GPa)
#
#
# Indices 1 2 3 4 5 6 
#
# 1 60.4743 22.1429 26.0627 0.0008 14.9146 0.0012
# 2 22.1429 100.4163 17.3315 0.0001 10.4570 0.0004
# 3 26.0627 17.3315 103.9902 0.0022 28.7725 0.0027
# 4 0.0008 0.0001 0.0022 27.3115 0.0011 17.2280
# 5 14.9146 10.4570 28.7725 0.0011 48.4852 0.0012
# 6 0.0012 0.0004 0.0027 17.2280 0.0012 22.5749
#
#
#
# Elastic Compliance Matrix: (Units=1/GPa)
#
#
# Indices 1 2 3 4 5 6 
#
# 1 0.020167 -0.003486 -0.003547 0.000000 -0.003347 -0.000001
# 2 -0.003486 0.010940 -0.000710 0.000000 -0.000866 0.000000
# 3 -0.003547 -0.000710 0.012299 0.000000 -0.006054 -0.000001
# 4 0.000000 0.000000 0.000000 0.070601 0.000000 -0.053879
# 5 -0.003347 -0.000866 -0.006054 0.000000 0.025434 0.000000
# 6 -0.000001 0.000000 -0.000001 -0.053879 0.000000 0.085415
#
#
# Mechanical properties :
#
#
# Convention : Reuss Voigt Hill
#
# Bulk Modulus (GPa) = 35.81896 43.99502 39.90699
# Shear Modulus (GPa) = 20.02817 32.96390 26.49603
#
# Velocity S-wave (km/s) = 2.89119 3.70916 3.32542
# Velocity P-wave (km/s) = 5.10830 6.05852 5.60359
#
# Compressibility (1/GPa) = 0.02791818
#
# Stress axis : x y z
#
# Youngs Moduli (GPa) = 49.58707 91.40780 81.30905
#
# Poissons Ratio (x) = 0.31866 0.28843
# Poissons Ratio (y) = 0.17287 0.05773
# Poissons Ratio (z) = 0.17590 0.06490
#
# Static dielectric constant tensor:
#      x y z
#    x 4.250990 0.000000 0.141980 
#    y 0.000000 4.653680 0.000000 
#    z 0.141980 0.000000 4.358460 
# 
# 
# High freq. dielectric constant tensor:
#      x y z
#    x 1.930070 0.000000 0.017460 
#    y 0.000000 1.977540 0.000000 
#    z 0.017460 0.000000 1.946950 
# 
# From -- ./inp_files/284661.got.cif
#   From: 2010.06.25/outbox.cif.g09.slc.cpg/sg15_143_cif.got.tgz:284661.got - 2010.06.28 07:06:18.
