data_PCOD8147259
_publ_section_title
;
Structure prediction by ZEFSAII (Michael W. Deem and Ramdas Pophale) SiO2 
 PCOD8147259
Probable space group: C 2/C
;
_chemical_formula_sum "Si O2"
_cell_formula_units_Z 56
_cell_length_a 12.447906
_cell_length_b 14.389190
_cell_length_c 14.240364
_cell_angle_alpha 90.000000
_cell_angle_beta 84.437610
_cell_angle_gamma 90.000000
_cell_volume 2538.656374
_symmetry_space_group_name_H-M "C 2/C"
_symmetry_group_IT_number 15
_symmetry_cell_setting 'monoclinic'
loop_
_space_group_symop_operation_xyz
x,y,z
-x,y,1/2-z
-x,-y,-z
x,-y,1/2+z
1/2+x,1/2+y,z
1/2-x,1/2+y,1/2-z
1/2-x,1/2-y,-z
1/2+x,1/2-y,1/2+z
loop_
_atom_site_type_symbol
_atom_site_label
_atom_site_fract_x
_atom_site_fract_y
_atom_site_fract_z
Si Si1 0.087494 0.713640 0.081360
Si Si2 0.789178 0.478698 0.702731
Si Si3 0.000000 0.845880 0.750000
Si Si4 0.500000 0.915234 0.750000
Si Si5 0.236599 0.121142 0.546960
Si Si6 0.626932 0.528215 0.378670
Si Si7 0.379694 0.670993 0.556489
Si Si8 0.796637 0.207317 0.360224
O O1 0.170807 0.795557 0.102605
O O2 0.066321 0.649161 0.172497
O O3 0.975211 0.754448 0.053580
O O4 0.143827 0.654280 0.993696
O O5 0.748526 0.540329 0.620708
O O6 0.723454 0.502171 0.802054
O O7 0.774235 0.371247 0.681186
O O8 0.917319 0.486795 0.707558
O O9 0.965460 0.913122 0.666677
O O10 0.903478 0.777203 0.788076
O O11 0.170633 0.088237 0.461327
O O12 0.576190 0.430872 0.419419
O O13 0.278144 0.701214 0.630910
O O14 0.332831 0.669340 0.457153
#
# Coordination Sequence:
#
# PCOD8147259 Si02
#       8
#     8   8   4   4   8   8   8   8
#     4  11  26  43  72 101 136 182 228 288 342 412
#     4  11  24  45  70 100 135 184 225 292 338 413
#     4  10  24  41  67 100 134 172 218 292 333 399
#     4  12  24  47  69 104 140 182 232 284 347 413
#     4  11  25  48  71  98 141 182 234 278 350 414
#     4  11  24  44  69 101 133 174 233 281 341 408
#     4  11  23  42  69  96 130 178 222 277 338 407
#     4  10  22  43  65  95 134 172 220 274 343 397
#
# _framework density 22.058913
#
# number of rings (size 3 to 8) (size 9 to 14) (size 15 to 20)
#    0.000    1.143    4.286    0.857    6.000    1.714 
#   10.286    0.000    0.000    0.000    0.000    0.000 
#    0.000    0.000    0.000    0.000    0.000    0.000 
#
# Total GULP energy -347211.523952 kJ/mol
# GULP energy per Si atom -12400.411570 kJ/mol
# Density = 2.200871 g / cm^3
# Si number density = 22.058913 Si / 1000 Ang^3
#
#
#
# Elastic Constant Matrix: (Units=GPa)
#
#
# Indices 1 2 3 4 5 6 
#
# 1 94.0991 -2.0557 4.8241 0.0000 -4.6497 0.0000
# 2 -2.0557 43.3975 -1.8730 0.0000 -4.3453 0.0000
# 3 4.8241 -1.8730 48.3762 0.0000 4.4891 0.0000
# 4 0.0000 0.0000 0.0000 18.2214 0.0000 0.8078
# 5 -4.6497 -4.3453 4.4891 0.0000 36.8831 0.0000
# 6 0.0000 0.0000 0.0000 0.8078 0.0000 17.0450
#
#
#
# Elastic Compliance Matrix: (Units=1/GPa)
#
#
# Indices 1 2 3 4 5 6 
#
# 1 0.010780 0.000617 -0.001197 0.000000 0.001577 0.000000
# 2 0.000617 0.023374 0.000587 0.000000 0.002760 0.000000
# 3 -0.001197 0.000587 0.021059 0.000000 -0.002645 0.000000
# 4 0.000000 0.000000 0.000000 0.054996 0.000000 -0.002606
# 5 0.001577 0.002760 -0.002645 0.000000 0.027959 0.000000
# 6 0.000000 0.000000 0.000000 -0.002606 0.000000 0.058792
#
#
# Mechanical properties :
#
#
# Convention : Reuss Voigt Hill
#
# Bulk Modulus (GPa) = 18.10735 20.85147 19.47941
# Shear Modulus (GPa) = 23.21758 26.76174 24.98966
#
# Velocity S-wave (km/s) = 3.24779 3.48687 3.36945
# Velocity P-wave (km/s) = 4.72129 5.06796 4.89769
#
# Compressibility (1/GPa) = 0.05522619
#
# Stress axis : x y z
#
# Youngs Moduli (GPa) = 92.76516 42.78304 47.48581
#
# Poissons Ratio (x) = -0.02639 0.05686
# Poissons Ratio (y) = -0.05723 -0.02789
# Poissons Ratio (z) = 0.11108 -0.02513
#
# Static dielectric constant tensor:
#      x y z
#    x 4.174010 0.000000 -0.175350 
#    y 0.000000 3.850220 0.000000 
#    z -0.175350 0.000000 4.017970 
# 
# 
# High freq. dielectric constant tensor:
#      x y z
#    x 1.883360 0.000000 -0.004900 
#    y 0.000000 1.856960 0.000000 
#    z -0.004900 0.000000 1.873180 
# 
# From -- ./inp_files/144284.got.cif
#   From: 2010.06.25/outbox.cif.g09.slc.cpg/sg15_73_cif.got.tgz:144284.got - 2010.06.28 07:06:18.
