data_PCOD8147659
_publ_section_title
;
Structure prediction by ZEFSAII (Michael W. Deem and Ramdas Pophale) SiO2 
 PCOD8147659
Probable space group: C 2/C
;
_chemical_formula_sum "Si O2"
_cell_formula_units_Z 40
_cell_length_a 13.795356
_cell_length_b 14.370099
_cell_length_c 8.856612
_cell_angle_alpha 90.000000
_cell_angle_beta 107.562128
_cell_angle_gamma 90.000000
_cell_volume 1673.905865
_symmetry_space_group_name_H-M "C 2/C"
_symmetry_group_IT_number 15
_symmetry_cell_setting 'monoclinic'
loop_
_space_group_symop_operation_xyz
x,y,z
-x,y,1/2-z
-x,-y,-z
x,-y,1/2+z
1/2+x,1/2+y,z
1/2-x,1/2+y,1/2-z
1/2-x,1/2-y,-z
1/2+x,1/2-y,1/2+z
loop_
_atom_site_type_symbol
_atom_site_label
_atom_site_fract_x
_atom_site_fract_y
_atom_site_fract_z
Si Si1 0.858474 0.748651 0.428574
Si Si2 0.757647 0.562583 0.331442
Si Si3 0.320639 0.408655 0.016453
Si Si4 0.812979 0.632679 0.785757
Si Si5 0.500000 0.683149 0.750000
Si Si6 0.500000 0.226642 0.750000
O O1 0.832889 0.639026 0.437166
O O2 0.757493 0.812904 0.371982
O O3 0.924421 0.753051 0.308884
O O4 0.924160 0.784201 0.604738
O O5 0.692101 0.517150 0.437049
O O6 0.814935 0.479477 0.265461
O O7 0.689781 0.610346 0.167464
O O8 0.237033 0.347273 0.071799
O O9 0.435753 0.381841 0.108116
O O10 0.929124 0.665623 0.829171
#
# Coordination Sequence:
#
# PCOD8147659 Si02
#       6
#     8   8   8   8   4   4
#     4  11  25  43  70 100 138 175 235 274 345 396
#     4  10  22  44  69  93 141 179 214 293 326 404
#     4   9  22  43  65  96 139 174 226 278 336 397
#     4   9  24  44  62 102 133 175 228 277 337 404
#     4  10  24  43  65 106 130 184 228 273 341 414
#     4  12  24  41  71  98 136 180 222 283 343 408
#
# _framework density 23.896204999999998
#
# number of rings (size 3 to 8) (size 9 to 14) (size 15 to 20)
#    1.200    0.800    0.000    1.800    5.600    4.000 
#    0.000    1.000    0.000    0.000    0.000    0.000 
#    0.000    0.000    0.000    0.000    0.000    0.000 
#
# Total GULP energy -247810.029132 kJ/mol
# GULP energy per Si atom -12390.501457 kJ/mol
# Density = 2.384182 g / cm^3
# Si number density = 23.896205 Si / 1000 Ang^3
#
#
#
# Elastic Constant Matrix: (Units=GPa)
#
#
# Indices 1 2 3 4 5 6 
#
# 1 113.0591 24.0370 13.8314 0.0000 9.9524 0.0000
# 2 24.0370 93.5206 9.5982 0.0000 3.6248 0.0000
# 3 13.8314 9.5982 127.8469 0.0000 12.1405 0.0000
# 4 0.0000 0.0000 0.0000 21.2761 0.0000 2.3862
# 5 9.9524 3.6248 12.1405 0.0000 23.8295 0.0000
# 6 0.0000 0.0000 0.0000 2.3862 0.0000 13.0867
#
#
#
# Elastic Compliance Matrix: (Units=1/GPa)
#
#
# Indices 1 2 3 4 5 6 
#
# 1 0.009704 -0.002305 -0.000552 0.000000 -0.003421 0.000000
# 2 -0.002305 0.011361 -0.000558 0.000000 -0.000481 0.000000
# 3 -0.000552 -0.000558 0.008295 0.000000 -0.003911 0.000000
# 4 0.000000 0.000000 0.000000 0.047982 0.000000 -0.008749
# 5 -0.003421 -0.000481 -0.003911 0.000000 0.045459 0.000000
# 6 0.000000 0.000000 0.000000 -0.008749 0.000000 0.078009
#
#
# Mechanical properties :
#
#
# Convention : Reuss Voigt Hill
#
# Bulk Modulus (GPa) = 44.38462 47.70663 46.04563
# Shear Modulus (GPa) = 23.23971 30.76913 27.00442
#
# Velocity S-wave (km/s) = 3.12192 3.59223 3.36530
# Velocity P-wave (km/s) = 5.62223 6.10024 5.86610
#
# Compressibility (1/GPa) = 0.02253033
#
# Stress axis : x y z
#
# Youngs Moduli (GPa) = 103.05446 88.01934 120.55731
#
# Poissons Ratio (x) = 0.20287 0.06654
# Poissons Ratio (y) = 0.23752 0.06726
# Poissons Ratio (z) = 0.05688 0.04910
#
# Static dielectric constant tensor:
#      x y z
#    x 4.142720 0.000000 -0.066770 
#    y 0.000000 4.017200 0.000000 
#    z -0.066770 0.000000 4.191420 
# 
# 
# High freq. dielectric constant tensor:
#      x y z
#    x 1.940190 0.000000 -0.013280 
#    y 0.000000 1.927810 0.000000 
#    z -0.013280 0.000000 1.956360 
# 
# From -- ./inp_files/39444.got.cif
#   From: 2010.06.25/outbox.cif.g09.slc.cpg/sg15_20_cif.got.tgz:39444.got - 2010.06.28 07:06:18.
