data_PCOD8147083
_publ_section_title
;
Structure prediction by ZEFSAII (Michael W. Deem and Ramdas Pophale) SiO2 
 PCOD8147083
Probable space group: C 2/C
;
_chemical_formula_sum "Si O2"
_cell_formula_units_Z 56
_cell_length_a 15.184130
_cell_length_b 9.020057
_cell_length_c 22.000185
_cell_angle_alpha 90.000000
_cell_angle_beta 117.564519
_cell_angle_gamma 90.000000
_cell_volume 2671.157653
_symmetry_space_group_name_H-M "C 2/C"
_symmetry_group_IT_number 15
_symmetry_cell_setting 'monoclinic'
loop_
_space_group_symop_operation_xyz
x,y,z
-x,y,1/2-z
-x,-y,-z
x,-y,1/2+z
1/2+x,1/2+y,z
1/2-x,1/2+y,1/2-z
1/2-x,1/2-y,-z
1/2+x,1/2-y,1/2+z
loop_
_atom_site_type_symbol
_atom_site_label
_atom_site_fract_x
_atom_site_fract_y
_atom_site_fract_z
Si Si1 0.068283 0.813641 0.094803
Si Si2 0.978116 0.820790 0.655298
Si Si3 0.127568 0.330015 0.735478
Si Si4 0.342338 0.638557 0.355567
Si Si5 0.000000 0.579186 0.750000
Si Si6 0.500000 0.416977 0.250000
Si Si7 0.837684 0.826378 0.989623
Si Si8 0.660173 0.664152 0.500076
O O1 0.111598 0.703608 0.159396
O O2 0.117943 0.759724 0.047656
O O3 0.102683 0.980739 0.118307
O O4 0.947515 0.801407 0.053293
O O5 0.926843 0.831092 0.575164
O O6 0.091366 0.777442 0.673840
O O7 0.936693 0.689848 0.685677
O O8 0.966777 0.981242 0.683298
O O9 0.237814 0.372596 0.789139
O O10 0.068178 0.478368 0.730435
O O11 0.092777 0.187452 0.763000
O O12 0.336007 0.725407 0.418177
O O13 0.806613 0.997363 0.976870
O O14 0.750000 0.750000 0.000000
O O15 0.750000 0.750000 0.500000
#
# Coordination Sequence:
#
# PCOD8147083 Si02
#       8
#     8   8   8   8   4   4   8   8
#     4  11  23  49  69  99 138 180 229 280 334 415
#     4  11  22  44  66  97 136 179 226 275 346 408
#     4  11  25  42  68 101 135 177 230 285 340 398
#     4  11  23  40  69  98 134 179 228 274 343 406
#     4  10  28  40  64  98 144 168 224 292 336 396
#     4  10  22  42  70  92 134 178 230 270 338 418
#     4  11  24  44  73  99 134 183 232 279 340 404
#     4  11  24  43  69  97 135 182 225 280 343 402
#
# _framework density 20.964693
#
# number of rings (size 3 to 8) (size 9 to 14) (size 15 to 20)
#    0.000    1.143    4.286    0.857   12.000    1.143 
#    2.571    1.429    0.000    0.000    0.000    0.000 
#    0.000    0.000    0.000    0.000    0.000    0.000 
#
# Total GULP energy -347049.885427 kJ/mol
# GULP energy per Si atom -12394.638765 kJ/mol
# Density = 2.091698 g / cm^3
# Si number density = 20.964693 Si / 1000 Ang^3
#
#
#
# Elastic Constant Matrix: (Units=GPa)
#
#
# Indices 1 2 3 4 5 6 
#
# 1 138.3232 47.3721 60.0018 0.0000 -9.5702 0.0000
# 2 47.3721 90.1909 35.2648 0.0000 -10.3941 0.0000
# 3 60.0018 35.2648 136.9709 0.0000 -8.1271 0.0000
# 4 0.0000 0.0000 0.0000 27.6105 0.0000 -6.1422
# 5 -9.5702 -10.3941 -8.1271 0.0000 47.0752 0.0000
# 6 0.0000 0.0000 0.0000 -6.1422 0.0000 31.0169
#
#
#
# Elastic Compliance Matrix: (Units=1/GPa)
#
#
# Indices 1 2 3 4 5 6 
#
# 1 0.010070 -0.003901 -0.003371 0.000000 0.000604 0.000000
# 2 -0.003901 0.014069 -0.001794 0.000000 0.002004 0.000000
# 3 -0.003371 -0.001794 0.009270 0.000000 0.000519 0.000000
# 4 0.000000 0.000000 0.000000 0.037887 0.000000 0.007503
# 5 0.000604 0.002004 0.000519 0.000000 0.021897 0.000000
# 6 0.000000 0.000000 0.000000 0.007503 0.000000 0.033726
#
#
# Mechanical properties :
#
#
# Convention : Reuss Voigt Hill
#
# Bulk Modulus (GPa) = 65.46259 72.30692 68.88476
# Shear Modulus (GPa) = 33.30120 35.99693 34.64907
#
# Velocity S-wave (km/s) = 3.98985 4.14820 4.06979
# Velocity P-wave (km/s) = 7.24694 7.58341 7.41708
#
# Compressibility (1/GPa) = 0.01527590
#
# Stress axis : x y z
#
# Youngs Moduli (GPa) = 99.30970 71.07697 107.87238
#
# Poissons Ratio (x) = 0.27730 0.36362
# Poissons Ratio (y) = 0.38744 0.19356
# Poissons Ratio (z) = 0.33475 0.12754
#
# Static dielectric constant tensor:
#      x y z
#    x 4.000760 0.000000 -0.345910 
#    y 0.000000 3.672210 0.000000 
#    z -0.345910 0.000000 3.882370 
# 
# 
# High freq. dielectric constant tensor:
#      x y z
#    x 1.834420 0.000000 -0.017060 
#    y 0.000000 1.806200 0.000000 
#    z -0.017060 0.000000 1.833260 
# 
# From -- ./inp_files/273274.got.cif
#   From: 2010.06.25/outbox.cif.g09.slc.cpg/sg15_137_cif.got.tgz:273274.got - 2010.06.28 07:06:18.
