data_PCOD8147361
_publ_section_title
;
Structure prediction by ZEFSAII (Michael W. Deem and Ramdas Pophale) SiO2 
 PCOD8147361
Probable space group: C 2/C
;
_chemical_formula_sum "Si O2"
_cell_formula_units_Z 48
_cell_length_a 6.234413
_cell_length_b 28.430027
_cell_length_c 15.106479
_cell_angle_alpha 90.000000
_cell_angle_beta 124.008724
_cell_angle_gamma 90.000000
_cell_volume 2219.553897
_symmetry_space_group_name_H-M "C 2/C"
_symmetry_group_IT_number 15
_symmetry_cell_setting 'monoclinic'
loop_
_space_group_symop_operation_xyz
x,y,z
-x,y,1/2-z
-x,-y,-z
x,-y,1/2+z
1/2+x,1/2+y,z
1/2-x,1/2+y,1/2-z
1/2-x,1/2-y,-z
1/2+x,1/2-y,1/2+z
loop_
_atom_site_type_symbol
_atom_site_label
_atom_site_fract_x
_atom_site_fract_y
_atom_site_fract_z
Si Si1 0.000000 0.118908 0.250000
Si Si2 0.607887 0.320731 0.937849
Si Si3 0.264203 0.972525 0.054056
Si Si4 0.619314 0.772895 0.055428
Si Si5 0.000000 0.836180 0.250000
Si Si6 0.024933 0.889336 0.080008
Si Si7 0.033078 0.437857 0.582291
O O1 0.970227 0.149572 0.330689
O O2 0.266665 0.089543 0.309460
O O3 0.486988 0.269267 0.910499
O O4 0.572324 0.346643 0.023242
O O5 0.905719 0.311833 0.978748
O O6 0.241960 0.930050 0.118789
O O7 0.484590 0.011959 0.120498
O O8 0.308930 0.947328 0.970743
O O9 0.000000 0.000000 0.000000
O O10 0.791268 0.801357 0.162822
O O11 0.750000 0.750000 0.000000
O O12 0.910242 0.870432 0.307869
O O13 0.731874 0.909328 0.999637
#
# Coordination Sequence:
#
# PCOD8147361 Si02
#       7
#     4   8   8   8   4   8   8
#     4  12  24  40  73 106 136 188 236 279 352 430
#     4  11  26  44  70  99 142 179 234 289 349 416
#     4   9  20  44  69  92 142 180 223 303 347 401
#     4  11  26  48  66 102 141 181 230 295 348 421
#     4  12  26  42  75  98 138 186 238 281 362 422
#     4  11  23  45  70 100 136 188 234 295 346 425
#     4  10  22  43  69 102 142 179 236 292 349 422
#
# _framework density 21.625965999999998
#
# number of rings (size 3 to 8) (size 9 to 14) (size 15 to 20)
#    0.000    1.333    3.333    1.000    2.333    1.333 
#    0.000    9.167    0.000    0.000    0.000    0.000 
#    0.000    0.000    0.000    0.000    0.000    0.000 
#
# Total GULP energy -297393.686607 kJ/mol
# GULP energy per Si atom -12391.403609 kJ/mol
# Density = 2.157674 g / cm^3
# Si number density = 21.625966 Si / 1000 Ang^3
#
#
#
# Elastic Constant Matrix: (Units=GPa)
#
#
# Indices 1 2 3 4 5 6 
#
# 1 128.7139 65.0053 65.7684 0.0000 -5.2908 0.0000
# 2 65.0053 152.1225 80.0090 0.0000 -6.5996 0.0000
# 3 65.7684 80.0090 139.9836 0.0000 -9.1164 0.0000
# 4 0.0000 0.0000 0.0000 87.1118 0.0000 -34.2179
# 5 -5.2908 -6.5996 -9.1164 0.0000 34.4688 0.0000
# 6 0.0000 0.0000 0.0000 -34.2179 0.0000 81.0039
#
#
#
# Elastic Compliance Matrix: (Units=1/GPa)
#
#
# Indices 1 2 3 4 5 6 
#
# 1 0.011021 -0.002837 -0.003543 0.000000 0.000211 0.000000
# 2 -0.002837 0.010135 -0.004438 0.000000 0.000331 0.000000
# 3 -0.003543 -0.004438 0.011451 0.000000 0.001635 0.000000
# 4 0.000000 0.000000 0.000000 0.013763 0.000000 0.005814
# 5 0.000211 0.000331 0.001635 0.000000 0.029540 0.000000
# 6 0.000000 0.000000 0.000000 0.005814 0.000000 0.014801
#
#
# Mechanical properties :
#
#
# Convention : Reuss Voigt Hill
#
# Bulk Modulus (GPa) = 91.14721 93.59839 92.37280
# Shear Modulus (GPa) = 43.10230 54.51941 48.81086
#
# Velocity S-wave (km/s) = 4.46924 5.02642 4.75599
# Velocity P-wave (km/s) = 8.29884 8.77844 8.54201
#
# Compressibility (1/GPa) = 0.01097126
#
# Stress axis : x y z
#
# Youngs Moduli (GPa) = 90.73737 98.67277 87.32730
#
# Poissons Ratio (x) = 0.27994 0.30937
# Poissons Ratio (y) = 0.25742 0.38756
# Poissons Ratio (z) = 0.32145 0.43791
#
# Static dielectric constant tensor:
#      x y z
#    x 4.293320 0.000000 -0.006480 
#    y 0.000000 4.617590 0.000000 
#    z -0.006480 0.000000 3.572730 
# 
# 
# High freq. dielectric constant tensor:
#      x y z
#    x 1.864510 0.000000 -0.003470 
#    y 0.000000 1.886480 0.000000 
#    z -0.003470 0.000000 1.821850 
# 
# From -- ./inp_files/130951.got.cif
#   From: 2010.06.25/outbox.cif.g09.slc.cpg/sg15_66_cif.got.tgz:130951.got - 2010.06.28 07:06:18.
