data_PCOD8147656
_publ_section_title
;
Structure prediction by ZEFSAII (Michael W. Deem and Ramdas Pophale) SiO2 
 PCOD8147656
Probable space group: C 2/C
;
_chemical_formula_sum "Si O2"
_cell_formula_units_Z 56
_cell_length_a 29.037168
_cell_length_b 8.407098
_cell_length_c 13.813686
_cell_angle_alpha 90.000000
_cell_angle_beta 132.713008
_cell_angle_gamma 90.000000
_cell_volume 2477.740469
_symmetry_space_group_name_H-M "C 2/C"
_symmetry_group_IT_number 15
_symmetry_cell_setting 'monoclinic'
loop_
_space_group_symop_operation_xyz
x,y,z
-x,y,1/2-z
-x,-y,-z
x,-y,1/2+z
1/2+x,1/2+y,z
1/2-x,1/2+y,1/2-z
1/2-x,1/2-y,-z
1/2+x,1/2-y,1/2+z
loop_
_atom_site_type_symbol
_atom_site_label
_atom_site_fract_x
_atom_site_fract_y
_atom_site_fract_z
Si Si1 0.636471 0.521215 0.723512
Si Si2 0.143747 0.501902 0.367606
Si Si3 0.927786 0.089752 0.060050
Si Si4 0.632165 0.332003 0.421352
Si Si5 0.734619 0.977193 0.830336
Si Si6 0.566358 0.276866 0.733588
Si Si7 0.261964 0.846877 0.866755
O O1 0.614796 0.612431 0.595333
O O2 0.621253 0.631985 0.792868
O O3 0.597545 0.358711 0.684761
O O4 0.708518 0.475262 0.817075
O O5 0.129431 0.640761 0.424863
O O6 0.182466 0.576079 0.333415
O O7 0.079015 0.413358 0.241545
O O8 0.186240 0.364751 0.476600
O O9 0.900189 0.178070 0.115747
O O10 0.995267 0.163182 0.134121
O O11 0.923219 0.903470 0.088327
O O12 0.697999 0.402355 0.550679
O O13 0.710113 0.899337 0.696430
O O14 0.737134 0.167713 0.828427
#
# Coordination Sequence:
#
# PCOD8147656 Si02
#       7
#     8   8   8   8   8   8   8
#     4  11  21  40  66  94 130 180 226 274 342 408
#     4  12  25  41  63 102 140 177 226 285 346 410
#     4  10  22  44  69  92 127 177 239 278 337 397
#     4  11  24  40  66 101 136 179 225 278 346 414
#     4  12  24  41  62 101 147 179 221 273 349 420
#     4  10  23  44  66  92 128 181 227 287 334 399
#     4  12  24  37  66  99 140 183 220 276 349 413
#
# _framework density 22.601237999999999
#
# number of rings (size 3 to 8) (size 9 to 14) (size 15 to 20)
#    0.000    0.857    4.286    3.857    2.000    0.000 
#    0.000    6.429    0.000    0.000    0.000    3.000 
#    0.000    0.000    0.000    0.000    0.000    0.000 
#
# Total GULP energy -347017.880062 kJ/mol
# GULP energy per Si atom -12393.495716 kJ/mol
# Density = 2.254980 g / cm^3
# Si number density = 22.601238 Si / 1000 Ang^3
#
#
#
# Elastic Constant Matrix: (Units=GPa)
#
#
# Indices 1 2 3 4 5 6 
#
# 1 86.2725 24.9933 32.7897 0.0000 14.0843 0.0000
# 2 24.9933 74.5948 16.3782 0.0000 21.3280 0.0000
# 3 32.7897 16.3782 65.1856 0.0000 -3.9200 0.0000
# 4 0.0000 0.0000 0.0000 26.5481 0.0000 1.1152
# 5 14.0843 21.3280 -3.9200 0.0000 39.2034 0.0000
# 6 0.0000 0.0000 0.0000 1.1152 0.0000 29.8011
#
#
#
# Elastic Compliance Matrix: (Units=1/GPa)
#
#
# Indices 1 2 3 4 5 6 
#
# 1 0.016084 -0.002108 -0.007887 0.000000 -0.005421 0.000000
# 2 -0.002108 0.017606 -0.003918 0.000000 -0.009213 0.000000
# 3 -0.007887 -0.003918 0.020716 0.000000 0.007036 0.000000
# 4 0.000000 0.000000 0.000000 0.037727 0.000000 -0.001412
# 5 -0.005421 -0.009213 0.007036 0.000000 0.033171 0.000000
# 6 0.000000 0.000000 0.000000 -0.001412 0.000000 0.033609
#
#
# Mechanical properties :
#
#
# Convention : Reuss Voigt Hill
#
# Bulk Modulus (GPa) = 37.61995 41.59726 39.60860
# Shear Modulus (GPa) = 25.56266 29.23663 27.39964
#
# Velocity S-wave (km/s) = 3.36673 3.60055 3.48560
# Velocity P-wave (km/s) = 5.63865 5.97746 5.81053
#
# Compressibility (1/GPa) = 0.02658164
#
# Stress axis : x y z
#
# Youngs Moduli (GPa) = 62.17222 56.79819 48.27268
#
# Poissons Ratio (x) = 0.11971 0.38074
# Poissons Ratio (y) = 0.13103 0.18911
# Poissons Ratio (z) = 0.49036 0.22251
#
# Static dielectric constant tensor:
#      x y z
#    x 4.201180 0.000000 -0.308640 
#    y 0.000000 4.034700 0.000000 
#    z -0.308640 0.000000 4.002140 
# 
# 
# High freq. dielectric constant tensor:
#      x y z
#    x 1.892050 0.000000 -0.018040 
#    y 0.000000 1.888020 0.000000 
#    z -0.018040 0.000000 1.877430 
# 
# From -- ./inp_files/180870.got.cif
#   From: 2010.06.25/outbox.cif.g09.slc.cpg/sg15_91_cif.got.tgz:180870.got - 2010.06.28 07:06:18.
