data_PCOD8147601
_publ_section_title
;
Structure prediction by ZEFSAII (Michael W. Deem and Ramdas Pophale) SiO2 
 PCOD8147601
Probable space group: C 2/C
;
_chemical_formula_sum "Si O2"
_cell_formula_units_Z 52
_cell_length_a 8.000242
_cell_length_b 11.743966
_cell_length_c 25.187607
_cell_angle_alpha 90.000000
_cell_angle_beta 85.946445
_cell_angle_gamma 90.000000
_cell_volume 2360.570802
_symmetry_space_group_name_H-M "C 2/C"
_symmetry_group_IT_number 15
_symmetry_cell_setting 'monoclinic'
loop_
_space_group_symop_operation_xyz
x,y,z
-x,y,1/2-z
-x,-y,-z
x,-y,1/2+z
1/2+x,1/2+y,z
1/2-x,1/2+y,1/2-z
1/2-x,1/2-y,-z
1/2+x,1/2-y,1/2+z
loop_
_atom_site_type_symbol
_atom_site_label
_atom_site_fract_x
_atom_site_fract_y
_atom_site_fract_z
Si Si1 0.781763 0.083031 0.041474
Si Si2 0.000000 0.680497 0.250000
Si Si3 0.915276 0.194681 0.937666
Si Si4 0.724770 0.825907 0.052332
Si Si5 0.290522 0.318628 0.328286
Si Si6 0.004197 0.180557 0.372466
Si Si7 0.673395 0.559699 0.213847
O O1 0.634158 0.176808 0.044903
O O2 0.895586 0.092022 0.092058
O O3 0.696210 0.959180 0.039815
O O4 0.893062 0.105850 0.986621
O O5 0.044099 0.755476 0.197445
O O6 0.169039 0.612427 0.259244
O O7 0.808865 0.152954 0.890050
O O8 0.108597 0.190275 0.916451
O O9 0.568147 0.781138 0.089167
O O10 0.750000 0.750000 0.000000
O O11 0.127241 0.238467 0.326419
O O12 0.264171 0.431505 0.295230
O O13 0.859255 0.116494 0.343000
O O14 0.500000 0.564243 0.250000
#
# Coordination Sequence:
#
# PCOD8147601 Si02
#       7
#     8   4   8   8   8   8   8
#     4  10  23  44  65  97 144 178 230 285 336 415
#     4  12  26  48  70 104 134 178 238 286 362 418
#     4  10  22  44  67  96 140 186 225 286 343 411
#     4  12  24  38  66 103 137 184 232 277 340 411
#     4  11  25  46  72 101 136 183 232 289 353 416
#     4  11  25  45  68 102 136 183 232 282 351 419
#     4  12  26  47  76 100 138 180 231 298 352 417
#
# _framework density 22.028570999999999
#
# number of rings (size 3 to 8) (size 9 to 14) (size 15 to 20)
#    0.000    0.923    3.846    2.308    2.154    5.538 
#    2.769    0.000    0.000    0.000    0.000    0.000 
#    0.000    0.000    0.000    0.000    0.000    0.000 
#
# Total GULP energy -322416.992713 kJ/mol
# GULP energy per Si atom -12400.653566 kJ/mol
# Density = 2.197843 g / cm^3
# Si number density = 22.028571 Si / 1000 Ang^3
#
#
#
# Elastic Constant Matrix: (Units=GPa)
#
#
# Indices 1 2 3 4 5 6 
#
# 1 87.0633 33.7795 29.2378 0.0000 -9.6863 0.0000
# 2 33.7795 139.0999 50.2930 0.0000 -2.4314 0.0000
# 3 29.2378 50.2930 99.5658 0.0000 -8.1003 0.0000
# 4 0.0000 0.0000 0.0000 28.9100 0.0000 -4.5292
# 5 -9.6863 -2.4314 -8.1003 0.0000 39.0378 0.0000
# 6 0.0000 0.0000 0.0000 -4.5292 0.0000 20.6717
#
#
#
# Elastic Compliance Matrix: (Units=1/GPa)
#
#
# Indices 1 2 3 4 5 6 
#
# 1 0.013550 -0.002305 -0.002597 0.000000 0.002680 0.000000
# 2 -0.002305 0.009193 -0.004035 0.000000 -0.000837 0.000000
# 3 -0.002597 -0.004035 0.012991 0.000000 0.001800 0.000000
# 4 0.000000 0.000000 0.000000 0.035820 0.000000 0.007848
# 5 0.002680 -0.000837 0.001800 0.000000 0.026602 0.000000
# 6 0.000000 0.000000 0.000000 0.007848 0.000000 0.050095
#
#
# Mechanical properties :
#
#
# Convention : Reuss Voigt Hill
#
# Bulk Modulus (GPa) = 55.98788 61.37215 58.68002
# Shear Modulus (GPa) = 29.05660 31.88515 30.47087
#
# Velocity S-wave (km/s) = 3.63580 3.80866 3.72323
# Velocity P-wave (km/s) = 6.56480 6.87473 6.72155
#
# Compressibility (1/GPa) = 0.01786101
#
# Stress axis : x y z
#
# Youngs Moduli (GPa) = 73.79867 108.77839 76.97812
#
# Poissons Ratio (x) = 0.25072 0.19990
# Poissons Ratio (y) = 0.17010 0.31059
# Poissons Ratio (z) = 0.19164 0.43890
#
# Static dielectric constant tensor:
#      x y z
#    x 4.136940 0.000000 -0.156590 
#    y 0.000000 3.931620 0.000000 
#    z -0.156590 0.000000 4.020240 
# 
# 
# High freq. dielectric constant tensor:
#      x y z
#    x 1.867900 0.000000 -0.005170 
#    y 0.000000 1.868960 0.000000 
#    z -0.005170 0.000000 1.869060 
# 
# From -- ./inp_files/287615.got.cif
#   From: 2010.06.25/outbox.cif.g09.slc.cpg/sg15_144_cif.got.tgz:287615.got - 2010.06.28 07:06:18.
