data_PCOD8147336
_publ_section_title
;
Structure prediction by ZEFSAII (Michael W. Deem and Ramdas Pophale) SiO2 
 PCOD8147336
Probable space group: C 2/C
;
_chemical_formula_sum "Si O2"
_cell_formula_units_Z 52
_cell_length_a 8.491127
_cell_length_b 21.895471
_cell_length_c 15.879325
_cell_angle_alpha 90.000000
_cell_angle_beta 121.832930
_cell_angle_gamma 90.000000
_cell_volume 2508.192704
_symmetry_space_group_name_H-M "C 2/C"
_symmetry_group_IT_number 15
_symmetry_cell_setting 'monoclinic'
loop_
_space_group_symop_operation_xyz
x,y,z
-x,y,1/2-z
-x,-y,-z
x,-y,1/2+z
1/2+x,1/2+y,z
1/2-x,1/2+y,1/2-z
1/2-x,1/2-y,-z
1/2+x,1/2-y,1/2+z
loop_
_atom_site_type_symbol
_atom_site_label
_atom_site_fract_x
_atom_site_fract_y
_atom_site_fract_z
Si Si1 0.868795 0.229681 0.886786
Si Si2 0.181345 0.395357 0.352674
Si Si3 0.855395 0.846327 0.635886
Si Si4 0.856247 0.163783 0.430494
Si Si5 0.178713 0.460687 0.532735
Si Si6 0.500000 0.223699 0.250000
Si Si7 0.450550 0.450297 0.053421
O O1 0.715916 0.177531 0.863907
O O2 0.788481 0.290928 0.904692
O O3 0.908787 0.235311 0.797734
O O4 0.067150 0.217421 0.987197
O O5 0.163390 0.425932 0.438971
O O6 0.360874 0.422539 0.354560
O O7 0.000000 0.412113 0.250000
O O8 0.731289 0.907565 0.614085
O O9 0.000000 0.836669 0.750000
O O10 0.973733 0.850815 0.584220
O O11 0.663390 0.181113 0.332735
O O12 0.823732 0.102847 0.476063
O O13 0.334662 0.512807 0.589198
O O14 0.000000 0.500000 0.500000
O O15 0.500000 0.500000 0.000000
#
# Coordination Sequence:
#
# PCOD8147336 Si02
#       7
#     8   8   8   8   8   4   8
#     4  11  24  43  67  99 136 173 216 283 335 398
#     4  10  22  43  68  92 128 181 217 270 342 395
#     4  12  23  42  71  99 132 177 226 272 331 409
#     4  11  23  44  67  94 136 179 213 280 337 386
#     4  11  25  43  66  99 130 176 224 277 334 396
#     4  12  26  40  64 108 130 174 230 268 340 408
#     4   9  19  43  63  85 133 169 218 273 325 386
#
# _framework density 20.732059
#
# number of rings (size 3 to 8) (size 9 to 14) (size 15 to 20)
#    0.000    1.231    6.154    1.385    2.154    1.231 
#   11.077    0.000    0.000    0.000    0.000    0.000 
#    0.000    0.000    0.000    0.000    0.000    0.000 
#
# Total GULP energy -322188.473318 kJ/mol
# GULP energy per Si atom -12391.864358 kJ/mol
# Density = 2.068487 g / cm^3
# Si number density = 20.732059 Si / 1000 Ang^3
#
#
#
# Elastic Constant Matrix: (Units=GPa)
#
#
# Indices 1 2 3 4 5 6 
#
# 1 82.3372 55.5113 18.5175 0.0000 15.8346 0.0000
# 2 55.5113 165.7976 51.5678 0.0000 19.7971 0.0000
# 3 18.5175 51.5678 116.5933 0.0000 33.5153 0.0000
# 4 0.0000 0.0000 0.0000 18.6784 0.0000 2.5509
# 5 15.8346 19.7971 33.5153 0.0000 34.7745 0.0000
# 6 0.0000 0.0000 0.0000 2.5509 0.0000 31.7725
#
#
#
# Elastic Compliance Matrix: (Units=1/GPa)
#
#
# Indices 1 2 3 4 5 6 
#
# 1 0.016505 -0.005258 0.001389 0.000000 -0.005861 0.000000
# 2 -0.005258 0.008717 -0.003157 0.000000 0.000474 0.000000
# 3 0.001389 -0.003157 0.013027 0.000000 -0.011390 0.000000
# 4 0.000000 0.000000 0.000000 0.054131 0.000000 -0.004346
# 5 -0.005861 0.000474 -0.011390 0.000000 0.042133 0.000000
# 6 0.000000 0.000000 0.000000 -0.004346 0.000000 0.031823
#
#
# Mechanical properties :
#
#
# Convention : Reuss Voigt Hill
#
# Bulk Modulus (GPa) = 41.32753 68.43570 54.88161
# Shear Modulus (GPa) = 26.53174 32.98720 29.75947
#
# Velocity S-wave (km/s) = 3.58123 3.99321 3.79282
# Velocity P-wave (km/s) = 6.08915 7.37172 6.76092
#
# Compressibility (1/GPa) = 0.02419694
#
# Stress axis : x y z
#
# Youngs Moduli (GPa) = 60.58756 114.71546 76.76629
#
# Poissons Ratio (x) = 0.60321 -0.10663
# Poissons Ratio (y) = 0.31859 0.24232
# Poissons Ratio (z) = -0.08416 0.36212
#
# Static dielectric constant tensor:
#      x y z
#    x 2.496380 0.000000 -1.597900 
#    y 0.000000 4.456060 0.000000 
#    z -1.597900 0.000000 2.092160 
# 
# 
# High freq. dielectric constant tensor:
#      x y z
#    x 1.804950 0.000000 0.016160 
#    y 0.000000 1.827290 0.000000 
#    z 0.016160 0.000000 1.805300 
# 
# From -- ./inp_files/135975.got.cif
#   From: 2010.06.25/outbox.cif.g09.slc.cpg/sg15_68_cif.got.tgz:135975.got - 2010.06.28 07:06:18.
