data_PCOD8147351
_publ_section_title
;
Structure prediction by ZEFSAII (Michael W. Deem and Ramdas Pophale) SiO2 
 PCOD8147351
Probable space group: C 2/C
;
_chemical_formula_sum "Si O2"
_cell_formula_units_Z 44
_cell_length_a 6.414301
_cell_length_b 13.800837
_cell_length_c 21.777386
_cell_angle_alpha 90.000000
_cell_angle_beta 92.052713
_cell_angle_gamma 90.000000
_cell_volume 1926.556426
_symmetry_space_group_name_H-M "C 2/C"
_symmetry_group_IT_number 15
_symmetry_cell_setting 'monoclinic'
loop_
_space_group_symop_operation_xyz
x,y,z
-x,y,1/2-z
-x,-y,-z
x,-y,1/2+z
1/2+x,1/2+y,z
1/2-x,1/2+y,1/2-z
1/2-x,1/2-y,-z
1/2+x,1/2-y,1/2+z
loop_
_atom_site_type_symbol
_atom_site_label
_atom_site_fract_x
_atom_site_fract_y
_atom_site_fract_z
Si Si1 0.671109 0.252251 0.922290
Si Si2 0.066868 0.816783 0.473707
Si Si3 0.194316 0.796007 0.792367
Si Si4 0.158088 0.493326 0.199210
Si Si5 0.000000 0.858335 0.250000
Si Si6 0.583003 0.942728 0.060847
O O1 0.597854 0.300288 0.859057
O O2 0.558795 0.150989 0.933281
O O3 0.923529 0.237552 0.921508
O O4 0.602003 0.331819 0.972785
O O5 0.250000 0.750000 0.500000
O O6 0.173490 0.914690 0.449632
O O7 0.288634 0.899517 0.776310
O O8 0.362846 0.710650 0.791606
O O9 0.000000 0.766795 0.750000
O O10 0.361158 0.424739 0.203367
O O11 0.072247 0.497276 0.127444
O O12 0.000000 0.452738 0.250000
O O13 0.500000 0.000000 0.000000
#
# Coordination Sequence:
#
# PCOD8147351 Si02
#       6
#     8   8   8   8   4   8
#     4  10  22  43  68  97 140 183 237 295 356 427
#     4   9  21  41  66  97 129 182 228 280 357 415
#     4  12  26  46  75 106 141 194 243 303 372 434
#     4  12  27  48  72 110 143 191 250 300 367 442
#     4  12  24  50  76 100 150 192 250 308 364 434
#     4  11  25  43  68 104 144 186 235 296 364 432
#
# _framework density 22.838676
#
# number of rings (size 3 to 8) (size 9 to 14) (size 15 to 20)
#    0.000    1.091    1.818    3.818    7.636    3.636 
#    3.273    0.000    0.000    0.000    0.000    0.000 
#    0.000    0.000    0.000    0.000    0.000    0.000 
#
# Total GULP energy -272601.246948 kJ/mol
# GULP energy per Si atom -12390.965770 kJ/mol
# Density = 2.278669 g / cm^3
# Si number density = 22.838676 Si / 1000 Ang^3
#
#
#
# Elastic Constant Matrix: (Units=GPa)
#
#
# Indices 1 2 3 4 5 6 
#
# 1 133.5662 41.1660 47.1541 0.0000 8.8686 0.0000
# 2 41.1660 91.2942 23.5515 0.0000 -0.7793 0.0000
# 3 47.1541 23.5515 156.7624 0.0000 4.1449 0.0000
# 4 0.0000 0.0000 0.0000 32.8087 0.0000 -2.7133
# 5 8.8686 -0.7793 4.1449 0.0000 28.8305 0.0000
# 6 0.0000 0.0000 0.0000 -2.7133 0.0000 39.3900
#
#
#
# Elastic Compliance Matrix: (Units=1/GPa)
#
#
# Indices 1 2 3 4 5 6 
#
# 1 0.009632 -0.003784 -0.002256 0.000000 -0.002741 0.000000
# 2 -0.003784 0.012891 -0.000842 0.000000 0.001634 0.000000
# 3 -0.002256 -0.000842 0.007194 0.000000 -0.000363 0.000000
# 4 0.000000 0.000000 0.000000 0.030654 0.000000 0.002112
# 5 -0.002741 0.001634 -0.000363 0.000000 0.035625 0.000000
# 6 0.000000 0.000000 0.000000 0.002112 0.000000 0.025533
#
#
# Mechanical properties :
#
#
# Convention : Reuss Voigt Hill
#
# Bulk Modulus (GPa) = 62.68711 67.26286 64.97499
# Shear Modulus (GPa) = 35.55921 38.18926 36.87423
#
# Velocity S-wave (km/s) = 3.95013 4.09361 4.02251
# Velocity P-wave (km/s) = 6.95069 7.20130 7.07710
#
# Compressibility (1/GPa) = 0.01595224
#
# Stress axis : x y z
#
# Youngs Moduli (GPa) = 103.82221 77.57274 139.00908
#
# Poissons Ratio (x) = 0.29357 0.31363
# Poissons Ratio (y) = 0.39292 0.11698
# Poissons Ratio (z) = 0.23425 0.06528
#
# Static dielectric constant tensor:
#      x y z
#    x 4.609230 0.000000 -0.130880 
#    y 0.000000 4.044250 0.000000 
#    z -0.130880 0.000000 4.179760 
# 
# 
# High freq. dielectric constant tensor:
#      x y z
#    x 1.910070 0.000000 0.003870 
#    y 0.000000 1.888810 0.000000 
#    z 0.003870 0.000000 1.912820 
# 
# From -- ./inp_files/260401.got.cif
#   From: 2010.06.25/outbox.cif.g09.slc.cpg/sg15_131_cif.got.tgz:260401.got - 2010.06.28 07:06:18.
