data_PCOD8147887
_publ_section_title
;
Structure prediction by ZEFSAII (Michael W. Deem and Ramdas Pophale) SiO2 
 PCOD8147887
Probable space group: C 2/C
;
_chemical_formula_sum "Si O2"
_cell_formula_units_Z 60
_cell_length_a 15.774971
_cell_length_b 12.050566
_cell_length_c 15.456389
_cell_angle_alpha 90.000000
_cell_angle_beta 103.607089
_cell_angle_gamma 90.000000
_cell_volume 2855.748063
_symmetry_space_group_name_H-M "C 2/C"
_symmetry_group_IT_number 15
_symmetry_cell_setting 'monoclinic'
loop_
_space_group_symop_operation_xyz
x,y,z
-x,y,1/2-z
-x,-y,-z
x,-y,1/2+z
1/2+x,1/2+y,z
1/2-x,1/2+y,1/2-z
1/2-x,1/2-y,-z
1/2+x,1/2-y,1/2+z
loop_
_atom_site_type_symbol
_atom_site_label
_atom_site_fract_x
_atom_site_fract_y
_atom_site_fract_z
Si Si1 0.770007 0.000007 0.084260
Si Si2 0.645073 0.841199 0.137303
Si Si3 0.144318 0.641702 0.943201
Si Si4 0.500000 0.415852 0.750000
Si Si5 0.995118 0.489292 0.844105
Si Si6 0.032228 0.049461 0.918054
Si Si7 0.500206 0.784150 0.528509
Si Si8 0.824928 0.198986 0.193899
O O1 0.771237 0.084646 0.167384
O O2 0.727050 0.884618 0.102221
O O3 0.865488 0.972942 0.070838
O O4 0.712958 0.053840 0.995291
O O5 0.689078 0.758132 0.217517
O O6 0.596981 0.947579 0.167381
O O7 0.577572 0.775158 0.060290
O O8 0.198604 0.721656 0.892546
O O9 0.071694 0.578220 0.870475
O O10 0.094960 0.713860 0.005314
O O11 0.477937 0.493411 0.827063
O O12 0.574627 0.330693 0.791884
O O13 0.000000 0.435266 0.750000
O O14 0.008322 0.397151 0.920017
O O15 0.008689 0.179613 0.910324
O O16 0.000000 0.000000 0.000000
#
# Coordination Sequence:
#
# PCOD8147887 Si02
#       8
#     8   8   8   4   8   8   8   8
#     4  11  24  44  60  98 134 164 221 278 317 397
#     4  11  21  43  62  97 130 166 217 266 327 385
#     4  11  20  42  67  95 122 166 224 261 318 396
#     4  10  22  46  64  92 128 164 232 256 310 408
#     4  11  20  38  67  94 127 163 216 269 319 387
#     4  11  25  46  66  92 129 178 218 267 335 394
#     4  11  22  39  70  91 129 171 207 272 329 389
#     4  11  22  39  67  88 124 174 212 262 318 379
#
# _framework density 21.010255999999998
#
# number of rings (size 3 to 8) (size 9 to 14) (size 15 to 20)
#    0.000    1.067    4.000    5.200    0.933    0.533 
#   14.400    0.000    0.000    0.000    0.000    0.000 
#    0.000    0.000    0.000    0.000    0.000    0.000 
#
# Total GULP energy -372018.892721 kJ/mol
# GULP energy per Si atom -12400.629757 kJ/mol
# Density = 2.096244 g / cm^3
# Si number density = 21.010256 Si / 1000 Ang^3
#
#
#
# Elastic Constant Matrix: (Units=GPa)
#
#
# Indices 1 2 3 4 5 6 
#
# 1 54.0284 5.6438 2.3749 0.0000 -3.3458 0.0000
# 2 5.6438 83.9337 19.1342 0.0000 -9.0092 0.0000
# 3 2.3749 19.1342 93.0679 0.0000 -11.9104 0.0000
# 4 0.0000 0.0000 0.0000 35.1218 0.0000 -2.2772
# 5 -3.3458 -9.0092 -11.9104 0.0000 21.4954 0.0000
# 6 0.0000 0.0000 0.0000 -2.2772 0.0000 17.1772
#
#
#
# Elastic Compliance Matrix: (Units=1/GPa)
#
#
# Indices 1 2 3 4 5 6 
#
# 1 0.018768 -0.001002 0.000051 0.000000 0.002529 0.000000
# 2 -0.001002 0.012900 -0.002104 0.000000 0.004085 0.000000
# 3 0.000051 -0.002104 0.011909 0.000000 0.005725 0.000000
# 4 0.000000 0.000000 0.000000 0.028719 0.000000 0.003807
# 5 0.002529 0.004085 0.005725 0.000000 0.051799 0.000000
# 6 0.000000 0.000000 0.000000 0.003807 0.000000 0.058721
#
#
# Mechanical properties :
#
#
# Convention : Reuss Voigt Hill
#
# Bulk Modulus (GPa) = 26.69077 31.70399 29.19738
# Shear Modulus (GPa) = 24.82440 28.35069 26.58755
#
# Velocity S-wave (km/s) = 3.44108 3.67737 3.56118
# Velocity P-wave (km/s) = 5.34035 5.75788 5.55304
#
# Compressibility (1/GPa) = 0.03746614
#
# Stress axis : x y z
#
# Youngs Moduli (GPa) = 53.28257 77.52179 83.97234
#
# Poissons Ratio (x) = 0.07768 -0.00427
# Poissons Ratio (y) = 0.05339 0.17666
# Poissons Ratio (z) = -0.00271 0.16309
#
# Static dielectric constant tensor:
#      x y z
#    x 3.694580 0.000000 0.061040 
#    y 0.000000 3.918560 0.000000 
#    z 0.061040 0.000000 3.946270 
# 
# 
# High freq. dielectric constant tensor:
#      x y z
#    x 1.810180 0.000000 0.008030 
#    y 0.000000 1.826240 0.000000 
#    z 0.008030 0.000000 1.827480 
# 
# From -- ./inp_files/160950.got.cif
#   From: 2010.06.25/outbox.cif.g09.slc.cpg/sg15_81_cif.got.tgz:160950.got - 2010.06.28 07:06:18.
