data_PCOD8147856
_publ_section_title
;
Structure prediction by ZEFSAII (Michael W. Deem and Ramdas Pophale) SiO2 
 PCOD8147856
Probable space group: C 2/C
;
_chemical_formula_sum "Si O2"
_cell_formula_units_Z 52
_cell_length_a 8.570360
_cell_length_b 22.852083
_cell_length_c 13.837016
_cell_angle_alpha 90.000000
_cell_angle_beta 117.341291
_cell_angle_gamma 90.000000
_cell_volume 2407.245302
_symmetry_space_group_name_H-M "C 2/C"
_symmetry_group_IT_number 15
_symmetry_cell_setting 'monoclinic'
loop_
_space_group_symop_operation_xyz
x,y,z
-x,y,1/2-z
-x,-y,-z
x,-y,1/2+z
1/2+x,1/2+y,z
1/2-x,1/2+y,1/2-z
1/2-x,1/2-y,-z
1/2+x,1/2-y,1/2+z
loop_
_atom_site_type_symbol
_atom_site_label
_atom_site_fract_x
_atom_site_fract_y
_atom_site_fract_z
Si Si1 0.619389 0.443284 0.539650
Si Si2 0.677798 0.884867 0.744629
Si Si3 0.918999 0.167602 0.931844
Si Si4 0.469824 0.156548 0.638221
Si Si5 0.335117 0.729590 0.358780
Si Si6 0.000000 0.792005 0.250000
Si Si7 0.464292 0.067002 0.013022
O O1 0.500000 0.500000 0.500000
O O2 0.712043 0.436371 0.670702
O O3 0.473992 0.395777 0.479676
O O4 0.771377 0.433684 0.503942
O O5 0.500000 0.869279 0.750000
O O6 0.800446 0.826365 0.777637
O O7 0.623150 0.908145 0.624152
O O8 0.731606 0.175847 0.929420
O O9 0.915420 0.170668 0.813753
O O10 0.052012 0.214877 0.014566
O O11 0.500000 0.124850 0.750000
O O12 0.576565 0.217090 0.672313
O O13 0.538634 0.110140 0.579275
O O14 0.146379 0.751628 0.342028
O O15 0.500000 0.000000 0.000000
#
# Coordination Sequence:
#
# PCOD8147856 Si02
#       7
#     8   8   8   8   8   4   8
#     4  10  22  45  72 101 133 179 233 293 351 418
#     4   9  21  43  70  98 133 176 232 287 351 420
#     4  11  25  42  65  99 140 180 232 290 347 427
#     4  12  26  44  65 101 144 184 233 287 348 421
#     4  11  23  41  69 100 134 182 229 290 357 417
#     4  12  22  40  68  98 134 180 230 286 356 416
#     4  11  25  45  71 101 136 188 232 290 355 420
#
# _framework density 21.601455000000001
#
# number of rings (size 3 to 8) (size 9 to 14) (size 15 to 20)
#    0.000    1.231    2.308    2.769    2.154    4.308 
#    0.000    5.385    0.000    0.000    0.000    0.000 
#    0.000    0.000    0.000    0.000    0.000    0.000 
#
# Total GULP energy -322212.042761 kJ/mol
# GULP energy per Si atom -12392.770875 kJ/mol
# Density = 2.155229 g / cm^3
# Si number density = 21.601455 Si / 1000 Ang^3
#
#
#
# Elastic Constant Matrix: (Units=GPa)
#
#
# Indices 1 2 3 4 5 6 
#
# 1 116.7869 53.5755 54.3346 0.0000 15.1466 0.0000
# 2 53.5755 122.9476 69.4700 0.0000 0.6666 0.0000
# 3 54.3346 69.4700 144.2895 0.0000 -0.9345 0.0000
# 4 0.0000 0.0000 0.0000 30.6511 0.0000 10.1031
# 5 15.1466 0.6666 -0.9345 0.0000 39.9963 0.0000
# 6 0.0000 0.0000 0.0000 10.1031 0.0000 38.4247
#
#
#
# Elastic Compliance Matrix: (Units=1/GPa)
#
#
# Indices 1 2 3 4 5 6 
#
# 1 0.012168 -0.003670 -0.002845 0.000000 -0.004613 0.000000
# 2 -0.003670 0.012284 -0.004525 0.000000 0.001079 0.000000
# 3 -0.002845 -0.004525 0.010190 0.000000 0.001391 0.000000
# 4 0.000000 0.000000 0.000000 0.035721 0.000000 -0.009392
# 5 -0.004613 0.001079 0.001391 0.000000 0.026764 0.000000
# 6 0.000000 0.000000 0.000000 -0.009392 0.000000 0.028495
#
#
# Mechanical properties :
#
#
# Convention : Reuss Voigt Hill
#
# Bulk Modulus (GPa) = 79.61014 82.08711 80.84863
# Shear Modulus (GPa) = 32.91889 35.59066 34.25477
#
# Velocity S-wave (km/s) = 3.90798 4.06347 3.98648
# Velocity P-wave (km/s) = 7.56949 7.75235 7.66147
#
# Compressibility (1/GPa) = 0.01256121
#
# Stress axis : x y z
#
# Youngs Moduli (GPa) = 82.18218 81.40825 98.13869
#
# Poissons Ratio (x) = 0.29875 0.27922
# Poissons Ratio (y) = 0.30159 0.44411
# Poissons Ratio (z) = 0.23382 0.36840
#
# Static dielectric constant tensor:
#      x y z
#    x 3.930060 0.000000 0.229110 
#    y 0.000000 3.925820 0.000000 
#    z 0.229110 0.000000 4.214930 
# 
# 
# High freq. dielectric constant tensor:
#      x y z
#    x 1.853260 0.000000 0.021500 
#    y 0.000000 1.845610 0.000000 
#    z 0.021500 0.000000 1.857940 
# 
# From -- ./inp_files/137520.got.cif
#   From: 2010.06.25/outbox.cif.g09.slc.cpg/sg15_69_cif.got.tgz:137520.got - 2010.06.28 07:06:18.
