data_PCOD8147991
_publ_section_title
;
Structure prediction by ZEFSAII (Michael W. Deem and Ramdas Pophale) SiO2 
 PCOD8147991
Probable space group: C 2/C
;
_chemical_formula_sum "Si O2"
_cell_formula_units_Z 56
_cell_length_a 12.155261
_cell_length_b 24.015125
_cell_length_c 11.637317
_cell_angle_alpha 90.000000
_cell_angle_beta 48.750546
_cell_angle_gamma 90.000000
_cell_volume 2554.059148
_symmetry_space_group_name_H-M "C 2/C"
_symmetry_group_IT_number 15
_symmetry_cell_setting 'monoclinic'
loop_
_space_group_symop_operation_xyz
x,y,z
-x,y,1/2-z
-x,-y,-z
x,-y,1/2+z
1/2+x,1/2+y,z
1/2-x,1/2+y,1/2-z
1/2-x,1/2-y,-z
1/2+x,1/2-y,1/2+z
loop_
_atom_site_type_symbol
_atom_site_label
_atom_site_fract_x
_atom_site_fract_y
_atom_site_fract_z
Si Si1 0.084135 0.266887 0.585099
Si Si2 0.833949 0.505670 0.855689
Si Si3 0.717196 0.128494 0.551534
Si Si4 0.263335 0.423697 0.392561
Si Si5 0.883623 0.983537 0.674522
Si Si6 0.000000 0.888834 0.750000
Si Si7 0.070658 0.350105 0.383068
Si Si8 0.500000 0.334146 0.250000
O O1 0.250000 0.250000 0.500000
O O2 0.075106 0.299533 0.470985
O O3 0.000000 0.299747 0.750000
O O4 0.997504 0.206955 0.639005
O O5 0.750850 0.562041 0.952216
O O6 0.779115 0.484706 0.768996
O O7 0.000000 0.524751 0.750000
O O8 0.812347 0.451349 0.947206
O O9 0.875433 0.149913 0.395855
O O10 0.596017 0.138747 0.537520
O O11 0.670136 0.160675 0.700488
O O12 0.385170 0.466535 0.264121
O O13 0.134457 0.407041 0.393234
O O14 0.350194 0.367945 0.363669
O O15 0.916990 0.925178 0.710458
O O16 0.000000 0.000000 0.500000
#
# Coordination Sequence:
#
# PCOD8147991 Si02
#       8
#     8   8   8   8   8   4   8   4
#     4  10  22  47  75 103 138 174 230 320 375 424
#     4  12  24  38  59 103 147 195 235 281 349 427
#     4  11  23  41  66 100 149 200 238 288 347 435
#     4  12  22  38  66  97 135 185 231 285 356 428
#     4  12  21  38  59  91 147 191 238 280 335 422
#     4  12  23  40  60  98 150 206 246 287 342 416
#     4  11  22  44  69  98 145 189 242 297 367 431
#     4  10  23  42  70 102 132 170 234 301 376 408
#
# _framework density 21.925882000000001
#
# number of rings (size 3 to 8) (size 9 to 14) (size 15 to 20)
#    0.429    0.286    7.143    1.286    2.000    1.714 
#    0.000    2.857    0.000   13.714    0.000    2.000 
#    0.000    0.000    0.000    0.000    0.000    0.000 
#
# Total GULP energy -346871.272606 kJ/mol
# GULP energy per Si atom -12388.259736 kJ/mol
# Density = 2.187598 g / cm^3
# Si number density = 21.925882 Si / 1000 Ang^3
#
#
#
# Elastic Constant Matrix: (Units=GPa)
#
#
# Indices 1 2 3 4 5 6 
#
# 1 120.8921 20.8889 46.6958 0.0000 2.2960 0.0000
# 2 20.8889 65.5129 39.9347 0.0000 6.4626 0.0000
# 3 46.6958 39.9347 140.5021 0.0000 -9.7341 0.0000
# 4 0.0000 0.0000 0.0000 29.5168 0.0000 1.2984
# 5 2.2960 6.4626 -9.7341 0.0000 33.4944 0.0000
# 6 0.0000 0.0000 0.0000 1.2984 0.0000 26.5740
#
#
#
# Elastic Compliance Matrix: (Units=1/GPa)
#
#
# Indices 1 2 3 4 5 6 
#
# 1 0.009641 -0.001133 -0.002972 0.000000 -0.001306 0.000000
# 2 -0.001133 0.019525 -0.005540 0.000000 -0.005300 0.000000
# 3 -0.002972 -0.005540 0.009969 0.000000 0.004170 0.000000
# 4 0.000000 0.000000 0.000000 0.033952 0.000000 -0.001659
# 5 -0.001306 -0.005300 0.004170 0.000000 0.032180 0.000000
# 6 0.000000 0.000000 0.000000 -0.001659 0.000000 0.037712
#
#
# Mechanical properties :
#
#
# Convention : Reuss Voigt Hill
#
# Bulk Modulus (GPa) = 50.39534 60.21621 55.30578
# Shear Modulus (GPa) = 29.60606 32.54290 31.07448
#
# Velocity S-wave (km/s) = 3.67860 3.85674 3.76872
# Velocity P-wave (km/s) = 6.40914 6.88155 6.64954
#
# Compressibility (1/GPa) = 0.01984310
#
# Stress axis : x y z
#
# Youngs Moduli (GPa) = 103.72814 51.21523 100.31286
#
# Poissons Ratio (x) = 0.05804 0.29818
# Poissons Ratio (y) = 0.11754 0.55576
# Poissons Ratio (z) = 0.30833 0.28375
#
# Static dielectric constant tensor:
#      x y z
#    x 4.113550 0.000000 -0.078170 
#    y 0.000000 2.407960 0.000000 
#    z -0.078170 0.000000 4.085260 
# 
# 
# High freq. dielectric constant tensor:
#      x y z
#    x 1.868950 0.000000 -0.010550 
#    y 0.000000 1.827190 0.000000 
#    z -0.010550 0.000000 1.870670 
# 
# From -- ./inp_files/92020.got.cif
#   From: 2010.06.25/outbox.cif.g09.slc.cpg/sg15_47_cif.got.tgz:92020.got - 2010.06.28 07:06:18.
