data_PCOD8147132
_publ_section_title
;
Structure prediction by ZEFSAII (Michael W. Deem and Ramdas Pophale) SiO2 
 PCOD8147132
Probable space group: C 2/C
;
_chemical_formula_sum "Si O2"
_cell_formula_units_Z 40
_cell_length_a 18.773965
_cell_length_b 8.722156
_cell_length_c 10.159187
_cell_angle_alpha 90.000000
_cell_angle_beta 80.442928
_cell_angle_gamma 90.000000
_cell_volume 1640.472248
_symmetry_space_group_name_H-M "C 2/C"
_symmetry_group_IT_number 15
_symmetry_cell_setting 'monoclinic'
loop_
_space_group_symop_operation_xyz
x,y,z
-x,y,1/2-z
-x,-y,-z
x,-y,1/2+z
1/2+x,1/2+y,z
1/2-x,1/2+y,1/2-z
1/2-x,1/2-y,-z
1/2+x,1/2-y,1/2+z
loop_
_atom_site_type_symbol
_atom_site_label
_atom_site_fract_x
_atom_site_fract_y
_atom_site_fract_z
Si Si1 0.000000 0.484530 0.250000
Si Si2 0.967349 0.759646 0.545973
Si Si3 0.000000 0.996571 0.750000
Si Si4 0.269320 0.676675 0.633287
Si Si5 0.699333 0.684329 0.400384
Si Si6 0.085624 0.256231 0.788005
O O1 0.982589 0.391133 0.125446
O O2 0.927252 0.590227 0.295598
O O3 0.883389 0.786479 0.535146
O O4 0.998568 0.901179 0.617910
O O5 0.014069 0.745996 0.401599
O O6 0.075044 0.095759 0.712915
O O7 0.250000 0.750000 0.500000
O O8 0.281667 0.494949 0.622704
O O9 0.210075 0.722050 0.760768
O O10 0.340971 0.765513 0.656465
O O11 0.750000 0.750000 0.500000
#
# Coordination Sequence:
#
# PCOD8147132 Si02
#       6
#     4   8   4   8   8   8
#     4  10  26  42  72 110 144 178 240 306 368 432
#     4  11  25  44  75 103 140 187 245 298 365 429
#     4  10  22  42  72 102 136 174 252 294 360 416
#     4  12  30  49  76 109 155 199 247 306 374 444
#     4  12  30  49  76 109 155 199 247 306 374 444
#     4  11  25  44  75 103 140 187 245 298 365 429
#
# _framework density 24.383223000000001
#
# number of rings (size 3 to 8) (size 9 to 14) (size 15 to 20)
#    0.000    0.800    2.000    2.400   16.800    0.000 
#    0.000    0.000    0.000    0.000    0.000    0.000 
#    0.000    0.000    0.000    0.000    0.000    0.000 
#
# Total GULP energy -247856.975917 kJ/mol
# GULP energy per Si atom -12392.848796 kJ/mol
# Density = 2.432773 g / cm^3
# Si number density = 24.383223 Si / 1000 Ang^3
#
#
#
# Elastic Constant Matrix: (Units=GPa)
#
#
# Indices 1 2 3 4 5 6 
#
# 1 148.3757 32.0802 22.1665 0.0000 16.0773 0.0000
# 2 32.0802 155.0262 15.9434 0.0000 13.2919 0.0000
# 3 22.1665 15.9434 78.1091 0.0000 1.8409 0.0000
# 4 0.0000 0.0000 0.0000 -22.2991 0.0000 -21.5088
# 5 16.0773 13.2919 1.8409 0.0000 54.4607 0.0000
# 6 0.0000 0.0000 0.0000 -21.5088 0.0000 18.9257
#
#
#
# Elastic Compliance Matrix: (Units=1/GPa)
#
#
# Indices 1 2 3 4 5 6 
#
# 1 0.007473 -0.001199 -0.001832 0.000000 -0.001852 0.000000
# 2 -0.001199 0.006917 -0.001041 0.000000 -0.001299 0.000000
# 3 -0.001832 -0.001041 0.013527 0.000000 0.000338 0.000000
# 4 0.000000 0.000000 0.000000 -0.021393 0.000000 -0.024313
# 5 -0.001852 -0.001299 0.000338 0.000000 0.019214 0.000000
# 6 0.000000 0.000000 0.000000 -0.024313 0.000000 0.025207
#
#
# Mechanical properties :
#
#
# Convention : Reuss Voigt Hill
#
# Bulk Modulus (GPa) = 50.57577 57.98789 54.28183
# Shear Modulus (GPa) = 76.12551 30.97218 53.54884
#
# Velocity S-wave (km/s) = 5.59359 3.56789 4.69138
# Velocity P-wave (km/s) = 7.90599 6.38801 7.18719
#
# Compressibility (1/GPa) = 0.01977231
#
# Stress axis : x y z
#
# Youngs Moduli (GPa) = 133.80925 144.56869 73.92543
#
# Poissons Ratio (x) = 0.17338 0.13546
# Poissons Ratio (y) = 0.16048 0.07695
# Poissons Ratio (z) = 0.24519 0.15049
#
# Static dielectric constant tensor:
#      x y z
#    x 4.549610 0.000000 0.177720 
#    y 0.000000 5.204450 0.000000 
#    z 0.177720 0.000000 4.517650 
# 
# 
# High freq. dielectric constant tensor:
#      x y z
#    x 1.972810 0.000000 0.027850 
#    y 0.000000 1.998050 0.000000 
#    z 0.027850 0.000000 1.981450 
# 
# From -- ./inp_files/102744.got.cif
#   From: 2010.06.25/outbox.cif.g09.slc.cpg/sg15_52_cif.got.tgz:102744.got - 2010.06.28 07:06:18.
