data_PCOD8147788
_publ_section_title
;
Structure prediction by ZEFSAII (Michael W. Deem and Ramdas Pophale) SiO2 
 PCOD8147788
Probable space group: C 2/C
;
_chemical_formula_sum "Si O2"
_cell_formula_units_Z 48
_cell_length_a 24.624922
_cell_length_b 12.330349
_cell_length_c 12.839817
_cell_angle_alpha 90.000000
_cell_angle_beta 33.152632
_cell_angle_gamma 90.000000
_cell_volume 2132.034201
_symmetry_space_group_name_H-M "C 2/C"
_symmetry_group_IT_number 15
_symmetry_cell_setting 'monoclinic'
loop_
_space_group_symop_operation_xyz
x,y,z
-x,y,1/2-z
-x,-y,-z
x,-y,1/2+z
1/2+x,1/2+y,z
1/2-x,1/2+y,1/2-z
1/2-x,1/2-y,-z
1/2+x,1/2-y,1/2+z
loop_
_atom_site_type_symbol
_atom_site_label
_atom_site_fract_x
_atom_site_fract_y
_atom_site_fract_z
Si Si1 0.805433 0.553063 0.649399
Si Si2 0.416011 0.000714 0.277958
Si Si3 0.090851 0.374002 0.913593
Si Si4 0.107851 0.122974 0.861735
Si Si5 0.757248 0.636441 0.930950
Si Si6 0.937285 0.006966 0.253273
O O1 0.900525 0.557717 0.416949
O O2 0.811570 0.437977 0.701816
O O3 0.702018 0.559618 0.755955
O O4 0.815440 0.644516 0.725429
O O5 0.311157 0.943167 0.424656
O O6 0.439589 0.092783 0.154939
O O7 0.500331 0.906718 0.136760
O O8 0.118463 0.248971 0.869983
O O9 0.103725 0.096974 0.744754
O O10 0.005687 0.082283 0.072696
O O11 0.750000 0.750000 0.000000
O O12 0.650959 0.586570 0.069564
O O13 0.000000 0.962728 0.250000
#
# Coordination Sequence:
#
# PCOD8147788 Si02
#       6
#     8   8   8   8   8   8
#     4  11  23  41  67 104 137 184 238 294 344 435
#     4  10  22  45  65  96 143 181 241 297 347 433
#     4  10  24  44  68  98 142 191 234 300 364 417
#     4  11  24  42  70 103 136 187 239 289 360 432
#     4  11  23  41  68 104 142 187 234 293 357 428
#     4  11  23  44  67  99 142 178 233 299 353 428
#
# _framework density 22.513711000000001
#
# number of rings (size 3 to 8) (size 9 to 14) (size 15 to 20)
#    0.000    1.333    3.333    1.500    2.333    2.000 
#    0.000   10.000    0.000    0.000    0.000    0.000 
#    0.000    0.000    0.000    0.000    0.000    0.000 
#
# Total GULP energy -297468.018968 kJ/mol
# GULP energy per Si atom -12394.500790 kJ/mol
# Density = 2.246247 g / cm^3
# Si number density = 22.513711 Si / 1000 Ang^3
#
#
#
# Elastic Constant Matrix: (Units=GPa)
#
#
# Indices 1 2 3 4 5 6 
#
# 1 147.4332 65.1352 44.7980 0.0000 16.3696 0.0000
# 2 65.1352 119.1474 55.9030 0.0000 3.0655 0.0000
# 3 44.7980 55.9030 112.1362 0.0000 22.1572 0.0000
# 4 0.0000 0.0000 0.0000 26.1321 0.0000 2.3307
# 5 16.3696 3.0655 22.1572 0.0000 47.4774 0.0000
# 6 0.0000 0.0000 0.0000 2.3307 0.0000 26.9640
#
#
#
# Elastic Compliance Matrix: (Units=1/GPa)
#
#
# Indices 1 2 3 4 5 6 
#
# 1 0.009392 -0.004622 -0.000955 0.000000 -0.002494 0.000000
# 2 -0.004622 0.013410 -0.005489 0.000000 0.003289 0.000000
# 3 -0.000955 -0.005489 0.013109 0.000000 -0.005434 0.000000
# 4 0.000000 0.000000 0.000000 0.038564 0.000000 -0.003333
# 5 -0.002494 0.003289 -0.005434 0.000000 0.024246 0.000000
# 6 0.000000 0.000000 0.000000 -0.003333 0.000000 0.037375
#
#
# Mechanical properties :
#
#
# Convention : Reuss Voigt Hill
#
# Bulk Modulus (GPa) = 72.57024 78.93213 75.75118
# Shear Modulus (GPa) = 30.70833 34.30675 32.50754
#
# Velocity S-wave (km/s) = 3.69722 3.90784 3.80399
# Velocity P-wave (km/s) = 7.10842 7.44965 7.28104
#
# Compressibility (1/GPa) = 0.01377975
#
# Stress axis : x y z
#
# Youngs Moduli (GPa) = 106.47553 74.56847 76.28112
#
# Poissons Ratio (x) = 0.34466 0.07285
# Poissons Ratio (y) = 0.49214 0.41870
# Poissons Ratio (z) = 0.10168 0.40930
#
# Static dielectric constant tensor:
#      x y z
#    x 4.390880 0.000000 0.120080 
#    y 0.000000 3.651990 0.000000 
#    z 0.120080 0.000000 4.293170 
# 
# 
# High freq. dielectric constant tensor:
#      x y z
#    x 1.911790 0.000000 0.002290 
#    y 0.000000 1.844920 0.000000 
#    z 0.002290 0.000000 1.899350 
# 
# From -- ./inp_files/177733.got.cif
#   From: 2010.06.25/outbox.cif.g09.slc.cpg/sg15_89_cif.got.tgz:177733.got - 2010.06.28 07:06:18.
