data_PCOD8147484
_publ_section_title
;
Structure prediction by ZEFSAII (Michael W. Deem and Ramdas Pophale) SiO2 
 PCOD8147484
Probable space group: C 2/C
;
_chemical_formula_sum "Si O2"
_cell_formula_units_Z 48
_cell_length_a 31.413285
_cell_length_b 16.012690
_cell_length_c 15.480241
_cell_angle_alpha 90.000000
_cell_angle_beta 161.610599
_cell_angle_gamma 90.000000
_cell_volume 2456.508403
_symmetry_space_group_name_H-M "C 2/C"
_symmetry_group_IT_number 15
_symmetry_cell_setting 'monoclinic'
loop_
_space_group_symop_operation_xyz
x,y,z
-x,y,1/2-z
-x,-y,-z
x,-y,1/2+z
1/2+x,1/2+y,z
1/2-x,1/2+y,1/2-z
1/2-x,1/2-y,-z
1/2+x,1/2-y,1/2+z
loop_
_atom_site_type_symbol
_atom_site_label
_atom_site_fract_x
_atom_site_fract_y
_atom_site_fract_z
Si Si1 0.353223 0.807451 0.813307
Si Si2 0.384571 0.651125 0.965527
Si Si3 0.628128 0.015098 0.187925
Si Si4 0.074199 0.237465 0.723386
Si Si5 0.889627 0.068707 0.796336
Si Si6 0.390291 0.858908 0.468847
O O1 0.439084 0.741160 0.034465
O O2 0.197320 0.778429 0.527184
O O3 0.381404 0.803601 0.764421
O O4 0.387462 0.903050 0.904719
O O5 0.357197 0.587689 0.834093
O O6 0.247939 0.667443 0.753593
O O7 0.500000 0.613829 0.250000
O O8 0.756116 0.033934 0.494397
O O9 0.648562 0.934242 0.169202
O O10 0.500000 0.000000 0.000000
O O11 0.042075 0.149115 0.617237
O O12 0.946926 0.277069 0.528003
O O13 0.000000 0.000000 0.000000
O O14 0.500000 0.889972 0.750000
#
# Coordination Sequence:
#
# PCOD8147484 Si02
#       6
#     8   8   8   8   8   8
#     4   9  18  38  60  82 120 162 200 238 314 380
#     4  11  23  40  60  89 127 159 203 273 316 358
#     4  11  21  37  64  92 121 161 208 257 307 372
#     4   9  18  37  64  83 113 167 204 239 302 394
#     4  10  22  44  63  86 124 173 209 241 316 399
#     4  12  22  38  62  96 123 158 216 267 312 364
#
# _framework density 19.539929999999998
#
# number of rings (size 3 to 8) (size 9 to 14) (size 15 to 20)
#    0.000    1.667    3.333    3.000    0.000    0.667 
#    6.000    3.333    0.000    0.000    0.000    0.000 
#    0.000    0.000    0.000    0.000    0.000    0.000 
#
# Total GULP energy -297483.208586 kJ/mol
# GULP energy per Si atom -12395.133691 kJ/mol
# Density = 1.949546 g / cm^3
# Si number density = 19.539930 Si / 1000 Ang^3
#
#
#
# Elastic Constant Matrix: (Units=GPa)
#
#
# Indices 1 2 3 4 5 6 
#
# 1 107.4793 53.8444 53.8808 0.0000 8.2613 0.0000
# 2 53.8444 127.3992 50.5574 0.0000 5.0989 0.0000
# 3 53.8808 50.5574 105.9681 0.0000 2.6849 0.0000
# 4 0.0000 0.0000 0.0000 32.1472 0.0000 0.0318
# 5 8.2613 5.0989 2.6849 0.0000 39.0045 0.0000
# 6 0.0000 0.0000 0.0000 0.0318 0.0000 20.7713
#
#
#
# Elastic Compliance Matrix: (Units=1/GPa)
#
#
# Indices 1 2 3 4 5 6 
#
# 1 0.013980 -0.003731 -0.005275 0.000000 -0.002110 0.000000
# 2 -0.003731 0.010713 -0.003205 0.000000 -0.000390 0.000000
# 3 -0.005275 -0.003205 0.013633 0.000000 0.000598 0.000000
# 4 0.000000 0.000000 0.000000 0.031107 0.000000 -0.000048
# 5 -0.002110 -0.000390 0.000598 0.000000 0.026095 0.000000
# 6 0.000000 0.000000 0.000000 -0.000048 0.000000 0.048143
#
#
# Mechanical properties :
#
#
# Convention : Reuss Voigt Hill
#
# Bulk Modulus (GPa) = 71.91355 73.04573 72.47964
# Shear Modulus (GPa) = 28.94759 30.55552 29.75156
#
# Velocity S-wave (km/s) = 3.85315 3.95872 3.90629
# Velocity P-wave (km/s) = 7.52854 7.63932 7.58413
#
# Compressibility (1/GPa) = 0.01390558
#
# Stress axis : x y z
#
# Youngs Moduli (GPa) = 71.53292 93.34099 73.35383
#
# Poissons Ratio (x) = 0.34823 0.38692
# Poissons Ratio (y) = 0.26687 0.23507
# Poissons Ratio (z) = 0.37732 0.29912
#
# Static dielectric constant tensor:
#      x y z
#    x 3.877280 0.000000 -0.231910 
#    y 0.000000 3.743960 0.000000 
#    z -0.231910 0.000000 3.354510 
# 
# 
# High freq. dielectric constant tensor:
#      x y z
#    x 1.757320 0.000000 0.000240 
#    y 0.000000 1.768870 0.000000 
#    z 0.000240 0.000000 1.749880 
# 
# From -- ./inp_files/182522.got.cif
#   From: 2010.06.25/outbox.cif.g09.slc.cpg/sg15_92_cif.got.tgz:182522.got - 2010.06.28 07:06:18.
