data_PCOD8147519
_publ_section_title
;
Structure prediction by ZEFSAII (Michael W. Deem and Ramdas Pophale) SiO2 
 PCOD8147519
Probable space group: C 2/C
;
_chemical_formula_sum "Si O2"
_cell_formula_units_Z 36
_cell_length_a 6.700790
_cell_length_b 26.078454
_cell_length_c 11.346384
_cell_angle_alpha 90.000000
_cell_angle_beta 119.999176
_cell_angle_gamma 90.000000
_cell_volume 1717.115721
_symmetry_space_group_name_H-M "C 2/C"
_symmetry_group_IT_number 15
_symmetry_cell_setting 'monoclinic'
loop_
_space_group_symop_operation_xyz
x,y,z
-x,y,1/2-z
-x,-y,-z
x,-y,1/2+z
1/2+x,1/2+y,z
1/2-x,1/2+y,1/2-z
1/2-x,1/2-y,-z
1/2+x,1/2-y,1/2+z
loop_
_atom_site_type_symbol
_atom_site_label
_atom_site_fract_x
_atom_site_fract_y
_atom_site_fract_z
Si Si1 0.042733 0.706023 0.123398
Si Si2 0.632763 0.997857 0.914845
Si Si3 0.502978 0.584494 0.481670
Si Si4 0.940976 0.818347 0.098844
Si Si5 0.500000 0.643994 0.250000
O O1 0.282461 0.680196 0.156838
O O2 0.000000 0.704756 0.250000
O O3 0.036935 0.764728 0.073834
O O4 0.833689 0.675740 0.000640
O O5 0.500000 0.994552 0.750000
O O6 0.791937 0.947807 0.971878
O O7 0.771483 0.050357 0.954287
O O8 0.500000 0.000000 0.000000
O O9 0.567556 0.633657 0.578371
O O10 0.431812 0.605712 0.333620
O O11 0.000000 0.820933 0.250000
#
# Coordination Sequence:
#
# PCOD8147519 Si02
#       5
#     8   8   8   8   4
#     4  10  22  44  65 100 139 180 227 275 332 407
#     4  11  27  47  69  98 135 174 227 293 340 405
#     4  11  26  42  69 101 128 177 231 271 345 406
#     4  10  23  43  67  97 142 177 222 284 333 402
#     4  12  24  42  74 102 132 184 230 272 340 418
#
# _framework density 20.965389999999999
#
# number of rings (size 3 to 8) (size 9 to 14) (size 15 to 20)
#    0.000    1.333    2.222    1.333    9.333    2.667 
#    2.000    0.000    0.000    0.000    0.000    0.000 
#    0.000    0.000    0.000    0.000    0.000    0.000 
#
# Total GULP energy -223139.848550 kJ/mol
# GULP energy per Si atom -12396.658253 kJ/mol
# Density = 2.091767 g / cm^3
# Si number density = 20.965390 Si / 1000 Ang^3
#
#
#
# Elastic Constant Matrix: (Units=GPa)
#
#
# Indices 1 2 3 4 5 6 
#
# 1 125.2265 58.3587 44.4390 0.0000 -0.0638 0.0000
# 2 58.3587 137.9106 29.5106 0.0000 -2.1266 0.0000
# 3 44.4390 29.5106 107.9418 0.0000 9.6491 0.0000
# 4 0.0000 0.0000 0.0000 24.1296 0.0000 -1.7732
# 5 -0.0638 -2.1266 9.6491 0.0000 32.1386 0.0000
# 6 0.0000 0.0000 0.0000 -1.7732 0.0000 18.2496
#
#
#
# Elastic Compliance Matrix: (Units=1/GPa)
#
#
# Indices 1 2 3 4 5 6 
#
# 1 0.011073 -0.003910 -0.003564 0.000000 0.000833 0.000000
# 2 -0.003910 0.009126 -0.000964 0.000000 0.000886 0.000000
# 3 -0.003564 -0.000964 0.011305 0.000000 -0.003465 0.000000
# 4 0.000000 0.000000 0.000000 0.041741 0.000000 0.004056
# 5 0.000833 0.000886 -0.003465 0.000000 0.032216 0.000000
# 6 0.000000 0.000000 0.000000 0.004056 0.000000 0.055190
#
#
# Mechanical properties :
#
#
# Convention : Reuss Voigt Hill
#
# Bulk Modulus (GPa) = 68.36928 70.63281 69.50104
# Shear Modulus (GPa) = 27.41184 30.82161 29.11672
#
# Velocity S-wave (km/s) = 3.61983 3.83837 3.73070
# Velocity P-wave (km/s) = 7.08183 7.30804 7.19582
#
# Compressibility (1/GPa) = 0.01462645
#
# Stress axis : x y z
#
# Youngs Moduli (GPa) = 90.30976 109.58052 88.45670
#
# Poissons Ratio (x) = 0.42848 0.31527
# Poissons Ratio (y) = 0.35313 0.08530
# Poissons Ratio (z) = 0.32188 0.10567
#
# Static dielectric constant tensor:
#      x y z
#    x 3.590280 0.000000 -0.017890 
#    y 0.000000 4.278600 0.000000 
#    z -0.017890 0.000000 4.012230 
# 
# 
# High freq. dielectric constant tensor:
#      x y z
#    x 1.810200 0.000000 0.002120 
#    y 0.000000 1.844750 0.000000 
#    z 0.002120 0.000000 1.831130 
# 
# From -- ./inp_files/72596.got.cif
#   From: 2010.06.25/outbox.cif.g09.slc.cpg/sg15_37_cif.got.tgz:72596.got - 2010.06.28 07:06:18.
