data_PCOD8147831
_publ_section_title
;
Structure prediction by ZEFSAII (Michael W. Deem and Ramdas Pophale) SiO2 
 PCOD8147831
Probable space group: C 2/C
;
_chemical_formula_sum "Si O2"
_cell_formula_units_Z 48
_cell_length_a 21.930517
_cell_length_b 8.313959
_cell_length_c 21.533313
_cell_angle_alpha 90.000000
_cell_angle_beta 149.081900
_cell_angle_gamma 90.000000
_cell_volume 2017.307450
_symmetry_space_group_name_H-M "C 2/C"
_symmetry_group_IT_number 15
_symmetry_cell_setting 'monoclinic'
loop_
_space_group_symop_operation_xyz
x,y,z
-x,y,1/2-z
-x,-y,-z
x,-y,1/2+z
1/2+x,1/2+y,z
1/2-x,1/2+y,1/2-z
1/2-x,1/2-y,-z
1/2+x,1/2-y,1/2+z
loop_
_atom_site_type_symbol
_atom_site_label
_atom_site_fract_x
_atom_site_fract_y
_atom_site_fract_z
Si Si1 0.429530 0.620416 0.584899
Si Si2 0.626806 0.433814 0.812296
Si Si3 0.419709 0.072194 0.755606
Si Si4 0.165161 0.129660 0.731946
Si Si5 0.657244 0.063048 0.434338
Si Si6 0.721776 0.459713 0.657955
O O1 0.491668 0.506316 0.691624
O O2 0.536121 0.703718 0.637692
O O3 0.346867 0.753080 0.545405
O O4 0.354564 0.512889 0.471192
O O5 0.611773 0.243767 0.801178
O O6 0.697772 0.494232 0.812222
O O7 0.709221 0.493275 0.941556
O O8 0.374385 0.937734 0.666372
O O9 0.561070 0.047223 0.887695
O O10 0.350376 0.043273 0.759390
O O11 0.263118 0.269621 0.815966
O O12 0.156639 0.044064 0.658024
#
# Coordination Sequence:
#
# PCOD8147831 Si02
#       6
#     8   8   8   8   8   8
#     4  10  22  45  69  99 137 181 233 282 348 411
#     4  10  23  44  69 104 136 182 232 279 358 399
#     4  11  25  42  68 102 138 185 225 292 340 412
#     4  10  23  41  68 101 133 183 223 288 343 410
#     4  11  23  48  67 100 144 177 239 281 343 417
#     4  12  22  45  66 101 141 175 239 279 351 412
#
# _framework density 23.794093
#
# number of rings (size 3 to 8) (size 9 to 14) (size 15 to 20)
#    1.000    0.333    3.333    2.000    2.333    0.667 
#    3.000    1.667    0.000    0.000    0.000    0.000 
#    0.000    0.000    0.000    0.000    0.000    0.000 
#
# Total GULP energy -297587.869103 kJ/mol
# GULP energy per Si atom -12399.494546 kJ/mol
# Density = 2.373994 g / cm^3
# Si number density = 23.794093 Si / 1000 Ang^3
#
#
#
# Elastic Constant Matrix: (Units=GPa)
#
#
# Indices 1 2 3 4 5 6 
#
# 1 62.5248 -11.9067 7.6688 0.0000 6.0922 0.0000
# 2 -11.9067 72.9960 11.9822 0.0000 -8.0802 0.0000
# 3 7.6688 11.9822 113.3386 0.0000 3.6290 0.0000
# 4 0.0000 0.0000 0.0000 32.1735 0.0000 -1.5463
# 5 6.0922 -8.0802 3.6290 0.0000 31.8764 0.0000
# 6 0.0000 0.0000 0.0000 -1.5463 0.0000 37.8269
#
#
#
# Elastic Compliance Matrix: (Units=1/GPa)
#
#
# Indices 1 2 3 4 5 6 
#
# 1 0.016910 0.002716 -0.001355 0.000000 -0.002389 0.000000
# 2 0.002716 0.014830 -0.001862 0.000000 0.003452 0.000000
# 3 -0.001355 -0.001862 0.009152 0.000000 -0.001255 0.000000
# 4 0.000000 0.000000 0.000000 0.031143 0.000000 0.001273
# 5 -0.002389 0.003452 -0.001255 0.000000 0.032846 0.000000
# 6 0.000000 0.000000 0.000000 0.001273 0.000000 0.026488
#
#
# Mechanical properties :
#
#
# Convention : Reuss Voigt Hill
#
# Bulk Modulus (GPa) = 25.06876 29.37201 27.22038
# Shear Modulus (GPa) = 34.32488 36.44971 35.38729
#
# Velocity S-wave (km/s) = 3.80225 3.91817 3.86065
# Velocity P-wave (km/s) = 5.46212 5.73066 5.59800
#
# Compressibility (1/GPa) = 0.03989028
#
# Stress axis : x y z
#
# Youngs Moduli (GPa) = 59.13710 67.42982 109.26763
#
# Poissons Ratio (x) = -0.18315 0.14804
# Poissons Ratio (y) = -0.16063 0.20348
# Poissons Ratio (z) = 0.08012 0.12557
#
# Static dielectric constant tensor:
#      x y z
#    x 4.267690 0.000000 0.258240 
#    y 0.000000 3.923160 0.000000 
#    z 0.258240 0.000000 4.199390 
# 
# 
# High freq. dielectric constant tensor:
#      x y z
#    x 1.956640 0.000000 0.018280 
#    y 0.000000 1.929350 0.000000 
#    z 0.018280 0.000000 1.937320 
# 
# From -- ./inp_files/281702.got.cif
#   From: 2010.06.25/outbox.cif.g09.slc.cpg/sg15_141_cif.got.tgz:281702.got - 2010.06.28 07:06:18.
