data_PCOD8147664
_publ_section_title
;
Structure prediction by ZEFSAII (Michael W. Deem and Ramdas Pophale) SiO2 
 PCOD8147664
Probable space group: C 2/C
;
_chemical_formula_sum "Si O2"
_cell_formula_units_Z 40
_cell_length_a 8.380008
_cell_length_b 23.612126
_cell_length_c 16.323701
_cell_angle_alpha 90.000000
_cell_angle_beta 32.357308
_cell_angle_gamma 90.000000
_cell_volume 1728.670625
_symmetry_space_group_name_H-M "C 2/C"
_symmetry_group_IT_number 15
_symmetry_cell_setting 'monoclinic'
loop_
_space_group_symop_operation_xyz
x,y,z
-x,y,1/2-z
-x,-y,-z
x,-y,1/2+z
1/2+x,1/2+y,z
1/2-x,1/2+y,1/2-z
1/2-x,1/2-y,-z
1/2+x,1/2-y,1/2+z
loop_
_atom_site_type_symbol
_atom_site_label
_atom_site_fract_x
_atom_site_fract_y
_atom_site_fract_z
Si Si1 0.813157 0.378538 0.456063
Si Si2 0.810120 0.010567 0.406515
Si Si3 0.313692 0.317236 0.566930
Si Si4 0.210326 0.278266 0.929253
Si Si5 0.481481 0.387397 0.161934
O O1 0.712860 0.443095 0.512552
O O2 0.568164 0.351194 0.504517
O O3 0.833550 0.345174 0.535062
O O4 0.145794 0.377002 0.273665
O O5 0.000000 0.035624 0.250000
O O6 0.939671 0.952875 0.388562
O O7 0.500000 0.000000 0.500000
O O8 0.423363 0.251735 0.510516
O O9 0.291236 0.346828 0.487320
O O10 0.000000 0.320236 0.750000
O O11 0.500000 0.266379 0.750000
O O12 0.250000 0.250000 0.000000
O O13 0.500000 0.372830 0.250000
#
# Coordination Sequence:
#
# PCOD8147664 Si02
#       5
#     8   8   8   8   8
#     4  11  23  44  72  97 140 189 229 284 351 416
#     4  11  22  41  67 102 141 181 235 281 348 422
#     4  11  26  44  68 106 144 178 235 290 347 416
#     4  10  22  44  69  97 133 182 226 280 342 405
#     4  11  24  44  70 101 140 184 229 285 347 415
#
# _framework density 23.139168000000002
#
# number of rings (size 3 to 8) (size 9 to 14) (size 15 to 20)
#    0.000    1.200    4.000    3.600    2.800    4.800 
#    0.000    6.000    0.000    0.000    0.000    0.000 
#    0.000    0.000    0.000    0.000    0.000    0.000 
#
# Total GULP energy -247920.484564 kJ/mol
# GULP energy per Si atom -12396.024228 kJ/mol
# Density = 2.308650 g / cm^3
# Si number density = 23.139168 Si / 1000 Ang^3
#
#
#
# Elastic Constant Matrix: (Units=GPa)
#
#
# Indices 1 2 3 4 5 6 
#
# 1 58.8626 36.6621 27.5031 -0.0003 -5.3737 0.0019
# 2 36.6621 125.1740 47.7401 0.0000 9.3117 0.0005
# 3 27.5031 47.7401 190.4053 -0.0007 -1.1178 0.0018
# 4 -0.0003 0.0000 -0.0007 31.9025 0.0003 -6.8634
# 5 -5.3737 9.3117 -1.1178 0.0003 46.7070 -0.0023
# 6 0.0019 0.0005 0.0018 -6.8634 -0.0023 27.7809
#
#
#
# Elastic Compliance Matrix: (Units=1/GPa)
#
#
# Indices 1 2 3 4 5 6 
#
# 1 0.021853 -0.006058 -0.001616 0.000000 0.003683 -0.000001
# 2 -0.006058 0.010670 -0.001817 0.000000 -0.002868 0.000000
# 3 -0.001616 -0.001817 0.005943 0.000000 0.000319 0.000000
# 4 0.000000 0.000000 0.000000 0.033105 0.000000 0.008179
# 5 0.003683 -0.002868 0.000319 0.000000 0.022413 0.000002
# 6 -0.000001 0.000000 0.000000 0.008179 0.000002 0.038017
#
#
# Mechanical properties :
#
#
# Convention : Reuss Voigt Hill
#
# Bulk Modulus (GPa) = 51.32587 66.47248 58.89918
# Shear Modulus (GPa) = 31.75056 38.78050 35.26553
#
# Velocity S-wave (km/s) = 3.70828 4.09830 3.90816
# Velocity P-wave (km/s) = 6.36904 7.15433 6.77307
#
# Compressibility (1/GPa) = 0.01948335
#
# Stress axis : x y z
#
# Youngs Moduli (GPa) = 45.75941 93.72446 168.27079
#
# Poissons Ratio (x) = 0.56781 0.27193
# Poissons Ratio (y) = 0.27722 0.30573
# Poissons Ratio (z) = 0.07395 0.17029
#
# Static dielectric constant tensor:
#      x y z
#    x 4.010450 0.000030 -0.019230 
#    y 0.000030 2.877880 0.000050 
#    z -0.019230 0.000050 4.063820 
# 
# 
# High freq. dielectric constant tensor:
#      x y z
#    x 1.900730 0.000000 -0.005090 
#    y 0.000000 1.926720 0.000000 
#    z -0.005090 0.000000 1.927580 
# 
# From -- ./inp_files/23435.got.cif
#   From: 2010.06.25/outbox.cif.g09.slc.cpg/sg15_12_cif.got.tgz:23435.got - 2010.06.28 07:06:18.
