data_PCOD8147678
_publ_section_title
;
Structure prediction by ZEFSAII (Michael W. Deem and Ramdas Pophale) SiO2 
 PCOD8147678
Probable space group: C 2/C
;
_chemical_formula_sum "Si O2"
_cell_formula_units_Z 60
_cell_length_a 11.467869
_cell_length_b 17.370415
_cell_length_c 14.156916
_cell_angle_alpha 90.000000
_cell_angle_beta 65.796216
_cell_angle_gamma 90.000000
_cell_volume 2572.176199
_symmetry_space_group_name_H-M "C 2/C"
_symmetry_group_IT_number 15
_symmetry_cell_setting 'monoclinic'
loop_
_space_group_symop_operation_xyz
x,y,z
-x,y,1/2-z
-x,-y,-z
x,-y,1/2+z
1/2+x,1/2+y,z
1/2-x,1/2+y,1/2-z
1/2-x,1/2-y,-z
1/2+x,1/2-y,1/2+z
loop_
_atom_site_type_symbol
_atom_site_label
_atom_site_fract_x
_atom_site_fract_y
_atom_site_fract_z
Si Si1 0.354158 0.517213 0.522301
Si Si2 0.146245 0.458768 0.238532
Si Si3 0.090600 0.571109 0.394543
Si Si4 0.635408 0.181139 0.211659
Si Si5 0.809707 0.605650 0.501921
Si Si6 0.175097 0.305376 0.313382
Si Si7 0.000000 0.220831 0.250000
Si Si8 0.783250 0.833715 0.945176
O O1 0.500000 0.500000 0.500000
O O2 0.251103 0.498463 0.638994
O O3 0.306902 0.456770 0.456730
O O4 0.347472 0.607382 0.497741
O O5 0.152290 0.488094 0.347189
O O6 0.196393 0.371547 0.228711
O O7 0.000000 0.464354 0.250000
O O8 0.104113 0.607263 0.285577
O O9 0.154800 0.622498 0.454044
O O10 0.942105 0.558260 0.468366
O O11 0.500000 0.225931 0.250000
O O12 0.695248 0.156532 0.091769
O O13 0.725747 0.237657 0.240094
O O14 0.805123 0.668393 0.586211
O O15 0.035885 0.270602 0.331963
O O16 0.120955 0.170878 0.175818
O O17 0.750000 0.750000 0.000000
#
# Coordination Sequence:
#
# PCOD8147678 Si02
#       8
#     8   8   8   8   8   8   4   8
#     4  12  29  48  72 111 152 191 242 305 377 446
#     4  12  24  46  75 101 140 190 247 298 355 439
#     4  11  22  45  77  95 140 188 253 292 363 422
#     4  10  22  44  70 101 138 193 238 295 367 438
#     4  11  24  46  73 107 136 193 244 305 351 445
#     4  12  25  42  73 107 143 183 247 300 371 435
#     4  12  26  46  72 106 156 188 230 314 390 424
#     4  12  28  47  74 110 146 194 249 307 372 446
#
# _framework density 23.326552
#
# number of rings (size 3 to 8) (size 9 to 14) (size 15 to 20)
#    0.000    0.533    4.667    3.200    5.600    2.133 
#    2.400    0.000    0.000    0.000    0.000    0.000 
#    0.000    0.000    0.000    0.000    0.000    0.000 
#
# Total GULP energy -371789.562801 kJ/mol
# GULP energy per Si atom -12392.985427 kJ/mol
# Density = 2.327346 g / cm^3
# Si number density = 23.326552 Si / 1000 Ang^3
#
#
#
# Elastic Constant Matrix: (Units=GPa)
#
#
# Indices 1 2 3 4 5 6 
#
# 1 161.8601 56.7626 34.0234 0.0000 -5.9286 0.0000
# 2 56.7626 103.9350 17.1429 0.0000 -0.0496 0.0000
# 3 34.0234 17.1429 81.7532 0.0000 -8.5285 0.0000
# 4 0.0000 0.0000 0.0000 28.6825 0.0000 11.8231
# 5 -5.9286 -0.0496 -8.5285 0.0000 34.4923 0.0000
# 6 0.0000 0.0000 0.0000 11.8231 0.0000 48.3602
#
#
#
# Elastic Compliance Matrix: (Units=1/GPa)
#
#
# Indices 1 2 3 4 5 6 
#
# 1 0.008141 -0.004040 -0.002459 0.000000 0.000785 0.000000
# 2 -0.004040 0.011980 -0.000925 0.000000 -0.000906 0.000000
# 3 -0.002459 -0.000925 0.013760 0.000000 0.002978 0.000000
# 4 0.000000 0.000000 0.000000 0.038772 0.000000 -0.009479
# 5 0.000785 -0.000906 0.002978 0.000000 0.029862 0.000000
# 6 0.000000 0.000000 0.000000 -0.009479 0.000000 0.022996
#
#
# Mechanical properties :
#
#
# Convention : Reuss Voigt Hill
#
# Bulk Modulus (GPa) = 52.54195 62.60066 57.57131
# Shear Modulus (GPa) = 34.08270 38.28162 36.18216
#
# Velocity S-wave (km/s) = 3.82660 4.05547 3.94269
# Velocity P-wave (km/s) = 6.48824 6.98742 6.74245
#
# Compressibility (1/GPa) = 0.01903241
#
# Stress axis : x y z
#
# Youngs Moduli (GPa) = 122.84192 83.47297 72.67478
#
# Poissons Ratio (x) = 0.33722 0.17869
# Poissons Ratio (y) = 0.49627 0.06724
# Poissons Ratio (z) = 0.30204 0.07724
#
# Static dielectric constant tensor:
#      x y z
#    x 4.225950 0.000000 0.104670 
#    y 0.000000 4.274140 0.000000 
#    z 0.104670 0.000000 4.093000 
# 
# 
# High freq. dielectric constant tensor:
#      x y z
#    x 1.921310 0.000000 0.015060 
#    y 0.000000 1.936090 0.000000 
#    z 0.015060 0.000000 1.921530 
# 
# From -- ./inp_files/146040.got.cif
#   From: 2010.06.25/outbox.cif.g09.slc.cpg/sg15_74_cif.got.tgz:146040.got - 2010.06.28 07:06:18.
