data_PCOD8147993
_publ_section_title
;
Structure prediction by ZEFSAII (Michael W. Deem and Ramdas Pophale) SiO2 
 PCOD8147993
Probable space group: C 2/C
;
_chemical_formula_sum "Si O2"
_cell_formula_units_Z 56
_cell_length_a 11.429025
_cell_length_b 8.719868
_cell_length_c 29.849302
_cell_angle_alpha 90.000000
_cell_angle_beta 65.018820
_cell_angle_gamma 90.000000
_cell_volume 2696.469278
_symmetry_space_group_name_H-M "C 2/C"
_symmetry_group_IT_number 15
_symmetry_cell_setting 'monoclinic'
loop_
_space_group_symop_operation_xyz
x,y,z
-x,y,1/2-z
-x,-y,-z
x,-y,1/2+z
1/2+x,1/2+y,z
1/2-x,1/2+y,1/2-z
1/2-x,1/2-y,-z
1/2+x,1/2-y,1/2+z
loop_
_atom_site_type_symbol
_atom_site_label
_atom_site_fract_x
_atom_site_fract_y
_atom_site_fract_z
Si Si1 0.473475 0.602529 0.047484
Si Si2 0.048826 0.549578 0.312575
Si Si3 0.684656 0.455504 0.682929
Si Si4 0.842609 0.988356 0.415849
Si Si5 0.000000 0.206058 0.750000
Si Si6 0.500000 0.794386 0.250000
Si Si7 0.891318 0.424662 0.488416
Si Si8 0.823867 0.370384 0.914008
O O1 0.517282 0.524836 0.086711
O O2 0.554715 0.758716 0.032118
O O3 0.322093 0.615787 0.078394
O O4 0.500000 0.500000 0.000000
O O5 0.164441 0.540151 0.329482
O O6 0.070176 0.692205 0.276143
O O7 0.045245 0.393852 0.284868
O O8 0.913667 0.575220 0.359119
O O9 0.670139 0.450307 0.632107
O O10 0.615377 0.607726 0.711070
O O11 0.621355 0.307311 0.715634
O O12 0.738132 0.082907 0.461524
O O13 0.834820 0.807309 0.423952
O O14 0.860015 0.525874 0.450232
O O15 0.000000 0.500000 0.500000
#
# Coordination Sequence:
#
# PCOD8147993 Si02
#       8
#     8   8   8   8   4   4   8   8
#     4  12  27  46  69 100 143 184 230 282 335 416
#     4  11  24  44  72  99 137 179 226 282 348 404
#     4  11  24  45  70 101 137 174 229 286 345 405
#     4  12  25  45  69 102 139 185 231 283 344 404
#     4  10  22  48  66 100 132 178 228 280 352 404
#     4  10  26  44  70 104 132 178 230 282 344 418
#     4  12  24  44  71  97 142 181 225 287 340 407
#     4  12  26  45  68 103 138 185 231 281 344 410
#
# _framework density 20.767897999999999
#
# number of rings (size 3 to 8) (size 9 to 14) (size 15 to 20)
#    0.000    0.571    4.286    3.429    2.000    1.143 
#   10.286    0.000    0.000    0.000    0.000    0.000 
#    0.000    0.000    0.000    0.000    0.000    0.000 
#
# Total GULP energy -347242.170116 kJ/mol
# GULP energy per Si atom -12401.506076 kJ/mol
# Density = 2.072063 g / cm^3
# Si number density = 20.767898 Si / 1000 Ang^3
#
#
#
# Elastic Constant Matrix: (Units=GPa)
#
#
# Indices 1 2 3 4 5 6 
#
# 1 184.4117 65.3812 50.7953 0.0000 15.3433 0.0000
# 2 65.3812 150.1642 72.5296 0.0000 -2.4648 0.0000
# 3 50.7953 72.5296 140.3987 0.0000 9.9091 0.0000
# 4 0.0000 0.0000 0.0000 -43.6015 0.0000 -2.2415
# 5 15.3433 -2.4648 9.9091 0.0000 38.9840 0.0000
# 6 0.0000 0.0000 0.0000 -2.2415 0.0000 35.8868
#
#
#
# Elastic Compliance Matrix: (Units=1/GPa)
#
#
# Indices 1 2 3 4 5 6 
#
# 1 0.006805 -0.002538 -0.000968 0.000000 -0.002593 0.000000
# 2 -0.002538 0.009940 -0.004411 0.000000 0.002748 0.000000
# 3 -0.000968 -0.004411 0.009922 0.000000 -0.002420 0.000000
# 4 0.000000 0.000000 0.000000 -0.022862 0.000000 -0.001428
# 5 -0.002593 0.002748 -0.002420 0.000000 0.027461 0.000000
# 6 0.000000 0.000000 0.000000 -0.001428 0.000000 0.027776
#
#
# Mechanical properties :
#
#
# Convention : Reuss Voigt Hill
#
# Bulk Modulus (GPa) = 92.30347 94.70965 93.50656
# Shear Modulus (GPa) = 63.70545 25.33842 44.52193
#
# Velocity S-wave (km/s) = 5.54451 3.49675 4.63513
# Velocity P-wave (km/s) = 9.24827 7.87438 8.58884
#
# Compressibility (1/GPa) = 0.01083383
#
# Stress axis : x y z
#
# Youngs Moduli (GPa) = 146.95681 100.60532 100.78507
#
# Poissons Ratio (x) = 0.25532 0.09755
# Poissons Ratio (y) = 0.37295 0.44453
# Poissons Ratio (z) = 0.14224 0.44374
#
# Static dielectric constant tensor:
#      x y z
#    x 3.915470 0.000000 -0.021730 
#    y 0.000000 2.748830 0.000000 
#    z -0.021730 0.000000 3.884890 
# 
# 
# High freq. dielectric constant tensor:
#      x y z
#    x 1.831630 0.000000 0.003260 
#    y 0.000000 1.830650 0.000000 
#    z 0.003260 0.000000 1.820270 
# 
# From -- ./inp_files/310256.got.cif
#   From: 2010.06.25/outbox.cif.g09.slc.cpg/sg15_156_cif.got.tgz:310256.got - 2010.06.28 07:06:18.
