data_PCOD8147916
_publ_section_title
;
Structure prediction by ZEFSAII (Michael W. Deem and Ramdas Pophale) SiO2 
 PCOD8147916
Probable space group: C 2/C
;
_chemical_formula_sum "Si O2"
_cell_formula_units_Z 64
_cell_length_a 19.210479
_cell_length_b 8.773639
_cell_length_c 29.696949
_cell_angle_alpha 90.000000
_cell_angle_beta 36.259291
_cell_angle_gamma 90.000000
_cell_volume 2960.334483
_symmetry_space_group_name_H-M "C 2/C"
_symmetry_group_IT_number 15
_symmetry_cell_setting 'monoclinic'
loop_
_space_group_symop_operation_xyz
x,y,z
-x,y,1/2-z
-x,-y,-z
x,-y,1/2+z
1/2+x,1/2+y,z
1/2-x,1/2+y,1/2-z
1/2-x,1/2-y,-z
1/2+x,1/2-y,1/2+z
loop_
_atom_site_type_symbol
_atom_site_label
_atom_site_fract_x
_atom_site_fract_y
_atom_site_fract_z
Si Si1 0.165698 0.351533 0.361704
Si Si2 0.653503 0.011888 0.458812
Si Si3 0.416502 0.517036 0.100833
Si Si4 0.422433 0.520236 0.333384
Si Si5 0.846281 0.133706 0.550635
Si Si6 0.986714 0.468093 0.624639
Si Si7 0.591515 0.642957 0.805841
Si Si8 0.079722 0.373856 0.165195
O O1 0.113879 0.446177 0.431005
O O2 0.139899 0.176044 0.384128
O O3 0.305761 0.372160 0.284602
O O4 0.104327 0.408794 0.347846
O O5 0.586380 0.933011 0.535333
O O6 0.789716 0.973175 0.393487
O O7 0.627739 0.191296 0.474709
O O8 0.366220 0.389022 0.093363
O O9 0.373817 0.470048 0.172047
O O10 0.559262 0.528011 0.024786
O O11 0.500000 0.483027 0.250000
O O12 0.468671 0.413803 0.349335
O O13 0.434234 0.697271 0.340509
O O14 0.714893 0.085537 0.605464
O O15 0.041543 0.529023 0.642247
O O16 0.918111 0.313308 0.670675
O O17 0.000000 0.416364 0.250000
#
# Coordination Sequence:
#
# PCOD8147916 Si02
#       8
#     8   8   8   8   8   8   8   8
#     4  12  25  45  69  96 138 176 223 275 333 392
#     4  11  24  45  71  97 137 175 219 278 329 398
#     4  11  25  43  69  99 132 178 223 276 330 396
#     4  10  22  46  68  97 130 181 219 266 336 394
#     4  10  24  44  69  98 133 173 223 275 333 391
#     4  12  27  43  68 103 132 177 225 272 334 396
#     4  12  27  42  67  99 137 174 224 275 330 400
#     4  10  25  44  69  96 135 177 223 274 329 399
#
# _framework density 21.619178000000002
#
# number of rings (size 3 to 8) (size 9 to 14) (size 15 to 20)
#    0.000    1.000    2.500    2.625    8.750    3.000 
#    0.000    0.000    0.000    0.000    0.000    0.000 
#    0.000    0.000    0.000    0.000    0.000    0.000 
#
# Total GULP energy -396970.460729 kJ/mol
# GULP energy per Si atom -12405.326898 kJ/mol
# Density = 2.156997 g / cm^3
# Si number density = 21.619178 Si / 1000 Ang^3
#
#
#
# Elastic Constant Matrix: (Units=GPa)
#
#
# Indices 1 2 3 4 5 6 
#
# 1 100.7687 31.1714 37.1149 -0.0020 3.3496 0.0199
# 2 31.1714 57.1005 27.3023 0.0003 5.8237 0.0280
# 3 37.1149 27.3023 110.8856 -0.0001 7.1231 -0.0006
# 4 -0.0020 0.0003 -0.0001 27.4519 -0.0027 6.8793
# 5 3.3496 5.8237 7.1231 -0.0027 36.2641 -0.0009
# 6 0.0199 0.0280 -0.0006 6.8793 -0.0009 36.7885
#
#
#
# Elastic Compliance Matrix: (Units=1/GPa)
#
#
# Indices 1 2 3 4 5 6 
#
# 1 0.012708 -0.005581 -0.002898 0.000002 0.000292 -0.000003
# 2 -0.005581 0.022485 -0.003514 0.000003 -0.002405 -0.000015
# 3 -0.002898 -0.003514 0.010938 -0.000001 -0.001317 0.000005
# 4 0.000002 0.000003 -0.000001 0.038218 0.000002 -0.007147
# 5 0.000292 -0.002405 -0.001317 0.000002 0.028193 0.000002
# 6 -0.000003 -0.000015 0.000005 -0.007147 0.000002 0.028519
#
#
# Mechanical properties :
#
#
# Convention : Reuss Voigt Hill
#
# Bulk Modulus (GPa) = 45.15677 51.10355 48.13016
# Shear Modulus (GPa) = 28.99736 31.64530 30.32133
#
# Velocity S-wave (km/s) = 3.66632 3.83006 3.74909
# Velocity P-wave (km/s) = 6.23340 6.57636 6.40718
#
# Compressibility (1/GPa) = 0.02214507
#
# Stress axis : x y z
#
# Youngs Moduli (GPa) = 78.69090 44.47361 91.42429
#
# Poissons Ratio (x) = 0.24823 0.26495
# Poissons Ratio (y) = 0.43921 0.32123
# Poissons Ratio (z) = 0.22805 0.15626
#
# Static dielectric constant tensor:
#      x y z
#    x 3.863410 -0.000030 -0.077610 
#    y -0.000030 3.745210 0.000010 
#    z -0.077610 0.000010 4.086750 
# 
# 
# High freq. dielectric constant tensor:
#      x y z
#    x 1.854960 0.000000 -0.004730 
#    y 0.000000 1.843610 0.000000 
#    z -0.004730 0.000000 1.864700 
# 
# From -- ./inp_files/315658.got.cif
#   From: 2010.06.25/outbox.cif.g09.slc.cpg/sg15_158_cif.got.tgz:315658.got - 2010.06.28 07:06:18.
