data_PCOD8147543
_publ_section_title
;
Structure prediction by ZEFSAII (Michael W. Deem and Ramdas Pophale) SiO2 
 PCOD8147543
Probable space group: C 2/C
;
_chemical_formula_sum "Si O2"
_cell_formula_units_Z 56
_cell_length_a 20.163255
_cell_length_b 8.239845
_cell_length_c 29.335537
_cell_angle_alpha 90.000000
_cell_angle_beta 31.300219
_cell_angle_gamma 90.000000
_cell_volume 2532.083286
_symmetry_space_group_name_H-M "C 2/C"
_symmetry_group_IT_number 15
_symmetry_cell_setting 'monoclinic'
loop_
_space_group_symop_operation_xyz
x,y,z
-x,y,1/2-z
-x,-y,-z
x,-y,1/2+z
1/2+x,1/2+y,z
1/2-x,1/2+y,1/2-z
1/2-x,1/2-y,-z
1/2+x,1/2-y,1/2+z
loop_
_atom_site_type_symbol
_atom_site_label
_atom_site_fract_x
_atom_site_fract_y
_atom_site_fract_z
Si Si1 0.350661 0.386103 0.842576
Si Si2 0.540646 0.075153 0.371633
Si Si3 0.047740 0.943202 0.385141
Si Si4 0.756416 0.412533 0.820154
Si Si5 0.742064 0.458312 0.194455
Si Si6 0.215163 0.432313 0.005910
Si Si7 0.274183 0.540721 0.566883
O O1 0.500000 0.356500 0.750000
O O2 0.291045 0.486587 0.836526
O O3 0.277381 0.216152 0.888760
O O4 0.323147 0.485716 0.905688
O O5 0.499108 0.261124 0.403781
O O6 0.611794 0.039947 0.281929
O O7 0.629460 0.040134 0.362837
O O8 0.419150 0.956788 0.440926
O O9 0.122289 0.008118 0.296696
O O10 0.926240 0.052624 0.469195
O O11 0.146208 0.961070 0.369525
O O12 0.725339 0.231227 0.822798
O O13 0.767214 0.419049 0.868542
O O14 0.216231 0.530451 0.053186
O O15 0.250000 0.250000 0.000000
#
# Coordination Sequence:
#
# PCOD8147543 Si02
#       7
#     8   8   8   8   8   8   8
#     4  11  25  45  67 100 130 181 231 277 344 401
#     4  10  23  44  69  98 136 178 229 274 344 402
#     4  10  22  44  66 103 137 173 226 279 343 404
#     4  10  23  40  70 102 131 180 218 283 340 401
#     4  10  23  44  71  99 135 178 222 285 333 409
#     4  10  25  42  66  98 129 182 222 278 328 403
#     4  11  24  42  67  96 136 177 220 283 332 407
#
# _framework density 22.116177
#
# number of rings (size 3 to 8) (size 9 to 14) (size 15 to 20)
#    0.000    1.714    0.000    2.143   10.000    2.286 
#    5.143    0.000    0.000    0.000    0.000    0.000 
#    0.000    0.000    0.000    0.000    0.000    0.000 
#
# Total GULP energy -347056.437254 kJ/mol
# GULP energy per Si atom -12394.872759 kJ/mol
# Density = 2.206584 g / cm^3
# Si number density = 22.116177 Si / 1000 Ang^3
#
#
#
# Elastic Constant Matrix: (Units=GPa)
#
#
# Indices 1 2 3 4 5 6 
#
# 1 129.7059 35.0582 72.8880 -0.0006 16.4094 -0.0312
# 2 35.0582 57.8206 41.5040 0.0062 -12.2931 -0.0235
# 3 72.8880 41.5040 142.5845 -0.0019 -1.8371 0.0105
# 4 -0.0006 0.0062 -0.0019 31.5195 0.0045 -5.0429
# 5 16.4094 -12.2931 -1.8371 0.0045 50.2106 0.0003
# 6 -0.0312 -0.0235 0.0105 -5.0429 0.0003 34.7071
#
#
#
# Elastic Compliance Matrix: (Units=1/GPa)
#
#
# Indices 1 2 3 4 5 6 
#
# 1 0.012660 -0.005274 -0.005009 0.000003 -0.005612 0.000010
# 2 -0.005274 0.025461 -0.004615 -0.000004 0.007788 0.000013
# 3 -0.005009 -0.004615 0.010929 0.000000 0.000907 -0.000011
# 4 0.000003 -0.000004 0.000000 0.032482 -0.000005 0.004720
# 5 -0.005612 0.007788 0.000907 -0.000005 0.023690 -0.000001
# 6 0.000010 0.000013 -0.000011 0.004720 -0.000001 0.029498
#
#
# Mechanical properties :
#
#
# Convention : Reuss Voigt Hill
#
# Bulk Modulus (GPa) = 51.93574 69.89015 60.91295
# Shear Modulus (GPa) = 29.25121 35.33150 32.29136
#
# Velocity S-wave (km/s) = 3.64072 4.00126 3.82524
# Velocity P-wave (km/s) = 6.41929 7.28126 6.86382
#
# Compressibility (1/GPa) = 0.01925456
#
# Stress axis : x y z
#
# Youngs Moduli (GPa) = 78.98990 39.27570 91.50054
#
# Poissons Ratio (x) = 0.20713 0.45831
# Poissons Ratio (y) = 0.41657 0.42228
# Poissons Ratio (z) = 0.39565 0.18126
#
# Static dielectric constant tensor:
#      x y z
#    x 4.476720 -0.000140 0.546380 
#    y -0.000140 3.751810 -0.000050 
#    z 0.546380 -0.000050 4.400170 
# 
# 
# High freq. dielectric constant tensor:
#      x y z
#    x 1.878150 -0.000010 0.013550 
#    y -0.000010 1.851930 0.000000 
#    z 0.013550 0.000000 1.883220 
# 
# From -- ./inp_files/317483.got.cif
#   From: 2010.06.25/outbox.cif.g09.slc.cpg/sg15_159_cif.got.tgz:317483.got - 2010.06.28 07:06:18.
