data_PCOD8147215
_publ_section_title
;
Structure prediction by ZEFSAII (Michael W. Deem and Ramdas Pophale) SiO2 
 PCOD8147215
Probable space group: C 2/C
;
_chemical_formula_sum "Si O2"
_cell_formula_units_Z 40
_cell_length_a 13.088060
_cell_length_b 9.025843
_cell_length_c 17.915179
_cell_angle_alpha 90.000000
_cell_angle_beta 70.476651
_cell_angle_gamma 90.000000
_cell_volume 1994.656159
_symmetry_space_group_name_H-M "C 2/C"
_symmetry_group_IT_number 15
_symmetry_cell_setting 'monoclinic'
loop_
_space_group_symop_operation_xyz
x,y,z
-x,y,1/2-z
-x,-y,-z
x,-y,1/2+z
1/2+x,1/2+y,z
1/2-x,1/2+y,1/2-z
1/2-x,1/2-y,-z
1/2+x,1/2-y,1/2+z
loop_
_atom_site_type_symbol
_atom_site_label
_atom_site_fract_x
_atom_site_fract_y
_atom_site_fract_z
Si Si1 0.971438 0.338338 0.981540
Si Si2 0.004439 0.049099 0.166892
Si Si3 0.580720 0.785114 0.668674
Si Si4 0.319578 0.372545 0.605299
Si Si5 0.151297 0.150310 0.001328
O O1 0.933933 0.363254 0.906579
O O2 0.876570 0.271387 0.056047
O O3 0.000000 0.500000 0.000000
O O4 0.075593 0.230201 0.958568
O O5 0.085204 0.135848 0.093790
O O6 0.000000 0.125270 0.250000
O O7 0.885073 0.056010 0.158747
O O8 0.052996 0.886517 0.165780
O O9 0.500000 0.855537 0.750000
O O10 0.703793 0.817775 0.664427
O O11 0.309870 0.494257 0.541726
O O12 0.250000 0.250000 0.000000
#
# Coordination Sequence:
#
# PCOD8147215 Si02
#       5
#     8   8   8   8   8
#     4  11  22  40  65  96 125 169 218 259 324 394
#     4  10  22  43  64  93 130 168 211 269 334 374
#     4  11  23  41  65  95 128 166 216 269 332 382
#     4  11  22  44  64  91 130 167 214 269 318 394
#     4  11  22  39  66  95 128 169 218 265 317 398
#
# _framework density 20.053581999999999
#
# number of rings (size 3 to 8) (size 9 to 14) (size 15 to 20)
#    0.000    1.200    4.000    3.000    2.800    1.600 
#    3.600    7.000    0.000    0.000    0.000    0.000 
#    0.000    0.000    0.000    0.000    0.000    0.000 
#
# Total GULP energy -247990.510771 kJ/mol
# GULP energy per Si atom -12399.525539 kJ/mol
# Density = 2.000794 g / cm^3
# Si number density = 20.053582 Si / 1000 Ang^3
#
#
#
# Elastic Constant Matrix: (Units=GPa)
#
#
# Indices 1 2 3 4 5 6 
#
# 1 168.8863 46.7688 64.9100 0.0000 -17.3071 0.0000
# 2 46.7688 102.3444 29.9726 0.0000 -8.8643 0.0000
# 3 64.9100 29.9726 117.7421 0.0000 3.4519 0.0000
# 4 0.0000 0.0000 0.0000 17.3567 0.0000 -0.7471
# 5 -17.3071 -8.8643 3.4519 0.0000 34.4193 0.0000
# 6 0.0000 0.0000 0.0000 -0.7471 0.0000 34.2311
#
#
#
# Elastic Compliance Matrix: (Units=1/GPa)
#
#
# Indices 1 2 3 4 5 6 
#
# 1 0.008646 -0.002331 -0.004295 0.000000 0.004178 0.000000
# 2 -0.002331 0.011504 -0.001701 0.000000 0.001961 0.000000
# 3 -0.004295 -0.001701 0.011404 0.000000 -0.003742 0.000000
# 4 0.000000 0.000000 0.000000 0.057669 0.000000 0.001259
# 5 0.004178 0.001961 -0.003742 0.000000 0.032034 0.000000
# 6 0.000000 0.000000 0.000000 0.001259 0.000000 0.029241
#
#
# Mechanical properties :
#
#
# Convention : Reuss Voigt Hill
#
# Bulk Modulus (GPa) = 67.11878 74.69730 70.90804
# Shear Modulus (GPa) = 29.04971 33.68950 31.36960
#
# Velocity S-wave (km/s) = 3.81018 4.10320 3.95940
# Velocity P-wave (km/s) = 7.27317 7.73162 7.50590
#
# Compressibility (1/GPa) = 0.01489896
#
# Stress axis : x y z
#
# Youngs Moduli (GPa) = 115.66454 86.92498 87.68997
#
# Poissons Ratio (x) = 0.20263 0.37666
# Poissons Ratio (y) = 0.26962 0.14915
# Poissons Ratio (z) = 0.49682 0.14785
#
# Static dielectric constant tensor:
#      x y z
#    x 3.787600 0.000000 0.074780 
#    y 0.000000 3.365120 0.000000 
#    z 0.074780 0.000000 4.091850 
# 
# 
# High freq. dielectric constant tensor:
#      x y z
#    x 1.794150 0.000000 0.005260 
#    y 0.000000 1.776090 0.000000 
#    z 0.005260 0.000000 1.783170 
# 
# From -- ./inp_files/195057.got.cif
#   From: 2010.06.25/outbox.cif.g09.slc.cpg/sg15_98_cif.got.tgz:195057.got - 2010.06.28 07:06:18.
