data_PCOD8147358
_publ_section_title
;
Structure prediction by ZEFSAII (Michael W. Deem and Ramdas Pophale) SiO2 
 PCOD8147358
Probable space group: C 2/C
;
_chemical_formula_sum "Si O2"
_cell_formula_units_Z 60
_cell_length_a 20.784970
_cell_length_b 23.838599
_cell_length_c 7.939933
_cell_angle_alpha 90.000000
_cell_angle_beta 141.396127
_cell_angle_gamma 90.000000
_cell_volume 2454.621437
_symmetry_space_group_name_H-M "C 2/C"
_symmetry_group_IT_number 15
_symmetry_cell_setting 'monoclinic'
loop_
_space_group_symop_operation_xyz
x,y,z
-x,y,1/2-z
-x,-y,-z
x,-y,1/2+z
1/2+x,1/2+y,z
1/2-x,1/2+y,1/2-z
1/2-x,1/2-y,-z
1/2+x,1/2-y,1/2+z
loop_
_atom_site_type_symbol
_atom_site_label
_atom_site_fract_x
_atom_site_fract_y
_atom_site_fract_z
Si Si1 0.754954 0.981823 0.021768
Si Si2 0.897892 0.184521 0.632185
Si Si3 0.705009 0.873013 0.721476
Si Si4 0.500000 0.108212 0.250000
Si Si5 0.890591 0.054903 0.089068
Si Si6 0.932051 0.560545 0.768230
Si Si7 0.834191 0.690223 0.017388
Si Si8 0.892836 0.174522 0.996558
O O1 0.793799 0.949184 0.264198
O O2 0.850434 0.023219 0.172110
O O3 0.733479 0.936809 0.831806
O O4 0.650493 0.014168 0.849043
O O5 0.801981 0.158339 0.333194
O O6 0.893651 0.251255 0.645117
O O7 0.894301 0.154235 0.805986
O O8 0.000000 0.165337 0.750000
O O9 0.618809 0.880800 0.400592
O O10 0.666216 0.833998 0.794464
O O11 0.499421 0.072291 0.423162
O O12 0.603134 0.146391 0.469082
O O13 0.000000 0.029173 0.250000
O O14 0.903419 0.121531 0.144129
O O15 0.000000 0.537220 0.750000
O O16 0.719159 0.703441 0.705858
O O17 0.000000 0.210767 0.250000
#
# Coordination Sequence:
#
# PCOD8147358 Si02
#       8
#     8   8   8   4   8   8   8   8
#     4  12  24  46  68 106 147 191 245 297 362 445
#     4  11  24  44  73 104 141 186 242 303 367 437
#     4  11  24  47  69 101 148 190 239 305 359 439
#     4  12  26  48  80 104 154 186 248 318 364 436
#     4  11  23  41  69 103 144 191 241 298 366 430
#     4  12  28  49  74 109 146 200 249 296 372 441
#     4  11  22  48  70 103 145 188 241 309 370 429
#     4  10  22  43  68  99 140 188 232 295 368 427
#
# _framework density 24.443686
#
# number of rings (size 3 to 8) (size 9 to 14) (size 15 to 20)
#    0.000    0.800    6.000    2.800    0.000    4.267 
#    7.200    1.333    0.000    0.000    0.000    0.000 
#    0.000    0.000    0.000    0.000    0.000    0.000 
#
# Total GULP energy -371793.455963 kJ/mol
# GULP energy per Si atom -12393.115199 kJ/mol
# Density = 2.438805 g / cm^3
# Si number density = 24.443686 Si / 1000 Ang^3
#
#
#
# Elastic Constant Matrix: (Units=GPa)
#
#
# Indices 1 2 3 4 5 6 
#
# 1 127.0806 29.0426 25.4525 0.0000 30.6979 0.0000
# 2 29.0426 68.5861 10.3180 0.0000 5.4067 0.0000
# 3 25.4525 10.3180 116.5721 0.0000 10.5365 0.0000
# 4 0.0000 0.0000 0.0000 28.4907 0.0000 8.4777
# 5 30.6979 5.4067 10.5365 0.0000 45.3348 0.0000
# 6 0.0000 0.0000 0.0000 8.4777 0.0000 29.0800
#
#
#
# Elastic Compliance Matrix: (Units=1/GPa)
#
#
# Indices 1 2 3 4 5 6 
#
# 1 0.010544 -0.003753 -0.001394 0.000000 -0.006368 0.000000
# 2 -0.003753 0.016212 -0.000685 0.000000 0.000767 0.000000
# 3 -0.001394 -0.000685 0.009041 0.000000 -0.001075 0.000000
# 4 0.000000 0.000000 0.000000 0.038433 0.000000 -0.011204
# 5 -0.006368 0.000767 -0.001075 0.000000 0.026529 0.000000
# 6 0.000000 0.000000 0.000000 -0.011204 0.000000 0.037654
#
#
# Mechanical properties :
#
#
# Convention : Reuss Voigt Hill
#
# Bulk Modulus (GPa) = 41.43851 49.09611 45.26731
# Shear Modulus (GPa) = 31.62110 37.07615 34.34863
#
# Velocity S-wave (km/s) = 3.60061 3.89884 3.75269
# Velocity P-wave (km/s) = 5.85451 6.35585 6.11033
#
# Compressibility (1/GPa) = 0.02413214
#
# Stress axis : x y z
#
# Youngs Moduli (GPa) = 94.83704 61.68248 110.61141
#
# Poissons Ratio (x) = 0.23151 0.15424
# Poissons Ratio (y) = 0.35594 0.07575
# Poissons Ratio (z) = 0.13225 0.04224
#
# Static dielectric constant tensor:
#      x y z
#    x 4.466510 0.000000 0.297200 
#    y 0.000000 4.162920 0.000000 
#    z 0.297200 0.000000 4.753070 
# 
# 
# High freq. dielectric constant tensor:
#      x y z
#    x 1.968580 0.000000 0.025420 
#    y 0.000000 1.953470 0.000000 
#    z 0.025420 0.000000 1.979790 
# 
# From -- ./inp_files/58789.got.cif
#   From: 2010.06.25/outbox.cif.g09.slc.cpg/sg15_30_cif.got.tgz:58789.got - 2010.06.28 07:06:18.
