data_PCOD8147517
_publ_section_title
;
Structure prediction by ZEFSAII (Michael W. Deem and Ramdas Pophale) SiO2 
 PCOD8147517
Probable space group: C 2/C
;
_chemical_formula_sum "Si O2"
_cell_formula_units_Z 48
_cell_length_a 23.392933
_cell_length_b 7.574825
_cell_length_c 13.436737
_cell_angle_alpha 90.000000
_cell_angle_beta 109.382007
_cell_angle_gamma 90.000000
_cell_volume 2246.018488
_symmetry_space_group_name_H-M "C 2/C"
_symmetry_group_IT_number 15
_symmetry_cell_setting 'monoclinic'
loop_
_space_group_symop_operation_xyz
x,y,z
-x,y,1/2-z
-x,-y,-z
x,-y,1/2+z
1/2+x,1/2+y,z
1/2-x,1/2+y,1/2-z
1/2-x,1/2-y,-z
1/2+x,1/2-y,1/2+z
loop_
_atom_site_type_symbol
_atom_site_label
_atom_site_fract_x
_atom_site_fract_y
_atom_site_fract_z
Si Si1 0.099265 0.935281 0.333448
Si Si2 0.767086 0.186489 0.619337
Si Si3 0.941323 0.352788 0.834567
Si Si4 0.093418 0.709728 0.730523
Si Si5 0.959248 0.835644 0.001635
Si Si6 0.313985 0.025698 0.286807
O O1 0.168748 0.909861 0.346149
O O2 0.057231 0.812237 0.240142
O O3 0.088377 0.886016 0.440639
O O4 0.081630 0.141076 0.306158
O O5 0.750000 0.250000 0.500000
O O6 0.719118 0.043809 0.633148
O O7 0.769379 0.353622 0.695240
O O8 0.950003 0.537578 0.778175
O O9 0.996602 0.326445 0.942797
O O10 0.875611 0.365816 0.853448
O O11 0.163416 0.639937 0.769092
O O12 0.081798 0.786166 0.614325
O O13 0.000000 0.000000 0.000000
#
# Coordination Sequence:
#
# PCOD8147517 Si02
#       6
#     8   8   8   8   8   8
#     4  11  23  43  65  97 137 170 223 278 330 398
#     4  11  22  44  69  98 132 179 224 282 344 400
#     4   9  22  43  64  96 133 175 221 269 331 397
#     4  10  22  44  64  99 131 177 215 273 337 396
#     4  12  23  42  68  97 135 179 219 274 336 402
#     4   9  22  42  69  95 136 170 221 284 334 395
#
# _framework density 21.37115
#
# number of rings (size 3 to 8) (size 9 to 14) (size 15 to 20)
#    1.000    0.667    1.667    3.000    0.000    0.000 
#   12.000    1.667    0.000    0.000    0.000    0.000 
#    0.000    0.000    0.000    0.000    0.000    0.000 
#
# Total GULP energy -297410.226698 kJ/mol
# GULP energy per Si atom -12392.092779 kJ/mol
# Density = 2.132251 g / cm^3
# Si number density = 21.371150 Si / 1000 Ang^3
#
#
#
# Elastic Constant Matrix: (Units=GPa)
#
#
# Indices 1 2 3 4 5 6 
#
# 1 71.6657 22.4687 25.4597 0.0000 -12.7436 0.0000
# 2 22.4687 124.6873 16.2685 0.0000 -1.0088 0.0000
# 3 25.4597 16.2685 63.7906 0.0000 -2.8521 0.0000
# 4 0.0000 0.0000 0.0000 21.0492 0.0000 7.5495
# 5 -12.7436 -1.0088 -2.8521 0.0000 30.8340 0.0000
# 6 0.0000 0.0000 0.0000 7.5495 0.0000 29.7814
#
#
#
# Elastic Compliance Matrix: (Units=1/GPa)
#
#
# Indices 1 2 3 4 5 6 
#
# 1 0.018172 -0.002393 -0.006337 0.000000 0.006846 0.000000
# 2 -0.002393 0.008611 -0.001278 0.000000 -0.000825 0.000000
# 3 -0.006337 -0.001278 0.018489 0.000000 -0.000951 0.000000
# 4 0.000000 0.000000 0.000000 0.052259 0.000000 -0.013248
# 5 0.006846 -0.000825 -0.000951 0.000000 0.035146 0.000000
# 6 0.000000 0.000000 0.000000 -0.013248 0.000000 0.036936
#
#
# Mechanical properties :
#
#
# Convention : Reuss Voigt Hill
#
# Bulk Modulus (GPa) = 39.59155 43.17080 41.38117
# Shear Modulus (GPa) = 25.24646 29.39604 27.32125
#
# Velocity S-wave (km/s) = 3.44078 3.71280 3.57938
# Velocity P-wave (km/s) = 5.86099 6.21484 6.04051
#
# Compressibility (1/GPa) = 0.02525792
#
# Stress axis : x y z
#
# Youngs Moduli (GPa) = 55.02890 116.12673 54.08693
#
# Poissons Ratio (x) = 0.27783 0.34272
# Poissons Ratio (y) = 0.13166 0.06913
# Poissons Ratio (z) = 0.34869 0.14843
#
# Static dielectric constant tensor:
#      x y z
#    x 3.871610 0.000000 0.270610 
#    y 0.000000 4.540470 0.000000 
#    z 0.270610 0.000000 3.570880 
# 
# 
# High freq. dielectric constant tensor:
#      x y z
#    x 1.842340 0.000000 -0.000770 
#    y 0.000000 1.848000 0.000000 
#    z -0.000770 0.000000 1.812070 
# 
# From -- ./inp_files/116382.got.cif
#   From: 2010.06.25/outbox.cif.g09.slc.cpg/sg15_59_cif.got.tgz:116382.got - 2010.06.28 07:06:18.
