data_PCOD8147702
_publ_section_title
;
Structure prediction by ZEFSAII (Michael W. Deem and Ramdas Pophale) SiO2 
 PCOD8147702
Probable space group: C 2/C
;
_chemical_formula_sum "Si O2"
_cell_formula_units_Z 44
_cell_length_a 15.029712
_cell_length_b 11.121935
_cell_length_c 26.680553
_cell_angle_alpha 90.000000
_cell_angle_beta 151.250033
_cell_angle_gamma 90.000000
_cell_volume 2145.163100
_symmetry_space_group_name_H-M "C 2/C"
_symmetry_group_IT_number 15
_symmetry_cell_setting 'monoclinic'
loop_
_space_group_symop_operation_xyz
x,y,z
-x,y,1/2-z
-x,-y,-z
x,-y,1/2+z
1/2+x,1/2+y,z
1/2-x,1/2+y,1/2-z
1/2-x,1/2-y,-z
1/2+x,1/2-y,1/2+z
loop_
_atom_site_type_symbol
_atom_site_label
_atom_site_fract_x
_atom_site_fract_y
_atom_site_fract_z
Si Si1 0.000000 0.131118 0.750000
Si Si2 0.614925 0.137500 0.422699
Si Si3 0.831784 0.515459 0.455011
Si Si4 0.765193 0.315643 0.697489
Si Si5 0.305881 0.993336 0.135715
Si Si6 0.354013 0.268996 0.499602
O O1 0.861851 0.046358 0.651968
O O2 0.870006 0.212500 0.719336
O O3 0.750000 0.250000 0.500000
O O4 0.619729 0.033264 0.466003
O O5 0.395230 0.165697 0.310470
O O6 0.673283 0.092660 0.396885
O O7 0.797727 0.657189 0.437769
O O8 0.000000 0.500000 0.500000
O O9 0.723869 0.435368 0.643366
O O10 0.570181 0.267109 0.620524
O O11 0.500000 0.938098 0.250000
O O12 0.184625 0.886231 0.053224
O O13 0.250000 0.250000 0.500000
#
# Coordination Sequence:
#
# PCOD8147702 Si02
#       6
#     4   8   8   8   8   8
#     4  12  22  44  70 100 128 180 230 278 334 406
#     4  11  21  43  72 100 128 177 236 275 328 414
#     4  12  26  43  69 100 141 175 226 281 344 401
#     4  11  22  45  75  93 135 182 231 275 330 418
#     4  10  22  44  70  99 134 179 226 278 336 405
#     4  12  26  45  63 105 144 171 219 288 344 395
#
# _framework density 20.511261000000001
#
# number of rings (size 3 to 8) (size 9 to 14) (size 15 to 20)
#    0.000    0.727    8.182    0.545    1.273    1.455 
#    3.273    0.000    0.000    0.000    0.000    0.000 
#    0.000    0.000    0.000    0.000    0.000    0.000 
#
# Total GULP energy -272612.448656 kJ/mol
# GULP energy per Si atom -12391.474939 kJ/mol
# Density = 2.046458 g / cm^3
# Si number density = 20.511261 Si / 1000 Ang^3
#
#
#
# Elastic Constant Matrix: (Units=GPa)
#
#
# Indices 1 2 3 4 5 6 
#
# 1 86.0253 19.2335 47.5773 -0.0001 16.6511 0.0000
# 2 19.2335 116.5079 61.5239 -0.0002 8.5224 0.0000
# 3 47.5773 61.5239 157.3494 -0.0009 8.1197 -0.0002
# 4 -0.0001 -0.0002 -0.0009 37.0058 -0.0001 -5.3673
# 5 16.6511 8.5224 8.1197 -0.0001 39.4826 0.0000
# 6 0.0000 0.0000 -0.0002 -5.3673 0.0000 24.5861
#
#
#
# Elastic Compliance Matrix: (Units=1/GPa)
#
#
# Indices 1 2 3 4 5 6 
#
# 1 0.015046 0.000215 -0.004350 0.000000 -0.005497 0.000000
# 2 0.000215 0.010906 -0.004248 0.000000 -0.001571 0.000000
# 3 -0.004350 -0.004248 0.009288 0.000000 0.000841 0.000000
# 4 0.000000 0.000000 0.000000 0.027906 0.000000 0.006092
# 5 -0.005497 -0.001571 0.000841 0.000000 0.027812 0.000000
# 6 0.000000 0.000000 0.000000 0.006092 0.000000 0.042003
#
#
# Mechanical properties :
#
#
# Convention : Reuss Voigt Hill
#
# Bulk Modulus (GPa) = 54.12868 68.50579 61.31723
# Shear Modulus (GPa) = 32.07468 35.65143 33.86305
#
# Velocity S-wave (km/s) = 3.95873 4.17362 4.06760
# Velocity P-wave (km/s) = 6.88058 7.52975 7.21247
#
# Compressibility (1/GPa) = 0.01847449
#
# Stress axis : x y z
#
# Youngs Moduli (GPa) = 66.46179 91.69402 107.66318
#
# Poissons Ratio (x) = -0.01974 0.46834
# Poissons Ratio (y) = -0.01431 0.45738
# Poissons Ratio (z) = 0.28911 0.38954
#
# Static dielectric constant tensor:
#      x y z
#    x 3.337040 0.000000 -0.446290 
#    y 0.000000 4.477960 -0.000010 
#    z -0.446290 -0.000010 3.553590 
# 
# 
# High freq. dielectric constant tensor:
#      x y z
#    x 1.792600 0.000000 -0.000500 
#    y 0.000000 1.812160 0.000000 
#    z -0.000500 0.000000 1.819810 
# 
# From -- ./inp_files/151777.got.cif
#   From: 2010.06.25/outbox.cif.g09.slc.cpg/sg15_76_cif.got.tgz:151777.got - 2010.06.28 07:06:18.
