data_PCOD8147874
_publ_section_title
;
Structure prediction by ZEFSAII (Michael W. Deem and Ramdas Pophale) SiO2 
 PCOD8147874
Probable space group: C 2/C
;
_chemical_formula_sum "Si O2"
_cell_formula_units_Z 44
_cell_length_a 13.616315
_cell_length_b 5.978794
_cell_length_c 23.140654
_cell_angle_alpha 90.000000
_cell_angle_beta 66.671684
_cell_angle_gamma 90.000000
_cell_volume 1729.856661
_symmetry_space_group_name_H-M "C 2/C"
_symmetry_group_IT_number 15
_symmetry_cell_setting 'monoclinic'
loop_
_space_group_symop_operation_xyz
x,y,z
-x,y,1/2-z
-x,-y,-z
x,-y,1/2+z
1/2+x,1/2+y,z
1/2-x,1/2+y,1/2-z
1/2-x,1/2-y,-z
1/2+x,1/2-y,1/2+z
loop_
_atom_site_type_symbol
_atom_site_label
_atom_site_fract_x
_atom_site_fract_y
_atom_site_fract_z
Si Si1 0.672585 0.489971 0.706381
Si Si2 0.401066 0.180179 0.679574
Si Si3 0.173297 0.550150 0.001764
Si Si4 0.919685 0.865366 0.557756
Si Si5 0.500000 0.859275 0.750000
Si Si6 0.216709 0.327111 0.097140
O O1 0.634298 0.397515 0.776422
O O2 0.796943 0.552532 0.679031
O O3 0.600800 0.705947 0.707168
O O4 0.655182 0.281931 0.665941
O O5 0.464373 0.285058 0.609789
O O6 0.472285 0.010065 0.700646
O O7 0.084010 0.640888 0.979826
O O8 0.236391 0.369438 0.951199
O O9 0.250000 0.750000 0.000000
O O10 0.132829 0.451659 0.073191
O O11 0.809231 0.998849 0.594873
O O12 0.000000 0.000000 0.500000
#
# Coordination Sequence:
#
# PCOD8147874 Si02
#       6
#     8   8   8   8   4   8
#     4  12  25  52  81 117 158 208 276 338 411 476
#     4  12  26  53  81 115 160 210 271 339 405 480
#     4   9  20  44  69 108 143 203 252 309 385 466
#     4  11  25  48  75 115 160 214 263 325 400 481
#     4  12  30  52  82 120 156 220 260 344 406 496
#     4  10  22  45  76 107 152 208 259 327 398 466
#
# _framework density 25.435635000000001
#
# number of rings (size 3 to 8) (size 9 to 14) (size 15 to 20)
#    0.000    1.091    3.636    1.636    0.000    0.727 
#   26.182    0.000    0.000    0.000    0.000    0.000 
#    0.000    0.000    0.000    0.000    0.000    0.000 
#
# Total GULP energy -272595.501708 kJ/mol
# GULP energy per Si atom -12390.704623 kJ/mol
# Density = 2.537774 g / cm^3
# Si number density = 25.435635 Si / 1000 Ang^3
#
#
#
# Elastic Constant Matrix: (Units=GPa)
#
#
# Indices 1 2 3 4 5 6 
#
# 1 58.4721 45.0599 67.8790 0.0005 4.4363 0.0008
# 2 45.0599 128.8179 78.0796 0.0010 21.5623 0.0012
# 3 67.8790 78.0796 208.0820 0.0001 32.1030 0.0002
# 4 0.0005 0.0010 0.0001 62.7100 0.0002 2.8041
# 5 4.4363 21.5623 32.1030 0.0002 29.0698 0.0003
# 6 0.0008 0.0012 0.0002 2.8041 0.0003 51.0527
#
#
#
# Elastic Compliance Matrix: (Units=1/GPa)
#
#
# Indices 1 2 3 4 5 6 
#
# 1 0.033582 -0.007705 -0.009830 0.000000 0.011445 0.000000
# 2 -0.007705 0.012210 -0.001027 0.000000 -0.006746 0.000000
# 3 -0.009830 -0.001027 0.009702 0.000000 -0.008452 0.000000
# 4 0.000000 0.000000 0.000000 0.015986 0.000000 -0.000878
# 5 0.011445 -0.006746 -0.008452 0.000000 0.046991 0.000000
# 6 0.000000 0.000000 0.000000 -0.000878 0.000000 0.019636
#
#
# Mechanical properties :
#
#
# Convention : Reuss Voigt Hill
#
# Bulk Modulus (GPa) = 54.43512 86.37878 70.40695
# Shear Modulus (GPa) = 27.57039 42.19005 34.88022
#
# Velocity S-wave (km/s) = 3.29588 4.07713 3.70714
# Velocity P-wave (km/s) = 5.99427 7.49650 6.78708
#
# Compressibility (1/GPa) = 0.01837049
#
# Stress axis : x y z
#
# Youngs Moduli (GPa) = 29.77756 81.90054 103.07295
#
# Poissons Ratio (x) = 0.63102 1.01317
# Poissons Ratio (y) = 0.22943 0.10590
# Poissons Ratio (z) = 0.29270 0.08415
#
# Static dielectric constant tensor:
#      x y z
#    x 4.799750 0.000000 0.705680 
#    y 0.000000 5.339490 0.000000 
#    z 0.705680 0.000000 5.322400 
# 
# 
# High freq. dielectric constant tensor:
#      x y z
#    x 2.004690 0.000000 0.019070 
#    y 0.000000 2.042430 0.000000 
#    z 0.019070 0.000000 2.028890 
# 
# From -- ./inp_files/271874.got.cif
#   From: 2010.06.25/outbox.cif.g09.slc.cpg/sg15_136_cif.got.tgz:271874.got - 2010.06.28 07:06:18.
