data_PCOD8147773
_publ_section_title
;
Structure prediction by ZEFSAII (Michael W. Deem and Ramdas Pophale) SiO2 
 PCOD8147773
Probable space group: C 2/C
;
_chemical_formula_sum "Si O2"
_cell_formula_units_Z 36
_cell_length_a 15.806085
_cell_length_b 23.348544
_cell_length_c 9.301103
_cell_angle_alpha 90.000000
_cell_angle_beta 148.169331
_cell_angle_gamma 90.000000
_cell_volume 1810.370493
_symmetry_space_group_name_H-M "C 2/C"
_symmetry_group_IT_number 15
_symmetry_cell_setting 'monoclinic'
loop_
_space_group_symop_operation_xyz
x,y,z
-x,y,1/2-z
-x,-y,-z
x,-y,1/2+z
1/2+x,1/2+y,z
1/2-x,1/2+y,1/2-z
1/2-x,1/2-y,-z
1/2+x,1/2-y,1/2+z
loop_
_atom_site_type_symbol
_atom_site_label
_atom_site_fract_x
_atom_site_fract_y
_atom_site_fract_z
Si Si1 0.746426 0.188324 0.148261
Si Si2 0.791391 0.957374 0.093217
Si Si3 0.151641 0.061693 0.148052
Si Si4 0.000000 0.624941 0.250000
Si Si5 0.947990 0.292726 0.406552
O O1 0.782477 0.125035 0.250546
O O2 0.901140 0.228915 0.391443
O O3 0.690133 0.185274 0.901349
O O4 0.613617 0.214120 0.062127
O O5 0.961036 0.935349 0.401141
O O6 0.759721 0.021211 0.108346
O O7 0.801617 0.964201 0.937878
O O8 0.653308 0.914278 0.941594
O O9 0.038642 0.664148 0.442089
#
# Coordination Sequence:
#
# PCOD8147773 Si02
#       5
#     8   8   8   4   8
#     4  10  22  45  63  89 129 171 208 260 310 383
#     4  10  24  40  64  95 125 167 213 253 323 368
#     4  10  22  45  63  89 129 171 208 260 310 383
#     4  12  24  40  62 104 124 162 212 268 312 380
#     4  10  24  40  64  95 125 167 213 253 323 368
#
# _framework density 19.885432000000002
#
# number of rings (size 3 to 8) (size 9 to 14) (size 15 to 20)
#    0.000    1.778    2.222    0.000    6.222    5.333 
#    0.000    0.000    0.000    0.000    0.000    0.000 
#    0.000    0.000    0.000    0.000    0.000    0.000 
#
# Total GULP energy -223238.415918 kJ/mol
# GULP energy per Si atom -12402.134218 kJ/mol
# Density = 1.984017 g / cm^3
# Si number density = 19.885432 Si / 1000 Ang^3
#
#
#
# Elastic Constant Matrix: (Units=GPa)
#
#
# Indices 1 2 3 4 5 6 
#
# 1 126.1418 76.7939 60.4657 0.0000 -1.1285 0.0000
# 2 76.7939 164.4938 73.4782 0.0000 0.1329 0.0000
# 3 60.4657 73.4782 84.0582 0.0000 -0.9047 0.0000
# 4 0.0000 0.0000 0.0000 39.5902 0.0000 0.1010
# 5 -1.1285 0.1329 -0.9047 0.0000 21.3235 0.0000
# 6 0.0000 0.0000 0.0000 0.1010 0.0000 38.2790
#
#
#
# Elastic Compliance Matrix: (Units=1/GPa)
#
#
# Indices 1 2 3 4 5 6 
#
# 1 0.013002 -0.003108 -0.006631 0.000000 0.000426 0.000000
# 2 -0.003108 0.010721 -0.007141 0.000000 -0.000534 0.000000
# 3 -0.006631 -0.007141 0.022916 0.000000 0.000666 0.000000
# 4 0.000000 0.000000 0.000000 0.025259 0.000000 -0.000067
# 5 0.000426 -0.000534 0.000666 0.000000 0.046951 0.000000
# 6 0.000000 0.000000 0.000000 -0.000067 0.000000 0.026124
#
#
# Mechanical properties :
#
#
# Convention : Reuss Voigt Hill
#
# Bulk Modulus (GPa) = 77.65435 88.46326 83.05881
# Shear Modulus (GPa) = 27.31828 30.76894 29.04361
#
# Velocity S-wave (km/s) = 3.71048 3.93785 3.82586
# Velocity P-wave (km/s) = 7.58238 8.07828 7.83426
#
# Compressibility (1/GPa) = 0.01287758
#
# Stress axis : x y z
#
# Youngs Moduli (GPa) = 76.90850 93.27712 43.63731
#
# Poissons Ratio (x) = 0.28994 0.28937
# Poissons Ratio (y) = 0.23906 0.31162
# Poissons Ratio (z) = 0.51001 0.66611
#
# Static dielectric constant tensor:
#      x y z
#    x 3.799350 0.000000 -0.008810 
#    y 0.000000 3.635610 0.000000 
#    z -0.008810 0.000000 3.646450 
# 
# 
# High freq. dielectric constant tensor:
#      x y z
#    x 1.791310 0.000000 -0.001180 
#    y 0.000000 1.781160 0.000000 
#    z -0.001180 0.000000 1.770870 
# 
# From -- ./inp_files/23325.got.cif
#   From: 2010.06.25/outbox.cif.g09.slc.cpg/sg15_12_cif.got.tgz:23325.got - 2010.06.28 07:06:18.
