data_PCOD8147240
_publ_section_title
;
Structure prediction by ZEFSAII (Michael W. Deem and Ramdas Pophale) SiO2 
 PCOD8147240
Probable space group: C 2/C
;
_chemical_formula_sum "Si O2"
_cell_formula_units_Z 48
_cell_length_a 8.970872
_cell_length_b 14.836427
_cell_length_c 27.079462
_cell_angle_alpha 90.000000
_cell_angle_beta 141.395693
_cell_angle_gamma 90.000000
_cell_volume 2248.773377
_symmetry_space_group_name_H-M "C 2/C"
_symmetry_group_IT_number 15
_symmetry_cell_setting 'monoclinic'
loop_
_space_group_symop_operation_xyz
x,y,z
-x,y,1/2-z
-x,-y,-z
x,-y,1/2+z
1/2+x,1/2+y,z
1/2-x,1/2+y,1/2-z
1/2-x,1/2-y,-z
1/2+x,1/2-y,1/2+z
loop_
_atom_site_type_symbol
_atom_site_label
_atom_site_fract_x
_atom_site_fract_y
_atom_site_fract_z
Si Si1 0.525755 0.827620 0.811851
Si Si2 0.474872 0.366684 0.327824
Si Si3 0.132652 0.505061 0.686581
Si Si4 0.957040 0.882115 0.533644
Si Si5 0.837488 0.924241 0.398067
Si Si6 0.016047 0.430024 0.048808
O O1 0.500000 0.862268 0.750000
O O2 0.402404 0.730315 0.786965
O O3 0.811412 0.822758 0.894835
O O4 0.376523 0.897431 0.807094
O O5 0.380888 0.447653 0.267716
O O6 0.380234 0.371086 0.358873
O O7 0.760521 0.366448 0.403682
O O8 0.062465 0.516632 0.611661
O O9 0.940179 0.550856 0.672692
O O10 0.901281 0.862508 0.461724
O O11 0.719225 0.865149 0.505884
O O12 0.000998 0.987113 0.556787
O O13 0.000000 0.500000 0.000000
#
# Coordination Sequence:
#
# PCOD8147240 Si02
#       6
#     8   8   8   8   8   8
#     4  11  24  40  65  92 127 172 217 262 322 387
#     4  12  23  40  66  95 128 164 216 270 320 376
#     4  10  22  43  65  90 126 174 212 261 321 387
#     4   9  19  39  61  91 124 167 209 248 318 385
#     4   9  18  37  66  88 120 166 210 253 311 386
#     4  11  22  38  65  94 127 167 211 265 321 372
#
# _framework density 21.344968999999999
#
# number of rings (size 3 to 8) (size 9 to 14) (size 15 to 20)
#    0.000    1.667    1.667    5.000    0.000    1.333 
#    0.000    3.333    0.000    0.000    0.000    0.000 
#    0.000    0.000    0.000    0.000    0.000    0.000 
#
# Total GULP energy -297502.890742 kJ/mol
# GULP energy per Si atom -12395.953781 kJ/mol
# Density = 2.129639 g / cm^3
# Si number density = 21.344969 Si / 1000 Ang^3
#
#
#
# Elastic Constant Matrix: (Units=GPa)
#
#
# Indices 1 2 3 4 5 6 
#
# 1 108.8236 28.2320 30.6957 0.0000 -10.1214 0.0000
# 2 28.2320 87.3412 27.5815 0.0000 -2.6269 0.0000
# 3 30.6957 27.5815 92.8202 -0.0001 -1.9043 -0.0001
# 4 0.0000 0.0000 -0.0001 19.0395 0.0000 3.7181
# 5 -10.1214 -2.6269 -1.9043 0.0000 47.2042 0.0000
# 6 0.0000 0.0000 -0.0001 3.7181 0.0000 22.4130
#
#
#
# Elastic Compliance Matrix: (Units=1/GPa)
#
#
# Indices 1 2 3 4 5 6 
#
# 1 0.010829 -0.002561 -0.002778 0.000000 0.002067 0.000000
# 2 -0.002561 0.013255 -0.003090 0.000000 0.000064 0.000000
# 3 -0.002778 -0.003090 0.012605 0.000000 -0.000259 0.000000
# 4 0.000000 0.000000 0.000000 0.054281 0.000000 -0.009005
# 5 0.002067 0.000064 -0.000259 0.000000 0.021621 0.000000
# 6 0.000000 0.000000 0.000000 -0.009005 0.000000 0.046111
#
#
# Mechanical properties :
#
#
# Convention : Reuss Voigt Hill
#
# Bulk Modulus (GPa) = 50.42654 51.33371 50.88012
# Shear Modulus (GPa) = 27.44670 31.22973 29.33821
#
# Velocity S-wave (km/s) = 3.58978 3.82919 3.71142
# Velocity P-wave (km/s) = 6.39202 6.60697 6.50038
#
# Compressibility (1/GPa) = 0.01983083
#
# Stress axis : x y z
#
# Youngs Moduli (GPa) = 92.34087 75.44296 79.33250
#
# Poissons Ratio (x) = 0.19322 0.22038
# Poissons Ratio (y) = 0.23649 0.24517
# Poissons Ratio (z) = 0.25651 0.23315
#
# Static dielectric constant tensor:
#      x y z
#    x 4.144060 0.000000 0.196330 
#    y 0.000000 3.495610 0.000000 
#    z 0.196330 0.000000 4.059710 
# 
# 
# High freq. dielectric constant tensor:
#      x y z
#    x 1.846490 0.000000 -0.000180 
#    y 0.000000 1.802990 0.000000 
#    z -0.000180 0.000000 1.849070 
# 
# From -- ./inp_files/189268.got.cif
#   From: 2010.06.25/outbox.cif.g09.slc.cpg/sg15_95_cif.got.tgz:189268.got - 2010.06.28 07:06:18.
