data_PCOD8147823
_publ_section_title
;
Structure prediction by ZEFSAII (Michael W. Deem and Ramdas Pophale) SiO2 
 PCOD8147823
Probable space group: C 2/C
;
_chemical_formula_sum "Si O2"
_cell_formula_units_Z 32
_cell_length_a 5.560854
_cell_length_b 11.739854
_cell_length_c 17.980584
_cell_angle_alpha 90.000000
_cell_angle_beta 100.684072
_cell_angle_gamma 90.000000
_cell_volume 1153.488298
_symmetry_space_group_name_H-M "C 2/C"
_symmetry_group_IT_number 15
_symmetry_cell_setting 'monoclinic'
loop_
_space_group_symop_operation_xyz
x,y,z
-x,y,1/2-z
-x,-y,-z
x,-y,1/2+z
1/2+x,1/2+y,z
1/2-x,1/2+y,1/2-z
1/2-x,1/2-y,-z
1/2+x,1/2-y,1/2+z
loop_
_atom_site_type_symbol
_atom_site_label
_atom_site_fract_x
_atom_site_fract_y
_atom_site_fract_z
Si Si1 0.182423 0.185688 0.826124
Si Si2 0.579407 0.331262 0.903943
Si Si3 0.156374 0.100772 0.565201
Si Si4 0.968075 0.534830 0.329524
O O1 0.313193 0.308731 0.850110
O O2 0.362703 0.090081 0.806846
O O3 0.000000 0.212734 0.750000
O O4 0.063374 0.138852 0.894843
O O5 0.648441 0.203107 0.932570
O O6 0.780203 0.380498 0.859419
O O7 0.561165 0.417737 0.973951
O O8 0.285088 0.987557 0.607119
O O9 0.000000 0.589284 0.250000
#
# Coordination Sequence:
#
# PCOD8147823 Si02
#       4
#     8   8   8   8
#     4  11  23  44  68 101 153 192 246 319 371 443
#     4  10  24  42  72 105 140 200 251 299 388 454
#     4  10  22  45  69 103 150 187 246 323 372 440
#     4  11  23  44  69 106 147 193 251 310 377 449
#
# _framework density 27.741935000000002
#
# number of rings (size 3 to 8) (size 9 to 14) (size 15 to 20)
#    0.000    1.500    2.500    1.500    0.000    4.000 
#    4.500    0.000    0.000    0.000    0.000    1.750 
#    0.000    0.000    0.000    0.000    0.000    0.000 
#
# Total GULP energy -198454.772691 kJ/mol
# GULP energy per Si atom -12403.423293 kJ/mol
# Density = 2.767879 g / cm^3
# Si number density = 27.741935 Si / 1000 Ang^3
#
#
#
# Elastic Constant Matrix: (Units=GPa)
#
#
# Indices 1 2 3 4 5 6 
#
# 1 147.3830 26.5663 119.9038 0.0000 -7.8833 0.0000
# 2 26.5663 112.8221 45.0150 0.0000 8.8053 0.0000
# 3 119.9038 45.0150 261.8201 0.0000 -0.5766 0.0000
# 4 0.0000 0.0000 0.0000 -60.9125 0.0000 22.3922
# 5 -7.8833 8.8053 -0.5766 0.0000 64.7509 0.0000
# 6 0.0000 0.0000 0.0000 22.3922 0.0000 58.2928
#
#
#
# Elastic Compliance Matrix: (Units=1/GPa)
#
#
# Indices 1 2 3 4 5 6 
#
# 1 0.010977 -0.000740 -0.004897 0.000000 0.001393 0.000000
# 2 -0.000740 0.009678 -0.001328 0.000000 -0.001418 0.000000
# 3 -0.004897 -0.001328 0.006289 0.000000 -0.000360 0.000000
# 4 0.000000 0.000000 0.000000 -0.014386 0.000000 0.005526
# 5 0.001393 -0.001418 -0.000360 0.000000 0.015803 0.000000
# 6 0.000000 0.000000 0.000000 0.005526 0.000000 0.015032
#
#
# Mechanical properties :
#
#
# Convention : Reuss Voigt Hill
#
# Bulk Modulus (GPa) = 76.83428 100.55505 88.69467
# Shear Modulus (GPa) = 81.08767 34.46224 57.77496
#
# Velocity S-wave (km/s) = 5.41228 3.52837 4.56849
# Velocity P-wave (km/s) = 8.17393 7.27492 7.73750
#
# Compressibility (1/GPa) = 0.01301502
#
# Stress axis : x y z
#
# Youngs Moduli (GPa) = 91.10340 103.32317 158.99589
#
# Poissons Ratio (x) = 0.07643 0.77854
# Poissons Ratio (y) = 0.06739 0.21121
# Poissons Ratio (z) = 0.44610 0.13725
#
# Static dielectric constant tensor:
#      x y z
#    x 5.352610 0.000000 0.338920 
#    y 0.000000 5.407050 0.000000 
#    z 0.338920 0.000000 5.371320 
# 
# 
# High freq. dielectric constant tensor:
#      x y z
#    x 2.122360 0.000000 0.016500 
#    y 0.000000 2.174820 0.000000 
#    z 0.016500 0.000000 2.138220 
# 
# From -- ./inp_files/183866.got.cif
#   From: 2010.06.25/outbox.cif.g09.slc.cpg/sg15_92_cif.got.tgz:183866.got - 2010.06.28 07:06:18.
