data_PCOD8147917
_publ_section_title
;
Structure prediction by ZEFSAII (Michael W. Deem and Ramdas Pophale) SiO2 
 PCOD8147917
Probable space group: C 2/C
;
_chemical_formula_sum "Si O2"
_cell_formula_units_Z 60
_cell_length_a 18.335225
_cell_length_b 13.949201
_cell_length_c 15.546490
_cell_angle_alpha 90.000000
_cell_angle_beta 42.164011
_cell_angle_gamma 90.000000
_cell_volume 2669.042877
_symmetry_space_group_name_H-M "C 2/C"
_symmetry_group_IT_number 15
_symmetry_cell_setting 'monoclinic'
loop_
_space_group_symop_operation_xyz
x,y,z
-x,y,1/2-z
-x,-y,-z
x,-y,1/2+z
1/2+x,1/2+y,z
1/2-x,1/2+y,1/2-z
1/2-x,1/2-y,-z
1/2+x,1/2-y,1/2+z
loop_
_atom_site_type_symbol
_atom_site_label
_atom_site_fract_x
_atom_site_fract_y
_atom_site_fract_z
Si Si1 0.755402 0.143411 0.524477
Si Si2 0.430411 0.123297 0.683714
Si Si3 0.478097 0.079464 0.369809
Si Si4 0.282271 0.123577 0.649499
Si Si5 0.650612 0.532871 0.202765
Si Si6 0.929808 0.230991 0.658175
Si Si7 0.972248 0.178618 0.428469
Si Si8 0.500000 0.386541 0.250000
O O1 0.750000 0.250000 0.500000
O O2 0.647384 0.108438 0.666646
O O3 0.759921 0.085991 0.431960
O O4 0.861666 0.131392 0.490983
O O5 0.358599 0.144644 0.663063
O O6 0.507081 0.216159 0.631318
O O7 0.500242 0.026899 0.611795
O O8 0.500000 0.085235 0.250000
O O9 0.354928 0.111141 0.499956
O O10 0.557353 0.154199 0.349886
O O11 0.197685 0.211073 0.712155
O O12 0.211750 0.025923 0.724791
O O13 0.567472 0.606427 0.318162
O O14 0.601174 0.456110 0.178730
O O15 0.966322 0.187008 0.535730
O O16 0.010847 0.182153 0.657096
#
# Coordination Sequence:
#
# PCOD8147917 Si02
#       8
#     8   8   8   8   8   8   8   4
#     4  12  25  43  68 106 140 183 231 282 354 415
#     4  12  27  43  71 105 142 186 232 282 353 420
#     4  12  27  48  69 101 139 185 231 287 345 418
#     4  11  26  47  69 103 136 182 233 289 349 412
#     4  11  24  44  71 102 142 179 229 294 346 411
#     4  11  25  47  73  99 139 184 239 287 347 414
#     4  12  25  44  72 105 142 185 230 293 353 415
#     4  10  22  46  68  98 134 176 230 292 340 412
#
# _framework density 22.479968
#
# number of rings (size 3 to 8) (size 9 to 14) (size 15 to 20)
#    0.000    0.533    6.000    1.200    3.733    4.800 
#    2.400    0.000    0.000    0.000    0.000    0.000 
#    0.000    0.000    0.000    0.000    0.000    0.000 
#
# Total GULP energy -371983.523231 kJ/mol
# GULP energy per Si atom -12399.450774 kJ/mol
# Density = 2.242880 g / cm^3
# Si number density = 22.479968 Si / 1000 Ang^3
#
#
#
# Elastic Constant Matrix: (Units=GPa)
#
#
# Indices 1 2 3 4 5 6 
#
# 1 54.0458 8.7651 10.1217 0.0000 3.4565 0.0000
# 2 8.7651 116.7940 26.7105 0.0000 -18.0537 0.0000
# 3 10.1217 26.7105 127.7268 0.0000 -6.3850 0.0000
# 4 0.0000 0.0000 0.0000 33.5643 0.0000 -4.9964
# 5 3.4565 -18.0537 -6.3850 0.0000 32.1638 0.0000
# 6 0.0000 0.0000 0.0000 -4.9964 0.0000 35.4995
#
#
#
# Elastic Compliance Matrix: (Units=1/GPa)
#
#
# Indices 1 2 3 4 5 6 
#
# 1 0.019228 -0.001639 -0.001344 0.000000 -0.003253 0.000000
# 2 -0.001639 0.009902 -0.001671 0.000000 0.005403 0.000000
# 3 -0.001344 -0.001671 0.008328 0.000000 0.000860 0.000000
# 4 0.000000 0.000000 0.000000 0.030431 0.000000 0.004283
# 5 -0.003253 0.005403 0.000860 0.000000 0.034644 0.000000
# 6 0.000000 0.000000 0.000000 0.004283 0.000000 0.028772
#
#
# Mechanical properties :
#
#
# Convention : Reuss Voigt Hill
#
# Bulk Modulus (GPa) = 35.52094 43.30680 39.41387
# Shear Modulus (GPa) = 33.33422 37.11013 35.22217
#
# Velocity S-wave (km/s) = 3.85495 4.06742 3.96261
# Velocity P-wave (km/s) = 5.97073 6.43156 6.20542
#
# Compressibility (1/GPa) = 0.02815241
#
# Stress axis : x y z
#
# Youngs Moduli (GPa) = 52.00677 100.98671 120.07558
#
# Poissons Ratio (x) = 0.16547 0.16135
# Poissons Ratio (y) = 0.08522 0.20063
# Poissons Ratio (z) = 0.06988 0.16874
#
# Static dielectric constant tensor:
#      x y z
#    x 4.623580 0.000000 -0.602120 
#    y 0.000000 4.337700 0.000000 
#    z -0.602120 0.000000 4.660130 
# 
# 
# High freq. dielectric constant tensor:
#      x y z
#    x 1.885560 0.000000 -0.000310 
#    y 0.000000 1.898600 0.000000 
#    z -0.000310 0.000000 1.889870 
# 
# From -- ./inp_files/215180.got.cif
#   From: 2010.06.25/outbox.cif.g09.slc.cpg/sg15_108_cif.got.tgz:215180.got - 2010.06.28 07:06:18.
