data_PCOD8147434
_publ_section_title
;
Structure prediction by ZEFSAII (Michael W. Deem and Ramdas Pophale) SiO2 
 PCOD8147434
Probable space group: C 2/C
;
_chemical_formula_sum "Si O2"
_cell_formula_units_Z 64
_cell_length_a 24.049570
_cell_length_b 11.802122
_cell_length_c 14.541929
_cell_angle_alpha 90.000000
_cell_angle_beta 140.842299
_cell_angle_gamma 90.000000
_cell_volume 2606.352983
_symmetry_space_group_name_H-M "C 2/C"
_symmetry_group_IT_number 15
_symmetry_cell_setting 'monoclinic'
loop_
_space_group_symop_operation_xyz
x,y,z
-x,y,1/2-z
-x,-y,-z
x,-y,1/2+z
1/2+x,1/2+y,z
1/2-x,1/2+y,1/2-z
1/2-x,1/2-y,-z
1/2+x,1/2-y,1/2+z
loop_
_atom_site_type_symbol
_atom_site_label
_atom_site_fract_x
_atom_site_fract_y
_atom_site_fract_z
Si Si1 0.114333 0.295605 0.782629
Si Si2 0.066329 0.860662 0.902685
Si Si3 0.803419 0.436430 0.456933
Si Si4 0.190481 0.232108 0.706350
Si Si5 0.499715 0.599992 0.851768
Si Si6 0.298968 0.631742 0.077040
Si Si7 0.048288 0.422982 0.988552
Si Si8 0.636326 0.706000 0.160225
O O1 0.169986 0.321887 0.761707
O O2 0.092107 0.159847 0.734521
O O3 0.023307 0.363688 0.668337
O O4 0.167684 0.328084 0.942793
O O5 0.151534 0.904372 0.953480
O O6 0.000000 0.788853 0.750000
O O7 0.003337 0.964227 0.855612
O O8 0.100140 0.790208 0.033221
O O9 0.728927 0.387132 0.293744
O O10 0.770429 0.535225 0.482034
O O11 0.883797 0.482898 0.495922
O O12 0.260033 0.295752 0.730792
O O13 0.500000 0.651873 0.750000
O O14 0.584037 0.635715 0.017854
O O15 0.372285 0.648397 0.251082
O O16 0.250000 0.750000 0.000000
O O17 0.101372 0.333555 0.118661
O O18 0.000000 0.500000 0.000000
#
# Coordination Sequence:
#
# PCOD8147434 Si02
#       8
#     8   8   8   8   8   8   8   8
#     4  11  24  42  73 105 143 184 237 300 356 425
#     4  11  27  44  70 104 143 190 240 289 375 439
#     4  11  26  45  72 107 141 188 248 291 369 432
#     4  11  24  43  71 105 139 189 238 295 368 431
#     4  10  22  43  71  99 142 178 233 298 357 426
#     4  12  27  48  70 102 146 190 239 299 359 435
#     4  10  24  43  72 103 141 187 237 296 362 427
#     4  10  23  45  69 102 145 178 243 299 356 433
#
# _framework density 24.555387
#
# number of rings (size 3 to 8) (size 9 to 14) (size 15 to 20)
#    0.000    1.250    1.250    3.750   12.250    0.500 
#    0.000    0.000    0.000    0.000    0.000    0.000 
#    0.000    0.000    0.000    0.000    0.000    0.000 
#
# Total GULP energy -396572.770760 kJ/mol
# GULP energy per Si atom -12392.899086 kJ/mol
# Density = 2.449950 g / cm^3
# Si number density = 24.555387 Si / 1000 Ang^3
#
#
#
# Elastic Constant Matrix: (Units=GPa)
#
#
# Indices 1 2 3 4 5 6 
#
# 1 107.3087 21.1811 12.0466 0.0000 -8.4333 0.0000
# 2 21.1811 52.7893 22.3525 0.0000 1.9663 0.0000
# 3 12.0466 22.3525 152.1686 0.0000 -14.3101 0.0000
# 4 0.0000 0.0000 0.0000 30.2035 0.0000 -1.8039
# 5 -8.4333 1.9663 -14.3101 0.0000 33.3856 0.0000
# 6 0.0000 0.0000 0.0000 -1.8039 0.0000 38.9453
#
#
#
# Elastic Compliance Matrix: (Units=1/GPa)
#
#
# Indices 1 2 3 4 5 6 
#
# 1 0.010390 -0.004313 0.000085 0.000000 0.002915 0.000000
# 2 -0.004313 0.022203 -0.003278 0.000000 -0.003802 0.000000
# 3 0.000085 -0.003278 0.007363 0.000000 0.003371 0.000000
# 4 0.000000 0.000000 0.000000 0.033201 0.000000 0.001538
# 5 0.002915 -0.003802 0.003371 0.000000 0.032358 0.000000
# 6 0.000000 0.000000 0.000000 0.001538 0.000000 0.025748
#
#
# Mechanical properties :
#
#
# Convention : Reuss Voigt Hill
#
# Bulk Modulus (GPa) = 40.08829 47.04741 43.56785
# Shear Modulus (GPa) = 32.34356 37.61931 34.98143
#
# Velocity S-wave (km/s) = 3.63322 3.91835 3.77847
# Velocity P-wave (km/s) = 5.82765 6.29862 6.06770
#
# Compressibility (1/GPa) = 0.02494494
#
# Stress axis : x y z
#
# Youngs Moduli (GPa) = 96.24774 45.03810 135.80761
#
# Poissons Ratio (x) = 0.19427 -0.01158
# Poissons Ratio (y) = 0.41516 0.44512
# Poissons Ratio (z) = -0.00820 0.14762
#
# Static dielectric constant tensor:
#      x y z
#    x 4.704030 0.000000 0.012930 
#    y 0.000000 4.118480 0.000000 
#    z 0.012930 0.000000 4.545400 
# 
# 
# High freq. dielectric constant tensor:
#      x y z
#    x 1.996110 0.000000 -0.001810 
#    y 0.000000 1.942930 0.000000 
#    z -0.001810 0.000000 1.989100 
# 
# From -- ./inp_files/177872.got.cif
#   From: 2010.06.25/outbox.cif.g09.slc.cpg/sg15_89_cif.got.tgz:177872.got - 2010.06.28 07:06:18.
