data_PCOD8147493
_publ_section_title
;
Structure prediction by ZEFSAII (Michael W. Deem and Ramdas Pophale) SiO2 
 PCOD8147493
Probable space group: C 2/C
;
_chemical_formula_sum "Si O2"
_cell_formula_units_Z 56
_cell_length_a 26.911310
_cell_length_b 12.312161
_cell_length_c 9.159059
_cell_angle_alpha 90.000000
_cell_angle_beta 123.003858
_cell_angle_gamma 90.000000
_cell_volume 2545.026986
_symmetry_space_group_name_H-M "C 2/C"
_symmetry_group_IT_number 15
_symmetry_cell_setting 'monoclinic'
loop_
_space_group_symop_operation_xyz
x,y,z
-x,y,1/2-z
-x,-y,-z
x,-y,1/2+z
1/2+x,1/2+y,z
1/2-x,1/2+y,1/2-z
1/2-x,1/2-y,-z
1/2+x,1/2-y,1/2+z
loop_
_atom_site_type_symbol
_atom_site_label
_atom_site_fract_x
_atom_site_fract_y
_atom_site_fract_z
Si Si1 0.726407 0.736769 0.663380
Si Si2 0.670353 0.940507 0.673164
Si Si3 0.182119 0.883348 0.829883
Si Si4 0.000000 0.748604 0.750000
Si Si5 0.000000 0.253592 0.750000
Si Si6 0.045005 0.400588 0.570709
Si Si7 0.954588 0.895792 0.926724
Si Si8 0.765069 0.574391 0.933441
O O1 0.676866 0.831465 0.586861
O O2 0.790929 0.775570 0.705863
O O3 0.696535 0.639021 0.522927
O O4 0.738850 0.690803 0.845435
O O5 0.609387 0.953199 0.662817
O O6 0.679023 0.045196 0.583452
O O7 0.721438 0.929076 0.875247
O O8 0.114947 0.920927 0.688439
O O9 0.216735 0.984228 0.820585
O O10 0.038234 0.825525 0.707707
O O11 0.960717 0.672631 0.583060
O O12 0.959299 0.329837 0.787950
O O13 0.962292 0.175909 0.584560
O O14 0.000000 0.500000 0.500000
O O15 0.000000 0.000000 0.000000
#
# Coordination Sequence:
#
# PCOD8147493 Si02
#       8
#     8   8   8   4   4   8   8   8
#     4  10  22  44  64 100 128 174 218 271 333 389
#     4  11  25  40  67  96 133 167 220 266 332 396
#     4  10  23  42  69  94 135 173 216 275 335 394
#     4  10  24  44  64  98 126 180 228 266 346 388
#     4  10  26  44  62 106 126 178 230 256 342 396
#     4  11  25  43  67  96 133 176 219 279 331 397
#     4  11  24  45  69  97 136 178 224 281 330 398
#     4  11  23  42  65 102 128 173 214 270 332 395
#
# _framework density 22.003696000000001
#
# number of rings (size 3 to 8) (size 9 to 14) (size 15 to 20)
#    0.000    1.429    1.429    2.143    6.000    5.714 
#    0.000    0.000    0.000    0.000    0.000    0.000 
#    0.000    0.000    0.000    0.000    0.000    0.000 
#
# Total GULP energy -346980.466023 kJ/mol
# GULP energy per Si atom -12392.159501 kJ/mol
# Density = 2.195361 g / cm^3
# Si number density = 22.003696 Si / 1000 Ang^3
#
#
#
# Elastic Constant Matrix: (Units=GPa)
#
#
# Indices 1 2 3 4 5 6 
#
# 1 113.0245 30.2805 33.4137 0.0000 15.0943 0.0000
# 2 30.2805 87.5464 22.2061 0.0000 5.8310 0.0000
# 3 33.4137 22.2061 89.8903 0.0000 -11.9274 0.0000
# 4 0.0000 0.0000 0.0000 29.0916 0.0000 -4.5992
# 5 15.0943 5.8310 -11.9274 0.0000 39.5635 0.0000
# 6 0.0000 0.0000 0.0000 -4.5992 0.0000 27.1908
#
#
#
# Elastic Compliance Matrix: (Units=1/GPa)
#
#
# Indices 1 2 3 4 5 6 
#
# 1 0.011530 -0.002523 -0.004372 0.000000 -0.005345 0.000000
# 2 -0.002523 0.013047 -0.002513 0.000000 -0.001718 0.000000
# 3 -0.004372 -0.002513 0.014209 0.000000 0.006322 0.000000
# 4 0.000000 0.000000 0.000000 0.035319 0.000000 0.005974
# 5 -0.005345 -0.001718 0.006322 0.000000 0.029474 0.000000
# 6 0.000000 0.000000 0.000000 0.005974 0.000000 0.037788
#
#
# Mechanical properties :
#
#
# Convention : Reuss Voigt Hill
#
# Bulk Modulus (GPa) = 50.07420 51.36242 50.71831
# Shear Modulus (GPa) = 29.96888 32.80656 31.38772
#
# Velocity S-wave (km/s) = 3.69452 3.86548 3.78097
# Velocity P-wave (km/s) = 6.40359 6.58148 6.49314
#
# Compressibility (1/GPa) = 0.01997036
#
# Stress axis : x y z
#
# Youngs Moduli (GPa) = 86.73151 76.64552 70.37569
#
# Poissons Ratio (x) = 0.19338 0.30767
# Poissons Ratio (y) = 0.21883 0.17687
# Poissons Ratio (z) = 0.37917 0.19263
#
# Static dielectric constant tensor:
#      x y z
#    x 3.891090 0.000000 -0.181810 
#    y 0.000000 4.086550 0.000000 
#    z -0.181810 0.000000 3.945670 
# 
# 
# High freq. dielectric constant tensor:
#      x y z
#    x 1.860110 0.000000 -0.018720 
#    y 0.000000 1.871070 0.000000 
#    z -0.018720 0.000000 1.869320 
# 
# From -- ./inp_files/69490.got.cif
#   From: 2010.06.25/outbox.cif.g09.slc.cpg/sg15_35_cif.got.tgz:69490.got - 2010.06.28 07:06:18.
