data_PCOD8147246
_publ_section_title
;
Structure prediction by ZEFSAII (Michael W. Deem and Ramdas Pophale) SiO2 
 PCOD8147246
Probable space group: C 2/C
;
_chemical_formula_sum "Si O2"
_cell_formula_units_Z 52
_cell_length_a 7.731724
_cell_length_b 27.194336
_cell_length_c 12.085130
_cell_angle_alpha 90.000000
_cell_angle_beta 83.163222
_cell_angle_gamma 90.000000
_cell_volume 2522.940212
_symmetry_space_group_name_H-M "C 2/C"
_symmetry_group_IT_number 15
_symmetry_cell_setting 'monoclinic'
loop_
_space_group_symop_operation_xyz
x,y,z
-x,y,1/2-z
-x,-y,-z
x,-y,1/2+z
1/2+x,1/2+y,z
1/2-x,1/2+y,1/2-z
1/2-x,1/2-y,-z
1/2+x,1/2-y,1/2+z
loop_
_atom_site_type_symbol
_atom_site_label
_atom_site_fract_x
_atom_site_fract_y
_atom_site_fract_z
Si Si1 0.000000 0.081029 0.250000
Si Si2 0.923473 0.430057 0.047168
Si Si3 0.407848 0.780155 0.940739
Si Si4 0.861689 0.529449 0.162597
Si Si5 0.815141 0.132984 0.069260
Si Si6 0.541430 0.682692 0.866706
Si Si7 0.431661 0.832460 0.370925
O O1 0.832802 0.047394 0.291583
O O2 0.948051 0.117788 0.154989
O O3 0.767059 0.416468 0.975469
O O4 0.085364 0.445551 0.957392
O O5 0.859480 0.471350 0.138297
O O6 0.979121 0.384970 0.118901
O O7 0.337479 0.828553 0.878178
O O8 0.526974 0.742584 0.860442
O O9 0.250000 0.750000 0.000000
O O10 0.524096 0.795768 0.034948
O O11 0.000000 0.541914 0.250000
O O12 0.907206 0.161641 0.964094
O O13 0.500000 0.660518 0.750000
O O14 0.726482 0.662439 0.887364
O O15 0.500000 0.810056 0.250000
#
# Coordination Sequence:
#
# PCOD8147246 Si02
#       7
#     4   8   8   8   8   8   8
#     4  12  24  44  68 102 132 176 230 270 342 396
#     4  10  22  43  65  92 131 174 217 271 334 391
#     4   9  20  40  59  89 125 161 212 264 323 381
#     4  11  23  43  66  95 135 169 218 280 333 396
#     4  10  22  43  65  94 130 171 218 272 329 402
#     4  11  22  41  62  97 128 168 219 266 324 400
#     4  11  21  39  64  89 127 171 214 267 329 395
#
# _framework density 20.610873000000002
#
# number of rings (size 3 to 8) (size 9 to 14) (size 15 to 20)
#    0.000    1.538    1.538    4.615    0.000    0.615 
#   26.308    0.000    0.000    0.000    0.000    0.000 
#    0.000    0.000    0.000    0.000    0.000    0.000 
#
# Total GULP energy -322302.598168 kJ/mol
# GULP energy per Si atom -12396.253776 kJ/mol
# Density = 2.056396 g / cm^3
# Si number density = 20.610873 Si / 1000 Ang^3
#
#
#
# Elastic Constant Matrix: (Units=GPa)
#
#
# Indices 1 2 3 4 5 6 
#
# 1 113.9631 34.6823 41.8854 0.0000 19.0347 0.0000
# 2 34.6823 71.9108 37.8402 0.0000 6.4763 0.0000
# 3 41.8854 37.8402 97.3920 0.0000 13.2819 0.0000
# 4 0.0000 0.0000 0.0000 62.4716 0.0000 7.0537
# 5 19.0347 6.4763 13.2819 0.0000 38.9198 0.0000
# 6 0.0000 0.0000 0.0000 7.0537 0.0000 27.6380
#
#
#
# Elastic Compliance Matrix: (Units=1/GPa)
#
#
# Indices 1 2 3 4 5 6 
#
# 1 0.011691 -0.003668 -0.003048 0.000000 -0.004067 0.000000
# 2 -0.003668 0.018645 -0.005756 0.000000 0.000656 0.000000
# 3 -0.003048 -0.005756 0.014139 0.000000 -0.002377 0.000000
# 4 0.000000 0.000000 0.000000 0.016482 0.000000 -0.004207
# 5 -0.004067 0.000656 -0.002377 0.000000 0.028385 0.000000
# 6 0.000000 0.000000 0.000000 -0.004207 0.000000 0.037256
#
#
# Mechanical properties :
#
#
# Convention : Reuss Voigt Hill
#
# Bulk Modulus (GPa) = 51.20217 56.89799 54.05008
# Shear Modulus (GPa) = 31.63505 37.06306 34.34905
#
# Velocity S-wave (km/s) = 3.92199 4.24515 4.08677
# Velocity P-wave (km/s) = 6.73837 7.18987 6.96778
#
# Compressibility (1/GPa) = 0.01953042
#
# Stress axis : x y z
#
# Youngs Moduli (GPa) = 85.53854 53.63317 70.72542
#
# Poissons Ratio (x) = 0.19674 0.21556
# Poissons Ratio (y) = 0.31378 0.40711
# Poissons Ratio (z) = 0.26071 0.30872
#
# Static dielectric constant tensor:
#      x y z
#    x 7.571520 0.000000 -0.656880 
#    y 0.000000 3.914400 0.000000 
#    z -0.656880 0.000000 3.800740 
# 
# 
# High freq. dielectric constant tensor:
#      x y z
#    x 1.809610 0.000000 0.008930 
#    y 0.000000 1.810130 0.000000 
#    z 0.008930 0.000000 1.807170 
# 
# From -- ./inp_files/80735.got.cif
#   From: 2010.06.25/outbox.cif.g09.slc.cpg/sg15_41_cif.got.tgz:80735.got - 2010.06.28 07:06:18.
