data_PCOD8147427
_publ_section_title
;
Structure prediction by ZEFSAII (Michael W. Deem and Ramdas Pophale) SiO2 
 PCOD8147427
Probable space group: C 2/C
;
_chemical_formula_sum "Si O2"
_cell_formula_units_Z 48
_cell_length_a 13.990693
_cell_length_b 14.847555
_cell_length_c 28.632760
_cell_angle_alpha 90.000000
_cell_angle_beta 159.777510
_cell_angle_gamma 90.000000
_cell_volume 2055.960387
_symmetry_space_group_name_H-M "C 2/C"
_symmetry_group_IT_number 15
_symmetry_cell_setting 'monoclinic'
loop_
_space_group_symop_operation_xyz
x,y,z
-x,y,1/2-z
-x,-y,-z
x,-y,1/2+z
1/2+x,1/2+y,z
1/2-x,1/2+y,1/2-z
1/2-x,1/2-y,-z
1/2+x,1/2-y,1/2+z
loop_
_atom_site_type_symbol
_atom_site_label
_atom_site_fract_x
_atom_site_fract_y
_atom_site_fract_z
Si Si1 0.256716 0.379549 0.901999
Si Si2 0.447132 0.699327 0.671240
Si Si3 0.605426 0.024968 0.497734
Si Si4 0.676342 0.074651 0.877475
Si Si5 0.530939 0.221746 0.652584
Si Si6 0.936126 0.897170 0.775819
O O1 0.245734 0.472448 0.926881
O O2 0.000000 0.374485 0.750000
O O3 0.231428 0.290039 0.922099
O O4 0.537904 0.373375 0.001148
O O5 0.500000 0.683728 0.750000
O O6 0.273483 0.617214 0.572055
O O7 0.742912 0.706193 0.782932
O O8 0.334541 0.038501 0.341068
O O9 0.500000 0.000000 0.500000
O O10 0.812875 0.942974 0.579304
O O11 0.500000 0.067045 0.750000
O O12 0.502981 0.126990 0.836524
O O13 0.623642 0.298555 0.731545
O O14 0.250000 0.250000 0.500000
O O15 0.000000 0.887679 0.750000
#
# Coordination Sequence:
#
# PCOD8147427 Si02
#       6
#     8   8   8   8   8   8
#     4   9  20  41  69  95 133 180 218 273 345 412
#     4  11  24  42  69  97 144 182 232 286 354 428
#     4  10  23  43  74 101 138 186 232 291 363 417
#     4  10  22  43  71  97 133 176 227 284 343 416
#     4  12  27  41  70 106 140 186 236 294 357 417
#     4  10  24  44  72 104 141 185 237 288 358 428
#
# _framework density 23.346753
#
# number of rings (size 3 to 8) (size 9 to 14) (size 15 to 20)
#    0.000    1.667    0.000    4.000   14.000    2.000 
#    0.000    0.000    0.000    0.000    0.000    0.000 
#    0.000    0.000    0.000    0.000    0.000    0.000 
#
# Total GULP energy -297536.311540 kJ/mol
# GULP energy per Si atom -12397.346314 kJ/mol
# Density = 2.329362 g / cm^3
# Si number density = 23.346753 Si / 1000 Ang^3
#
#
#
# Elastic Constant Matrix: (Units=GPa)
#
#
# Indices 1 2 3 4 5 6 
#
# 1 91.4026 42.1638 22.7052 0.0074 27.0028 -0.0071
# 2 42.1638 109.9987 -3.3139 0.0115 18.5699 0.0046
# 3 22.7052 -3.3139 89.7942 -0.0025 26.1630 -0.0415
# 4 0.0074 0.0115 -0.0025 38.3452 0.0027 17.4360
# 5 27.0028 18.5699 26.1630 0.0027 38.2814 0.0011
# 6 -0.0071 0.0046 -0.0415 17.4360 0.0011 15.9833
#
#
#
# Elastic Compliance Matrix: (Units=1/GPa)
#
#
# Indices 1 2 3 4 5 6 
#
# 1 0.015908 -0.004900 -0.002031 -0.000006 -0.007456 0.000010
# 2 -0.004900 0.011773 0.002910 -0.000006 -0.004243 0.000009
# 3 -0.002031 0.002910 0.014673 -0.000031 -0.010007 0.000071
# 4 -0.000006 -0.000006 -0.000031 0.051748 0.000026 -0.056452
# 5 -0.007456 -0.004243 -0.010007 0.000026 0.040280 -0.000060
# 6 0.000010 0.000009 0.000071 -0.056452 -0.000060 0.124148
#
#
# Mechanical properties :
#
#
# Convention : Reuss Voigt Hill
#
# Bulk Modulus (GPa) = 29.14370 46.03396 37.58883
# Shear Modulus (GPa) = 17.98487 33.83134 25.90810
#
# Velocity S-wave (km/s) = 2.77851 3.81081 3.33484
# Velocity P-wave (km/s) = 4.77530 6.25486 5.56448
#
# Compressibility (1/GPa) = 0.03431274
#
# Stress axis : x y z
#
# Youngs Moduli (GPa) = 62.85995 84.93729 68.15074
#
# Poissons Ratio (x) = 0.41622 0.13841
# Poissons Ratio (y) = 0.30803 -0.19832
# Poissons Ratio (z) = 0.12766 -0.24716
#
# Static dielectric constant tensor:
#      x y z
#    x 4.439740 -0.000850 0.448390 
#    y -0.000850 5.064850 -0.000660 
#    z 0.448390 -0.000660 4.546460 
# 
# 
# High freq. dielectric constant tensor:
#      x y z
#    x 1.892580 0.000000 0.024970 
#    y 0.000000 1.946760 -0.000010 
#    z 0.024970 -0.000010 1.933200 
# 
# From -- ./inp_files/314158.got.cif
#   From: 2010.06.25/outbox.cif.g09.slc.cpg/sg15_158_cif.got.tgz:314158.got - 2010.06.28 07:06:18.
