data_PCOD8147967
_publ_section_title
;
Structure prediction by ZEFSAII (Michael W. Deem and Ramdas Pophale) SiO2 
 PCOD8147967
Probable space group: C 2/C
;
_chemical_formula_sum "Si O2"
_cell_formula_units_Z 60
_cell_length_a 6.060803
_cell_length_b 24.089875
_cell_length_c 22.759214
_cell_angle_alpha 90.000000
_cell_angle_beta 59.096010
_cell_angle_gamma 90.000000
_cell_volume 2851.175903
_symmetry_space_group_name_H-M "C 2/C"
_symmetry_group_IT_number 15
_symmetry_cell_setting 'monoclinic'
loop_
_space_group_symop_operation_xyz
x,y,z
-x,y,1/2-z
-x,-y,-z
x,-y,1/2+z
1/2+x,1/2+y,z
1/2-x,1/2+y,1/2-z
1/2-x,1/2-y,-z
1/2+x,1/2-y,1/2+z
loop_
_atom_site_type_symbol
_atom_site_label
_atom_site_fract_x
_atom_site_fract_y
_atom_site_fract_z
Si Si1 0.287330 0.031950 0.199194
Si Si2 0.355987 0.184844 0.550682
Si Si3 0.808610 0.344376 0.721741
Si Si4 0.684520 0.197811 0.078750
Si Si5 0.000000 0.441736 0.250000
Si Si6 0.050982 0.088068 0.886704
Si Si7 0.769580 0.520921 0.070280
Si Si8 0.853784 0.118390 0.496977
O O1 0.334144 0.089644 0.225808
O O2 0.365041 0.040751 0.120715
O O3 0.000000 0.011982 0.250000
O O4 0.453886 0.981452 0.200754
O O5 0.392939 0.200610 0.478158
O O6 0.279979 0.242855 0.591856
O O7 0.624593 0.161931 0.536635
O O8 0.144690 0.138614 0.594433
O O9 0.500000 0.329603 0.750000
O O10 0.000000 0.321773 0.750000
O O11 0.929870 0.320242 0.646599
O O12 0.898273 0.151419 0.056864
O O13 0.771287 0.402860 0.306694
O O14 0.139808 0.086850 0.941965
O O15 0.932602 0.027797 0.891012
O O16 0.658824 0.574410 0.053437
O O17 0.000000 0.500000 0.000000
#
# Coordination Sequence:
#
# PCOD8147967 Si02
#       8
#     8   8   8   8   4   8   8   8
#     4  11  24  41  62  92 135 180 219 272 341 419
#     4  10  22  47  65  98 127 170 234 279 355 408
#     4  11  26  45  67 104 139 183 233 288 350 414
#     4  10  24  42  72  94 129 176 226 295 342 409
#     4  12  24  42  62  90 136 176 222 260 338 428
#     4  11  25  41  62  99 129 178 221 275 348 419
#     4  12  23  40  65  96 135 171 221 283 342 414
#     4  11  23  40  70 100 130 168 226 287 347 408
#
# _framework density 21.043949999999999
#
# number of rings (size 3 to 8) (size 9 to 14) (size 15 to 20)
#    0.000    1.067    3.333    2.400    9.333    0.000 
#    1.200    0.000    0.000    0.000    0.000    0.000 
#    0.000    0.000    0.000    0.000    0.000    0.000 
#
# Total GULP energy -371699.161210 kJ/mol
# GULP energy per Si atom -12389.972040 kJ/mol
# Density = 2.099605 g / cm^3
# Si number density = 21.043950 Si / 1000 Ang^3
#
#
#
# Elastic Constant Matrix: (Units=GPa)
#
#
# Indices 1 2 3 4 5 6 
#
# 1 89.3127 13.8246 45.7460 0.0000 -0.8016 0.0000
# 2 13.8246 64.8423 25.1418 0.0000 -1.8062 0.0000
# 3 45.7460 25.1418 122.1342 0.0000 -23.3247 0.0000
# 4 0.0000 0.0000 0.0000 18.8790 0.0000 11.8181
# 5 -0.8016 -1.8062 -23.3247 0.0000 33.8173 0.0000
# 6 0.0000 0.0000 0.0000 11.8181 0.0000 -3.3886
#
#
#
# Elastic Compliance Matrix: (Units=1/GPa)
#
#
# Indices 1 2 3 4 5 6 
#
# 1 0.014323 -0.000868 -0.005908 0.000000 -0.003782 0.000000
# 2 -0.000868 0.016899 -0.003438 0.000000 -0.001489 0.000000
# 3 -0.005908 -0.003438 0.012722 0.000000 0.008451 0.000000
# 4 0.000000 0.000000 0.000000 0.016640 0.000000 0.058034
# 5 -0.003782 -0.001489 0.008451 0.000000 0.035231 0.000000
# 6 0.000000 0.000000 0.000000 0.058034 0.000000 -0.092707
#
#
# Mechanical properties :
#
#
# Convention : Reuss Voigt Hill
#
# Bulk Modulus (GPa) = 42.52528 49.52378 46.02453
# Shear Modulus (GPa) = 159.35790 22.63332 90.99561
#
# Velocity S-wave (km/s) = 8.71152 3.28308 6.58290
# Velocity P-wave (km/s) = 11.01995 6.16085 8.92735
#
# Compressibility (1/GPa) = 0.02351542
#
# Stress axis : x y z
#
# Youngs Moduli (GPa) = 69.81595 59.17635 78.60121
#
# Poissons Ratio (x) = 0.05138 0.46441
# Poissons Ratio (y) = 0.06062 0.27022
# Poissons Ratio (z) = 0.41250 0.20344
#
# Static dielectric constant tensor:
#      x y z
#    x 3.810790 0.000000 -0.325730 
#    y 0.000000 3.551040 0.000000 
#    z -0.325730 0.000000 3.501730 
# 
# 
# High freq. dielectric constant tensor:
#      x y z
#    x 1.831010 0.000000 -0.006600 
#    y 0.000000 1.821470 0.000000 
#    z -0.006600 0.000000 1.829020 
# 
# From -- ./inp_files/228603.got.cif
#   From: 2010.06.25/outbox.cif.g09.slc.cpg/sg15_115_cif.got.tgz:228603.got - 2010.06.28 07:06:18.
