data_PCOD8147769
_publ_section_title
;
Structure prediction by ZEFSAII (Michael W. Deem and Ramdas Pophale) SiO2 
 PCOD8147769
Probable space group: C 2/C
;
_chemical_formula_sum "Si O2"
_cell_formula_units_Z 48
_cell_length_a 16.424461
_cell_length_b 14.662892
_cell_length_c 10.457220
_cell_angle_alpha 90.000000
_cell_angle_beta 114.778909
_cell_angle_gamma 90.000000
_cell_volume 2286.547586
_symmetry_space_group_name_H-M "C 2/C"
_symmetry_group_IT_number 15
_symmetry_cell_setting 'monoclinic'
loop_
_space_group_symop_operation_xyz
x,y,z
-x,y,1/2-z
-x,-y,-z
x,-y,1/2+z
1/2+x,1/2+y,z
1/2-x,1/2+y,1/2-z
1/2-x,1/2-y,-z
1/2+x,1/2-y,1/2+z
loop_
_atom_site_type_symbol
_atom_site_label
_atom_site_fract_x
_atom_site_fract_y
_atom_site_fract_z
Si Si1 0.433870 0.403475 0.827684
Si Si2 0.493922 0.107776 0.105656
Si Si3 0.028176 0.802934 0.121187
Si Si4 0.652458 0.004050 0.100564
Si Si5 0.674692 0.423847 0.160668
Si Si6 0.224232 0.849633 0.932255
O O1 0.500000 0.410509 0.750000
O O2 0.396946 0.502082 0.841573
O O3 0.477159 0.367673 0.986652
O O4 0.650857 0.340358 0.770979
O O5 0.500000 0.146227 0.250000
O O6 0.511731 0.203314 0.045016
O O7 0.570136 0.031457 0.138097
O O8 0.394066 0.066958 0.026436
O O9 0.000000 0.818323 0.250000
O O10 0.134771 0.827647 0.186516
O O11 0.727206 0.946105 0.222189
O O12 0.688136 0.096299 0.059041
O O13 0.681906 0.415109 0.012726
O O14 0.250000 0.750000 0.000000
#
# Coordination Sequence:
#
# PCOD8147769 Si02
#       6
#     8   8   8   8   8   8
#     4  11  24  42  67  98 132 176 219 270 338 391
#     4  10  22  45  61  91 125 173 226 263 334 400
#     4  11  24  41  67  92 135 175 220 273 325 401
#     4  10  23  40  67  90 128 175 213 278 332 397
#     4  11  23  40  65  95 132 166 216 271 336 387
#     4  11  24  41  66 101 135 166 226 276 328 395
#
# _framework density 20.992346999999999
#
# number of rings (size 3 to 8) (size 9 to 14) (size 15 to 20)
#    0.000    1.333    1.667    3.000    7.000    0.000 
#    0.000    1.667    0.000    0.000    0.000    0.000 
#    0.000    0.000    0.000    0.000    0.000    0.000 
#
# Total GULP energy -297331.894018 kJ/mol
# GULP energy per Si atom -12388.828917 kJ/mol
# Density = 2.094457 g / cm^3
# Si number density = 20.992347 Si / 1000 Ang^3
#
#
#
# Elastic Constant Matrix: (Units=GPa)
#
#
# Indices 1 2 3 4 5 6 
#
# 1 87.2801 26.1701 53.9799 0.0000 18.6898 0.0000
# 2 26.1701 95.8495 54.4992 0.0000 25.9518 0.0000
# 3 53.9799 54.4992 129.9044 0.0000 11.9209 0.0000
# 4 0.0000 0.0000 0.0000 7.8960 0.0000 -1.2736
# 5 18.6898 25.9518 11.9209 0.0000 38.8898 0.0000
# 6 0.0000 0.0000 0.0000 -1.2736 0.0000 28.6797
#
#
#
# Elastic Compliance Matrix: (Units=1/GPa)
#
#
# Indices 1 2 3 4 5 6 
#
# 1 0.016783 0.001119 -0.006827 0.000000 -0.006719 0.000000
# 2 0.001119 0.016369 -0.006462 0.000000 -0.009480 0.000000
# 3 -0.006827 -0.006462 0.012912 0.000000 0.003635 0.000000
# 4 0.000000 0.000000 0.000000 0.127560 0.000000 0.005665
# 5 -0.006719 -0.009480 0.003635 0.000000 0.034155 0.000000
# 6 0.000000 0.000000 0.000000 0.005665 0.000000 0.035119
#
#
# Mechanical properties :
#
#
# Convention : Reuss Voigt Hill
#
# Bulk Modulus (GPa) = 46.03307 64.70361 55.36834
# Shear Modulus (GPa) = 18.21633 26.98541 22.60087
#
# Velocity S-wave (km/s) = 2.94897 3.58926 3.28476
# Velocity P-wave (km/s) = 5.79408 6.93300 6.38897
#
# Compressibility (1/GPa) = 0.02172352
#
# Stress axis : x y z
#
# Youngs Moduli (GPa) = 59.58467 61.09265 77.44676
#
# Poissons Ratio (x) = -0.06834 0.52869
# Poissons Ratio (y) = -0.06665 0.50046
# Poissons Ratio (z) = 0.40676 0.39478
#
# Static dielectric constant tensor:
#      x y z
#    x 3.928700 0.000000 0.122950 
#    y 0.000000 3.865320 0.000000 
#    z 0.122950 0.000000 3.931300 
# 
# 
# High freq. dielectric constant tensor:
#      x y z
#    x 1.831440 0.000000 0.006020 
#    y 0.000000 1.827860 0.000000 
#    z 0.006020 0.000000 1.822950 
# 
# From -- ./inp_files/97167.got.cif
#   From: 2010.06.25/outbox.cif.g09.slc.cpg/sg15_49_cif.got.tgz:97167.got - 2010.06.28 07:06:18.
