data_PCOD8147029
_publ_section_title
;
Structure prediction by ZEFSAII (Michael W. Deem and Ramdas Pophale) SiO2 
 PCOD8147029
Probable space group: C 2/C
;
_chemical_formula_sum "Si O2"
_cell_formula_units_Z 44
_cell_length_a 23.548437
_cell_length_b 10.408419
_cell_length_c 9.101452
_cell_angle_alpha 90.000000
_cell_angle_beta 123.425249
_cell_angle_gamma 90.000000
_cell_volume 1861.823987
_symmetry_space_group_name_H-M "C 2/C"
_symmetry_group_IT_number 15
_symmetry_cell_setting 'monoclinic'
loop_
_space_group_symop_operation_xyz
x,y,z
-x,y,1/2-z
-x,-y,-z
x,-y,1/2+z
1/2+x,1/2+y,z
1/2-x,1/2+y,1/2-z
1/2-x,1/2-y,-z
1/2+x,1/2-y,1/2+z
loop_
_atom_site_type_symbol
_atom_site_label
_atom_site_fract_x
_atom_site_fract_y
_atom_site_fract_z
Si Si1 0.500000 0.489932 0.750000
Si Si2 0.717941 0.844867 0.777582
Si Si3 0.419106 0.107380 0.283685
Si Si4 0.271960 0.438073 0.159011
Si Si5 0.571437 0.854076 0.032218
Si Si6 0.591423 0.411488 0.633687
O O1 0.554844 0.406514 0.739612
O O2 0.461353 0.575265 0.575435
O O3 0.639634 0.819780 0.711133
O O4 0.743098 0.698397 0.778973
O O5 0.725199 0.944379 0.652360
O O6 0.758839 0.913761 0.968210
O O7 0.490488 0.179383 0.412119
O O8 0.419287 0.960686 0.332346
O O9 0.400933 0.101032 0.085835
O O10 0.350078 0.482293 0.288783
O O11 0.617857 0.733585 0.148347
#
# Coordination Sequence:
#
# PCOD8147029 Si02
#       6
#     4   8   8   8   8   8
#     4  10  24  40  68 104 134 176 226 284 362 396
#     4  11  26  47  71 102 137 191 230 294 338 427
#     4  10  22  42  69 101 136 187 226 288 344 425
#     4  11  27  46  72 100 141 184 239 281 356 408
#     4  10  23  41  70 101 141 176 233 286 361 404
#     4  11  24  44  69 105 138 184 227 297 342 429
#
# _framework density 23.632739999999998
#
# number of rings (size 3 to 8) (size 9 to 14) (size 15 to 20)
#    0.000    1.455    0.000    3.273   15.273    3.636 
#    6.545    0.000    0.000    0.000    0.000    0.000 
#    0.000    0.000    0.000    0.000    0.000    0.000 
#
# Total GULP energy -272696.007857 kJ/mol
# GULP energy per Si atom -12395.273084 kJ/mol
# Density = 2.357895 g / cm^3
# Si number density = 23.632740 Si / 1000 Ang^3
#
#
#
# Elastic Constant Matrix: (Units=GPa)
#
#
# Indices 1 2 3 4 5 6 
#
# 1 104.1831 28.6352 21.4189 0.0000 -17.8882 0.0000
# 2 28.6352 163.8741 40.3379 0.0000 -17.2837 0.0000
# 3 21.4189 40.3379 57.7101 0.0000 -12.1101 0.0000
# 4 0.0000 0.0000 0.0000 27.0108 0.0000 1.2409
# 5 -17.8882 -17.2837 -12.1101 0.0000 36.7212 0.0000
# 6 0.0000 0.0000 0.0000 1.2409 0.0000 11.3399
#
#
#
# Elastic Compliance Matrix: (Units=1/GPa)
#
#
# Indices 1 2 3 4 5 6 
#
# 1 0.011086 -0.000848 -0.002656 0.000000 0.004125 0.000000
# 2 -0.000848 0.007561 -0.004630 0.000000 0.001618 0.000000
# 3 -0.002656 -0.004630 0.022370 0.000000 0.003904 0.000000
# 4 0.000000 0.000000 0.000000 0.037209 0.000000 -0.004072
# 5 0.004125 0.001618 0.003904 0.000000 0.031291 0.000000
# 6 0.000000 0.000000 0.000000 -0.004072 0.000000 0.088630
#
#
# Mechanical properties :
#
#
# Convention : Reuss Voigt Hill
#
# Bulk Modulus (GPa) = 40.40881 56.28347 48.34614
# Shear Modulus (GPa) = 22.45527 30.70607 26.58067
#
# Velocity S-wave (km/s) = 3.08584 3.60849 3.35735
# Velocity P-wave (km/s) = 5.46189 6.42100 5.96077
#
# Compressibility (1/GPa) = 0.02474708
#
# Stress axis : x y z
#
# Youngs Moduli (GPa) = 90.20408 132.25815 44.70370
#
# Poissons Ratio (x) = 0.11220 0.11873
# Poissons Ratio (y) = 0.07652 0.20700
# Poissons Ratio (z) = 0.23957 0.61242
#
# Static dielectric constant tensor:
#      x y z
#    x 4.399540 0.000000 0.037340 
#    y 0.000000 4.132020 0.000000 
#    z 0.037340 0.000000 4.195410 
# 
# 
# High freq. dielectric constant tensor:
#      x y z
#    x 1.943110 0.000000 0.000950 
#    y 0.000000 1.938490 0.000000 
#    z 0.000950 0.000000 1.924290 
# 
# From -- ./inp_files/60937.got.cif
#   From: 2010.06.25/outbox.cif.g09.slc.cpg/sg15_31_cif.got.tgz:60937.got - 2010.06.28 07:06:18.
