data_PCOD8147247
_publ_section_title
;
Structure prediction by ZEFSAII (Michael W. Deem and Ramdas Pophale) SiO2 
 PCOD8147247
Probable space group: C 2/C
;
_chemical_formula_sum "Si O2"
_cell_formula_units_Z 52
_cell_length_a 26.463531
_cell_length_b 10.680686
_cell_length_c 9.318126
_cell_angle_alpha 90.000000
_cell_angle_beta 82.041822
_cell_angle_gamma 90.000000
_cell_volume 2608.391204
_symmetry_space_group_name_H-M "C 2/C"
_symmetry_group_IT_number 15
_symmetry_cell_setting 'monoclinic'
loop_
_space_group_symop_operation_xyz
x,y,z
-x,y,1/2-z
-x,-y,-z
x,-y,1/2+z
1/2+x,1/2+y,z
1/2-x,1/2+y,1/2-z
1/2-x,1/2-y,-z
1/2+x,1/2-y,1/2+z
loop_
_atom_site_type_symbol
_atom_site_label
_atom_site_fract_x
_atom_site_fract_y
_atom_site_fract_z
Si Si1 0.272859 0.896353 0.342611
Si Si2 0.775427 0.110819 0.330971
Si Si3 0.500000 0.726658 0.750000
Si Si4 0.608218 0.621689 0.258511
Si Si5 0.946944 0.031337 0.947919
Si Si6 0.951254 0.425602 0.573032
Si Si7 0.108942 0.398773 0.190973
O O1 0.240405 0.903641 0.498976
O O2 0.265758 0.754837 0.280281
O O3 0.331571 0.927403 0.352779
O O4 0.254601 0.006173 0.245507
O O5 0.834871 0.079034 0.299857
O O6 0.545508 0.647599 0.661358
O O7 0.472190 0.800913 0.635724
O O8 0.594524 0.559742 0.414974
O O9 0.601744 0.769805 0.278683
O O10 0.571723 0.583217 0.141851
O O11 0.000000 0.000000 0.000000
O O12 0.914530 0.390661 0.457680
O O13 0.919276 0.496898 0.706153
O O14 0.000000 0.500000 0.500000
#
# Coordination Sequence:
#
# PCOD8147247 Si02
#       7
#     8   8   4   8   8   8   8
#     4  10  22  43  66  94 126 162 209 262 317 375
#     4  10  22  43  65  93 126 161 210 261 317 374
#     4  12  24  40  62  92 128 164 210 254 304 364
#     4  11  24  41  65  90 125 167 206 256 312 369
#     4  12  23  42  62  92 126 165 209 253 307 367
#     4  12  23  42  62  92 127 167 209 253 307 368
#     4  11  24  41  65  91 125 168 206 256 312 370
#
# _framework density 19.935659000000001
#
# number of rings (size 3 to 8) (size 9 to 14) (size 15 to 20)
#    0.000    0.923    3.077    3.692    0.000    1.846 
#    2.769    0.000    0.000    0.000    0.000    0.000 
#    0.000    0.000    0.000    0.000    0.000    0.000 
#
# Total GULP energy -322452.797886 kJ/mol
# GULP energy per Si atom -12402.030688 kJ/mol
# Density = 1.989028 g / cm^3
# Si number density = 19.935659 Si / 1000 Ang^3
#
#
#
# Elastic Constant Matrix: (Units=GPa)
#
#
# Indices 1 2 3 4 5 6 
#
# 1 103.4338 37.5905 35.3534 0.0000 -8.6007 0.0000
# 2 37.5905 86.9842 29.4418 0.0000 1.4385 0.0000
# 3 35.3534 29.4418 106.6635 0.0000 -14.3373 0.0000
# 4 0.0000 0.0000 0.0000 43.7812 0.0000 7.1300
# 5 -8.6007 1.4385 -14.3373 0.0000 43.7821 0.0000
# 6 0.0000 0.0000 0.0000 7.1300 0.0000 35.6472
#
#
#
# Elastic Compliance Matrix: (Units=1/GPa)
#
#
# Indices 1 2 3 4 5 6 
#
# 1 0.012331 -0.004469 -0.002624 0.000000 0.001710 0.000000
# 2 -0.004469 0.014414 -0.002802 0.000000 -0.002269 0.000000
# 3 -0.002624 -0.002802 0.011466 0.000000 0.003331 0.000000
# 4 0.000000 0.000000 0.000000 0.023610 0.000000 -0.004722
# 5 0.001710 -0.002269 0.003331 0.000000 0.024342 0.000000
# 6 0.000000 0.000000 0.000000 -0.004722 0.000000 0.028997
#
#
# Mechanical properties :
#
#
# Convention : Reuss Voigt Hill
#
# Bulk Modulus (GPa) = 54.28633 55.76144 55.02388
# Shear Modulus (GPa) = 35.43819 37.62181 36.53000
#
# Velocity S-wave (km/s) = 4.22077 4.34886 4.28529
# Velocity P-wave (km/s) = 7.14444 7.29714 7.22119
#
# Compressibility (1/GPa) = 0.01842084
#
# Stress axis : x y z
#
# Youngs Moduli (GPa) = 81.09506 69.37826 87.21286
#
# Poissons Ratio (x) = 0.31007 0.22882
# Poissons Ratio (y) = 0.36243 0.24439
# Poissons Ratio (z) = 0.21277 0.19442
#
# Static dielectric constant tensor:
#      x y z
#    x 3.758700 0.000000 -0.090450 
#    y 0.000000 3.797330 0.000000 
#    z -0.090450 0.000000 3.835330 
# 
# 
# High freq. dielectric constant tensor:
#      x y z
#    x 1.785570 0.000000 -0.009850 
#    y 0.000000 1.787980 0.000000 
#    z -0.009850 0.000000 1.791230 
# 
# From -- ./inp_files/65064.got.cif
#   From: 2010.06.25/outbox.cif.g09.slc.cpg/sg15_33_cif.got.tgz:65064.got - 2010.06.28 07:06:18.
