data_PCOD8147163
_publ_section_title
;
Structure prediction by ZEFSAII (Michael W. Deem and Ramdas Pophale) SiO2 
 PCOD8147163
Probable space group: C 2/C
;
_chemical_formula_sum "Si O2"
_cell_formula_units_Z 40
_cell_length_a 17.047970
_cell_length_b 9.894028
_cell_length_c 16.631753
_cell_angle_alpha 90.000000
_cell_angle_beta 143.731864
_cell_angle_gamma 90.000000
_cell_volume 1659.534253
_symmetry_space_group_name_H-M "C 2/C"
_symmetry_group_IT_number 15
_symmetry_cell_setting 'monoclinic'
loop_
_space_group_symop_operation_xyz
x,y,z
-x,y,1/2-z
-x,-y,-z
x,-y,1/2+z
1/2+x,1/2+y,z
1/2-x,1/2+y,1/2-z
1/2-x,1/2-y,-z
1/2+x,1/2-y,1/2+z
loop_
_atom_site_type_symbol
_atom_site_label
_atom_site_fract_x
_atom_site_fract_y
_atom_site_fract_z
Si Si1 0.770785 0.816188 0.228978
Si Si2 0.114722 0.586722 0.901976
Si Si3 0.484088 0.531376 0.825452
Si Si4 0.326124 0.658936 0.952962
Si Si5 0.036464 0.309234 0.919838
O O1 0.751317 0.852083 0.306360
O O2 0.832157 0.941508 0.227736
O O3 0.878819 0.691827 0.313462
O O4 0.625203 0.790104 0.073537
O O5 0.244667 0.579589 0.954385
O O6 0.073281 0.439700 0.899172
O O7 0.000000 0.647001 0.750000
O O8 0.143601 0.685611 0.000386
O O9 0.500000 0.467143 0.750000
O O10 0.565123 0.674153 0.891387
O O11 0.537122 0.425193 0.935504
#
# Coordination Sequence:
#
# PCOD8147163 Si02
#       5
#     8   8   8   8   8
#     4  10  25  44  72 102 136 181 233 285 343 409
#     4  11  26  43  69 100 141 182 231 285 347 411
#     4  10  22  42  73  96 136 177 232 277 343 407
#     4  11  25  44  67  99 142 185 226 280 350 419
#     4  10  25  44  71 103 136 178 234 289 341 406
#
# _framework density 24.103147
#
# number of rings (size 3 to 8) (size 9 to 14) (size 15 to 20)
#    1.200    0.400    0.000    3.000    5.600    5.600 
#    0.000    0.000    0.000    0.000    0.000    0.000 
#    0.000    0.000    0.000    0.000    0.000    0.000 
#
# Total GULP energy -247864.688654 kJ/mol
# GULP energy per Si atom -12393.234433 kJ/mol
# Density = 2.404829 g / cm^3
# Si number density = 24.103147 Si / 1000 Ang^3
#
#
#
# Elastic Constant Matrix: (Units=GPa)
#
#
# Indices 1 2 3 4 5 6 
#
# 1 54.6456 26.4423 2.1611 0.0000 -19.1022 0.0000
# 2 26.4423 85.9053 -1.4768 0.0000 -3.4678 0.0000
# 3 2.1611 -1.4768 107.6536 0.0000 -19.8318 0.0000
# 4 0.0000 0.0000 0.0000 12.8965 0.0000 4.5910
# 5 -19.1022 -3.4678 -19.8318 0.0000 37.4720 0.0000
# 6 0.0000 0.0000 0.0000 4.5910 0.0000 8.3404
#
#
#
# Elastic Compliance Matrix: (Units=1/GPa)
#
#
# Indices 1 2 3 4 5 6 
#
# 1 0.026817 -0.007657 0.001933 0.000000 0.013985 0.000000
# 2 -0.007657 0.013886 -0.000153 0.000000 -0.002699 0.000000
# 3 0.001933 -0.000153 0.010445 0.000000 0.006499 0.000000
# 4 0.000000 0.000000 0.000000 0.096438 0.000000 -0.053085
# 5 0.013985 -0.002699 0.006499 0.000000 0.037006 0.000000
# 6 0.000000 0.000000 0.000000 -0.053085 0.000000 0.149120
#
#
# Mechanical properties :
#
#
# Convention : Reuss Voigt Hill
#
# Bulk Modulus (GPa) = 25.38412 33.60641 29.49526
# Shear Modulus (GPa) = 13.94321 26.48029 20.21175
#
# Velocity S-wave (km/s) = 2.40777 3.31815 2.89892
# Velocity P-wave (km/s) = 4.27600 5.35286 4.84444
#
# Compressibility (1/GPa) = 0.03939471
#
# Stress axis : x y z
#
# Youngs Moduli (GPa) = 37.28989 72.01539 95.73535
#
# Poissons Ratio (x) = 0.55140 -0.18505
# Poissons Ratio (y) = 0.28552 0.01465
# Poissons Ratio (z) = -0.07208 0.01102
#
# Static dielectric constant tensor:
#      x y z
#    x 3.997230 0.000000 0.105710 
#    y 0.000000 3.989960 0.000000 
#    z 0.105710 0.000000 4.390740 
# 
# 
# High freq. dielectric constant tensor:
#      x y z
#    x 1.941170 0.000000 -0.001970 
#    y 0.000000 1.944450 0.000000 
#    z -0.001970 0.000000 1.969510 
# 
# From -- ./inp_files/161148.got.cif
#   From: 2010.06.25/outbox.cif.g09.slc.cpg/sg15_81_cif.got.tgz:161148.got - 2010.06.28 07:06:18.
