data_PCOD8147765
_publ_section_title
;
Structure prediction by ZEFSAII (Michael W. Deem and Ramdas Pophale) SiO2 
 PCOD8147765
Probable space group: C 2/C
;
_chemical_formula_sum "Si O2"
_cell_formula_units_Z 36
_cell_length_a 21.096524
_cell_length_b 13.433007
_cell_length_c 12.963491
_cell_angle_alpha 90.000000
_cell_angle_beta 24.353694
_cell_angle_gamma 90.000000
_cell_volume 1514.925845
_symmetry_space_group_name_H-M "C 2/C"
_symmetry_group_IT_number 15
_symmetry_cell_setting 'monoclinic'
loop_
_space_group_symop_operation_xyz
x,y,z
-x,y,1/2-z
-x,-y,-z
x,-y,1/2+z
1/2+x,1/2+y,z
1/2-x,1/2+y,1/2-z
1/2-x,1/2-y,-z
1/2+x,1/2-y,1/2+z
loop_
_atom_site_type_symbol
_atom_site_label
_atom_site_fract_x
_atom_site_fract_y
_atom_site_fract_z
Si Si1 0.407295 0.602888 0.624497
Si Si2 0.500000 0.076782 0.750000
Si Si3 0.316336 0.926862 0.882599
Si Si4 0.525486 0.188051 0.914384
Si Si5 0.176403 0.092113 0.968398
O O1 0.500000 0.500000 0.500000
O O2 0.520993 0.693516 0.430904
O O3 0.290697 0.591683 0.702019
O O4 0.306293 0.638922 0.872170
O O5 0.445382 0.148581 0.926531
O O6 0.374302 0.005603 0.883084
O O7 0.448356 0.865806 0.628571
O O8 0.212806 0.981101 0.951085
O O9 0.707457 0.166622 0.646002
O O10 0.000000 0.122731 0.250000
#
# Coordination Sequence:
#
# PCOD8147765 Si02
#       5
#     8   4   8   8   8
#     4  12  26  45  69 104 145 189 235 299 349 414
#     4  10  22  44  76 104 142 182 236 294 358 426
#     4  11  22  47  73 103 146 185 235 297 358 423
#     4  11  26  44  76 107 139 191 243 285 360 431
#     4  11  24  45  69 104 143 183 243 288 356 420
#
# _framework density 23.763539999999999
#
# number of rings (size 3 to 8) (size 9 to 14) (size 15 to 20)
#    0.000    0.889    2.222    6.000    1.556    4.444 
#    0.000    2.222    0.000    0.000    0.000    0.000 
#    0.000    0.000    0.000    0.000    0.000    0.000 
#
# Total GULP energy -223019.447203 kJ/mol
# GULP energy per Si atom -12389.969289 kJ/mol
# Density = 2.370945 g / cm^3
# Si number density = 23.763540 Si / 1000 Ang^3
#
#
#
# Elastic Constant Matrix: (Units=GPa)
#
#
# Indices 1 2 3 4 5 6 
#
# 1 137.1107 56.2126 43.0447 -0.0003 0.8980 0.0001
# 2 56.2126 127.5636 37.3019 -0.0010 2.3978 0.0005
# 3 43.0447 37.3019 115.4743 -0.0010 -0.1644 0.0005
# 4 -0.0003 -0.0010 -0.0010 31.8335 0.0006 10.6701
# 5 0.8980 2.3978 -0.1644 0.0006 36.0246 -0.0002
# 6 0.0001 0.0005 0.0005 10.6701 -0.0002 26.9104
#
#
#
# Elastic Compliance Matrix: (Units=1/GPa)
#
#
# Indices 1 2 3 4 5 6 
#
# 1 0.009472 -0.003469 -0.002410 0.000000 -0.000016 0.000000
# 2 -0.003469 0.009940 -0.001919 0.000000 -0.000584 0.000000
# 3 -0.002410 -0.001919 0.010179 0.000000 0.000234 0.000000
# 4 0.000000 0.000000 0.000000 0.036228 -0.000001 -0.014365
# 5 -0.000016 -0.000584 0.000234 -0.000001 0.027799 0.000001
# 6 0.000000 0.000000 0.000000 -0.014365 0.000001 0.042856
#
#
# Mechanical properties :
#
#
# Convention : Reuss Voigt Hill
#
# Bulk Modulus (GPa) = 71.45492 72.58521 72.02007
# Shear Modulus (GPa) = 31.90089 35.19299 33.54694
#
# Velocity S-wave (km/s) = 3.66789 3.85251 3.76133
# Velocity P-wave (km/s) = 6.93342 7.09931 7.01685
#
# Compressibility (1/GPa) = 0.01399484
#
# Stress axis : x y z
#
# Youngs Moduli (GPa) = 105.56956 100.60468 98.24570
#
# Poissons Ratio (x) = 0.34900 0.23681
# Poissons Ratio (y) = 0.36622 0.18850
# Poissons Ratio (z) = 0.25447 0.19302
#
# Static dielectric constant tensor:
#      x y z
#    x 4.817930 0.000000 0.324300 
#    y 0.000000 4.148260 0.000000 
#    z 0.324300 0.000000 4.113500 
# 
# 
# High freq. dielectric constant tensor:
#      x y z
#    x 1.962760 0.000000 0.015740 
#    y 0.000000 1.933390 0.000000 
#    z 0.015740 0.000000 1.936450 
# 
# From -- ./inp_files/173575.got.cif
#   From: 2010.06.25/outbox.cif.g09.slc.cpg/sg15_87_cif.got.tgz:173575.got - 2010.06.28 07:06:18.
