data_PCOD8147135
_publ_section_title
;
Structure prediction by ZEFSAII (Michael W. Deem and Ramdas Pophale) SiO2 
 PCOD8147135
Probable space group: C 2/C
;
_chemical_formula_sum "Si O2"
_cell_formula_units_Z 36
_cell_length_a 20.780300
_cell_length_b 11.460310
_cell_length_c 13.958645
_cell_angle_alpha 90.000000
_cell_angle_beta 25.261322
_cell_angle_gamma 90.000000
_cell_volume 1418.607930
_symmetry_space_group_name_H-M "C 2/C"
_symmetry_group_IT_number 15
_symmetry_cell_setting 'monoclinic'
loop_
_space_group_symop_operation_xyz
x,y,z
-x,y,1/2-z
-x,-y,-z
x,-y,1/2+z
1/2+x,1/2+y,z
1/2-x,1/2+y,1/2-z
1/2-x,1/2-y,-z
1/2+x,1/2-y,1/2+z
loop_
_atom_site_type_symbol
_atom_site_label
_atom_site_fract_x
_atom_site_fract_y
_atom_site_fract_z
Si Si1 0.653805 0.999981 0.649316
Si Si2 0.619827 0.426617 0.016010
Si Si3 0.000000 0.702348 0.250000
Si Si4 0.639568 0.383105 0.784938
Si Si5 0.446186 0.219024 0.922942
O O1 0.783736 0.040184 0.400404
O O2 0.519674 0.091563 0.836659
O O3 0.719567 0.979351 0.667539
O O4 0.594165 0.875442 0.696276
O O5 0.500000 0.485736 0.250000
O O6 0.613534 0.285684 0.036774
O O7 0.583525 0.460114 0.953216
O O8 0.501018 0.306106 0.932116
O O9 0.765977 0.296920 0.662936
O O10 0.500000 0.274046 0.750000
#
# Coordination Sequence:
#
# PCOD8147135 Si02
#       5
#     8   8   4   8   8
#     4  11  21  44  70  95 139 178 227 272 342 407
#     4  10  27  41  64 101 137 179 221 285 330 403
#     4  10  22  44  62  94 142 174 216 280 330 396
#     4  11  24  43  72 102 136 181 224 281 349 396
#     4  10  22  42  72 104 134 175 229 286 333 405
#
# _framework density 25.376991
#
# number of rings (size 3 to 8) (size 9 to 14) (size 15 to 20)
#    0.667    0.889    3.333    3.333    3.111    6.222 
#    0.000    0.000    0.000    0.000    0.000    0.000 
#    0.000    0.000    0.000    0.000    0.000    0.000 
#
# Total GULP energy -223109.983903 kJ/mol
# GULP energy per Si atom -12394.999106 kJ/mol
# Density = 2.531923 g / cm^3
# Si number density = 25.376991 Si / 1000 Ang^3
#
#
#
# Elastic Constant Matrix: (Units=GPa)
#
#
# Indices 1 2 3 4 5 6 
#
# 1 187.1375 29.9963 6.8769 0.0000 0.4322 0.0000
# 2 29.9963 97.7542 -5.4093 0.0000 -4.7317 0.0000
# 3 6.8769 -5.4093 39.6422 0.0000 7.9374 0.0000
# 4 0.0000 0.0000 0.0000 6.5873 0.0000 8.7820
# 5 0.4322 -4.7317 7.9374 0.0000 38.7948 0.0000
# 6 0.0000 0.0000 0.0000 8.7820 0.0000 9.8142
#
#
#
# Elastic Compliance Matrix: (Units=1/GPa)
#
#
# Indices 1 2 3 4 5 6 
#
# 1 0.005679 -0.001812 -0.001226 0.000000 -0.000034 0.000000
# 2 -0.001812 0.010924 0.001600 0.000000 0.001025 0.000000
# 3 -0.001226 0.001600 0.026709 0.000000 -0.005256 0.000000
# 4 0.000000 0.000000 0.000000 -0.786754 0.000000 0.704009
# 5 -0.000034 0.001025 -0.005256 0.000000 0.026977 0.000000
# 6 0.000000 0.000000 0.000000 0.704009 0.000000 -0.528073
#
#
# Mechanical properties :
#
#
# Convention : Reuss Voigt Hill
#
# Bulk Modulus (GPa) = 24.73065 43.05131 33.89098
# Shear Modulus (GPa) = -4.07106 30.57725 13.25310
#
# Velocity S-wave (km/s) = -1.26796 3.47496 2.28776
# Velocity P-wave (km/s) = 2.76095 5.75343 4.51247
#
# Compressibility (1/GPa) = 0.04043566
#
# Stress axis : x y z
#
# Youngs Moduli (GPa) = 176.07938 91.54194 37.44065
#
# Poissons Ratio (x) = 0.16589 0.04589
# Poissons Ratio (y) = 0.31908 -0.05989
# Poissons Ratio (z) = 0.21583 -0.14644
#
# Static dielectric constant tensor:
#      x y z
#    x 4.978820 0.000000 -0.028910 
#    y 0.000000 4.297690 0.000000 
#    z -0.028910 0.000000 4.472230 
# 
# 
# High freq. dielectric constant tensor:
#      x y z
#    x 2.036650 0.000000 -0.013010 
#    y 0.000000 2.007180 0.000000 
#    z -0.013010 0.000000 1.995040 
# 
# From -- ./inp_files/167479.got.cif
#   From: 2010.06.25/outbox.cif.g09.slc.cpg/sg15_84_cif.got.tgz:167479.got - 2010.06.28 07:06:18.
