data_PCOD8147508
_publ_section_title
;
Structure prediction by ZEFSAII (Michael W. Deem and Ramdas Pophale) SiO2 
 PCOD8147508
Probable space group: C 2/C
;
_chemical_formula_sum "Si O2"
_cell_formula_units_Z 60
_cell_length_a 27.199913
_cell_length_b 12.740886
_cell_length_c 26.849385
_cell_angle_alpha 90.000000
_cell_angle_beta 159.885831
_cell_angle_gamma 90.000000
_cell_volume 3199.804586
_symmetry_space_group_name_H-M "C 2/C"
_symmetry_group_IT_number 15
_symmetry_cell_setting 'monoclinic'
loop_
_space_group_symop_operation_xyz
x,y,z
-x,y,1/2-z
-x,-y,-z
x,-y,1/2+z
1/2+x,1/2+y,z
1/2-x,1/2+y,1/2-z
1/2-x,1/2-y,-z
1/2+x,1/2-y,1/2+z
loop_
_atom_site_type_symbol
_atom_site_label
_atom_site_fract_x
_atom_site_fract_y
_atom_site_fract_z
Si Si1 0.555987 0.666886 0.118308
Si Si2 0.766238 0.202666 0.672521
Si Si3 0.000000 0.269469 0.750000
Si Si4 0.782159 0.161567 0.469683
Si Si5 0.305831 0.003800 0.356306
Si Si6 0.349224 0.485523 0.459760
Si Si7 0.025774 0.830899 0.480842
Si Si8 0.386179 0.906770 0.331274
O O1 0.701865 0.601941 0.253042
O O2 0.600959 0.785421 0.171671
O O3 0.447730 0.620027 0.057730
O O4 0.467767 0.660441 0.982061
O O5 0.740440 0.251840 0.594317
O O6 0.745891 0.076864 0.649989
O O7 0.661553 0.255114 0.613165
O O8 0.921480 0.227260 0.842687
O O9 0.127387 0.343610 0.849695
O O10 0.917955 0.194822 0.632423
O O11 0.824972 0.047555 0.488475
O O12 0.302371 0.934211 0.302464
O O13 0.458910 0.043966 0.517170
O O14 0.437566 0.554315 0.504221
O O15 0.192599 0.461258 0.289899
#
# Coordination Sequence:
#
# PCOD8147508 Si02
#       8
#     8   8   4   8   8   8   8   8
#     4  12  22  37  52  78 123 168 211 246 268 323
#     4  11  22  35  56  87 115 162 196 237 279 357
#     4  10  22  44  64  96 118 138 170 252 320 378
#     4  10  23  39  67  91 122 140 187 236 314 379
#     4  11  23  36  52  80 118 165 213 243 282 314
#     4  11  22  37  55  83 115 160 195 239 295 343
#     4  11  22  32  54  79 121 164 209 236 274 324
#     4  11  24  34  53  81 119 165 210 246 273 324
#
# _framework density 18.751144
#
# number of rings (size 3 to 8) (size 9 to 14) (size 15 to 20)
#    0.000    1.067    4.000    3.600    7.467    0.000 
#    0.000    0.000    0.000    0.000    0.000    2.800 
#    0.000    0.000    0.000    0.000    0.000    0.000 
#
# Total GULP energy -371831.880108 kJ/mol
# GULP energy per Si atom -12394.396004 kJ/mol
# Density = 1.870847 g / cm^3
# Si number density = 18.751144 Si / 1000 Ang^3
#
#
#
# Elastic Constant Matrix: (Units=GPa)
#
#
# Indices 1 2 3 4 5 6 
#
# 1 74.4986 31.6983 29.5573 0.0032 -1.9315 -0.0011
# 2 31.6983 92.5329 28.9491 0.0099 -0.8871 0.0117
# 3 29.5573 28.9491 116.4991 0.0291 -5.7171 0.0213
# 4 0.0032 0.0099 0.0291 27.8845 0.0061 0.6474
# 5 -1.9315 -0.8871 -5.7171 0.0061 23.9437 0.0051
# 6 -0.0011 0.0117 0.0213 0.6474 0.0051 23.5275
#
#
#
# Elastic Compliance Matrix: (Units=1/GPa)
#
#
# Indices 1 2 3 4 5 6 
#
# 1 0.016658 -0.004756 -0.003022 0.000003 0.000446 0.000006
# 2 -0.004756 0.013078 -0.002062 -0.000002 -0.000392 -0.000005
# 3 -0.003022 -0.002062 0.009964 -0.000010 0.002059 -0.000008
# 4 0.000003 -0.000002 -0.000010 0.035885 -0.000011 -0.000987
# 5 0.000446 -0.000392 0.002059 -0.000011 0.042278 -0.000010
# 6 0.000006 -0.000005 -0.000008 -0.000987 -0.000010 0.042531
#
#
# Mechanical properties :
#
#
# Convention : Reuss Voigt Hill
#
# Bulk Modulus (GPa) = 49.95664 51.54888 50.75276
# Shear Modulus (GPa) = 26.77415 27.95954 27.36685
#
# Velocity S-wave (km/s) = 3.78281 3.86565 3.82445
# Velocity P-wave (km/s) = 6.76604 6.89021 6.82841
#
# Compressibility (1/GPa) = 0.02001736
#
# Stress axis : x y z
#
# Youngs Moduli (GPa) = 60.03272 76.46576 100.36069
#
# Poissons Ratio (x) = 0.36370 0.30333
# Poissons Ratio (y) = 0.28554 0.20696
# Poissons Ratio (z) = 0.18144 0.15768
#
# Static dielectric constant tensor:
#      x y z
#    x 3.233790 0.000000 0.140090 
#    y 0.000000 3.509480 -0.000020 
#    z 0.140090 -0.000020 3.677180 
# 
# 
# High freq. dielectric constant tensor:
#      x y z
#    x 1.679120 0.000000 0.014620 
#    y 0.000000 1.727950 0.000000 
#    z 0.014620 0.000000 1.755700 
# 
# From -- ./inp_files/320281.got.cif
#   From: 2010.06.25/outbox.cif.g09.slc.cpg/sg15_161_cif.got.tgz:320281.got - 2010.06.28 07:06:18.
