data_PCOD8147959
_publ_section_title
;
Structure prediction by ZEFSAII (Michael W. Deem and Ramdas Pophale) SiO2 
 PCOD8147959
Probable space group: C 2/C
;
_chemical_formula_sum "Si O2"
_cell_formula_units_Z 36
_cell_length_a 21.950225
_cell_length_b 13.584187
_cell_length_c 11.156076
_cell_angle_alpha 90.000000
_cell_angle_beta 25.689224
_cell_angle_gamma 90.000000
_cell_volume 1441.991764
_symmetry_space_group_name_H-M "C 2/C"
_symmetry_group_IT_number 15
_symmetry_cell_setting 'monoclinic'
loop_
_space_group_symop_operation_xyz
x,y,z
-x,y,1/2-z
-x,-y,-z
x,-y,1/2+z
1/2+x,1/2+y,z
1/2-x,1/2+y,1/2-z
1/2-x,1/2-y,-z
1/2+x,1/2-y,1/2+z
loop_
_atom_site_type_symbol
_atom_site_label
_atom_site_fract_x
_atom_site_fract_y
_atom_site_fract_z
Si Si1 0.690529 0.060423 0.079590
Si Si2 0.733665 0.803459 0.726440
Si Si3 0.000000 0.666445 0.250000
Si Si4 0.727864 0.359425 0.588496
Si Si5 0.943316 0.121163 0.479295
O O1 0.807779 0.061393 0.765315
O O2 0.679692 0.945811 0.141359
O O3 0.746641 0.130734 0.085197
O O4 0.541831 0.098233 0.290168
O O5 0.722976 0.871014 0.861816
O O6 0.595494 0.736486 0.962829
O O7 0.868204 0.734943 0.512337
O O8 0.750000 0.250000 0.500000
O O9 0.565126 0.388064 0.861829
O O10 0.000000 0.081610 0.250000
#
# Coordination Sequence:
#
# PCOD8147959 Si02
#       5
#     8   8   4   8   8
#     4  11  26  44  74 106 136 193 239 282 356 429
#     4  11  23  46  73  99 145 184 233 291 352 424
#     4  10  22  46  74 102 138 180 238 288 352 416
#     4  12  26  44  69 106 145 184 234 300 345 410
#     4  11  23  44  70 101 143 181 239 285 357 418
#
# _framework density 24.965468000000001
#
# number of rings (size 3 to 8) (size 9 to 14) (size 15 to 20)
#    0.000    0.889    2.222    6.000    3.111    1.778 
#    0.000    3.333    0.000    0.000    0.000    0.000 
#    0.000    0.000    0.000    0.000    0.000    0.000 
#
# Total GULP energy -223128.569916 kJ/mol
# GULP energy per Si atom -12396.031662 kJ/mol
# Density = 2.490865 g / cm^3
# Si number density = 24.965468 Si / 1000 Ang^3
#
#
#
# Elastic Constant Matrix: (Units=GPa)
#
#
# Indices 1 2 3 4 5 6 
#
# 1 162.2269 65.7656 39.4133 0.0000 -13.7508 0.0000
# 2 65.7656 162.4299 25.9369 0.0000 -16.9808 0.0000
# 3 39.4133 25.9369 50.4584 0.0000 4.3766 0.0000
# 4 0.0000 0.0000 0.0000 17.5795 0.0000 -1.2790
# 5 -13.7508 -16.9808 4.3766 0.0000 43.8962 0.0000
# 6 0.0000 0.0000 0.0000 -1.2790 0.0000 32.3984
#
#
#
# Elastic Compliance Matrix: (Units=1/GPa)
#
#
# Indices 1 2 3 4 5 6 
#
# 1 0.008738 -0.002357 -0.005823 0.000000 0.002406 0.000000
# 2 -0.002357 0.007748 -0.002358 0.000000 0.002494 0.000000
# 3 -0.005823 -0.002358 0.026041 0.000000 -0.005333 0.000000
# 4 0.000000 0.000000 0.000000 0.057048 0.000000 0.002252
# 5 0.002406 0.002494 -0.005333 0.000000 0.025031 0.000000
# 6 0.000000 0.000000 0.000000 0.002252 0.000000 0.030955
#
#
# Mechanical properties :
#
#
# Convention : Reuss Voigt Hill
#
# Bulk Modulus (GPa) = 46.61541 70.81630 58.71586
# Shear Modulus (GPa) = 27.20534 35.04145 31.12339
#
# Velocity S-wave (km/s) = 3.30467 3.75052 3.53463
# Velocity P-wave (km/s) = 5.76833 6.86895 6.34256
#
# Compressibility (1/GPa) = 0.02145213
#
# Stress axis : x y z
#
# Youngs Moduli (GPa) = 114.44035 129.06606 38.40071
#
# Poissons Ratio (x) = 0.30416 0.22360
# Poissons Ratio (y) = 0.26969 0.09056
# Poissons Ratio (z) = 0.66636 0.30436
#
# Static dielectric constant tensor:
#      x y z
#    x 4.766280 0.000000 -0.170830 
#    y 0.000000 4.729330 0.000000 
#    z -0.170830 0.000000 4.327440 
# 
# 
# High freq. dielectric constant tensor:
#      x y z
#    x 2.005020 0.000000 -0.015770 
#    y 0.000000 2.005380 0.000000 
#    z -0.015770 0.000000 1.977460 
# 
# From -- ./inp_files/112588.got.cif
#   From: 2010.06.25/outbox.cif.g09.slc.cpg/sg15_57_cif.got.tgz:112588.got - 2010.06.28 07:06:18.
