data_PCOD8147306
_publ_section_title
;
Structure prediction by ZEFSAII (Michael W. Deem and Ramdas Pophale) SiO2 
 PCOD8147306
Probable space group: C 2/C
;
_chemical_formula_sum "Si O2"
_cell_formula_units_Z 40
_cell_length_a 26.175991
_cell_length_b 8.837904
_cell_length_c 17.564890
_cell_angle_alpha 90.000000
_cell_angle_beta 152.654547
_cell_angle_gamma 90.000000
_cell_volume 1866.576029
_symmetry_space_group_name_H-M "C 2/C"
_symmetry_group_IT_number 15
_symmetry_cell_setting 'monoclinic'
loop_
_space_group_symop_operation_xyz
x,y,z
-x,y,1/2-z
-x,-y,-z
x,-y,1/2+z
1/2+x,1/2+y,z
1/2-x,1/2+y,1/2-z
1/2-x,1/2-y,-z
1/2+x,1/2-y,1/2+z
loop_
_atom_site_type_symbol
_atom_site_label
_atom_site_fract_x
_atom_site_fract_y
_atom_site_fract_z
Si Si1 0.885155 0.095389 0.058031
Si Si2 0.775563 0.423327 0.549051
Si Si3 0.206268 0.581179 0.077440
Si Si4 0.081922 0.931350 0.546300
Si Si5 0.983086 0.649247 0.140767
O O1 0.000000 0.054236 0.250000
O O2 0.858745 0.270390 0.035010
O O3 0.789794 0.986324 0.965134
O O4 0.892564 0.066060 0.978154
O O5 0.750000 0.250000 0.500000
O O6 0.737307 0.513845 0.423571
O O7 0.907299 0.444114 0.738938
O O8 0.303414 0.623404 0.264259
O O9 0.122100 0.461647 0.004358
O O10 0.029426 0.790170 0.432168
O O11 0.000000 0.000000 0.500000
O O12 0.000000 0.708179 0.250000
#
# Coordination Sequence:
#
# PCOD8147306 Si02
#       5
#     8   8   8   8   8
#     4  12  24  42  66  94 126 166 210 257 309 372
#     4  11  22  41  68  94 123 166 210 253 308 377
#     4  11  24  42  64  96 128 160 206 262 313 366
#     4  12  25  42  63  93 128 166 209 260 313 367
#     4  10  22  43  67  91 124 168 209 250 310 380
#
# _framework density 21.429611999999999
#
# number of rings (size 3 to 8) (size 9 to 14) (size 15 to 20)
#    0.000    0.800    0.000   10.200    0.000    3.200 
#    0.000    3.000    0.000    0.000    0.000    0.000 
#    0.000    0.000    0.000    0.000    0.000    0.000 
#
# Total GULP energy -248123.605976 kJ/mol
# GULP energy per Si atom -12406.180299 kJ/mol
# Density = 2.138084 g / cm^3
# Si number density = 21.429612 Si / 1000 Ang^3
#
#
#
# Elastic Constant Matrix: (Units=GPa)
#
#
# Indices 1 2 3 4 5 6 
#
# 1 165.1254 63.3060 51.6481 0.0000 6.8176 0.0000
# 2 63.3060 126.5272 21.1070 0.0000 -3.4217 0.0000
# 3 51.6481 21.1070 131.3698 0.0000 -0.1033 0.0000
# 4 0.0000 0.0000 0.0000 31.7498 0.0000 3.8851
# 5 6.8176 -3.4217 -0.1033 0.0000 32.2772 0.0000
# 6 0.0000 0.0000 0.0000 3.8851 0.0000 31.8320
#
#
#
# Elastic Compliance Matrix: (Units=1/GPa)
#
#
# Indices 1 2 3 4 5 6 
#
# 1 0.008470 -0.003845 -0.002714 0.000000 -0.002205 0.000000
# 2 -0.003845 0.009890 -0.000076 0.000000 0.001860 0.000000
# 3 -0.002714 -0.000076 0.008692 0.000000 0.000593 0.000000
# 4 0.000000 0.000000 0.000000 0.031974 0.000000 -0.003902
# 5 -0.002205 0.001860 0.000593 0.000000 0.031647 0.000000
# 6 0.000000 0.000000 0.000000 -0.003902 0.000000 0.031891
#
#
# Mechanical properties :
#
#
# Convention : Reuss Voigt Hill
#
# Bulk Modulus (GPa) = 72.55625 77.23828 74.89726
# Shear Modulus (GPa) = 35.60575 38.30255 36.95415
#
# Velocity S-wave (km/s) = 4.08060 4.23231 4.15715
# Velocity P-wave (km/s) = 7.49221 7.74624 7.62028
#
# Compressibility (1/GPa) = 0.01378241
#
# Stress axis : x y z
#
# Youngs Moduli (GPa) = 118.06485 101.11152 115.05124
#
# Poissons Ratio (x) = 0.38874 0.31225
# Poissons Ratio (y) = 0.45392 0.00874
# Poissons Ratio (z) = 0.32042 0.00769
#
# Static dielectric constant tensor:
#      x y z
#    x 4.145470 0.000000 0.289460 
#    y 0.000000 3.785710 0.000000 
#    z 0.289460 0.000000 4.166960 
# 
# 
# High freq. dielectric constant tensor:
#      x y z
#    x 1.848380 0.000000 0.010970 
#    y 0.000000 1.846760 0.000000 
#    z 0.010970 0.000000 1.850630 
# 
# From -- ./inp_files/180988.got.cif
#   From: 2010.06.25/outbox.cif.g09.slc.cpg/sg15_91_cif.got.tgz:180988.got - 2010.06.28 07:06:18.
