data_PCOD8147859
_publ_section_title
;
Structure prediction by ZEFSAII (Michael W. Deem and Ramdas Pophale) SiO2 
 PCOD8147859
Probable space group: C 2/C
;
_chemical_formula_sum "Si O2"
_cell_formula_units_Z 32
_cell_length_a 14.231052
_cell_length_b 11.456751
_cell_length_c 7.883760
_cell_angle_alpha 90.000000
_cell_angle_beta 79.208899
_cell_angle_gamma 90.000000
_cell_volume 1262.650759
_symmetry_space_group_name_H-M "C 2/C"
_symmetry_group_IT_number 15
_symmetry_cell_setting 'monoclinic'
loop_
_space_group_symop_operation_xyz
x,y,z
-x,y,1/2-z
-x,-y,-z
x,-y,1/2+z
1/2+x,1/2+y,z
1/2-x,1/2+y,1/2-z
1/2-x,1/2-y,-z
1/2+x,1/2-y,1/2+z
loop_
_atom_site_type_symbol
_atom_site_label
_atom_site_fract_x
_atom_site_fract_y
_atom_site_fract_z
Si Si1 0.036392 0.169492 0.931867
Si Si2 0.283512 0.952377 0.134378
Si Si3 0.595709 0.886450 0.115958
Si Si4 0.147700 0.070572 0.401134
O O1 0.000000 0.180979 0.750000
O O2 0.106146 0.060906 0.936100
O O3 0.090323 0.282388 0.983007
O O4 0.942726 0.156342 0.087778
O O5 0.319633 0.867026 0.272656
O O6 0.223612 0.066048 0.222800
O O7 0.206894 0.884297 0.045188
O O8 0.375346 0.997675 0.998571
O O9 0.500000 0.914364 0.250000
#
# Coordination Sequence:
#
# PCOD8147859 Si02
#       4
#     8   8   8   8
#     4  11  24  43  72 109 142 181 235 288 363 408
#     4  10  23  45  73  96 143 184 236 283 343 410
#     4  11  26  45  72 101 142 191 232 286 357 421
#     4  10  22  45  72 103 145 185 228 299 343 412
#
# _framework density 25.343509999999998
#
# number of rings (size 3 to 8) (size 9 to 14) (size 15 to 20)
#    0.000    1.500    2.500    0.750    3.500    9.000 
#    0.000    2.500    0.000    0.000    0.000    0.000 
#    0.000    0.000    0.000    0.000    0.000    0.000 
#
# Total GULP energy -198234.697517 kJ/mol
# GULP energy per Si atom -12389.668595 kJ/mol
# Density = 2.528583 g / cm^3
# Si number density = 25.343510 Si / 1000 Ang^3
#
#
#
# Elastic Constant Matrix: (Units=GPa)
#
#
# Indices 1 2 3 4 5 6 
#
# 1 128.2600 40.3481 48.5466 0.0000 14.8275 0.0000
# 2 40.3481 60.5364 0.1759 0.0000 11.3685 0.0000
# 3 48.5466 0.1759 75.3062 0.0000 -2.4294 0.0000
# 4 0.0000 0.0000 0.0000 21.7466 0.0000 6.4214
# 5 14.8275 11.3685 -2.4294 0.0000 66.7775 0.0000
# 6 0.0000 0.0000 0.0000 6.4214 0.0000 32.7743
#
#
#
# Elastic Compliance Matrix: (Units=1/GPa)
#
#
# Indices 1 2 3 4 5 6 
#
# 1 0.014490 -0.009258 -0.009383 0.000000 -0.001983 0.000000
# 2 -0.009258 0.022981 0.005862 0.000000 -0.001643 0.000000
# 3 -0.009383 0.005862 0.019372 0.000000 0.001790 0.000000
# 4 0.000000 0.000000 0.000000 0.048808 0.000000 -0.009563
# 5 -0.001983 -0.001643 0.001790 0.000000 0.015760 0.000000
# 6 0.000000 0.000000 0.000000 -0.009563 0.000000 0.032385
#
#
# Mechanical properties :
#
#
# Convention : Reuss Voigt Hill
#
# Bulk Modulus (GPa) = 31.96561 49.13820 40.55190
# Shear Modulus (GPa) = 26.34570 35.92848 31.13709
#
# Velocity S-wave (km/s) = 3.22769 3.76927 3.50894
# Velocity P-wave (km/s) = 5.15083 6.19469 5.69672
#
# Compressibility (1/GPa) = 0.03128362
#
# Stress axis : x y z
#
# Youngs Moduli (GPa) = 69.01382 43.51393 51.62036
#
# Poissons Ratio (x) = 0.40285 0.48437
# Poissons Ratio (y) = 0.63893 -0.30258
# Poissons Ratio (z) = 0.64758 -0.25506
#
# Static dielectric constant tensor:
#      x y z
#    x 5.007990 0.000000 -0.053280 
#    y 0.000000 3.789100 0.000000 
#    z -0.053280 0.000000 4.944280 
# 
# 
# High freq. dielectric constant tensor:
#      x y z
#    x 2.043070 0.000000 -0.000410 
#    y 0.000000 1.954620 0.000000 
#    z -0.000410 0.000000 2.027340 
# 
# From -- ./inp_files/36764.got.cif
#   From: 2010.06.25/outbox.cif.g09.slc.cpg/sg15_19_cif.got.tgz:36764.got - 2010.06.28 07:06:18.
