data_PCOD8147897
_publ_section_title
;
Structure prediction by ZEFSAII (Michael W. Deem and Ramdas Pophale) SiO2 
 PCOD8147897
Probable space group: C 2/C
;
_chemical_formula_sum "Si O2"
_cell_formula_units_Z 44
_cell_length_a 6.726218
_cell_length_b 12.751467
_cell_length_c 25.810010
_cell_angle_alpha 90.000000
_cell_angle_beta 104.688791
_cell_angle_gamma 90.000000
_cell_volume 2141.352935
_symmetry_space_group_name_H-M "C 2/C"
_symmetry_group_IT_number 15
_symmetry_cell_setting 'monoclinic'
loop_
_space_group_symop_operation_xyz
x,y,z
-x,y,1/2-z
-x,-y,-z
x,-y,1/2+z
1/2+x,1/2+y,z
1/2-x,1/2+y,1/2-z
1/2-x,1/2-y,-z
1/2+x,1/2-y,1/2+z
loop_
_atom_site_type_symbol
_atom_site_label
_atom_site_fract_x
_atom_site_fract_y
_atom_site_fract_z
Si Si1 0.300708 0.146688 0.341342
Si Si2 0.961309 0.518270 0.577311
Si Si3 0.570060 0.510957 0.200135
Si Si4 0.380842 0.370202 0.389693
Si Si5 0.756257 0.629367 0.984467
Si Si6 0.000000 0.599126 0.250000
O O1 0.342278 0.247837 0.378324
O O2 0.413255 0.164807 0.293262
O O3 0.377717 0.048593 0.379627
O O4 0.058651 0.119795 0.317012
O O5 0.839154 0.583103 0.611750
O O6 0.801418 0.442674 0.536943
O O7 0.070390 0.602252 0.546782
O O8 0.500000 0.461115 0.250000
O O9 0.520462 0.424223 0.153996
O O10 0.813813 0.529664 0.215788
O O11 0.531094 0.393627 0.447453
O O12 0.750000 0.750000 0.000000
#
# Coordination Sequence:
#
# PCOD8147897 Si02
#       6
#     8   8   8   8   8   4
#     4  11  23  42  65  99 127 168 216 261 321 387
#     4  11  24  43  65  96 134 167 220 265 315 385
#     4  10  23  44  65  94 132 165 214 269 321 384
#     4  12  24  41  70  95 128 178 213 259 327 384
#     4  11  24  44  66  96 133 174 213 269 324 378
#     4  10  22  46  66  90 136 164 208 280 316 376
#
# _framework density 20.547754999999999
#
# number of rings (size 3 to 8) (size 9 to 14) (size 15 to 20)
#    0.000    1.091    5.455    0.545    1.273    3.636 
#    4.909    0.000    0.000    0.000    0.000    0.000 
#    0.000    0.000    0.000    0.000    0.000    0.000 
#
# Total GULP energy -272749.286732 kJ/mol
# GULP energy per Si atom -12397.694851 kJ/mol
# Density = 2.050099 g / cm^3
# Si number density = 20.547755 Si / 1000 Ang^3
#
#
#
# Elastic Constant Matrix: (Units=GPa)
#
#
# Indices 1 2 3 4 5 6 
#
# 1 109.0606 49.5944 31.9720 0.0000 7.9501 0.0000
# 2 49.5944 104.5921 29.7016 0.0000 -5.6556 0.0000
# 3 31.9720 29.7016 89.7656 0.0000 5.2491 0.0000
# 4 0.0000 0.0000 0.0000 36.2246 0.0000 1.8671
# 5 7.9501 -5.6556 5.2491 0.0000 41.6707 0.0000
# 6 0.0000 0.0000 0.0000 1.8671 0.0000 25.8406
#
#
#
# Elastic Compliance Matrix: (Units=1/GPa)
#
#
# Indices 1 2 3 4 5 6 
#
# 1 0.012568 -0.005394 -0.002527 0.000000 -0.002811 0.000000
# 2 -0.005394 0.013016 -0.002568 0.000000 0.003119 0.000000
# 3 -0.002527 -0.002568 0.012978 0.000000 -0.001501 0.000000
# 4 0.000000 0.000000 0.000000 0.027709 0.000000 -0.002002
# 5 -0.002811 0.003119 -0.001501 0.000000 0.025146 0.000000
# 6 0.000000 0.000000 0.000000 -0.002002 0.000000 0.038844
#
#
# Mechanical properties :
#
#
# Convention : Reuss Voigt Hill
#
# Bulk Modulus (GPa) = 56.87035 58.43937 57.65486
# Shear Modulus (GPa) = 31.82686 33.55719 32.69202
#
# Velocity S-wave (km/s) = 3.93990 4.04559 3.99309
# Velocity P-wave (km/s) = 6.95948 7.09400 7.02706
#
# Compressibility (1/GPa) = 0.01758386
#
# Stress axis : x y z
#
# Youngs Moduli (GPa) = 79.56892 76.82619 77.05462
#
# Poissons Ratio (x) = 0.41437 0.19474
# Poissons Ratio (y) = 0.42916 0.19789
# Poissons Ratio (z) = 0.20109 0.19731
#
# Static dielectric constant tensor:
#      x y z
#    x 3.773180 0.000000 0.088250 
#    y 0.000000 3.433530 0.000000 
#    z 0.088250 0.000000 4.016550 
# 
# 
# High freq. dielectric constant tensor:
#      x y z
#    x 1.809140 0.000000 0.006330 
#    y 0.000000 1.783680 0.000000 
#    z 0.006330 0.000000 1.827340 
# 
# From -- ./inp_files/285459.got.cif
#   From: 2010.06.25/outbox.cif.g09.slc.cpg/sg15_143_cif.got.tgz:285459.got - 2010.06.28 07:06:18.
