data_PCOD8147078
_publ_section_title
;
Structure prediction by ZEFSAII (Michael W. Deem and Ramdas Pophale) SiO2 
 PCOD8147078
Probable space group: C 2/C
;
_chemical_formula_sum "Si O2"
_cell_formula_units_Z 48
_cell_length_a 7.118462
_cell_length_b 11.638446
_cell_length_c 24.620320
_cell_angle_alpha 90.000000
_cell_angle_beta 104.160088
_cell_angle_gamma 90.000000
_cell_volume 1977.764746
_symmetry_space_group_name_H-M "C 2/C"
_symmetry_group_IT_number 15
_symmetry_cell_setting 'monoclinic'
loop_
_space_group_symop_operation_xyz
x,y,z
-x,y,1/2-z
-x,-y,-z
x,-y,1/2+z
1/2+x,1/2+y,z
1/2-x,1/2+y,1/2-z
1/2-x,1/2-y,-z
1/2+x,1/2-y,1/2+z
loop_
_atom_site_type_symbol
_atom_site_label
_atom_site_fract_x
_atom_site_fract_y
_atom_site_fract_z
Si Si1 0.471588 0.830585 0.686946
Si Si2 0.261207 0.300748 0.619715
Si Si3 0.903941 0.550470 0.630365
Si Si4 0.958142 0.225013 0.991673
Si Si5 0.506028 0.525293 0.064319
Si Si6 0.759465 0.656617 0.904526
O O1 0.500000 0.786321 0.750000
O O2 0.679085 0.842522 0.671315
O O3 0.405166 0.964693 0.682426
O O4 0.323996 0.741402 0.647619
O O5 0.061823 0.277760 0.570247
O O6 0.421836 0.382613 0.602981
O O7 0.366873 0.181996 0.642383
O O8 0.735804 0.493569 0.582662
O O9 0.107296 0.554307 0.611215
O O10 0.750000 0.250000 0.000000
O O11 0.968862 0.085308 0.001511
O O12 0.127810 0.276684 0.040015
O O13 0.408710 0.402884 0.072219
#
# Coordination Sequence:
#
# PCOD8147078 Si02
#       6
#     8   8   8   8   8   8
#     4  12  28  49  73 103 136 192 252 294 355 415
#     4  11  24  46  69 108 146 182 237 290 354 422
#     4  12  23  46  74 103 144 183 235 290 354 424
#     4  10  22  42  70 109 147 185 229 282 361 437
#     4  11  23  43  72 107 145 185 230 285 356 432
#     4  12  24  46  72 104 148 185 234 290 356 432
#
# _framework density 24.269822999999999
#
# number of rings (size 3 to 8) (size 9 to 14) (size 15 to 20)
#    0.000    0.667    8.333    0.000    0.000    6.667 
#    0.000    2.500    0.000    0.000    0.000    0.000 
#    0.000    0.000    0.000    0.000    0.000    0.000 
#
# Total GULP energy -297321.350954 kJ/mol
# GULP energy per Si atom -12388.389623 kJ/mol
# Density = 2.421458 g / cm^3
# Si number density = 24.269823 Si / 1000 Ang^3
#
#
#
# Elastic Constant Matrix: (Units=GPa)
#
#
# Indices 1 2 3 4 5 6 
#
# 1 106.8229 42.5238 58.4880 0.0000 -4.9306 0.0000
# 2 42.5238 150.2705 53.1941 0.0000 1.0492 0.0000
# 3 58.4880 53.1941 154.1872 0.0000 -14.7165 0.0000
# 4 0.0000 0.0000 0.0000 30.0852 0.0000 -1.1059
# 5 -4.9306 1.0492 -14.7165 0.0000 27.0183 0.0000
# 6 0.0000 0.0000 0.0000 -1.1059 0.0000 44.6840
#
#
#
# Elastic Compliance Matrix: (Units=1/GPa)
#
#
# Indices 1 2 3 4 5 6 
#
# 1 0.012369 -0.002104 -0.003948 0.000000 0.000188 0.000000
# 2 -0.002104 0.008023 -0.002148 0.000000 -0.001866 0.000000
# 3 -0.003948 -0.002148 0.009139 0.000000 0.004341 0.000000
# 4 0.000000 0.000000 0.000000 0.033269 0.000000 0.000823
# 5 0.000188 -0.001866 0.004341 0.000000 0.039483 0.000000
# 6 0.000000 0.000000 0.000000 0.000823 0.000000 0.022400
#
#
# Mechanical properties :
#
#
# Convention : Reuss Voigt Hill
#
# Bulk Modulus (GPa) = 76.15577 79.96585 78.06081
# Shear Modulus (GPa) = 34.37354 37.49581 35.93468
#
# Velocity S-wave (km/s) = 3.76747 3.93486 3.85207
# Velocity P-wave (km/s) = 7.09732 7.32559 7.21236
#
# Compressibility (1/GPa) = 0.01313098
#
# Stress axis : x y z
#
# Youngs Moduli (GPa) = 80.84557 124.63464 109.42529
#
# Poissons Ratio (x) = 0.26223 0.43203
# Poissons Ratio (y) = 0.17010 0.23505
# Poissons Ratio (z) = 0.31919 0.26772
#
# Static dielectric constant tensor:
#      x y z
#    x 4.635130 0.000000 -0.314840 
#    y 0.000000 5.205180 0.000000 
#    z -0.314840 0.000000 4.065440 
# 
# 
# High freq. dielectric constant tensor:
#      x y z
#    x 1.988990 0.000000 -0.022560 
#    y 0.000000 2.010630 0.000000 
#    z -0.022560 0.000000 1.926770 
# 
# From -- ./inp_files/263231.got.cif
#   From: 2010.06.25/outbox.cif.g09.slc.cpg/sg15_132_cif.got.tgz:263231.got - 2010.06.28 07:06:18.
