data_PCOD8147256
_publ_section_title
;
Structure prediction by ZEFSAII (Michael W. Deem and Ramdas Pophale) SiO2 
 PCOD8147256
Probable space group: C 2/C
;
_chemical_formula_sum "Si O2"
_cell_formula_units_Z 64
_cell_length_a 21.386162
_cell_length_b 6.772119
_cell_length_c 22.116321
_cell_angle_alpha 90.000000
_cell_angle_beta 107.640223
_cell_angle_gamma 90.000000
_cell_volume 3052.483089
_symmetry_space_group_name_H-M "C 2/C"
_symmetry_group_IT_number 15
_symmetry_cell_setting 'monoclinic'
loop_
_space_group_symop_operation_xyz
x,y,z
-x,y,1/2-z
-x,-y,-z
x,-y,1/2+z
1/2+x,1/2+y,z
1/2-x,1/2+y,1/2-z
1/2-x,1/2-y,-z
1/2+x,1/2-y,1/2+z
loop_
_atom_site_type_symbol
_atom_site_label
_atom_site_fract_x
_atom_site_fract_y
_atom_site_fract_z
Si Si1 0.224213 0.971007 0.673650
Si Si2 0.932441 0.443213 0.761014
Si Si3 0.176878 0.333596 0.470653
Si Si4 0.384023 0.441232 0.451561
Si Si5 0.044141 0.387228 0.592554
Si Si6 0.593499 0.866757 0.002187
Si Si7 0.157707 0.727107 0.826815
Si Si8 0.820616 0.131336 0.717081
O O1 0.252485 0.747771 0.685001
O O2 0.183043 0.995301 0.600692
O O3 0.281625 0.130682 0.690274
O O4 0.179618 0.021564 0.718366
O O5 0.939417 0.446001 0.834675
O O6 0.908134 0.654810 0.727392
O O7 0.880169 0.279681 0.727040
O O8 0.000000 0.382360 0.750000
O O9 0.250000 0.250000 0.500000
O O10 0.127955 0.201356 0.495508
O O11 0.161962 0.557389 0.491047
O O12 0.155029 0.337623 0.395250
O O13 0.433918 0.336852 0.418790
O O14 0.413331 0.634451 0.490674
O O15 0.088172 0.535694 0.566414
O O16 0.967441 0.426001 0.558608
O O17 0.167347 0.962702 0.829175
#
# Coordination Sequence:
#
# PCOD8147256 Si02
#       8
#     8   8   8   8   8   8   8   8
#     4  11  22  38  64  97 126 165 219 268 331 388
#     4  11  25  43  66  94 134 174 218 270 327 395
#     4  11  24  42  60  93 135 168 215 263 325 393
#     4  11  23  39  69  95 124 173 216 271 328 388
#     4  10  22  43  65  95 127 162 224 275 317 388
#     4  10  24  41  67  92 125 171 215 273 328 382
#     4  11  25  43  63  96 134 173 214 272 327 390
#     4  11  24  40  66  96 130 170 218 269 326 399
#
# _framework density 20.966536999999999
#
# number of rings (size 3 to 8) (size 9 to 14) (size 15 to 20)
#    0.000    1.250    3.750    1.125    3.500    4.000 
#    0.000    0.000    0.000    0.000    0.000    0.000 
#    0.000    0.000    0.000    0.000    0.000    0.000 
#
# Total GULP energy -396802.443423 kJ/mol
# GULP energy per Si atom -12400.076357 kJ/mol
# Density = 2.091882 g / cm^3
# Si number density = 20.966537 Si / 1000 Ang^3
#
#
#
# Elastic Constant Matrix: (Units=GPa)
#
#
# Indices 1 2 3 4 5 6 
#
# 1 98.2517 27.3442 31.6149 0.0000 -3.2202 0.0000
# 2 27.3442 115.1111 31.4931 0.0000 -6.0109 0.0000
# 3 31.6149 31.4931 113.0879 0.0000 -8.1961 0.0000
# 4 0.0000 0.0000 0.0000 23.2580 0.0000 -1.4821
# 5 -3.2202 -6.0109 -8.1961 0.0000 26.2095 0.0000
# 6 0.0000 0.0000 0.0000 -1.4821 0.0000 21.6291
#
#
#
# Elastic Compliance Matrix: (Units=1/GPa)
#
#
# Indices 1 2 3 4 5 6 
#
# 1 0.011604 -0.002019 -0.002673 0.000000 0.000127 0.000000
# 2 -0.002019 0.009803 -0.002068 0.000000 0.001354 0.000000
# 3 -0.002673 -0.002068 0.010342 0.000000 0.002432 0.000000
# 4 0.000000 0.000000 0.000000 0.043185 0.000000 0.002959
# 5 0.000127 0.001354 0.002432 0.000000 0.039240 0.000000
# 6 0.000000 0.000000 0.000000 0.002959 0.000000 0.046437
#
#
# Mechanical properties :
#
#
# Convention : Reuss Voigt Hill
#
# Bulk Modulus (GPa) = 54.85102 56.37280 55.61191
# Shear Modulus (GPa) = 27.74612 29.95256 28.84934
#
# Velocity S-wave (km/s) = 3.64174 3.78377 3.71343
# Velocity P-wave (km/s) = 6.62578 6.78488 6.70580
#
# Compressibility (1/GPa) = 0.01823120
#
# Stress axis : x y z
#
# Youngs Moduli (GPa) = 86.17802 102.00823 96.69453
#
# Poissons Ratio (x) = 0.20592 0.25843
# Poissons Ratio (y) = 0.17396 0.19992
# Poissons Ratio (z) = 0.23032 0.21091
#
# Static dielectric constant tensor:
#      x y z
#    x 3.796240 0.000000 -0.022360 
#    y 0.000000 3.897210 0.000000 
#    z -0.022360 0.000000 3.741160 
# 
# 
# High freq. dielectric constant tensor:
#      x y z
#    x 1.817600 0.000000 -0.003810 
#    y 0.000000 1.822580 0.000000 
#    z -0.003810 0.000000 1.825760 
# 
# From -- ./inp_files/281212.got.cif
#   From: 2010.06.25/outbox.cif.g09.slc.cpg/sg15_141_cif.got.tgz:281212.got - 2010.06.28 07:06:18.
