data_PCOD8147229
_publ_section_title
;
Structure prediction by ZEFSAII (Michael W. Deem and Ramdas Pophale) SiO2 
 PCOD8147229
Probable space group: C 2/C
;
_chemical_formula_sum "Si O2"
_cell_formula_units_Z 36
_cell_length_a 13.761645
_cell_length_b 11.216851
_cell_length_c 21.103984
_cell_angle_alpha 90.000000
_cell_angle_beta 152.149496
_cell_angle_gamma 90.000000
_cell_volume 1521.868570
_symmetry_space_group_name_H-M "C 2/C"
_symmetry_group_IT_number 15
_symmetry_cell_setting 'monoclinic'
loop_
_space_group_symop_operation_xyz
x,y,z
-x,y,1/2-z
-x,-y,-z
x,-y,1/2+z
1/2+x,1/2+y,z
1/2-x,1/2+y,1/2-z
1/2-x,1/2-y,-z
1/2+x,1/2-y,1/2+z
loop_
_atom_site_type_symbol
_atom_site_label
_atom_site_fract_x
_atom_site_fract_y
_atom_site_fract_z
Si Si1 0.500000 0.800180 0.250000
Si Si2 0.533494 0.794880 0.902202
Si Si3 0.579547 0.423770 0.228098
Si Si4 0.654831 0.957062 0.448992
Si Si5 0.148198 0.366464 0.579703
O O1 0.634526 0.880429 0.374517
O O2 0.651384 0.717238 0.296391
O O3 0.367840 0.694644 0.783567
O O4 0.529479 0.809417 0.977043
O O5 0.500634 0.927830 0.855091
O O6 0.750000 0.750000 0.000000
O O7 0.500000 0.378178 0.250000
O O8 0.790801 0.501191 0.357956
O O9 0.396308 0.503803 0.091943
O O10 0.589247 0.876640 0.471918
#
# Coordination Sequence:
#
# PCOD8147229 Si02
#       5
#     4   8   8   8   8
#     4  12  24  40  68 100 126 170 230 272 314 396
#     4  10  23  42  66  97 132 174 216 268 324 393
#     4   9  20  42  65  94 133 172 214 267 329 389
#     4  10  22  43  64  96 130 170 219 270 332 382
#     4  11  22  42  68  93 135 175 212 269 331 392
#
# _framework density 23.655131000000001
#
# number of rings (size 3 to 8) (size 9 to 14) (size 15 to 20)
#    0.000    1.778    3.333    1.333    4.667    0.000 
#    0.000    4.444    0.000    0.000    0.000    0.000 
#    0.000    0.000    0.000    0.000    0.000    0.000 
#
# Total GULP energy -223071.849171 kJ/mol
# GULP energy per Si atom -12392.880509 kJ/mol
# Density = 2.360129 g / cm^3
# Si number density = 23.655131 Si / 1000 Ang^3
#
#
#
# Elastic Constant Matrix: (Units=GPa)
#
#
# Indices 1 2 3 4 5 6 
#
# 1 125.7129 42.0528 17.7293 0.0029 -3.6787 0.0008
# 2 42.0528 109.5970 24.5522 0.0037 -25.1897 0.0007
# 3 17.7293 24.5522 62.0418 0.0115 -23.4932 0.0013
# 4 0.0029 0.0037 0.0115 32.0713 0.0012 -16.6834
# 5 -3.6787 -25.1897 -23.4932 0.0012 33.7722 -0.0004
# 6 0.0008 0.0007 0.0013 -16.6834 -0.0004 37.7100
#
#
#
# Elastic Compliance Matrix: (Units=1/GPa)
#
#
# Indices 1 2 3 4 5 6 
#
# 1 0.009520 -0.003923 -0.002557 0.000001 -0.003668 0.000000
# 2 -0.003923 0.012762 -0.000661 -0.000002 0.008632 -0.000001
# 3 -0.002557 -0.000661 0.022833 -0.000011 0.015112 -0.000006
# 4 0.000001 -0.000002 -0.000011 0.040502 -0.000010 0.017918
# 5 -0.003668 0.008632 0.015112 -0.000010 0.046161 -0.000005
# 6 0.000000 -0.000001 -0.000006 0.017918 -0.000005 0.034446
#
#
# Mechanical properties :
#
#
# Convention : Reuss Voigt Hill
#
# Bulk Modulus (GPa) = 32.43260 51.78002 42.10631
# Shear Modulus (GPa) = 26.20793 34.91185 30.55989
#
# Velocity S-wave (km/s) = 3.33215 3.84587 3.59819
# Velocity P-wave (km/s) = 5.34272 6.45430 5.92464
#
# Compressibility (1/GPa) = 0.03083317
#
# Stress axis : x y z
#
# Youngs Moduli (GPa) = 105.03908 78.36042 43.79682
#
# Poissons Ratio (x) = 0.30742 0.11198
# Poissons Ratio (y) = 0.41209 0.02893
# Poissons Ratio (z) = 0.26857 0.05176
#
# Static dielectric constant tensor:
#      x y z
#    x 4.161880 0.000000 -0.093070 
#    y 0.000000 5.036630 0.000000 
#    z -0.093070 0.000000 4.300430 
# 
# 
# High freq. dielectric constant tensor:
#      x y z
#    x 1.932340 0.000000 0.003990 
#    y 0.000000 1.952910 0.000000 
#    z 0.003990 0.000000 1.913560 
# 
# From -- ./inp_files/84432.got.cif
#   From: 2010.06.25/outbox.cif.g09.slc.cpg/sg15_43_cif.got.tgz:84432.got - 2010.06.28 07:06:18.
