data_PCOD8147662
_publ_section_title
;
Structure prediction by ZEFSAII (Michael W. Deem and Ramdas Pophale) SiO2 
 PCOD8147662
Probable space group: C 2/C
;
_chemical_formula_sum "Si O2"
_cell_formula_units_Z 56
_cell_length_a 10.855997
_cell_length_b 30.155579
_cell_length_c 8.161732
_cell_angle_alpha 90.000000
_cell_angle_beta 108.273484
_cell_angle_gamma 90.000000
_cell_volume 2537.155098
_symmetry_space_group_name_H-M "C 2/C"
_symmetry_group_IT_number 15
_symmetry_cell_setting 'monoclinic'
loop_
_space_group_symop_operation_xyz
x,y,z
-x,y,1/2-z
-x,-y,-z
x,-y,1/2+z
1/2+x,1/2+y,z
1/2-x,1/2+y,1/2-z
1/2-x,1/2-y,-z
1/2+x,1/2-y,1/2+z
loop_
_atom_site_type_symbol
_atom_site_label
_atom_site_fract_x
_atom_site_fract_y
_atom_site_fract_z
Si Si1 0.307652 0.384907 0.537874
Si Si2 0.290307 0.713637 0.382032
Si Si3 0.776428 0.445631 0.536972
Si Si4 0.087710 0.878218 0.554929
Si Si5 0.845301 0.537868 0.697344
Si Si6 0.000000 0.256997 0.250000
Si Si7 0.000000 0.387114 0.750000
Si Si8 0.604010 0.178614 0.057331
O O1 0.431798 0.378058 0.471552
O O2 0.362480 0.390022 0.742957
O O3 0.216008 0.425548 0.447798
O O4 0.218838 0.341127 0.492453
O O5 0.250000 0.750000 0.500000
O O6 0.356579 0.669311 0.486289
O O7 0.381080 0.727896 0.266215
O O8 0.154292 0.701480 0.244073
O O9 0.639563 0.419557 0.469260
O O10 0.768316 0.493087 0.621067
O O11 0.825496 0.450039 0.375317
O O12 0.871930 0.416348 0.687765
O O13 0.000000 0.532422 0.750000
O O14 0.030058 0.286013 0.420035
O O15 0.007071 0.359298 0.583115
#
# Coordination Sequence:
#
# PCOD8147662 Si02
#       8
#     8   8   8   8   8   4   4   8
#     4  10  22  44  69  96 136 177 227 274 339 406
#     4  11  23  44  68  98 139 179 232 286 346 407
#     4  12  25  42  69  97 138 175 227 280 341 404
#     4  10  23  46  71  94 133 186 223 280 345 401
#     4  12  26  41  68 105 135 175 226 281 339 406
#     4  12  26  40  69 104 136 178 232 283 342 418
#     4  12  22  42  67  98 136 180 222 277 346 408
#     4  11  24  42  68 100 138 177 225 283 347 405
#
# _framework density 22.071966
#
# number of rings (size 3 to 8) (size 9 to 14) (size 15 to 20)
#    0.000    0.857    3.571    5.143    3.000    1.143 
#    0.000    1.429    0.000    0.000    0.000    0.000 
#    0.000    0.000    0.000    0.000    0.000    0.000 
#
# Total GULP energy -347132.655961 kJ/mol
# GULP energy per Si atom -12397.594856 kJ/mol
# Density = 2.202173 g / cm^3
# Si number density = 22.071966 Si / 1000 Ang^3
#
#
#
# Elastic Constant Matrix: (Units=GPa)
#
#
# Indices 1 2 3 4 5 6 
#
# 1 98.8970 35.7124 9.3416 0.0000 -8.6094 0.0000
# 2 35.7124 135.4174 33.7377 0.0000 -0.7952 0.0000
# 3 9.3416 33.7377 35.5214 0.0000 -6.0788 0.0000
# 4 0.0000 0.0000 0.0000 29.7339 0.0000 -8.1865
# 5 -8.6094 -0.7952 -6.0788 0.0000 33.9343 0.0000
# 6 0.0000 0.0000 0.0000 -8.1865 0.0000 38.0064
#
#
#
# Elastic Compliance Matrix: (Units=1/GPa)
#
#
# Indices 1 2 3 4 5 6 
#
# 1 0.011447 -0.003112 0.000444 0.000000 0.002911 0.000000
# 2 -0.003112 0.010591 -0.009628 0.000000 -0.002266 0.000000
# 3 0.000444 -0.009628 0.038336 0.000000 0.006754 0.000000
# 4 0.000000 0.000000 0.000000 0.035752 0.000000 0.007701
# 5 0.002911 -0.002266 0.006754 0.000000 0.031364 0.000000
# 6 0.000000 0.000000 0.000000 0.007701 0.000000 0.027970
#
#
# Mechanical properties :
#
#
# Convention : Reuss Voigt Hill
#
# Bulk Modulus (GPa) = 27.94854 47.49102 37.71978
# Shear Modulus (GPa) = 26.04435 33.07120 29.55778
#
# Velocity S-wave (km/s) = 3.43880 3.87503 3.66342
# Velocity P-wave (km/s) = 5.33452 6.44859 5.91783
#
# Compressibility (1/GPa) = 0.03578004
#
# Stress axis : x y z
#
# Youngs Moduli (GPa) = 87.36022 94.42135 26.08508
#
# Poissons Ratio (x) = 0.29386 -0.01157
# Poissons Ratio (y) = 0.27189 0.25116
# Poissons Ratio (z) = -0.03876 0.90912
#
# Static dielectric constant tensor:
#      x y z
#    x 4.150220 0.000000 0.249770 
#    y 0.000000 4.940350 0.000000 
#    z 0.249770 0.000000 3.559290 
# 
# 
# High freq. dielectric constant tensor:
#      x y z
#    x 1.881770 0.000000 -0.005290 
#    y 0.000000 1.880300 0.000000 
#    z -0.005290 0.000000 1.852180 
# 
# From -- ./inp_files/34370.got.cif
#   From: 2010.06.25/outbox.cif.g09.slc.cpg/sg15_18_cif.got.tgz:34370.got - 2010.06.28 07:06:18.
