data_PCOD8147224
_publ_section_title
;
Structure prediction by ZEFSAII (Michael W. Deem and Ramdas Pophale) SiO2 
 PCOD8147224
Probable space group: C 2/C
;
_chemical_formula_sum "Si O2"
_cell_formula_units_Z 60
_cell_length_a 7.921594
_cell_length_b 11.740864
_cell_length_c 31.439118
_cell_angle_alpha 90.000000
_cell_angle_beta 70.681091
_cell_angle_gamma 90.000000
_cell_volume 2759.390615
_symmetry_space_group_name_H-M "C 2/C"
_symmetry_group_IT_number 15
_symmetry_cell_setting 'monoclinic'
loop_
_space_group_symop_operation_xyz
x,y,z
-x,y,1/2-z
-x,-y,-z
x,-y,1/2+z
1/2+x,1/2+y,z
1/2-x,1/2+y,1/2-z
1/2-x,1/2-y,-z
1/2+x,1/2-y,1/2+z
loop_
_atom_site_type_symbol
_atom_site_label
_atom_site_fract_x
_atom_site_fract_y
_atom_site_fract_z
Si Si1 0.397904 0.463977 0.182290
Si Si2 0.554931 0.974204 0.081608
Si Si3 0.124296 0.797006 0.781003
Si Si4 0.500000 0.325683 0.250000
Si Si5 0.672977 0.136517 0.486492
Si Si6 0.325403 0.182131 0.854624
Si Si7 0.830300 0.958422 0.412648
Si Si8 0.484201 0.218758 0.421756
O O1 0.325736 0.574883 0.211503
O O2 0.525398 0.398626 0.205055
O O3 0.224704 0.390756 0.183034
O O4 0.504333 0.492503 0.130546
O O5 0.660974 0.894491 0.104535
O O6 0.342041 0.957787 0.103552
O O7 0.612830 0.104684 0.088295
O O8 0.591701 0.943389 0.029498
O O9 0.317474 0.742694 0.758183
O O10 0.000000 0.790671 0.750000
O O11 0.013073 0.743107 0.829443
O O12 0.750000 0.250000 0.500000
O O13 0.522756 0.183944 0.467168
O O14 0.816972 0.056404 0.449905
O O15 0.166454 0.269682 0.878904
O O16 0.862288 0.831682 0.429712
#
# Coordination Sequence:
#
# PCOD8147224 Si02
#       8
#     8   8   8   4   8   8   8   8
#     4  11  25  46  68 101 134 174 231 280 345 414
#     4  11  23  40  66  97 134 178 226 279 338 400
#     4  12  25  45  73  97 138 178 217 289 346 407
#     4  12  26  46  70 106 130 174 234 274 348 426
#     4  11  22  40  64  98 134 179 228 280 338 400
#     4  11  24  44  67  99 136 177 221 278 344 406
#     4  10  23  43  66  95 135 177 226 285 336 410
#     4  10  22  43  64  94 132 173 226 277 331 404
#
# _framework density 21.743931
#
# number of rings (size 3 to 8) (size 9 to 14) (size 15 to 20)
#    0.000    1.067    3.333    4.000    0.000    6.933 
#    4.800    0.000    0.000    0.000    0.000    0.000 
#    0.000    0.000    0.000    0.000    0.000    0.000 
#
# Total GULP energy -371887.633408 kJ/mol
# GULP energy per Si atom -12396.254447 kJ/mol
# Density = 2.169444 g / cm^3
# Si number density = 21.743931 Si / 1000 Ang^3
#
#
#
# Elastic Constant Matrix: (Units=GPa)
#
#
# Indices 1 2 3 4 5 6 
#
# 1 70.1290 32.4696 23.0284 0.0000 5.2542 0.0000
# 2 32.4696 141.8367 42.3438 0.0000 7.0453 0.0000
# 3 23.0284 42.3438 88.3000 0.0000 14.5420 0.0000
# 4 0.0000 0.0000 0.0000 36.7025 0.0000 6.4977
# 5 5.2542 7.0453 14.5420 0.0000 31.8050 0.0000
# 6 0.0000 0.0000 0.0000 6.4977 0.0000 23.2060
#
#
#
# Elastic Compliance Matrix: (Units=1/GPa)
#
#
# Indices 1 2 3 4 5 6 
#
# 1 0.016591 -0.002925 -0.002790 0.000000 -0.000817 0.000000
# 2 -0.002925 0.008744 -0.003451 0.000000 0.000124 0.000000
# 3 -0.002790 -0.003451 0.014605 0.000000 -0.005453 0.000000
# 4 0.000000 0.000000 0.000000 0.028667 0.000000 -0.008027
# 5 -0.000817 0.000124 -0.005453 0.000000 0.034042 0.000000
# 6 0.000000 0.000000 0.000000 -0.008027 0.000000 0.045340
#
#
# Mechanical properties :
#
#
# Convention : Reuss Voigt Hill
#
# Bulk Modulus (GPa) = 46.27512 55.10548 50.69030
# Shear Modulus (GPa) = 28.81464 31.83762 30.32613
#
# Velocity S-wave (km/s) = 3.64425 3.83065 3.73861
# Velocity P-wave (km/s) = 6.24784 6.70545 6.48069
#
# Compressibility (1/GPa) = 0.02160988
#
# Stress axis : x y z
#
# Youngs Moduli (GPa) = 60.27431 114.36551 68.46785
#
# Poissons Ratio (x) = 0.33447 0.19101
# Poissons Ratio (y) = 0.17628 0.23627
# Poissons Ratio (z) = 0.16815 0.39465
#
# Static dielectric constant tensor:
#      x y z
#    x 3.793820 0.000000 0.111020 
#    y 0.000000 4.287180 0.000000 
#    z 0.111020 0.000000 3.939100 
# 
# 
# High freq. dielectric constant tensor:
#      x y z
#    x 1.839780 0.000000 0.007010 
#    y 0.000000 1.873190 0.000000 
#    z 0.007010 0.000000 1.859410 
# 
# From -- ./inp_files/307471.got.cif
#   From: 2010.06.25/outbox.cif.g09.slc.cpg/sg15_154_cif.got.tgz:307471.got - 2010.06.28 07:06:18.
