data_PCOD8147952
_publ_section_title
;
Structure prediction by ZEFSAII (Michael W. Deem and Ramdas Pophale) SiO2 
 PCOD8147952
Probable space group: C 2/C
;
_chemical_formula_sum "Si O2"
_cell_formula_units_Z 32
_cell_length_a 20.037120
_cell_length_b 8.816654
_cell_length_c 10.700662
_cell_angle_alpha 90.000000
_cell_angle_beta 42.128285
_cell_angle_gamma 90.000000
_cell_volume 1268.055179
_symmetry_space_group_name_H-M "C 2/C"
_symmetry_group_IT_number 15
_symmetry_cell_setting 'monoclinic'
loop_
_space_group_symop_operation_xyz
x,y,z
-x,y,1/2-z
-x,-y,-z
x,-y,1/2+z
1/2+x,1/2+y,z
1/2-x,1/2+y,1/2-z
1/2-x,1/2-y,-z
1/2+x,1/2-y,1/2+z
loop_
_atom_site_type_symbol
_atom_site_label
_atom_site_fract_x
_atom_site_fract_y
_atom_site_fract_z
Si Si1 0.858409 0.391798 0.655124
Si Si2 0.436305 0.893333 0.234112
Si Si3 0.287818 0.567584 0.776247
Si Si4 0.610607 0.435127 0.622586
O O1 0.852571 0.506092 0.782408
O O2 0.821074 0.485596 0.581454
O O3 0.786087 0.250097 0.784754
O O4 0.974213 0.338665 0.485085
O O5 0.500000 0.985326 0.250000
O O6 0.384136 0.747526 0.369959
O O7 0.350783 0.509198 0.804350
O O8 0.329346 0.514629 0.583205
O O9 0.500000 0.492759 0.750000
#
# Coordination Sequence:
#
# PCOD8147952 Si02
#       4
#     8   8   8   8
#     4  11  25  42  69 104 137 179 232 285 345 405
#     4  10  22  46  72  93 139 189 226 278 349 414
#     4  12  26  45  72 105 140 181 234 289 341 413
#     4  11  24  47  74  99 139 185 232 282 349 408
#
# _framework density 25.235496000000001
#
# number of rings (size 3 to 8) (size 9 to 14) (size 15 to 20)
#    0.000    1.000    5.000    2.250    3.500    4.000 
#    4.500    0.000    0.000    0.000    0.000    0.000 
#    0.000    0.000    0.000    0.000    0.000    0.000 
#
# Total GULP energy -198310.400769 kJ/mol
# GULP energy per Si atom -12394.400048 kJ/mol
# Density = 2.517806 g / cm^3
# Si number density = 25.235496 Si / 1000 Ang^3
#
#
#
# Elastic Constant Matrix: (Units=GPa)
#
#
# Indices 1 2 3 4 5 6 
#
# 1 224.8366 80.5882 28.3215 0.0000 28.4197 0.0000
# 2 80.5882 123.0863 10.6732 0.0000 -4.0802 0.0000
# 3 28.3215 10.6732 54.0273 0.0000 14.1346 0.0000
# 4 0.0000 0.0000 0.0000 18.9268 0.0000 5.8573
# 5 28.4197 -4.0802 14.1346 0.0000 48.2624 0.0000
# 6 0.0000 0.0000 0.0000 5.8573 0.0000 56.5181
#
#
#
# Elastic Compliance Matrix: (Units=1/GPa)
#
#
# Indices 1 2 3 4 5 6 
#
# 1 0.006709 -0.004377 -0.001648 0.000000 -0.003838 0.000000
# 2 -0.004377 0.011195 -0.000909 0.000000 0.003790 0.000000
# 3 -0.001648 -0.000909 0.020922 0.000000 -0.005234 0.000000
# 4 0.000000 0.000000 0.000000 0.054586 0.000000 -0.005657
# 5 -0.003838 0.003790 -0.005234 0.000000 0.024833 0.000000
# 6 0.000000 0.000000 0.000000 -0.005657 0.000000 0.018280
#
#
# Mechanical properties :
#
#
# Convention : Reuss Voigt Hill
#
# Bulk Modulus (GPa) = 40.06725 71.23511 55.65118
# Shear Modulus (GPa) = 31.50366 43.56596 37.53481
#
# Velocity S-wave (km/s) = 3.53709 4.15948 3.86084
# Velocity P-wave (km/s) = 5.70904 7.16643 6.47884
#
# Compressibility (1/GPa) = 0.02495804
#
# Stress axis : x y z
#
# Youngs Moduli (GPa) = 149.04615 89.32862 47.79692
#
# Poissons Ratio (x) = 0.39100 0.07878
# Poissons Ratio (y) = 0.65239 0.04343
# Poissons Ratio (z) = 0.24566 0.08116
#
# Static dielectric constant tensor:
#      x y z
#    x 4.881740 0.000000 0.065700 
#    y 0.000000 4.335760 0.000000 
#    z 0.065700 0.000000 4.763540 
# 
# 
# High freq. dielectric constant tensor:
#      x y z
#    x 2.030790 0.000000 0.006310 
#    y 0.000000 1.982100 0.000000 
#    z 0.006310 0.000000 2.024680 
# 
# From -- ./inp_files/102565.got.cif
#   From: 2010.06.25/outbox.cif.g09.slc.cpg/sg15_52_cif.got.tgz:102565.got - 2010.06.28 07:06:18.
