data_PCOD8147252
_publ_section_title
;
Structure prediction by ZEFSAII (Michael W. Deem and Ramdas Pophale) SiO2 
 PCOD8147252
Probable space group: C 2/C
;
_chemical_formula_sum "Si O2"
_cell_formula_units_Z 48
_cell_length_a 19.359555
_cell_length_b 10.698582
_cell_length_c 11.334838
_cell_angle_alpha 90.000000
_cell_angle_beta 88.874191
_cell_angle_gamma 90.000000
_cell_volume 2347.216042
_symmetry_space_group_name_H-M "C 2/C"
_symmetry_group_IT_number 15
_symmetry_cell_setting 'monoclinic'
loop_
_space_group_symop_operation_xyz
x,y,z
-x,y,1/2-z
-x,-y,-z
x,-y,1/2+z
1/2+x,1/2+y,z
1/2-x,1/2+y,1/2-z
1/2-x,1/2-y,-z
1/2+x,1/2-y,1/2+z
loop_
_atom_site_type_symbol
_atom_site_label
_atom_site_fract_x
_atom_site_fract_y
_atom_site_fract_z
Si Si1 0.684614 0.407242 0.486846
Si Si2 0.575744 0.186005 0.832490
Si Si3 0.441846 0.904487 0.657112
Si Si4 0.204453 0.183385 0.407540
Si Si5 0.791156 0.321439 0.670793
Si Si6 0.438542 0.253385 0.920062
O O1 0.677080 0.548762 0.446967
O O2 0.751880 0.396190 0.568152
O O3 0.695812 0.320486 0.371834
O O4 0.611989 0.370318 0.552348
O O5 0.641743 0.221175 0.903755
O O6 0.515931 0.286825 0.871972
O O7 0.594753 0.183241 0.692307
O O8 0.546903 0.050389 0.869867
O O9 0.500000 0.857824 0.750000
O O10 0.363563 0.884735 0.706348
O O11 0.446979 0.831974 0.534320
O O12 0.250000 0.250000 0.500000
O O13 0.242851 0.173527 0.283913
#
# Coordination Sequence:
#
# PCOD8147252 Si02
#       6
#     8   8   8   8   8   8
#     4  10  23  46  67  89 136 173 215 276 326 398
#     4  11  23  40  68  95 133 171 221 267 322 405
#     4  11  23  38  68 100 131 171 219 279 316 390
#     4  12  27  40  68 102 129 173 225 271 324 400
#     4  10  24  42  66  94 131 175 216 269 344 376
#     4  10  22  43  65  94 128 181 211 265 341 373
#
# _framework density 20.449759
#
# number of rings (size 3 to 8) (size 9 to 14) (size 15 to 20)
#    0.000    1.333    3.333    1.500    7.000    0.667 
#    0.000    0.000   14.667    0.000    0.000    0.000 
#    0.000    0.000    0.000    0.000    0.000    0.000 
#
# Total GULP energy -297432.713633 kJ/mol
# GULP energy per Si atom -12393.029735 kJ/mol
# Density = 2.040321 g / cm^3
# Si number density = 20.449759 Si / 1000 Ang^3
#
#
#
# Elastic Constant Matrix: (Units=GPa)
#
#
# Indices 1 2 3 4 5 6 
#
# 1 145.9612 44.2469 52.0486 0.0000 20.1437 0.0000
# 2 44.2469 79.7473 55.4215 0.0000 4.8114 0.0000
# 3 52.0486 55.4215 96.4011 0.0000 7.7839 0.0000
# 4 0.0000 0.0000 0.0000 14.7516 0.0000 6.7157
# 5 20.1437 4.8114 7.7839 0.0000 43.6573 0.0000
# 6 0.0000 0.0000 0.0000 6.7157 0.0000 26.7322
#
#
#
# Elastic Compliance Matrix: (Units=1/GPa)
#
#
# Indices 1 2 3 4 5 6 
#
# 1 0.009281 -0.002752 -0.003153 0.000000 -0.003417 0.000000
# 2 -0.002752 0.021701 -0.011058 0.000000 0.000850 0.000000
# 3 -0.003153 -0.011058 0.018483 0.000000 -0.000622 0.000000
# 4 0.000000 0.000000 0.000000 0.076543 0.000000 -0.019229
# 5 -0.003417 0.000850 -0.000622 0.000000 0.024500 0.000000
# 6 0.000000 0.000000 0.000000 -0.019229 0.000000 0.042239
#
#
# Mechanical properties :
#
#
# Convention : Reuss Voigt Hill
#
# Bulk Modulus (GPa) = 64.35811 69.50485 66.93148
# Shear Modulus (GPa) = 21.56530 28.38772 24.97651
#
# Velocity S-wave (km/s) = 3.25091 3.72986 3.49859
# Velocity P-wave (km/s) = 6.75506 7.25334 7.00863
#
# Compressibility (1/GPa) = 0.01553806
#
# Stress axis : x y z
#
# Youngs Moduli (GPa) = 107.74286 46.08162 54.10253
#
# Poissons Ratio (x) = 0.12683 0.17058
# Poissons Ratio (y) = 0.29654 0.59829
# Poissons Ratio (z) = 0.33971 0.50959
#
# Static dielectric constant tensor:
#      x y z
#    x 4.112880 0.000000 -0.000390 
#    y 0.000000 3.529550 0.000000 
#    z -0.000390 0.000000 3.725740 
# 
# 
# High freq. dielectric constant tensor:
#      x y z
#    x 1.821720 0.000000 0.002800 
#    y 0.000000 1.772860 0.000000 
#    z 0.002800 0.000000 1.811460 
# 
# From -- ./inp_files/103750.got.cif
#   From: 2010.06.25/outbox.cif.g09.slc.cpg/sg15_52_cif.got.tgz:103750.got - 2010.06.28 07:06:18.
