data_PCOD8147501
_publ_section_title
;
Structure prediction by ZEFSAII (Michael W. Deem and Ramdas Pophale) SiO2 
 PCOD8147501
Probable space group: C 2/C
;
_chemical_formula_sum "Si O2"
_cell_formula_units_Z 60
_cell_length_a 26.964674
_cell_length_b 6.613881
_cell_length_c 17.162750
_cell_angle_alpha 90.000000
_cell_angle_beta 69.978097
_cell_angle_gamma 90.000000
_cell_volume 2875.833779
_symmetry_space_group_name_H-M "C 2/C"
_symmetry_group_IT_number 15
_symmetry_cell_setting 'monoclinic'
loop_
_space_group_symop_operation_xyz
x,y,z
-x,y,1/2-z
-x,-y,-z
x,-y,1/2+z
1/2+x,1/2+y,z
1/2-x,1/2+y,1/2-z
1/2-x,1/2-y,-z
1/2+x,1/2-y,1/2+z
loop_
_atom_site_type_symbol
_atom_site_label
_atom_site_fract_x
_atom_site_fract_y
_atom_site_fract_z
Si Si1 0.966119 0.289300 0.925918
Si Si2 0.937213 0.347821 0.533967
Si Si3 0.000000 0.877649 0.250000
Si Si4 0.703897 0.621516 0.362978
Si Si5 0.109962 0.903460 0.699880
Si Si6 0.626168 0.529854 0.017407
Si Si7 0.370106 0.082577 0.685906
Si Si8 0.193031 0.191755 0.737450
O O1 0.010545 0.227892 0.965999
O O2 0.990508 0.270468 0.827235
O O3 0.915149 0.151331 0.960960
O O4 0.949971 0.521911 0.949796
O O5 0.891239 0.192165 0.538235
O O6 0.920813 0.495664 0.613640
O O7 0.949751 0.019353 0.261223
O O8 0.684100 0.545472 0.458744
O O9 0.656089 0.751618 0.354873
O O10 0.756597 0.755576 0.344322
O O11 0.714726 0.431995 0.299982
O O12 0.149469 0.069377 0.713530
O O13 0.128391 0.868318 0.601031
O O14 0.112980 0.689191 0.742345
O O15 0.329912 0.903848 0.723529
#
# Coordination Sequence:
#
# PCOD8147501 Si02
#       8
#     8   8   4   8   8   8   8   8
#     4  10  23  38  60  94 126 171 217 270 314 380
#     4  11  22  37  65  93 124 169 225 265 313 378
#     4  10  22  44  64  88 138 176 206 262 328 380
#     4  11  22  39  70  93 125 164 216 271 316 375
#     4  10  26  42  64  95 136 172 209 263 328 384
#     4  11  23  42  60  94 134 168 210 271 324 377
#     4  11  22  41  65  94 123 169 219 264 315 384
#     4  11  22  42  67  98 125 167 217 268 320 385
#
# _framework density 20.863515
#
# number of rings (size 3 to 8) (size 9 to 14) (size 15 to 20)
#    0.000    1.333    4.000    1.200    1.867    8.000 
#    0.000    2.000    0.000    0.000    0.000    0.000 
#    0.000    0.000    0.000    0.000    0.000    0.000 
#
# Total GULP energy -372016.158289 kJ/mol
# GULP energy per Si atom -12400.538610 kJ/mol
# Density = 2.081603 g / cm^3
# Si number density = 20.863515 Si / 1000 Ang^3
#
#
#
# Elastic Constant Matrix: (Units=GPa)
#
#
# Indices 1 2 3 4 5 6 
#
# 1 77.3761 13.9429 28.5931 0.0000 -12.6147 0.0000
# 2 13.9429 61.9931 30.7285 0.0000 0.1883 0.0000
# 3 28.5931 30.7285 118.5463 0.0000 -15.1227 0.0000
# 4 0.0000 0.0000 0.0000 23.4664 0.0000 -2.8160
# 5 -12.6147 0.1883 -15.1227 0.0000 33.5004 0.0000
# 6 0.0000 0.0000 0.0000 -2.8160 0.0000 24.6529
#
#
#
# Elastic Compliance Matrix: (Units=1/GPa)
#
#
# Indices 1 2 3 4 5 6 
#
# 1 0.014965 -0.002154 -0.002473 0.000000 0.004531 0.000000
# 2 -0.002154 0.019004 -0.004800 0.000000 -0.003085 0.000000
# 3 -0.002473 -0.004800 0.010782 0.000000 0.003963 0.000000
# 4 0.000000 0.000000 0.000000 0.043206 0.000000 0.004935
# 5 0.004531 -0.003085 0.003963 0.000000 0.033363 0.000000
# 6 0.000000 0.000000 0.000000 0.004935 0.000000 0.041127
#
#
# Mechanical properties :
#
#
# Convention : Reuss Voigt Hill
#
# Bulk Modulus (GPa) = 38.61521 44.93826 41.77674
# Shear Modulus (GPa) = 26.32523 28.63401 27.47962
#
# Velocity S-wave (km/s) = 3.55601 3.70867 3.63314
# Velocity P-wave (km/s) = 5.95054 6.31862 6.13734
#
# Compressibility (1/GPa) = 0.02589653
#
# Stress axis : x y z
#
# Youngs Moduli (GPa) = 66.82478 52.62094 92.74874
#
# Poissons Ratio (x) = 0.11332 0.22939
# Poissons Ratio (y) = 0.14391 0.44520
# Poissons Ratio (z) = 0.16527 0.25258
#
# Static dielectric constant tensor:
#      x y z
#    x 3.721160 0.000000 -0.114090 
#    y 0.000000 3.756760 0.000000 
#    z -0.114090 0.000000 3.906730 
# 
# 
# High freq. dielectric constant tensor:
#      x y z
#    x 1.812150 0.000000 -0.016620 
#    y 0.000000 1.819390 0.000000 
#    z -0.016620 0.000000 1.819830 
# 
# From -- ./inp_files/223886.got.cif
#   From: 2010.06.25/outbox.cif.g09.slc.cpg/sg15_112_cif.got.tgz:223886.got - 2010.06.28 07:06:18.
