data_PCOD8147609
_publ_section_title
;
Structure prediction by ZEFSAII (Michael W. Deem and Ramdas Pophale) SiO2 
 PCOD8147609
Probable space group: C 2/C
;
_chemical_formula_sum "Si O2"
_cell_formula_units_Z 48
_cell_length_a 10.718851
_cell_length_b 8.829567
_cell_length_c 24.563252
_cell_angle_alpha 90.000000
_cell_angle_beta 111.883501
_cell_angle_gamma 90.000000
_cell_volume 2157.223263
_symmetry_space_group_name_H-M "C 2/C"
_symmetry_group_IT_number 15
_symmetry_cell_setting 'monoclinic'
loop_
_space_group_symop_operation_xyz
x,y,z
-x,y,1/2-z
-x,-y,-z
x,-y,1/2+z
1/2+x,1/2+y,z
1/2-x,1/2+y,1/2-z
1/2-x,1/2-y,-z
1/2+x,1/2-y,1/2+z
loop_
_atom_site_type_symbol
_atom_site_label
_atom_site_fract_x
_atom_site_fract_y
_atom_site_fract_z
Si Si1 0.856310 0.824099 0.894144
Si Si2 0.620264 0.968376 0.402741
Si Si3 0.353730 0.368056 0.591437
Si Si4 0.356074 0.116978 0.797678
Si Si5 0.165057 0.379338 0.013004
Si Si6 0.355819 0.382518 0.718099
O O1 0.795448 0.726128 0.834652
O O2 0.907138 0.700029 0.947538
O O3 0.989916 0.911026 0.895425
O O4 0.743699 0.939185 0.896424
O O5 0.676320 0.805006 0.430414
O O6 0.501049 0.948453 0.339789
O O7 0.567094 0.055224 0.449308
O O8 0.261587 0.483155 0.544552
O O9 0.319796 0.378562 0.649341
O O10 0.366451 0.212896 0.744062
O O11 0.257035 0.978628 0.768985
O O12 0.250000 0.250000 0.000000
O O13 0.500000 0.463236 0.750000
#
# Coordination Sequence:
#
# PCOD8147609 Si02
#       6
#     8   8   8   8   8   8
#     4  10  22  44  67  99 137 173 222 273 332 396
#     4  10  23  43  68 101 135 174 224 273 335 399
#     4  11  23  43  67 100 135 175 222 272 337 395
#     4  11  26  44  68  97 131 177 222 281 330 399
#     4  10  22  44  68 100 139 176 225 273 331 405
#     4  12  25  46  67  96 133 174 227 276 331 399
#
# _framework density 22.250826
#
# number of rings (size 3 to 8) (size 9 to 14) (size 15 to 20)
#    0.000    1.333    5.000    0.500    2.333    6.667 
#    9.000    0.000    0.000    0.000    0.000    0.000 
#    0.000    0.000    0.000    0.000    0.000    0.000 
#
# Total GULP energy -297445.493262 kJ/mol
# GULP energy per Si atom -12393.562219 kJ/mol
# Density = 2.220018 g / cm^3
# Si number density = 22.250826 Si / 1000 Ang^3
#
#
#
# Elastic Constant Matrix: (Units=GPa)
#
#
# Indices 1 2 3 4 5 6 
#
# 1 98.6369 59.5043 32.2102 0.0000 10.6137 0.0000
# 2 59.5043 114.1869 37.3338 0.0000 13.5010 0.0000
# 3 32.2102 37.3338 79.6988 0.0000 0.4158 0.0000
# 4 0.0000 0.0000 0.0000 41.5635 0.0000 -5.0847
# 5 10.6137 13.5010 0.4158 0.0000 25.5783 0.0000
# 6 0.0000 0.0000 0.0000 -5.0847 0.0000 29.1181
#
#
#
# Elastic Compliance Matrix: (Units=1/GPa)
#
#
# Indices 1 2 3 4 5 6 
#
# 1 0.015521 -0.006740 -0.003101 0.000000 -0.002833 0.000000
# 2 -0.006740 0.014065 -0.003841 0.000000 -0.004565 0.000000
# 3 -0.003101 -0.003841 0.015584 0.000000 0.003061 0.000000
# 4 0.000000 0.000000 0.000000 0.024585 0.000000 0.004293
# 5 -0.002833 -0.004565 0.003061 0.000000 0.042631 0.000000
# 6 0.000000 0.000000 0.000000 0.004293 0.000000 0.035093
#
#
# Mechanical properties :
#
#
# Convention : Reuss Voigt Hill
#
# Bulk Modulus (GPa) = 56.15753 61.17990 58.66871
# Shear Modulus (GPa) = 27.65823 30.15028 28.90426
#
# Velocity S-wave (km/s) = 3.52947 3.68505 3.60810
# Velocity P-wave (km/s) = 6.47324 6.75732 6.61680
#
# Compressibility (1/GPa) = 0.01780705
#
# Stress axis : x y z
#
# Youngs Moduli (GPa) = 64.42695 71.09722 64.16888
#
# Poissons Ratio (x) = 0.47916 0.19900
# Poissons Ratio (y) = 0.43421 0.24648
# Poissons Ratio (z) = 0.19980 0.27309
#
# Static dielectric constant tensor:
#      x y z
#    x 3.926910 0.000000 -0.378470 
#    y 0.000000 3.836800 0.000000 
#    z -0.378470 0.000000 4.403560 
# 
# 
# High freq. dielectric constant tensor:
#      x y z
#    x 1.869100 0.000000 -0.018910 
#    y 0.000000 1.879900 0.000000 
#    z -0.018910 0.000000 1.887320 
# 
# From -- ./inp_files/268099.got.cif
#   From: 2010.06.25/outbox.cif.g09.slc.cpg/sg15_135_cif.got.tgz:268099.got - 2010.06.28 07:06:18.
