data_PCOD8147717
_publ_section_title
;
Structure prediction by ZEFSAII (Michael W. Deem and Ramdas Pophale) SiO2 
 PCOD8147717
Probable space group: C 2/C
;
_chemical_formula_sum "Si O2"
_cell_formula_units_Z 48
_cell_length_a 7.943451
_cell_length_b 28.605511
_cell_length_c 13.820317
_cell_angle_alpha 90.000000
_cell_angle_beta 44.608564
_cell_angle_gamma 90.000000
_cell_volume 2205.334854
_symmetry_space_group_name_H-M "C 2/C"
_symmetry_group_IT_number 15
_symmetry_cell_setting 'monoclinic'
loop_
_space_group_symop_operation_xyz
x,y,z
-x,y,1/2-z
-x,-y,-z
x,-y,1/2+z
1/2+x,1/2+y,z
1/2-x,1/2+y,1/2-z
1/2-x,1/2-y,-z
1/2+x,1/2-y,1/2+z
loop_
_atom_site_type_symbol
_atom_site_label
_atom_site_fract_x
_atom_site_fract_y
_atom_site_fract_z
Si Si1 0.982453 0.014455 0.619916
Si Si2 0.839003 0.566870 0.608946
Si Si3 0.833295 0.666398 0.676037
Si Si4 0.146924 0.163464 0.964028
Si Si5 0.243303 0.737810 0.114573
Si Si6 0.396238 0.582522 0.385301
O O1 0.220045 0.041096 0.564985
O O2 0.754790 0.044965 0.749843
O O3 0.943015 0.963854 0.682546
O O4 0.000000 0.000000 0.500000
O O5 0.772770 0.622210 0.632439
O O6 0.124084 0.564003 0.490487
O O7 0.703866 0.656761 0.829591
O O8 0.733818 0.713423 0.673564
O O9 0.117547 0.673960 0.569796
O O10 0.048515 0.113705 0.042684
O O11 0.962794 0.205494 0.057059
O O12 0.000000 0.711773 0.250000
O O13 0.250000 0.750000 0.000000
O O14 0.500000 0.611236 0.250000
#
# Coordination Sequence:
#
# PCOD8147717 Si02
#       6
#     8   8   8   8   8   8
#     4  11  23  38  68 100 132 178 228 281 342 409
#     4  10  23  43  68  96 138 179 232 282 339 413
#     4  10  22  44  71  96 133 187 233 279 341 433
#     4  10  23  44  68  97 133 186 234 278 349 418
#     4  12  25  41  68 101 142 172 229 292 350 410
#     4  11  23  44  65  95 139 179 230 286 341 411
#
# _framework density 21.765402000000002
#
# number of rings (size 3 to 8) (size 9 to 14) (size 15 to 20)
#    0.000    1.333    3.333    2.000    2.333    6.000 
#    3.000    0.000    0.000    0.000    0.000    0.000 
#    0.000    0.000    0.000    0.000    0.000    0.000 
#
# Total GULP energy -297358.234964 kJ/mol
# GULP energy per Si atom -12389.926457 kJ/mol
# Density = 2.171586 g / cm^3
# Si number density = 21.765402 Si / 1000 Ang^3
#
#
#
# Elastic Constant Matrix: (Units=GPa)
#
#
# Indices 1 2 3 4 5 6 
#
# 1 98.9729 54.4929 54.6124 0.0000 19.5813 0.0000
# 2 54.4929 144.0447 50.8116 0.0000 -6.0376 0.0000
# 3 54.6124 50.8116 145.6006 0.0000 1.4664 0.0000
# 4 0.0000 0.0000 0.0000 31.6594 0.0000 16.5383
# 5 19.5813 -6.0376 1.4664 0.0000 30.5318 0.0000
# 6 0.0000 0.0000 0.0000 16.5383 0.0000 6.0989
#
#
#
# Elastic Compliance Matrix: (Units=1/GPa)
#
#
# Indices 1 2 3 4 5 6 
#
# 1 0.018478 -0.005846 -0.004762 0.000000 -0.012778 0.000000
# 2 -0.005846 0.009856 -0.001305 0.000000 0.005761 0.000000
# 3 -0.004762 -0.001305 0.009086 0.000000 0.002360 0.000000
# 4 0.000000 0.000000 0.000000 -0.075830 0.000000 0.205628
# 5 -0.012778 0.005761 0.002360 0.000000 0.041974 0.000000
# 6 0.000000 0.000000 0.000000 0.205628 0.000000 -0.393636
#
#
# Mechanical properties :
#
#
# Convention : Reuss Voigt Hill
#
# Bulk Modulus (GPa) = 73.56172 78.71688 76.13930
# Shear Modulus (GPa) = -13.82305 28.90478 7.54086
#
# Velocity S-wave (km/s) = -2.52284 3.64815 1.86337
# Velocity P-wave (km/s) = 5.03832 7.34778 6.29978
#
# Compressibility (1/GPa) = 0.01359403
#
# Stress axis : x y z
#
# Youngs Moduli (GPa) = 54.11721 101.46484 110.06218
#
# Poissons Ratio (x) = 0.59319 0.52412
# Poissons Ratio (y) = 0.31638 0.14359
# Poissons Ratio (z) = 0.25771 0.13237
#
# Static dielectric constant tensor:
#      x y z
#    x 3.861590 0.000000 -0.002870 
#    y 0.000000 3.562120 0.000000 
#    z -0.002870 0.000000 4.109550 
# 
# 
# High freq. dielectric constant tensor:
#      x y z
#    x 1.843890 0.000000 -0.000750 
#    y 0.000000 1.866970 0.000000 
#    z -0.000750 0.000000 1.867270 
# 
# From -- ./inp_files/138894.got.cif
#   From: 2010.06.25/outbox.cif.g09.slc.cpg/sg15_70_cif.got.tgz:138894.got - 2010.06.28 07:06:18.
