data_PCOD8147930
_publ_section_title
;
Structure prediction by ZEFSAII (Michael W. Deem and Ramdas Pophale) SiO2 
 PCOD8147930
Probable space group: C 2/C
;
_chemical_formula_sum "Si O2"
_cell_formula_units_Z 44
_cell_length_a 20.367221
_cell_length_b 8.768921
_cell_length_c 11.677842
_cell_angle_alpha 90.000000
_cell_angle_beta 62.926408
_cell_angle_gamma 90.000000
_cell_volume 1857.106195
_symmetry_space_group_name_H-M "C 2/C"
_symmetry_group_IT_number 15
_symmetry_cell_setting 'monoclinic'
loop_
_space_group_symop_operation_xyz
x,y,z
-x,y,1/2-z
-x,-y,-z
x,-y,1/2+z
1/2+x,1/2+y,z
1/2-x,1/2+y,1/2-z
1/2-x,1/2-y,-z
1/2+x,1/2-y,1/2+z
loop_
_atom_site_type_symbol
_atom_site_label
_atom_site_fract_x
_atom_site_fract_y
_atom_site_fract_z
Si Si1 0.000000 0.002786 0.250000
Si Si2 0.082988 0.737804 0.777123
Si Si3 0.670183 0.783448 0.733359
Si Si4 0.984366 0.239607 0.574121
Si Si5 0.412079 0.949010 0.887031
Si Si6 0.302481 0.918555 0.172772
O O1 0.073765 0.107812 0.209953
O O2 0.987129 0.906348 0.376248
O O3 0.072494 0.595915 0.701241
O O4 0.160685 0.718585 0.781301
O O5 0.017383 0.749299 0.921887
O O6 0.603955 0.739086 0.872650
O O7 0.629340 0.810001 0.645146
O O8 0.727192 0.643977 0.678087
O O9 0.714186 0.936492 0.733648
O O10 0.008943 0.389849 0.627619
O O11 0.358552 0.985412 0.035137
#
# Coordination Sequence:
#
# PCOD8147930 Si02
#       6
#     4   8   8   8   8   8
#     4  12  24  42  66 102 140 172 220 294 340 390
#     4  10  26  43  69 103 131 178 232 279 339 404
#     4  11  23  42  65  96 137 179 226 276 344 404
#     4  11  24  44  69 102 137 174 229 290 335 399
#     4  10  22  46  70  97 130 182 230 280 342 406
#     4  10  25  42  67  97 137 180 225 279 338 413
#
# _framework density 23.692775999999999
#
# number of rings (size 3 to 8) (size 9 to 14) (size 15 to 20)
#    0.000    1.455    1.818    1.091   10.182    3.636 
#    0.000    5.455    0.000    0.000    0.000    0.000 
#    0.000    0.000    0.000    0.000    0.000    0.000 
#
# Total GULP energy -272714.533431 kJ/mol
# GULP energy per Si atom -12396.115156 kJ/mol
# Density = 2.363885 g / cm^3
# Si number density = 23.692776 Si / 1000 Ang^3
#
#
#
# Elastic Constant Matrix: (Units=GPa)
#
#
# Indices 1 2 3 4 5 6 
#
# 1 97.2097 48.0766 35.2895 0.0000 -0.4425 0.0000
# 2 48.0766 108.9770 50.7112 0.0000 -1.5616 0.0000
# 3 35.2895 50.7112 75.5038 0.0000 6.3819 0.0000
# 4 0.0000 0.0000 0.0000 26.9173 0.0000 13.5048
# 5 -0.4425 -1.5616 6.3819 0.0000 28.5146 0.0000
# 6 0.0000 0.0000 0.0000 13.5048 0.0000 48.6223
#
#
#
# Elastic Compliance Matrix: (Units=1/GPa)
#
#
# Indices 1 2 3 4 5 6 
#
# 1 0.013755 -0.004416 -0.003527 0.000000 0.000761 0.000000
# 2 -0.004416 0.014987 -0.008221 0.000000 0.002592 0.000000
# 3 -0.003527 -0.008221 0.020852 0.000000 -0.005172 0.000000
# 4 0.000000 0.000000 0.000000 0.043166 0.000000 -0.011989
# 5 0.000761 0.002592 -0.005172 0.000000 0.036381 0.000000
# 6 0.000000 0.000000 0.000000 -0.011989 0.000000 0.023897
#
#
# Mechanical properties :
#
#
# Convention : Reuss Voigt Hill
#
# Bulk Modulus (GPa) = 57.92004 61.09390 59.50697
# Shear Modulus (GPa) = 26.16139 30.65171 28.40655
#
# Velocity S-wave (km/s) = 3.32654 3.60073 3.46635
# Velocity P-wave (km/s) = 6.26529 6.56726 6.41805
#
# Compressibility (1/GPa) = 0.01726518
#
# Stress axis : x y z
#
# Youngs Moduli (GPa) = 72.70110 66.72407 47.95765
#
# Poissons Ratio (x) = 0.29464 0.16916
# Poissons Ratio (y) = 0.32104 0.39426
# Poissons Ratio (z) = 0.25644 0.54854
#
# Static dielectric constant tensor:
#      x y z
#    x 4.342550 0.000000 0.280620 
#    y 0.000000 4.272840 0.000000 
#    z 0.280620 0.000000 4.220750 
# 
# 
# High freq. dielectric constant tensor:
#      x y z
#    x 1.937320 0.000000 0.019570 
#    y 0.000000 1.938640 0.000000 
#    z 0.019570 0.000000 1.931790 
# 
# From -- ./inp_files/109979.got.cif
#   From: 2010.06.25/outbox.cif.g09.slc.cpg/sg15_55_cif.got.tgz:109979.got - 2010.06.28 07:06:18.
