data_PCOD8147978
_publ_section_title
;
Structure prediction by ZEFSAII (Michael W. Deem and Ramdas Pophale) SiO2 
 PCOD8147978
Probable space group: C 2/C
;
_chemical_formula_sum "Si O2"
_cell_formula_units_Z 40
_cell_length_a 11.891925
_cell_length_b 15.524959
_cell_length_c 15.462738
_cell_angle_alpha 90.000000
_cell_angle_beta 141.635137
_cell_angle_gamma 90.000000
_cell_volume 1771.853117
_symmetry_space_group_name_H-M "C 2/C"
_symmetry_group_IT_number 15
_symmetry_cell_setting 'monoclinic'
loop_
_space_group_symop_operation_xyz
x,y,z
-x,y,1/2-z
-x,-y,-z
x,-y,1/2+z
1/2+x,1/2+y,z
1/2-x,1/2+y,1/2-z
1/2-x,1/2-y,-z
1/2+x,1/2-y,1/2+z
loop_
_atom_site_type_symbol
_atom_site_label
_atom_site_fract_x
_atom_site_fract_y
_atom_site_fract_z
Si Si1 0.199048 0.281427 0.875275
Si Si2 0.181956 0.991691 0.900384
Si Si3 0.883244 0.668138 0.590757
Si Si4 0.302046 0.122794 0.836988
Si Si5 0.521668 0.416931 0.457453
O O1 0.186479 0.196419 0.811826
O O2 0.351234 0.343738 0.923459
O O3 0.000000 0.326399 0.750000
O O4 0.250000 0.250000 0.000000
O O5 0.000000 0.949276 0.750000
O O6 0.310328 0.036629 0.903912
O O7 0.272178 0.920933 0.017651
O O8 0.118260 0.068599 0.923606
O O9 0.750000 0.750000 0.500000
O O10 0.000000 0.674322 0.750000
O O11 0.004454 0.659024 0.576764
O O12 0.187750 0.108199 0.680734
O O13 0.500000 0.500000 0.500000
#
# Coordination Sequence:
#
# PCOD8147978 Si02
#       5
#     8   8   8   8   8
#     4  12  23  45  73 106 141 182 240 296 354 424
#     4  10  22  47  70  99 140 182 234 297 355 425
#     4  12  28  46  68 102 144 190 241 293 361 434
#     4  11  24  45  73 101 144 186 240 296 358 425
#     4  11  24  43  71 107 144 182 232 294 357 427
#
# _framework density 22.575234999999999
#
# number of rings (size 3 to 8) (size 9 to 14) (size 15 to 20)
#    0.000    0.800    4.000    3.000    5.600    2.400 
#    7.200    0.000    0.000    0.000    0.000    0.000 
#    0.000    0.000    0.000    0.000    0.000    0.000 
#
# Total GULP energy -247774.563358 kJ/mol
# GULP energy per Si atom -12388.728168 kJ/mol
# Density = 2.252385 g / cm^3
# Si number density = 22.575235 Si / 1000 Ang^3
#
#
#
# Elastic Constant Matrix: (Units=GPa)
#
#
# Indices 1 2 3 4 5 6 
#
# 1 96.4098 33.8038 30.4030 0.0003 11.0936 0.0001
# 2 33.8038 129.9123 59.5560 0.0001 5.1166 0.0001
# 3 30.4030 59.5560 131.1615 0.0005 1.3385 0.0003
# 4 0.0003 0.0001 0.0005 44.1778 0.0004 3.7630
# 5 11.0936 5.1166 1.3385 0.0004 29.3597 0.0002
# 6 0.0001 0.0001 0.0003 3.7630 0.0002 41.2441
#
#
#
# Elastic Compliance Matrix: (Units=1/GPa)
#
#
# Indices 1 2 3 4 5 6 
#
# 1 0.012179 -0.002186 -0.001788 0.000000 -0.004139 0.000000
# 2 -0.002186 0.010179 -0.004108 0.000000 -0.000761 0.000000
# 3 -0.001788 -0.004108 0.009894 0.000000 0.000940 0.000000
# 4 0.000000 0.000000 0.000000 0.022813 0.000000 -0.002081
# 5 -0.004139 -0.000761 0.000940 0.000000 0.035714 0.000000
# 6 0.000000 0.000000 0.000000 -0.002081 0.000000 0.024436
#
#
# Mechanical properties :
#
#
# Convention : Reuss Voigt Hill
#
# Bulk Modulus (GPa) = 62.15540 67.22324 64.68932
# Shear Modulus (GPa) = 36.56506 38.53772 37.55139
#
# Velocity S-wave (km/s) = 4.02891 4.13616 4.08289
# Velocity P-wave (km/s) = 7.01678 7.25621 7.13750
#
# Compressibility (1/GPa) = 0.01608871
#
# Stress axis : x y z
#
# Youngs Moduli (GPa) = 82.10751 98.23770 101.06940
#
# Poissons Ratio (x) = 0.21478 0.18073
# Poissons Ratio (y) = 0.17951 0.41515
# Poissons Ratio (z) = 0.14682 0.40352
#
# Static dielectric constant tensor:
#      x y z
#    x 4.160070 0.000000 0.098440 
#    y 0.000000 4.085770 0.000000 
#    z 0.098440 0.000000 3.916530 
# 
# 
# High freq. dielectric constant tensor:
#      x y z
#    x 1.892670 0.000000 0.006050 
#    y 0.000000 1.891060 0.000000 
#    z 0.006050 0.000000 1.895580 
# 
# From -- ./inp_files/145874.got.cif
#   From: 2010.06.25/outbox.cif.g09.slc.cpg/sg15_73_cif.got.tgz:145874.got - 2010.06.28 07:06:18.
