data_PCOD8147194
_publ_section_title
;
Structure prediction by ZEFSAII (Michael W. Deem and Ramdas Pophale) SiO2 
 PCOD8147194
Probable space group: C 2/C
;
_chemical_formula_sum "Si O2"
_cell_formula_units_Z 56
_cell_length_a 13.698459
_cell_length_b 15.725977
_cell_length_c 22.961616
_cell_angle_alpha 90.000000
_cell_angle_beta 32.081770
_cell_angle_gamma 90.000000
_cell_volume 2627.192115
_symmetry_space_group_name_H-M "C 2/C"
_symmetry_group_IT_number 15
_symmetry_cell_setting 'monoclinic'
loop_
_space_group_symop_operation_xyz
x,y,z
-x,y,1/2-z
-x,-y,-z
x,-y,1/2+z
1/2+x,1/2+y,z
1/2-x,1/2+y,1/2-z
1/2-x,1/2-y,-z
1/2+x,1/2-y,1/2+z
loop_
_atom_site_type_symbol
_atom_site_label
_atom_site_fract_x
_atom_site_fract_y
_atom_site_fract_z
Si Si1 0.791090 0.222049 0.661507
Si Si2 0.127497 0.751272 0.505299
Si Si3 0.336746 0.626236 0.199744
Si Si4 0.487338 0.045873 0.321621
Si Si5 0.920425 0.601451 0.648234
Si Si6 0.664554 0.337420 0.021877
Si Si7 0.952613 0.966174 0.207236
O O1 0.751012 0.228503 0.612832
O O2 0.767387 0.315649 0.700331
O O3 0.648435 0.158340 0.762958
O O4 0.996965 0.186067 0.564315
O O5 0.250000 0.750000 0.500000
O O6 0.967468 0.820233 0.591761
O O7 0.041320 0.656955 0.542723
O O8 0.183525 0.587502 0.235454
O O9 0.463053 0.554685 0.166727
O O10 0.500000 0.008514 0.250000
O O11 0.320834 0.112442 0.407801
O O12 0.454731 0.971939 0.385839
O O13 0.756050 0.565954 0.692284
O O14 0.591929 0.395427 0.111812
O O15 0.750000 0.250000 0.000000
O O16 0.000000 0.983255 0.250000
#
# Coordination Sequence:
#
# PCOD8147194 Si02
#       7
#     8   8   8   8   8   8   8
#     4  10  22  43  63  89 130 158 204 262 299 368
#     4  11  25  39  67  90 123 167 208 250 306 369
#     4  10  23  43  60  97 124 161 211 247 311 369
#     4  11  23  40  67  89 128 161 201 260 308 365
#     4   9  24  42  59  97 123 162 208 249 309 371
#     4  11  23  40  65  96 119 160 211 249 312 373
#     4  10  24  41  66  90 129 163 201 260 310 363
#
# _framework density 21.315532000000001
#
# number of rings (size 3 to 8) (size 9 to 14) (size 15 to 20)
#    0.000    1.714    1.429    0.857    8.000    1.714 
#    0.000    7.143    0.000    0.000    0.000    0.000 
#    0.000    0.000    0.000    0.000    0.000    0.000 
#
# Total GULP energy -347244.010767 kJ/mol
# GULP energy per Si atom -12401.571813 kJ/mol
# Density = 2.126702 g / cm^3
# Si number density = 21.315532 Si / 1000 Ang^3
#
#
#
# Elastic Constant Matrix: (Units=GPa)
#
#
# Indices 1 2 3 4 5 6 
#
# 1 95.6742 19.9522 17.5515 0.0015 12.8389 0.0010
# 2 19.9522 115.3360 15.4143 0.0055 -4.2127 -0.0001
# 3 17.5515 15.4143 51.9791 0.0143 4.8364 -0.0003
# 4 0.0015 0.0055 0.0143 21.6337 -0.0009 -7.1637
# 5 12.8389 -4.2127 4.8364 -0.0009 28.5431 -0.0006
# 6 0.0010 -0.0001 -0.0003 -7.1637 -0.0006 26.1127
#
#
#
# Elastic Compliance Matrix: (Units=1/GPa)
#
#
# Indices 1 2 3 4 5 6 
#
# 1 0.012100 -0.001876 -0.003045 0.000001 -0.005204 0.000000
# 2 -0.001876 0.009413 -0.002403 -0.000001 0.002640 0.000000
# 3 -0.003045 -0.002403 0.021220 -0.000015 -0.002580 -0.000004
# 4 0.000001 -0.000001 -0.000015 0.050843 0.000004 0.013948
# 5 -0.005204 0.002640 -0.002580 0.000004 0.038202 0.000002
# 6 0.000000 0.000000 -0.000004 0.013948 0.000002 0.042122
#
#
# Mechanical properties :
#
#
# Convention : Reuss Voigt Hill
#
# Bulk Modulus (GPa) = 35.60927 40.98060 38.29494
# Shear Modulus (GPa) = 25.26391 29.26265 27.26328
#
# Velocity S-wave (km/s) = 3.44646 3.70919 3.58024
# Velocity P-wave (km/s) = 5.70784 6.13283 5.92415
#
# Compressibility (1/GPa) = 0.02808257
#
# Stress axis : x y z
#
# Youngs Moduli (GPa) = 82.64179 106.24101 47.12623
#
# Poissons Ratio (x) = 0.19935 0.14351
# Poissons Ratio (y) = 0.15507 0.11326
# Poissons Ratio (z) = 0.25167 0.25534
#
# Static dielectric constant tensor:
#      x y z
#    x 3.838170 -0.000030 -0.390900 
#    y -0.000030 4.267170 0.000030 
#    z -0.390900 0.000030 4.180660 
# 
# 
# High freq. dielectric constant tensor:
#      x y z
#    x 1.836470 0.000000 -0.010240 
#    y 0.000000 1.851520 0.000000 
#    z -0.010240 0.000000 1.829680 
# 
# From -- ./inp_files/173767.got.cif
#   From: 2010.06.25/outbox.cif.g09.slc.cpg/sg15_87_cif.got.tgz:173767.got - 2010.06.28 07:06:18.
