data_PCOD8147511
_publ_section_title
;
Structure prediction by ZEFSAII (Michael W. Deem and Ramdas Pophale) SiO2 
 PCOD8147511
Probable space group: C 2/C
;
_chemical_formula_sum "Si O2"
_cell_formula_units_Z 56
_cell_length_a 15.319702
_cell_length_b 10.605662
_cell_length_c 19.574798
_cell_angle_alpha 90.000000
_cell_angle_beta 120.674140
_cell_angle_gamma 90.000000
_cell_volume 2735.429695
_symmetry_space_group_name_H-M "C 2/C"
_symmetry_group_IT_number 15
_symmetry_cell_setting 'monoclinic'
loop_
_space_group_symop_operation_xyz
x,y,z
-x,y,1/2-z
-x,-y,-z
x,-y,1/2+z
1/2+x,1/2+y,z
1/2-x,1/2+y,1/2-z
1/2-x,1/2-y,-z
1/2+x,1/2-y,1/2+z
loop_
_atom_site_type_symbol
_atom_site_label
_atom_site_fract_x
_atom_site_fract_y
_atom_site_fract_z
Si Si1 0.517132 0.555013 0.930576
Si Si2 0.179855 0.017894 0.738502
Si Si3 0.826669 0.253909 0.311714
Si Si4 0.462660 0.185125 0.668282
Si Si5 0.844732 0.071174 0.125007
Si Si6 0.068586 0.305319 0.014058
Si Si7 0.877326 0.574554 0.509133
O O1 0.415570 0.548476 0.846256
O O2 0.605556 0.484574 0.924033
O O3 0.549523 0.699789 0.949680
O O4 0.500000 0.500000 0.000000
O O5 0.222439 0.878724 0.733645
O O6 0.151915 0.021788 0.808099
O O7 0.263118 0.126537 0.758798
O O8 0.841634 0.257755 0.399562
O O9 0.942176 0.263336 0.334812
O O10 0.500000 0.107446 0.750000
O O11 0.401666 0.304556 0.672733
O O12 0.387809 0.099603 0.593975
O O13 0.731239 0.115088 0.062212
O O14 0.961359 0.341154 0.005225
O O15 0.111049 0.426422 0.993291
#
# Coordination Sequence:
#
# PCOD8147511 Si02
#       7
#     8   8   8   8   8   8   8
#     4  12  24  42  69  97 135 180 229 277 340 418
#     4  12  25  43  71 103 133 184 231 287 346 407
#     4  11  23  44  69  97 137 180 227 287 342 405
#     4  11  21  40  65  96 135 172 230 283 332 403
#     4  12  23  44  70  98 135 181 232 284 341 403
#     4  10  22  44  64  96 139 176 224 279 350 402
#     4  10  23  40  68  97 134 181 221 285 342 402
#
# _framework density 20.472104000000002
#
# number of rings (size 3 to 8) (size 9 to 14) (size 15 to 20)
#    0.000    0.857    5.714    1.714    2.000    1.714 
#    0.000    1.429    0.000    0.000    0.000    0.000 
#    0.000    0.000    0.000    0.000    0.000    0.000 
#
# Total GULP energy -347101.998410 kJ/mol
# GULP energy per Si atom -12396.499943 kJ/mol
# Density = 2.042551 g / cm^3
# Si number density = 20.472104 Si / 1000 Ang^3
#
#
#
# Elastic Constant Matrix: (Units=GPa)
#
#
# Indices 1 2 3 4 5 6 
#
# 1 55.8169 37.7088 35.0551 0.0000 16.3924 0.0000
# 2 37.7088 109.9327 46.2821 0.0000 3.7626 0.0000
# 3 35.0551 46.2821 155.7386 0.0000 4.3243 0.0000
# 4 0.0000 0.0000 0.0000 38.2501 0.0000 1.1011
# 5 16.3924 3.7626 4.3243 0.0000 34.4994 0.0000
# 6 0.0000 0.0000 0.0000 1.1011 0.0000 25.1241
#
#
#
# Elastic Compliance Matrix: (Units=1/GPa)
#
#
# Indices 1 2 3 4 5 6 
#
# 1 0.029523 -0.008051 -0.003901 0.000000 -0.012661 0.000000
# 2 -0.008051 0.012612 -0.002011 0.000000 0.002702 0.000000
# 3 -0.003901 -0.002011 0.007867 0.000000 0.001087 0.000000
# 4 0.000000 0.000000 0.000000 0.026177 0.000000 -0.001147
# 5 -0.012661 0.002702 0.001087 0.000000 0.034571 0.000000
# 6 0.000000 0.000000 0.000000 -0.001147 0.000000 0.039853
#
#
# Mechanical properties :
#
#
# Convention : Reuss Voigt Hill
#
# Bulk Modulus (GPa) = 45.29897 62.17557 53.73727
# Shear Modulus (GPa) = 26.89796 33.07087 29.98442
#
# Velocity S-wave (km/s) = 3.62869 4.02358 3.83122
# Velocity P-wave (km/s) = 6.30331 7.21265 6.77326
#
# Compressibility (1/GPa) = 0.02207556
#
# Stress axis : x y z
#
# Youngs Moduli (GPa) = 33.87148 79.28771 127.12068
#
# Poissons Ratio (x) = 0.63837 0.49592
# Poissons Ratio (y) = 0.27271 0.25562
# Poissons Ratio (z) = 0.13214 0.15944
#
# Static dielectric constant tensor:
#      x y z
#    x 3.670380 0.000000 -0.067990 
#    y 0.000000 3.787690 0.000000 
#    z -0.067990 0.000000 4.098290 
# 
# 
# High freq. dielectric constant tensor:
#      x y z
#    x 1.785060 0.000000 0.005070 
#    y 0.000000 1.794210 0.000000 
#    z 0.005070 0.000000 1.824930 
# 
# From -- ./inp_files/204532.got.cif
#   From: 2010.06.25/outbox.cif.g09.slc.cpg/sg15_103_cif.got.tgz:204532.got - 2010.06.28 07:06:18.
