data_PCOD8147239
_publ_section_title
;
Structure prediction by ZEFSAII (Michael W. Deem and Ramdas Pophale) SiO2 
 PCOD8147239
Probable space group: C 2/C
;
_chemical_formula_sum "Si O2"
_cell_formula_units_Z 64
_cell_length_a 14.458297
_cell_length_b 8.565158
_cell_length_c 24.979472
_cell_angle_alpha 90.000000
_cell_angle_beta 89.145455
_cell_angle_gamma 90.000000
_cell_volume 3093.053767
_symmetry_space_group_name_H-M "C 2/C"
_symmetry_group_IT_number 15
_symmetry_cell_setting 'monoclinic'
loop_
_space_group_symop_operation_xyz
x,y,z
-x,y,1/2-z
-x,-y,-z
x,-y,1/2+z
1/2+x,1/2+y,z
1/2-x,1/2+y,1/2-z
1/2-x,1/2-y,-z
1/2+x,1/2-y,1/2+z
loop_
_atom_site_type_symbol
_atom_site_label
_atom_site_fract_x
_atom_site_fract_y
_atom_site_fract_z
Si Si1 0.748932 0.696314 0.178194
Si Si2 0.269596 0.657169 0.052944
Si Si3 0.585183 0.801893 0.371512
Si Si4 0.373886 0.269148 0.370160
Si Si5 0.096567 0.875037 0.601784
Si Si6 0.070250 0.342773 0.887138
Si Si7 0.235035 0.649302 0.787131
Si Si8 0.344712 0.670901 0.515438
O O1 0.675029 0.725916 0.131391
O O2 0.849654 0.714156 0.152667
O O3 0.738064 0.529786 0.205838
O O4 0.732614 0.824522 0.223852
O O5 0.337757 0.761696 0.086491
O O6 0.172578 0.651277 0.086135
O O7 0.317699 0.491551 0.043269
O O8 0.250000 0.750000 0.000000
O O9 0.502088 0.676116 0.372377
O O10 0.634273 0.807727 0.312782
O O11 0.552998 0.972822 0.389906
O O12 0.374457 0.446375 0.390952
O O13 0.479224 0.224827 0.360674
O O14 0.316907 0.252497 0.315236
O O15 0.093569 0.846626 0.538271
O O16 0.092253 0.275303 0.945896
O O17 0.250000 0.750000 0.500000
#
# Coordination Sequence:
#
# PCOD8147239 Si02
#       8
#     8   8   8   8   8   8   8   8
#     4  10  22  43  65  87 122 160 203 262 306 373
#     4  11  22  40  62  85 127 167 206 246 304 359
#     4  10  24  42  61  93 126 161 207 257 304 376
#     4  10  23  41  62  94 123 163 208 256 304 371
#     4  11  23  42  62  90 129 163 207 251 310 369
#     4  11  24  40  62  96 128 157 212 252 307 368
#     4   9  22  43  65  87 123 159 204 259 318 357
#     4  12  24  39  63  92 128 169 205 253 302 366
#
# _framework density 20.691526
#
# number of rings (size 3 to 8) (size 9 to 14) (size 15 to 20)
#    0.000    1.500    2.500    2.250    3.500    6.500 
#    0.000    5.000    0.000    0.000    0.000    0.000 
#    0.000    0.000    0.000    0.000    0.000    0.000 
#
# Total GULP energy -396787.950982 kJ/mol
# GULP energy per Si atom -12399.623468 kJ/mol
# Density = 2.064443 g / cm^3
# Si number density = 20.691526 Si / 1000 Ang^3
#
#
#
# Elastic Constant Matrix: (Units=GPa)
#
#
# Indices 1 2 3 4 5 6 
#
# 1 110.0308 12.5826 26.4867 0.0000 -2.1909 0.0000
# 2 12.5826 49.6599 32.2619 0.0000 -0.2015 0.0000
# 3 26.4867 32.2619 110.1217 0.0000 -4.1729 0.0000
# 4 0.0000 0.0000 0.0000 31.8569 0.0000 0.6685
# 5 -2.1909 -0.2015 -4.1729 0.0000 20.6509 0.0000
# 6 0.0000 0.0000 0.0000 0.6685 0.0000 36.2772
#
#
#
# Elastic Compliance Matrix: (Units=1/GPa)
#
#
# Indices 1 2 3 4 5 6 
#
# 1 0.009709 -0.001180 -0.001966 0.000000 0.000621 0.000000
# 2 -0.001180 0.025046 -0.007103 0.000000 -0.001316 0.000000
# 3 -0.001966 -0.007103 0.011714 0.000000 0.002089 0.000000
# 4 0.000000 0.000000 0.000000 0.031403 0.000000 -0.000579
# 5 0.000621 -0.001316 0.002089 0.000000 0.048899 0.000000
# 6 0.000000 0.000000 0.000000 -0.000579 0.000000 0.027576
#
#
# Mechanical properties :
#
#
# Convention : Reuss Voigt Hill
#
# Bulk Modulus (GPa) = 38.50737 45.83054 42.16895
# Shear Modulus (GPa) = 27.24766 30.98908 29.11837
#
# Velocity S-wave (km/s) = 3.63278 3.87417 3.75542
# Velocity P-wave (km/s) = 6.02053 6.49691 6.26325
#
# Compressibility (1/GPa) = 0.02596905
#
# Stress axis : x y z
#
# Youngs Moduli (GPa) = 102.99789 39.92727 85.36839
#
# Poissons Ratio (x) = 0.04713 0.16782
# Poissons Ratio (y) = 0.12157 0.60641
# Poissons Ratio (z) = 0.20248 0.28362
#
# Static dielectric constant tensor:
#      x y z
#    x 3.923150 0.000000 -0.055650 
#    y 0.000000 3.871270 0.000000 
#    z -0.055650 0.000000 3.952740 
# 
# 
# High freq. dielectric constant tensor:
#      x y z
#    x 1.816540 0.000000 0.002180 
#    y 0.000000 1.810380 0.000000 
#    z 0.002180 0.000000 1.809720 
# 
# From -- ./inp_files/273195.got.cif
#   From: 2010.06.25/outbox.cif.g09.slc.cpg/sg15_137_cif.got.tgz:273195.got - 2010.06.28 07:06:18.
