data_PCOD8147388
_publ_section_title
;
Structure prediction by ZEFSAII (Michael W. Deem and Ramdas Pophale) SiO2 
 PCOD8147388
Probable space group: C 2/C
;
_chemical_formula_sum "Si O2"
_cell_formula_units_Z 32
_cell_length_a 11.440055
_cell_length_b 8.578389
_cell_length_c 12.216783
_cell_angle_alpha 90.000000
_cell_angle_beta 99.810219
_cell_angle_gamma 90.000000
_cell_volume 1181.390191
_symmetry_space_group_name_H-M "C 2/C"
_symmetry_group_IT_number 15
_symmetry_cell_setting 'monoclinic'
loop_
_space_group_symop_operation_xyz
x,y,z
-x,y,1/2-z
-x,-y,-z
x,-y,1/2+z
1/2+x,1/2+y,z
1/2-x,1/2+y,1/2-z
1/2-x,1/2-y,-z
1/2+x,1/2-y,1/2+z
loop_
_atom_site_type_symbol
_atom_site_label
_atom_site_fract_x
_atom_site_fract_y
_atom_site_fract_z
Si Si1 0.118305 0.687418 0.351073
Si Si2 0.653824 0.292248 0.121406
Si Si3 0.892210 0.141764 0.432316
Si Si4 0.406173 0.156508 0.606613
O O1 0.085491 0.744446 0.222069
O O2 0.069596 0.801753 0.438707
O O3 0.259796 0.690254 0.381738
O O4 0.058037 0.519914 0.361145
O O5 0.599361 0.455285 0.068019
O O6 0.795188 0.299805 0.167629
O O7 0.638085 0.160702 0.026315
O O8 0.980874 0.227859 0.359609
#
# Coordination Sequence:
#
# PCOD8147388 Si02
#       4
#     8   8   8   8
#     4  10  23  42  67 102 141 180 228 287 345 408
#     4  10  23  42  67 102 141 180 228 287 345 408
#     4  10  22  43  69  99 139 180 230 288 344 410
#     4  10  22  43  69  99 139 180 230 288 344 410
#
# _framework density 27.086735000000001
#
# number of rings (size 3 to 8) (size 9 to 14) (size 15 to 20)
#    0.000    2.000    0.000    1.500    0.000   18.000 
#    0.000   15.000    0.000    0.000    0.000    0.000 
#    0.000    0.000    0.000    0.000    0.000    0.000 
#
# Total GULP energy -198473.143979 kJ/mol
# GULP energy per Si atom -12404.571499 kJ/mol
# Density = 2.702508 g / cm^3
# Si number density = 27.086735 Si / 1000 Ang^3
#
#
#
# Elastic Constant Matrix: (Units=GPa)
#
#
# Indices 1 2 3 4 5 6 
#
# 1 149.1130 70.2827 34.6270 0.0000 -34.7348 0.0000
# 2 70.2827 178.3939 83.4732 0.0000 -19.5938 0.0000
# 3 34.6270 83.4732 140.6982 0.0000 -12.7634 0.0000
# 4 0.0000 0.0000 0.0000 21.2537 0.0000 -10.3407
# 5 -34.7348 -19.5938 -12.7634 0.0000 55.2480 0.0000
# 6 0.0000 0.0000 0.0000 -10.3407 0.0000 55.7657
#
#
#
# Elastic Compliance Matrix: (Units=1/GPa)
#
#
# Indices 1 2 3 4 5 6 
#
# 1 0.009287 -0.003144 0.000008 0.000000 0.004726 0.000000
# 2 -0.003144 0.008988 -0.004544 0.000000 0.000161 0.000000
# 3 0.000008 -0.004544 0.009862 0.000000 0.000672 0.000000
# 4 0.000000 0.000000 0.000000 0.051716 0.000000 0.009590
# 5 0.004726 0.000161 0.000672 0.000000 0.021284 0.000000
# 6 0.000000 0.000000 0.000000 0.009590 0.000000 0.019710
#
#
# Mechanical properties :
#
#
# Convention : Reuss Voigt Hill
#
# Bulk Modulus (GPa) = 78.25851 93.88565 86.07208
# Shear Modulus (GPa) = 35.59570 45.10831 40.35200
#
# Velocity S-wave (km/s) = 3.62904 4.08527 3.86389
# Velocity P-wave (km/s) = 6.82015 7.54910 7.19386
#
# Compressibility (1/GPa) = 0.01277816
#
# Stress axis : x y z
#
# Youngs Moduli (GPa) = 107.67783 111.25875 101.39631
#
# Poissons Ratio (x) = 0.34975 -0.00082
# Poissons Ratio (y) = 0.33849 0.46076
# Poissons Ratio (z) = -0.00087 0.50557
#
# Static dielectric constant tensor:
#      x y z
#    x 5.728240 0.000000 -0.114160 
#    y 0.000000 4.575230 0.000000 
#    z -0.114160 0.000000 4.778130 
# 
# 
# High freq. dielectric constant tensor:
#      x y z
#    x 2.167180 0.000000 0.004040 
#    y 0.000000 2.072390 0.000000 
#    z 0.004040 0.000000 2.087410 
# 
# From -- ./inp_files/93498.got.cif
#   From: 2010.06.25/outbox.cif.g09.slc.cpg/sg15_47_cif.got.tgz:93498.got - 2010.06.28 07:06:18.
