data_PCOD8147712
_publ_section_title
;
Structure prediction by ZEFSAII (Michael W. Deem and Ramdas Pophale) SiO2 
 PCOD8147712
Probable space group: C 2/C
;
_chemical_formula_sum "Si O2"
_cell_formula_units_Z 44
_cell_length_a 14.446815
_cell_length_b 11.791932
_cell_length_c 13.849825
_cell_angle_alpha 90.000000
_cell_angle_beta 57.365824
_cell_angle_gamma 90.000000
_cell_volume 1986.922628
_symmetry_space_group_name_H-M "C 2/C"
_symmetry_group_IT_number 15
_symmetry_cell_setting 'monoclinic'
loop_
_space_group_symop_operation_xyz
x,y,z
-x,y,1/2-z
-x,-y,-z
x,-y,1/2+z
1/2+x,1/2+y,z
1/2-x,1/2+y,1/2-z
1/2-x,1/2-y,-z
1/2+x,1/2-y,1/2+z
loop_
_atom_site_type_symbol
_atom_site_label
_atom_site_fract_x
_atom_site_fract_y
_atom_site_fract_z
Si Si1 0.500000 0.882041 0.750000
Si Si2 0.504139 0.940587 0.099191
Si Si3 0.622619 0.466129 0.458798
Si Si4 0.764020 0.689792 0.389658
Si Si5 0.102766 0.223043 0.123974
Si Si6 0.214945 0.674359 0.731955
O O1 0.607790 0.809191 0.716426
O O2 0.447609 0.959495 0.862866
O O3 0.579201 0.827719 0.063048
O O4 0.383673 0.915741 0.209450
O O5 0.500000 0.000000 0.000000
O O6 0.500000 0.500000 0.500000
O O7 0.702724 0.570666 0.433426
O O8 0.625358 0.391861 0.554277
O O9 0.670897 0.393978 0.341528
O O10 0.750000 0.750000 0.500000
O O11 0.704112 0.755567 0.336468
O O12 0.204482 0.250745 0.138797
O O13 0.000000 0.201533 0.250000
#
# Coordination Sequence:
#
# PCOD8147712 Si02
#       6
#     4   8   8   8   8   8
#     4  12  24  48  68 102 142 178 246 292 356 430
#     4  11  21  42  75 104 135 184 236 295 354 426
#     4  12  26  44  72 108 141 185 234 292 364 426
#     4  12  29  47  70 105 143 189 240 295 366 425
#     4  10  22  44  71 103 139 184 239 290 348 426
#     4  11  24  45  68 101 141 182 236 289 354 428
#
# _framework density 22.144797000000001
#
# number of rings (size 3 to 8) (size 9 to 14) (size 15 to 20)
#    0.000    0.727    4.545    3.818    5.091    2.909 
#    0.000    0.000    0.000    0.000    0.000    0.000 
#    0.000    0.000    0.000    0.000    0.000    0.000 
#
# Total GULP energy -272722.717930 kJ/mol
# GULP energy per Si atom -12396.487179 kJ/mol
# Density = 2.209439 g / cm^3
# Si number density = 22.144797 Si / 1000 Ang^3
#
#
#
# Elastic Constant Matrix: (Units=GPa)
#
#
# Indices 1 2 3 4 5 6 
#
# 1 120.2862 44.4609 52.3681 0.0000 -0.1071 0.0000
# 2 44.4609 110.9330 69.4118 0.0000 13.9114 0.0000
# 3 52.3681 69.4118 94.2204 0.0000 19.5675 0.0000
# 4 0.0000 0.0000 0.0000 52.6416 0.0000 6.5450
# 5 -0.1071 13.9114 19.5675 0.0000 59.1640 0.0000
# 6 0.0000 0.0000 0.0000 6.5450 0.0000 34.3603
#
#
#
# Elastic Compliance Matrix: (Units=1/GPa)
#
#
# Indices 1 2 3 4 5 6 
#
# 1 0.011308 -0.001093 -0.005946 0.000000 0.002244 0.000000
# 2 -0.001093 0.016830 -0.011778 0.000000 -0.000064 0.000000
# 3 -0.005946 -0.011778 0.023646 0.000000 -0.005062 0.000000
# 4 0.000000 0.000000 0.000000 0.019457 0.000000 -0.003706
# 5 0.002244 -0.000064 -0.005062 0.000000 0.018595 0.000000
# 6 0.000000 0.000000 0.000000 -0.003706 0.000000 0.029809
#
#
# Mechanical properties :
#
#
# Convention : Reuss Voigt Hill
#
# Bulk Modulus (GPa) = 70.66792 73.10236 71.88514
# Shear Modulus (GPa) = 30.86489 39.84643 35.35566
#
# Velocity S-wave (km/s) = 3.73738 4.24649 4.00004
# Velocity P-wave (km/s) = 7.11372 7.55819 7.33932
#
# Compressibility (1/GPa) = 0.01415069
#
# Stress axis : x y z
#
# Youngs Moduli (GPa) = 88.43170 59.41746 42.29069
#
# Poissons Ratio (x) = 0.06496 0.25145
# Poissons Ratio (y) = 0.09668 0.49809
# Poissons Ratio (z) = 0.52579 0.69980
#
# Static dielectric constant tensor:
#      x y z
#    x 4.031140 0.000000 0.013600 
#    y 0.000000 5.103530 0.000000 
#    z 0.013600 0.000000 4.160380 
# 
# 
# High freq. dielectric constant tensor:
#      x y z
#    x 1.878600 0.000000 -0.005350 
#    y 0.000000 1.872610 0.000000 
#    z -0.005350 0.000000 1.881960 
# 
# From -- ./inp_files/151756.got.cif
#   From: 2010.06.25/outbox.cif.g09.slc.cpg/sg15_76_cif.got.tgz:151756.got - 2010.06.28 07:06:18.
