data_PCOD8147004
_publ_section_title
;
Structure prediction by ZEFSAII (Michael W. Deem and Ramdas Pophale) SiO2 
 PCOD8147004
Probable space group: C 2/C
;
_chemical_formula_sum "Si O2"
_cell_formula_units_Z 64
_cell_length_a 9.620886
_cell_length_b 10.592995
_cell_length_c 30.732186
_cell_angle_alpha 90.000000
_cell_angle_beta 97.500467
_cell_angle_gamma 90.000000
_cell_volume 3105.241553
_symmetry_space_group_name_H-M "C 2/C"
_symmetry_group_IT_number 15
_symmetry_cell_setting 'monoclinic'
loop_
_space_group_symop_operation_xyz
x,y,z
-x,y,1/2-z
-x,-y,-z
x,-y,1/2+z
1/2+x,1/2+y,z
1/2-x,1/2+y,1/2-z
1/2-x,1/2-y,-z
1/2+x,1/2-y,1/2+z
loop_
_atom_site_type_symbol
_atom_site_label
_atom_site_fract_x
_atom_site_fract_y
_atom_site_fract_z
Si Si1 0.133238 0.932217 0.726514
Si Si2 0.161522 0.010079 0.924729
Si Si3 0.900165 0.104361 0.374600
Si Si4 0.135475 0.609421 0.636224
Si Si5 0.345336 0.132249 0.499497
Si Si6 0.654838 0.855394 0.237465
Si Si7 0.611095 0.241569 0.466404
Si Si8 0.361011 0.985402 0.589462
O O1 0.077152 0.923061 0.675147
O O2 0.197336 0.794273 0.743535
O O3 0.000000 0.968291 0.750000
O O4 0.243325 0.047944 0.733017
O O5 0.233734 0.047447 0.882578
O O6 0.077673 0.119285 0.947227
O O7 0.286146 0.957172 0.959538
O O8 0.042964 0.910422 0.907621
O O9 0.865967 0.249275 0.381629
O O10 0.779300 0.009984 0.387078
O O11 0.163519 0.601716 0.688249
O O12 0.990067 0.536697 0.622480
O O13 0.250000 0.250000 0.500000
O O14 0.499002 0.180233 0.494098
O O15 0.344727 0.062941 0.544925
O O16 0.500000 0.873629 0.250000
O O17 0.750000 0.250000 0.500000
O O18 0.619634 0.159739 0.422993
#
# Coordination Sequence:
#
# PCOD8147004 Si02
#       8
#     8   8   8   8   8   8   8   8
#     4  10  22  44  66  98 132 166 210 262 325 389
#     4  12  24  42  63  91 127 165 217 261 316 374
#     4  11  25  41  66  95 126 164 210 264 315 377
#     4  11  23  43  65  91 127 165 206 263 316 372
#     4  12  26  40  62  90 123 171 217 259 314 375
#     4  10  22  42  68  95 130 167 208 261 323 392
#     4  12  24  41  62  87 123 169 213 262 317 366
#     4  12  23  41  62  89 127 163 212 260 312 371
#
# _framework density 20.610313999999999
#
# number of rings (size 3 to 8) (size 9 to 14) (size 15 to 20)
#    0.000    0.750    3.750    4.125    1.750    1.500 
#    2.250    0.000    0.000    0.000    0.000    0.000 
#    0.000    0.000    0.000    0.000    0.000    0.000 
#
# Total GULP energy -396786.450751 kJ/mol
# GULP energy per Si atom -12399.576586 kJ/mol
# Density = 2.056340 g / cm^3
# Si number density = 20.610314 Si / 1000 Ang^3
#
#
#
# Elastic Constant Matrix: (Units=GPa)
#
#
# Indices 1 2 3 4 5 6 
#
# 1 91.7544 32.9565 8.9720 0.0000 -8.5795 0.0000
# 2 32.9565 90.8960 18.0942 0.0000 2.5783 0.0000
# 3 8.9720 18.0942 57.6068 0.0000 -12.4976 0.0000
# 4 0.0000 0.0000 0.0000 12.7838 0.0000 12.8321
# 5 -8.5795 2.5783 -12.4976 0.0000 41.5751 0.0000
# 6 0.0000 0.0000 0.0000 12.8321 0.0000 33.6062
#
#
#
# Elastic Compliance Matrix: (Units=1/GPa)
#
#
# Indices 1 2 3 4 5 6 
#
# 1 0.012884 -0.004786 0.000147 0.000000 0.003000 0.000000
# 2 -0.004786 0.013665 -0.004220 0.000000 -0.003104 0.000000
# 3 0.000147 -0.004220 0.020031 0.000000 0.006314 0.000000
# 4 0.000000 0.000000 0.000000 0.126840 0.000000 -0.048432
# 5 0.003000 -0.003104 0.006314 0.000000 0.026762 0.000000
# 6 0.000000 0.000000 0.000000 -0.048432 0.000000 0.048250
#
#
# Mechanical properties :
#
#
# Convention : Reuss Voigt Hill
#
# Bulk Modulus (GPa) = 34.64631 40.03363 37.33997
# Shear Modulus (GPa) = 18.13106 29.60863 23.86984
#
# Velocity S-wave (km/s) = 2.96921 3.79435 3.40685
# Velocity P-wave (km/s) = 5.34804 6.21791 5.79931
#
# Compressibility (1/GPa) = 0.02886310
#
# Stress axis : x y z
#
# Youngs Moduli (GPa) = 77.61752 73.18038 49.92177
#
# Poissons Ratio (x) = 0.35022 -0.00736
# Poissons Ratio (y) = 0.37146 0.21067
# Poissons Ratio (z) = -0.01144 0.30883
#
# Static dielectric constant tensor:
#      x y z
#    x 3.926420 0.000000 -0.483560 
#    y 0.000000 4.146940 0.000000 
#    z -0.483560 0.000000 4.246100 
# 
# 
# High freq. dielectric constant tensor:
#      x y z
#    x 1.808890 0.000000 -0.011990 
#    y 0.000000 1.818320 0.000000 
#    z -0.011990 0.000000 1.816390 
# 
# From -- ./inp_files/307498.got.cif
#   From: 2010.06.25/outbox.cif.g09.slc.cpg/sg15_154_cif.got.tgz:307498.got - 2010.06.28 07:06:18.
