data_PCOD8147849
_publ_section_title
;
Structure prediction by ZEFSAII (Michael W. Deem and Ramdas Pophale) SiO2 
 PCOD8147849
Probable space group: C 2/C
;
_chemical_formula_sum "Si O2"
_cell_formula_units_Z 64
_cell_length_a 19.623227
_cell_length_b 28.166518
_cell_length_c 12.754685
_cell_angle_alpha 90.000000
_cell_angle_beta 154.888118
_cell_angle_gamma 90.000000
_cell_volume 2991.821057
_symmetry_space_group_name_H-M "C 2/C"
_symmetry_group_IT_number 15
_symmetry_cell_setting 'monoclinic'
loop_
_space_group_symop_operation_xyz
x,y,z
-x,y,1/2-z
-x,-y,-z
x,-y,1/2+z
1/2+x,1/2+y,z
1/2-x,1/2+y,1/2-z
1/2-x,1/2-y,-z
1/2+x,1/2-y,1/2+z
loop_
_atom_site_type_symbol
_atom_site_label
_atom_site_fract_x
_atom_site_fract_y
_atom_site_fract_z
Si Si1 0.343729 0.771678 0.729895
Si Si2 0.171332 0.008259 0.042443
Si Si3 0.671254 0.016765 0.444352
Si Si4 0.335950 0.270409 0.808744
Si Si5 0.137810 0.332628 0.166691
Si Si6 0.332084 0.846183 0.053766
Si Si7 0.196305 0.082915 0.715982
Si Si8 0.158683 0.932209 0.722648
O O1 0.250000 0.750000 0.500000
O O2 0.223504 0.784722 0.657325
O O3 0.470360 0.729571 0.930043
O O4 0.455054 0.819848 0.870960
O O5 0.316937 0.020033 0.164661
O O6 0.162491 0.054007 0.105879
O O7 0.221959 0.959380 0.168553
O O8 0.000000 0.001772 0.750000
O O9 0.500000 0.998698 0.250000
O O10 0.712880 0.067976 0.550941
O O11 0.813244 0.980616 0.674537
O O12 0.265963 0.217297 0.691796
O O13 0.290614 0.305610 0.652144
O O14 0.155130 0.356303 0.305042
O O15 0.222611 0.368206 0.205131
O O16 0.500000 0.825608 0.250000
O O17 0.296496 0.895011 0.943443
O O18 0.008895 0.091291 0.476721
#
# Coordination Sequence:
#
# PCOD8147849 Si02
#       8
#     8   8   8   8   8   8   8   8
#     4  10  22  45  71  96 133 179 224 276 346 418
#     4  11  20  43  70  92 139 188 232 281 345 425
#     4  11  23  42  66 100 139 179 226 293 352 410
#     4  10  23  44  67  99 134 179 222 287 346 414
#     4  10  25  39  70 100 135 177 232 287 353 407
#     4  12  23  43  63  97 137 171 231 295 347 416
#     4  11  23  42  64 103 133 178 240 285 344 416
#     4  11  24  39  69  99 133 183 240 282 352 415
#
# _framework density 21.391653999999999
#
# number of rings (size 3 to 8) (size 9 to 14) (size 15 to 20)
#    0.750    0.500    3.750    2.625    1.750    3.000 
#    2.250    1.250    0.000    0.000    0.000    0.000 
#    0.000    0.000    0.000    0.000    0.000    0.000 
#
# Total GULP energy -396511.536656 kJ/mol
# GULP energy per Si atom -12390.985520 kJ/mol
# Density = 2.134297 g / cm^3
# Si number density = 21.391654 Si / 1000 Ang^3
#
#
#
# Elastic Constant Matrix: (Units=GPa)
#
#
# Indices 1 2 3 4 5 6 
#
# 1 120.7955 21.6502 25.8115 0.0000 -0.2049 0.0000
# 2 21.6502 91.6296 19.0138 0.0000 -10.1409 0.0000
# 3 25.8115 19.0138 85.8858 0.0000 -1.1043 0.0000
# 4 0.0000 0.0000 0.0000 25.3237 0.0000 6.4604
# 5 -0.2049 -10.1409 -1.1043 0.0000 31.9236 0.0000
# 6 0.0000 0.0000 0.0000 6.4604 0.0000 31.4710
#
#
#
# Elastic Compliance Matrix: (Units=1/GPa)
#
#
# Indices 1 2 3 4 5 6 
#
# 1 0.009090 -0.001722 -0.002358 0.000000 -0.000570 0.000000
# 2 -0.001722 0.012181 -0.002131 0.000000 0.003785 0.000000
# 3 -0.002358 -0.002131 0.012821 0.000000 -0.000248 0.000000
# 4 0.000000 0.000000 0.000000 0.041671 0.000000 -0.008554
# 5 -0.000570 0.003785 -0.000248 0.000000 0.032515 0.000000
# 6 0.000000 0.000000 0.000000 -0.008554 0.000000 0.033531
#
#
# Mechanical properties :
#
#
# Convention : Reuss Voigt Hill
#
# Bulk Modulus (GPa) = 46.14424 47.91800 47.03112
# Shear Modulus (GPa) = 30.96877 33.19937 32.08407
#
# Velocity S-wave (km/s) = 3.80900 3.94379 3.87698
# Velocity P-wave (km/s) = 6.40020 6.57168 6.48651
#
# Compressibility (1/GPa) = 0.02167118
#
# Stress axis : x y z
#
# Youngs Moduli (GPa) = 110.01225 82.09319 77.99987
#
# Poissons Ratio (x) = 0.14133 0.18392
# Poissons Ratio (y) = 0.18939 0.16619
# Poissons Ratio (z) = 0.25941 0.17492
#
# Static dielectric constant tensor:
#      x y z
#    x 4.019500 0.000000 -0.071950 
#    y 0.000000 3.622400 0.000000 
#    z -0.071950 0.000000 3.829230 
# 
# 
# High freq. dielectric constant tensor:
#      x y z
#    x 1.845680 0.000000 0.002680 
#    y 0.000000 1.824980 0.000000 
#    z 0.002680 0.000000 1.836940 
# 
# From -- ./inp_files/108649.got.cif
#   From: 2010.06.25/outbox.cif.g09.slc.cpg/sg15_55_cif.got.tgz:108649.got - 2010.06.28 07:06:18.
