data_PCOD8147391
_publ_section_title
;
Structure prediction by ZEFSAII (Michael W. Deem and Ramdas Pophale) SiO2 
 PCOD8147391
Probable space group: C 2/C
;
_chemical_formula_sum "Si O2"
_cell_formula_units_Z 52
_cell_length_a 8.072148
_cell_length_b 31.498848
_cell_length_c 13.947910
_cell_angle_alpha 90.000000
_cell_angle_beta 138.044675
_cell_angle_gamma 90.000000
_cell_volume 2370.977517
_symmetry_space_group_name_H-M "C 2/C"
_symmetry_group_IT_number 15
_symmetry_cell_setting 'monoclinic'
loop_
_space_group_symop_operation_xyz
x,y,z
-x,y,1/2-z
-x,-y,-z
x,-y,1/2+z
1/2+x,1/2+y,z
1/2-x,1/2+y,1/2-z
1/2-x,1/2-y,-z
1/2+x,1/2-y,1/2+z
loop_
_atom_site_type_symbol
_atom_site_label
_atom_site_fract_x
_atom_site_fract_y
_atom_site_fract_z
Si Si1 0.029420 0.081220 0.073137
Si Si2 0.354482 0.583903 0.783672
Si Si3 0.405679 0.974019 0.051921
Si Si4 0.000000 0.535377 0.250000
Si Si5 0.287336 0.330559 0.877910
Si Si6 0.023486 0.755334 0.657326
Si Si7 0.389058 0.320034 0.301433
O O1 0.297494 0.063370 0.218375
O O2 0.042154 0.132204 0.096334
O O3 0.996555 0.074264 0.944058
O O4 0.835133 0.056941 0.059757
O O5 0.500000 0.570079 0.750000
O O6 0.275217 0.632998 0.741285
O O7 0.112036 0.556220 0.683431
O O8 0.344830 0.008313 0.106530
O O9 0.500000 0.000000 0.000000
O O10 0.311211 0.286366 0.834073
O O11 0.000000 0.344512 0.750000
O O12 0.382113 0.321422 0.026092
O O13 0.163756 0.710551 0.733238
O O14 0.000000 0.777321 0.750000
O O15 0.750000 0.750000 0.500000
O O16 0.500000 0.303184 0.250000
#
# Coordination Sequence:
#
# PCOD8147391 Si02
#       7
#     8   8   8   4   8   8   8
#     4  11  24  47  67 101 138 179 231 291 358 421
#     4  10  22  43  70 100 132 178 231 285 352 428
#     4  12  26  41  71  97 137 181 227 286 352 427
#     4  12  24  44  68  96 134 174 228 292 346 408
#     4  11  25  47  73 101 142 187 232 295 358 419
#     4  12  26  44  69 106 143 185 236 292 351 420
#     4  10  24  44  72  99 136 185 234 283 351 434
#
# _framework density 21.931881000000001
#
# number of rings (size 3 to 8) (size 9 to 14) (size 15 to 20)
#    0.000    0.923    3.846    1.846    6.462    1.231 
#    2.769    0.000    0.000    0.000    0.000    0.000 
#    0.000    0.000    0.000    0.000    0.000    0.000 
#
# Total GULP energy -322282.477559 kJ/mol
# GULP energy per Si atom -12395.479906 kJ/mol
# Density = 2.188196 g / cm^3
# Si number density = 21.931881 Si / 1000 Ang^3
#
#
#
# Elastic Constant Matrix: (Units=GPa)
#
#
# Indices 1 2 3 4 5 6 
#
# 1 92.5658 43.3443 30.4405 0.0000 0.7363 0.0000
# 2 43.3443 106.2759 38.6109 0.0000 10.2383 0.0000
# 3 30.4405 38.6109 106.0678 0.0000 12.9106 0.0000
# 4 0.0000 0.0000 0.0000 31.7012 0.0000 8.4181
# 5 0.7363 10.2383 12.9106 0.0000 42.6715 0.0000
# 6 0.0000 0.0000 0.0000 8.4181 0.0000 20.8774
#
#
#
# Elastic Compliance Matrix: (Units=1/GPa)
#
#
# Indices 1 2 3 4 5 6 
#
# 1 0.013898 -0.004963 -0.002386 0.000000 0.001673 0.000000
# 2 -0.004963 0.012704 -0.002948 0.000000 -0.002070 0.000000
# 3 -0.002386 -0.002948 0.011519 0.000000 -0.002737 0.000000
# 4 0.000000 0.000000 0.000000 0.035327 0.000000 -0.014245
# 5 0.001673 -0.002070 -0.002737 0.000000 0.024731 0.000000
# 6 0.000000 0.000000 0.000000 -0.014245 0.000000 0.053642
#
#
# Mechanical properties :
#
#
# Convention : Reuss Voigt Hill
#
# Bulk Modulus (GPa) = 57.05230 58.85565 57.95398
# Shear Modulus (GPa) = 28.04930 31.88426 29.96678
#
# Velocity S-wave (km/s) = 3.58009 3.81699 3.70044
# Velocity P-wave (km/s) = 6.56957 6.80587 6.68876
#
# Compressibility (1/GPa) = 0.01752778
#
# Stress axis : x y z
#
# Youngs Moduli (GPa) = 71.95184 78.71472 86.81344
#
# Poissons Ratio (x) = 0.39064 0.20711
# Poissons Ratio (y) = 0.35708 0.25595
# Poissons Ratio (z) = 0.17166 0.23207
#
# Static dielectric constant tensor:
#      x y z
#    x 3.994200 0.000000 0.020740 
#    y 0.000000 4.180900 0.000000 
#    z 0.020740 0.000000 4.051170 
# 
# 
# High freq. dielectric constant tensor:
#      x y z
#    x 1.854540 0.000000 0.002190 
#    y 0.000000 1.879730 0.000000 
#    z 0.002190 0.000000 1.861960 
# 
# From -- ./inp_files/139892.got.cif
#   From: 2010.06.25/outbox.cif.g09.slc.cpg/sg15_70_cif.got.tgz:139892.got - 2010.06.28 07:06:18.
