data_PCOD8147700
_publ_section_title
;
Structure prediction by ZEFSAII (Michael W. Deem and Ramdas Pophale) SiO2 
 PCOD8147700
Probable space group: C 2/C
;
_chemical_formula_sum "Si O2"
_cell_formula_units_Z 36
_cell_length_a 10.776360
_cell_length_b 14.693710
_cell_length_c 13.796035
_cell_angle_alpha 90.000000
_cell_angle_beta 44.310602
_cell_angle_gamma 90.000000
_cell_volume 1525.997820
_symmetry_space_group_name_H-M "C 2/C"
_symmetry_group_IT_number 15
_symmetry_cell_setting 'monoclinic'
loop_
_space_group_symop_operation_xyz
x,y,z
-x,y,1/2-z
-x,-y,-z
x,-y,1/2+z
1/2+x,1/2+y,z
1/2-x,1/2+y,1/2-z
1/2-x,1/2-y,-z
1/2+x,1/2-y,1/2+z
loop_
_atom_site_type_symbol
_atom_site_label
_atom_site_fract_x
_atom_site_fract_y
_atom_site_fract_z
Si Si1 0.585759 0.560877 0.302887
Si Si2 0.338978 0.302722 0.040362
Si Si3 0.477309 0.860117 0.572427
Si Si4 0.733293 0.626781 0.724930
Si Si5 0.500000 0.771825 0.750000
O O1 0.500000 0.587868 0.250000
O O2 0.456045 0.609268 0.450790
O O3 0.786293 0.596485 0.196355
O O4 0.585969 0.452417 0.320715
O O5 0.472369 0.233585 0.015702
O O6 0.204904 0.337114 0.202084
O O7 0.250000 0.250000 0.000000
O O8 0.606522 0.918491 0.428719
O O9 0.567863 0.838773 0.625892
O O10 0.657698 0.710411 0.704373
#
# Coordination Sequence:
#
# PCOD8147700 Si02
#       5
#     8   8   8   8   4
#     4  12  24  45  65 101 141 177 224 288 343 402
#     4  11  23  43  70  99 137 182 227 274 342 409
#     4  11  24  43  72  98 133 179 234 279 340 413
#     4  11  24  43  70 100 136 180 225 284 344 406
#     4  10  22  44  70  98 134 172 230 280 344 406
#
# _framework density 23.59112
#
# number of rings (size 3 to 8) (size 9 to 14) (size 15 to 20)
#    0.000    0.889    3.333    4.667    0.000    1.778 
#    4.000    0.000    0.000    0.000    0.000    0.000 
#    0.000    0.000    0.000    0.000    0.000    0.000 
#
# Total GULP energy -223008.948831 kJ/mol
# GULP energy per Si atom -12389.386046 kJ/mol
# Density = 2.353743 g / cm^3
# Si number density = 23.591120 Si / 1000 Ang^3
#
#
#
# Elastic Constant Matrix: (Units=GPa)
#
#
# Indices 1 2 3 4 5 6 
#
# 1 130.2606 32.4080 68.6360 0.0002 35.2763 -0.0001
# 2 32.4080 72.9904 33.9099 0.0001 12.4640 -0.0001
# 3 68.6360 33.9099 158.3184 0.0006 26.4732 -0.0005
# 4 0.0002 0.0001 0.0006 59.0445 -0.0003 7.0880
# 5 35.2763 12.4640 26.4732 -0.0003 39.7013 0.0002
# 6 -0.0001 -0.0001 -0.0005 7.0880 0.0002 29.3476
#
#
#
# Elastic Compliance Matrix: (Units=1/GPa)
#
#
# Indices 1 2 3 4 5 6 
#
# 1 0.012229 -0.002491 -0.003469 0.000000 -0.007771 0.000000
# 2 -0.002491 0.016031 -0.002118 0.000000 -0.001407 0.000000
# 3 -0.003469 -0.002118 0.008607 0.000000 -0.001992 0.000000
# 4 0.000000 0.000000 0.000000 0.017442 0.000000 -0.004213
# 5 -0.007771 -0.001407 -0.001992 0.000000 0.033863 0.000000
# 6 0.000000 0.000000 0.000000 -0.004213 0.000000 0.035092
#
#
# Mechanical properties :
#
#
# Convention : Reuss Voigt Hill
#
# Bulk Modulus (GPa) = 48.28518 70.16415 59.22467
# Shear Modulus (GPa) = 34.17093 40.72637 37.44865
#
# Velocity S-wave (km/s) = 3.81000 4.15944 3.98855
# Velocity P-wave (km/s) = 6.31401 7.27147 6.80959
#
# Compressibility (1/GPa) = 0.02071029
#
# Stress axis : x y z
#
# Youngs Moduli (GPa) = 81.77415 62.37945 116.18484
#
# Poissons Ratio (x) = 0.15540 0.40300
# Poissons Ratio (y) = 0.20372 0.24612
# Poissons Ratio (z) = 0.28364 0.13214
#
# Static dielectric constant tensor:
#      x y z
#    x 4.129170 0.000000 0.495890 
#    y 0.000000 4.320610 0.000000 
#    z 0.495890 0.000000 4.607440 
# 
# 
# High freq. dielectric constant tensor:
#      x y z
#    x 1.923170 0.000000 0.025350 
#    y 0.000000 1.936480 0.000000 
#    z 0.025350 0.000000 1.943790 
# 
# From -- ./inp_files/28708.got.cif
#   From: 2010.06.25/outbox.cif.g09.slc.cpg/sg15_15_cif.got.tgz:28708.got - 2010.06.28 07:06:18.
