data_PCOD8147794
_publ_section_title
;
Structure prediction by ZEFSAII (Michael W. Deem and Ramdas Pophale) SiO2 
 PCOD8147794
Probable space group: C 2/C
;
_chemical_formula_sum "Si O2"
_cell_formula_units_Z 36
_cell_length_a 8.751020
_cell_length_b 21.989686
_cell_length_c 8.271388
_cell_angle_alpha 90.000000
_cell_angle_beta 70.743327
_cell_angle_gamma 90.000000
_cell_volume 1502.627656
_symmetry_space_group_name_H-M "C 2/C"
_symmetry_group_IT_number 15
_symmetry_cell_setting 'monoclinic'
loop_
_space_group_symop_operation_xyz
x,y,z
-x,y,1/2-z
-x,-y,-z
x,-y,1/2+z
1/2+x,1/2+y,z
1/2-x,1/2+y,1/2-z
1/2-x,1/2-y,-z
1/2+x,1/2-y,1/2+z
loop_
_atom_site_type_symbol
_atom_site_label
_atom_site_fract_x
_atom_site_fract_y
_atom_site_fract_z
Si Si1 0.685940 0.977467 0.636870
Si Si2 0.285951 0.148701 0.233026
Si Si3 0.000000 0.776245 0.750000
Si Si4 0.395797 0.180824 0.529830
Si Si5 0.188431 0.078403 0.717676
O O1 0.500000 0.985728 0.750000
O O2 0.767397 0.918755 0.695932
O O3 0.712406 0.964768 0.439567
O O4 0.786698 0.040003 0.627728
O O5 0.153226 0.180111 0.164585
O O6 0.307027 0.192579 0.387263
O O7 0.449693 0.140161 0.074024
O O8 0.965577 0.738962 0.598644
O O9 0.276587 0.144051 0.691852
O O10 0.000000 0.088789 0.750000
#
# Coordination Sequence:
#
# PCOD8147794 Si02
#       5
#     8   8   4   8   8
#     4  11  22  43  69  94 136 176 212 274 337 392
#     4  10  22  45  66  94 136 173 217 276 338 380
#     4  12  24  40  72  98 122 178 234 266 320 412
#     4  10  23  46  63  96 136 172 217 279 333 384
#     4  11  24  42  66 102 133 172 218 274 329 394
#
# _framework density 23.958031999999999
#
# number of rings (size 3 to 8) (size 9 to 14) (size 15 to 20)
#    0.000    1.333    4.444    2.667    3.111    0.000 
#   20.000    0.000    0.000    0.000    0.000    0.000 
#    0.000    0.000    0.000    0.000    0.000    0.000 
#
# Total GULP energy -223085.621213 kJ/mol
# GULP energy per Si atom -12393.645623 kJ/mol
# Density = 2.390350 g / cm^3
# Si number density = 23.958032 Si / 1000 Ang^3
#
#
#
# Elastic Constant Matrix: (Units=GPa)
#
#
# Indices 1 2 3 4 5 6 
#
# 1 134.2642 56.5684 16.5964 0.0000 -2.1308 0.0000
# 2 56.5684 69.7642 2.9514 0.0000 19.1638 0.0000
# 3 16.5964 2.9514 36.4386 0.0000 -11.6810 0.0000
# 4 0.0000 0.0000 0.0000 28.8893 0.0000 8.1274
# 5 -2.1308 19.1638 -11.6810 0.0000 23.1087 0.0000
# 6 0.0000 0.0000 0.0000 8.1274 0.0000 27.1759
#
#
#
# Elastic Compliance Matrix: (Units=1/GPa)
#
#
# Indices 1 2 3 4 5 6 
#
# 1 0.014129 -0.015079 -0.000940 0.000000 0.013333 0.000000
# 2 -0.015079 0.036652 -0.007506 0.000000 -0.035580 0.000000
# 3 -0.000940 -0.007506 0.036335 0.000000 0.024505 0.000000
# 4 0.000000 0.000000 0.000000 0.037795 0.000000 -0.011303
# 5 0.013333 -0.035580 0.024505 0.000000 0.086396 0.000000
# 6 0.000000 0.000000 0.000000 -0.011303 0.000000 0.040178
#
#
# Mechanical properties :
#
#
# Convention : Reuss Voigt Hill
#
# Bulk Modulus (GPa) = 24.95933 43.63327 34.29630
# Shear Modulus (GPa) = 16.03125 26.79150 21.41137
#
# Velocity S-wave (km/s) = 2.58958 3.34768 2.99273
# Velocity P-wave (km/s) = 4.40247 5.76147 5.12720
#
# Compressibility (1/GPa) = 0.04006518
#
# Stress axis : x y z
#
# Youngs Moduli (GPa) = 70.77677 27.28349 27.52172
#
# Poissons Ratio (x) = 0.41141 0.02587
# Poissons Ratio (y) = 1.06725 0.20659
# Poissons Ratio (z) = 0.06652 0.20480
#
# Static dielectric constant tensor:
#      x y z
#    x 4.264390 0.000000 0.000260 
#    y 0.000000 4.120890 0.000000 
#    z 0.000260 0.000000 4.342520 
# 
# 
# High freq. dielectric constant tensor:
#      x y z
#    x 1.952310 0.000000 -0.004290 
#    y 0.000000 1.944320 0.000000 
#    z -0.004290 0.000000 1.937370 
# 
# From -- ./inp_files/23329.got.cif
#   From: 2010.06.25/outbox.cif.g09.slc.cpg/sg15_12_cif.got.tgz:23329.got - 2010.06.28 07:06:18.
