data_PCOD8147182
_publ_section_title
;
Structure prediction by ZEFSAII (Michael W. Deem and Ramdas Pophale) SiO2 
 PCOD8147182
Probable space group: C 2/C
;
_chemical_formula_sum "Si O2"
_cell_formula_units_Z 52
_cell_length_a 17.687875
_cell_length_b 19.568355
_cell_length_c 8.825529
_cell_angle_alpha 90.000000
_cell_angle_beta 57.679588
_cell_angle_gamma 90.000000
_cell_volume 2581.452487
_symmetry_space_group_name_H-M "C 2/C"
_symmetry_group_IT_number 15
_symmetry_cell_setting 'monoclinic'
loop_
_space_group_symop_operation_xyz
x,y,z
-x,y,1/2-z
-x,-y,-z
x,-y,1/2+z
1/2+x,1/2+y,z
1/2-x,1/2+y,1/2-z
1/2-x,1/2-y,-z
1/2+x,1/2-y,1/2+z
loop_
_atom_site_type_symbol
_atom_site_label
_atom_site_fract_x
_atom_site_fract_y
_atom_site_fract_z
Si Si1 0.000000 0.980685 0.250000
Si Si2 0.856359 0.301316 0.258278
Si Si3 0.111149 0.073046 0.906456
Si Si4 0.027528 0.304802 0.879995
Si Si5 0.815033 0.557043 0.687481
Si Si6 0.837804 0.773511 0.091799
Si Si7 0.413694 0.050142 0.275943
O O1 0.055830 0.933300 0.307912
O O2 0.933537 0.029344 0.413179
O O3 0.839159 0.382953 0.280866
O O4 0.863516 0.267446 0.413482
O O5 0.768797 0.272021 0.265930
O O6 0.949136 0.284066 0.078967
O O7 0.210287 0.043202 0.778505
O O8 0.118665 0.151152 0.954684
O O9 0.120806 0.269203 0.816912
O O10 0.042725 0.385741 0.857668
O O11 0.000000 0.273762 0.750000
O O12 0.851308 0.574576 0.481260
O O13 0.858891 0.489432 0.708250
O O14 0.500000 0.008301 0.250000
#
# Coordination Sequence:
#
# PCOD8147182 Si02
#       7
#     4   8   8   8   8   8   8
#     4  10  22  44  66  96 128 160 216 272 322 382
#     4  10  22  43  61  92 128 164 220 263 314 390
#     4  10  23  43  67  96 125 166 215 269 321 387
#     4  11  23  41  60  94 128 164 213 265 320 382
#     4  11  22  41  63  92 131 167 216 261 324 381
#     4  10  24  41  66  91 125 174 213 266 322 383
#     4  11  23  38  60  94 128 172 210 259 316 388
#
# _framework density 20.143699000000002
#
# number of rings (size 3 to 8) (size 9 to 14) (size 15 to 20)
#    0.000    1.538    3.077    1.846    5.385    0.615 
#    2.769    0.000    0.000    0.000    0.000    0.000 
#    0.000    0.000    0.000    0.000    0.000    0.000 
#
# Total GULP energy -322313.226436 kJ/mol
# GULP energy per Si atom -12396.662555 kJ/mol
# Density = 2.009785 g / cm^3
# Si number density = 20.143699 Si / 1000 Ang^3
#
#
#
# Elastic Constant Matrix: (Units=GPa)
#
#
# Indices 1 2 3 4 5 6 
#
# 1 131.3750 44.4094 44.3539 0.0000 -2.6211 0.0000
# 2 44.4094 64.3518 35.3727 0.0000 6.5427 0.0000
# 3 44.3539 35.3727 106.0463 0.0000 -12.0746 0.0000
# 4 0.0000 0.0000 0.0000 27.2037 0.0000 -2.2261
# 5 -2.6211 6.5427 -12.0746 0.0000 34.8290 0.0000
# 6 0.0000 0.0000 0.0000 -2.2261 0.0000 39.6959
#
#
#
# Elastic Compliance Matrix: (Units=1/GPa)
#
#
# Indices 1 2 3 4 5 6 
#
# 1 0.010445 -0.006123 -0.002193 0.000000 0.001176 0.000000
# 2 -0.006123 0.023909 -0.006224 0.000000 -0.007110 0.000000
# 3 -0.002193 -0.006224 0.013052 0.000000 0.005529 0.000000
# 4 0.000000 0.000000 0.000000 0.036929 0.000000 0.002071
# 5 0.001176 -0.007110 0.005529 0.000000 0.032053 0.000000
# 6 0.000000 0.000000 0.000000 0.002071 0.000000 0.025308
#
#
# Mechanical properties :
#
#
# Convention : Reuss Voigt Hill
#
# Bulk Modulus (GPa) = 54.55965 61.11613 57.83789
# Shear Modulus (GPa) = 28.26729 32.18819 30.22774
#
# Velocity S-wave (km/s) = 3.75010 4.00175 3.87797
# Velocity P-wave (km/s) = 6.77459 7.19430 6.98760
#
# Compressibility (1/GPa) = 0.01832856
#
# Stress axis : x y z
#
# Youngs Moduli (GPa) = 95.73825 41.82583 76.61438
#
# Poissons Ratio (x) = 0.25608 0.16798
# Poissons Ratio (y) = 0.58617 0.47682
# Poissons Ratio (z) = 0.20991 0.26031
#
# Static dielectric constant tensor:
#      x y z
#    x 3.854850 0.000000 -1.708620 
#    y 0.000000 3.538440 0.000000 
#    z -1.708620 0.000000 -12.760380 
# 
# 
# High freq. dielectric constant tensor:
#      x y z
#    x 1.808150 0.000000 -0.010630 
#    y 0.000000 1.775560 0.000000 
#    z -0.010630 0.000000 1.788820 
# 
# From -- ./inp_files/50568.got.cif
#   From: 2010.06.25/outbox.cif.g09.slc.cpg/sg15_26_cif.got.tgz:50568.got - 2010.06.28 07:06:18.
