data_PCOD8147934
_publ_section_title
;
Structure prediction by ZEFSAII (Michael W. Deem and Ramdas Pophale) SiO2 
 PCOD8147934
Probable space group: C 2/C
;
_chemical_formula_sum "Si O2"
_cell_formula_units_Z 36
_cell_length_a 7.635811
_cell_length_b 16.698332
_cell_length_c 16.379850
_cell_angle_alpha 90.000000
_cell_angle_beta 126.462324
_cell_angle_gamma 90.000000
_cell_volume 1679.685902
_symmetry_space_group_name_H-M "C 2/C"
_symmetry_group_IT_number 15
_symmetry_cell_setting 'monoclinic'
loop_
_space_group_symop_operation_xyz
x,y,z
-x,y,1/2-z
-x,-y,-z
x,-y,1/2+z
1/2+x,1/2+y,z
1/2-x,1/2+y,1/2-z
1/2-x,1/2-y,-z
1/2+x,1/2-y,1/2+z
loop_
_atom_site_type_symbol
_atom_site_label
_atom_site_fract_x
_atom_site_fract_y
_atom_site_fract_z
Si Si1 0.401003 0.523862 0.384679
Si Si2 0.000000 0.357358 0.750000
Si Si3 0.994770 0.723433 0.080249
Si Si4 0.797194 0.368647 0.146662
Si Si5 0.355699 0.075179 0.482856
O O1 0.500000 0.500000 0.500000
O O2 0.303991 0.439931 0.324497
O O3 0.603198 0.557474 0.387572
O O4 0.208887 0.589447 0.332981
O O5 0.947529 0.298864 0.810748
O O6 0.129284 0.798387 0.084566
O O7 0.051893 0.648970 0.040636
O O8 0.750000 0.750000 0.000000
O O9 0.000000 0.330759 0.250000
O O10 0.876641 0.406720 0.084044
O O11 0.500000 0.000000 0.500000
#
# Coordination Sequence:
#
# PCOD8147934 Si02
#       5
#     8   4   8   8   8
#     4  10  22  46  71 100 138 183 242 299 346 434
#     4  12  26  46  74 104 140 202 238 292 376 430
#     4  12  27  45  69 105 148 187 240 301 361 436
#     4  11  24  43  70 101 142 179 233 298 366 425
#     4  11  24  45  74 102 139 187 236 300 358 425
#
# _framework density 21.432576000000001
#
# number of rings (size 3 to 8) (size 9 to 14) (size 15 to 20)
#    0.000    0.889    1.111    7.333    6.222    0.000 
#    0.000    0.000    0.000    0.000    0.000    0.000 
#    0.000    0.000    0.000    0.000    0.000    0.000 
#
# Total GULP energy -223166.055708 kJ/mol
# GULP energy per Si atom -12398.114206 kJ/mol
# Density = 2.138379 g / cm^3
# Si number density = 21.432576 Si / 1000 Ang^3
#
#
#
# Elastic Constant Matrix: (Units=GPa)
#
#
# Indices 1 2 3 4 5 6 
#
# 1 148.0897 79.9534 57.2434 0.0000 18.1990 0.0000
# 2 79.9534 148.4793 39.3607 0.0000 -2.1803 0.0000
# 3 57.2434 39.3607 109.9316 0.0000 11.8562 0.0000
# 4 0.0000 0.0000 0.0000 38.9263 0.0000 -8.7388
# 5 18.1990 -2.1803 11.8562 0.0000 32.7410 0.0000
# 6 0.0000 0.0000 0.0000 -8.7388 0.0000 8.7035
#
#
#
# Elastic Compliance Matrix: (Units=1/GPa)
#
#
# Indices 1 2 3 4 5 6 
#
# 1 0.011781 -0.005481 -0.003566 0.000000 -0.005622 0.000000
# 2 -0.005481 0.010065 -0.001197 0.000000 0.004151 0.000000
# 3 -0.003566 -0.001197 0.011631 0.000000 -0.002310 0.000000
# 4 0.000000 0.000000 0.000000 0.033165 0.000000 0.033300
# 5 -0.005622 0.004151 -0.002310 0.000000 0.034781 0.000000
# 6 0.000000 0.000000 0.000000 0.033300 0.000000 0.148332
#
#
# Mechanical properties :
#
#
# Convention : Reuss Voigt Hill
#
# Bulk Modulus (GPa) = 76.98969 84.40174 80.69572
# Shear Modulus (GPa) = 18.21010 31.40369 24.80689
#
# Velocity S-wave (km/s) = 2.91803 3.83199 3.40581
# Velocity P-wave (km/s) = 6.88135 7.68404 7.29375
#
# Compressibility (1/GPa) = 0.01298875
#
# Stress axis : x y z
#
# Youngs Moduli (GPa) = 84.88024 99.35591 85.97687
#
# Poissons Ratio (x) = 0.54460 0.30658
# Poissons Ratio (y) = 0.46526 0.10292
# Poissons Ratio (z) = 0.30267 0.11894
#
# Static dielectric constant tensor:
#      x y z
#    x 4.536220 0.000000 0.354160 
#    y 0.000000 4.185010 0.000000 
#    z 0.354160 0.000000 3.900850 
# 
# 
# High freq. dielectric constant tensor:
#      x y z
#    x 1.849460 0.000000 0.019890 
#    y 0.000000 1.861760 0.000000 
#    z 0.019890 0.000000 1.838520 
# 
# From -- ./inp_files/132922.got.cif
#   From: 2010.06.25/outbox.cif.g09.slc.cpg/sg15_67_cif.got.tgz:132922.got - 2010.06.28 07:06:18.
