data_PCOD8147062
_publ_section_title
;
Structure prediction by ZEFSAII (Michael W. Deem and Ramdas Pophale) SiO2 
 PCOD8147062
Probable space group: C 2/C
;
_chemical_formula_sum "Si O2"
_cell_formula_units_Z 60
_cell_length_a 20.919455
_cell_length_b 14.369190
_cell_length_c 15.188281
_cell_angle_alpha 90.000000
_cell_angle_beta 37.635119
_cell_angle_gamma 90.000000
_cell_volume 2787.853162
_symmetry_space_group_name_H-M "C 2/C"
_symmetry_group_IT_number 15
_symmetry_cell_setting 'monoclinic'
loop_
_space_group_symop_operation_xyz
x,y,z
-x,y,1/2-z
-x,-y,-z
x,-y,1/2+z
1/2+x,1/2+y,z
1/2-x,1/2+y,1/2-z
1/2-x,1/2-y,-z
1/2+x,1/2-y,1/2+z
loop_
_atom_site_type_symbol
_atom_site_label
_atom_site_fract_x
_atom_site_fract_y
_atom_site_fract_z
Si Si1 0.597308 0.701767 0.703606
Si Si2 0.500000 0.566142 0.250000
Si Si3 0.439682 0.534385 0.650307
Si Si4 0.835560 0.428949 0.249784
Si Si5 0.542057 0.137923 0.609611
Si Si6 0.205039 0.392692 0.581401
Si Si7 0.298748 0.015391 0.595060
Si Si8 0.174070 0.803939 0.516739
O O1 0.500000 0.726725 0.750000
O O2 0.567718 0.646620 0.826405
O O3 0.672718 0.633937 0.563222
O O4 0.647555 0.799677 0.677657
O O5 0.490863 0.502495 0.345234
O O6 0.393014 0.623523 0.353518
O O7 0.500000 0.500000 0.500000
O O8 0.323659 0.492417 0.772361
O O9 0.815855 0.525092 0.325151
O O10 0.834626 0.438634 0.146498
O O11 0.743871 0.356523 0.369653
O O12 0.947463 0.380967 0.146036
O O13 0.500000 0.106690 0.750000
O O14 0.585117 0.243269 0.563961
O O15 0.644939 0.082498 0.472330
O O16 0.164927 0.421491 0.527527
O O17 0.250000 0.750000 0.500000
#
# Coordination Sequence:
#
# PCOD8147062 Si02
#       8
#     8   4   8   8   8   8   8   8
#     4  10  22  42  69  99 140 184 236 292 348 417
#     4  12  22  40  68  96 142 184 226 288 360 416
#     4  11  24  43  70 104 142 187 238 292 362 428
#     4  12  25  45  74  99 143 191 232 302 369 426
#     4  12  23  45  71  99 139 186 239 291 361 426
#     4  10  23  45  69  99 141 189 234 285 354 433
#     4  11  25  45  69 104 139 186 241 289 357 435
#     4  12  22  42  69 103 136 185 233 296 360 432
#
# _framework density 21.521937000000001
#
# number of rings (size 3 to 8) (size 9 to 14) (size 15 to 20)
#    0.000    0.800    4.000    3.600    3.733    0.000 
#    9.600    1.333    0.000    0.000    0.000    0.000 
#    0.000    0.000    0.000    0.000    0.000    0.000 
#
# Total GULP energy -371899.836785 kJ/mol
# GULP energy per Si atom -12396.661226 kJ/mol
# Density = 2.147295 g / cm^3
# Si number density = 21.521937 Si / 1000 Ang^3
#
#
#
# Elastic Constant Matrix: (Units=GPa)
#
#
# Indices 1 2 3 4 5 6 
#
# 1 118.7591 38.9060 41.5755 0.0000 6.6362 0.0000
# 2 38.9060 106.7569 54.3745 0.0000 5.9786 0.0000
# 3 41.5755 54.3745 99.3029 0.0000 4.7057 0.0000
# 4 0.0000 0.0000 0.0000 180.7158 0.0000 28.6445
# 5 6.6362 5.9786 4.7057 0.0000 45.0510 0.0000
# 6 0.0000 0.0000 0.0000 28.6445 0.0000 35.4794
#
#
#
# Elastic Compliance Matrix: (Units=1/GPa)
#
#
# Indices 1 2 3 4 5 6 
#
# 1 0.010244 -0.002108 -0.003092 0.000000 -0.000906 0.000000
# 2 -0.002108 0.013467 -0.006454 0.000000 -0.000803 0.000000
# 3 -0.003092 -0.006454 0.014910 0.000000 -0.000246 0.000000
# 4 0.000000 0.000000 0.000000 0.006346 0.000000 -0.005123
# 5 -0.000906 -0.000803 -0.000246 0.000000 0.022463 0.000000
# 6 0.000000 0.000000 0.000000 -0.005123 0.000000 0.032322
#
#
# Mechanical properties :
#
#
# Convention : Reuss Voigt Hill
#
# Bulk Modulus (GPa) = 65.29618 66.05898 65.67758
# Shear Modulus (GPa) = 39.01300 64.91343 51.96321
#
# Velocity S-wave (km/s) = 4.26221 5.49791 4.91902
# Velocity P-wave (km/s) = 7.39102 8.42989 7.92749
#
# Compressibility (1/GPa) = 0.01531483
#
# Stress axis : x y z
#
# Youngs Moduli (GPa) = 97.61865 74.25456 67.06884
#
# Poissons Ratio (x) = 0.15651 0.20736
# Poissons Ratio (y) = 0.20576 0.43284
# Poissons Ratio (z) = 0.30182 0.47921
#
# Static dielectric constant tensor:
#      x y z
#    x 3.787570 0.000000 -0.243430 
#    y 0.000000 3.909480 0.000000 
#    z -0.243430 0.000000 3.941040 
# 
# 
# High freq. dielectric constant tensor:
#      x y z
#    x 1.845550 0.000000 -0.019760 
#    y 0.000000 1.851890 0.000000 
#    z -0.019760 0.000000 1.846850 
# 
# From -- ./inp_files/168617.got.cif
#   From: 2010.06.25/outbox.cif.g09.slc.cpg/sg15_85_cif.got.tgz:168617.got - 2010.06.28 07:06:18.
