data_PCOD8147928
_publ_section_title
;
Structure prediction by ZEFSAII (Michael W. Deem and Ramdas Pophale) SiO2 
 PCOD8147928
Probable space group: C 2/C
;
_chemical_formula_sum "Si O2"
_cell_formula_units_Z 52
_cell_length_a 18.607282
_cell_length_b 14.477960
_cell_length_c 20.482423
_cell_angle_alpha 90.000000
_cell_angle_beta 154.321485
_cell_angle_gamma 90.000000
_cell_volume 2391.010838
_symmetry_space_group_name_H-M "C 2/C"
_symmetry_group_IT_number 15
_symmetry_cell_setting 'monoclinic'
loop_
_space_group_symop_operation_xyz
x,y,z
-x,y,1/2-z
-x,-y,-z
x,-y,1/2+z
1/2+x,1/2+y,z
1/2-x,1/2+y,1/2-z
1/2-x,1/2-y,-z
1/2+x,1/2-y,1/2+z
loop_
_atom_site_type_symbol
_atom_site_label
_atom_site_fract_x
_atom_site_fract_y
_atom_site_fract_z
Si Si1 0.833312 0.308340 0.817594
Si Si2 0.815071 0.025697 0.612254
Si Si3 0.901467 0.145545 0.261673
Si Si4 0.198247 0.994409 0.664037
Si Si5 0.202328 0.632957 0.643476
Si Si6 0.500000 0.793718 0.250000
Si Si7 0.234986 0.940887 0.057038
O O1 0.723508 0.303006 0.792600
O O2 0.756404 0.389117 0.711446
O O3 0.826194 0.213237 0.770265
O O4 0.018630 0.326355 0.993950
O O5 0.804765 0.920398 0.631386
O O6 0.731215 0.019508 0.471152
O O7 0.000000 0.059630 0.750000
O O8 0.734527 0.099797 0.595437
O O9 0.007602 0.227806 0.318432
O O10 0.038277 0.078689 0.406384
O O11 0.274726 0.045420 0.789886
O O12 0.291292 0.030248 0.675311
O O13 0.000000 0.000000 0.500000
O O14 0.666585 0.851976 0.385578
#
# Coordination Sequence:
#
# PCOD8147928 Si02
#       7
#     8   8   8   8   8   4   8
#     4  12  27  44  74 106 139 187 250 294 358 424
#     4  10  22  46  70  94 139 188 228 288 361 420
#     4  11  22  41  65  99 143 184 226 290 354 430
#     4  12  23  47  73 104 146 190 237 301 354 428
#     4  12  27  47  73 106 144 188 242 299 354 431
#     4  12  24  36  66 102 146 176 234 282 366 432
#     4  11  24  40  65 103 143 185 234 291 360 426
#
# _framework density 21.748124000000001
#
# number of rings (size 3 to 8) (size 9 to 14) (size 15 to 20)
#    0.000    0.615    5.385    3.692    4.308    0.000 
#    0.000    3.077    0.000    0.000    0.000    0.000 
#    0.000    0.000    0.000    0.000    0.000    0.000 
#
# Total GULP energy -322261.731882 kJ/mol
# GULP energy per Si atom -12394.681995 kJ/mol
# Density = 2.169862 g / cm^3
# Si number density = 21.748124 Si / 1000 Ang^3
#
#
#
# Elastic Constant Matrix: (Units=GPa)
#
#
# Indices 1 2 3 4 5 6 
#
# 1 154.9491 45.7850 30.9454 0.0042 -5.4928 0.0045
# 2 45.7850 87.0302 14.8127 0.0035 1.7784 0.0123
# 3 30.9454 14.8127 70.3394 -0.0164 -2.5586 -0.0166
# 4 0.0042 0.0035 -0.0164 35.9766 -0.0153 -0.3164
# 5 -5.4928 1.7784 -2.5586 -0.0153 25.5933 -0.0213
# 6 0.0045 0.0123 -0.0166 -0.3164 -0.0213 22.4701
#
#
#
# Elastic Compliance Matrix: (Units=1/GPa)
#
#
# Indices 1 2 3 4 5 6 
#
# 1 0.008211 -0.003891 -0.002729 -0.000001 0.001760 0.000000
# 2 -0.003891 0.013791 -0.001262 -0.000002 -0.001920 -0.000010
# 3 -0.002729 -0.001262 0.015722 0.000008 0.001074 0.000014
# 4 -0.000001 -0.000002 0.000008 0.027799 0.000018 0.000391
# 5 0.001760 -0.001920 0.001074 0.000018 0.039691 0.000039
# 6 0.000000 -0.000010 0.000014 0.000391 0.000039 0.044509
#
#
# Mechanical properties :
#
#
# Convention : Reuss Voigt Hill
#
# Bulk Modulus (GPa) = 45.53742 55.04498 50.29120
# Shear Modulus (GPa) = 28.93378 31.52640 30.23009
#
# Velocity S-wave (km/s) = 3.65143 3.81151 3.73233
# Velocity P-wave (km/s) = 6.22585 6.68845 6.46129
#
# Compressibility (1/GPa) = 0.02195996
#
# Stress axis : x y z
#
# Youngs Moduli (GPa) = 121.78990 72.50913 63.60419
#
# Poissons Ratio (x) = 0.28214 0.17357
# Poissons Ratio (y) = 0.47389 0.08029
# Poissons Ratio (z) = 0.33235 0.09153
#
# Static dielectric constant tensor:
#      x y z
#    x 3.920240 0.000050 -0.365780 
#    y 0.000050 3.891880 0.000020 
#    z -0.365780 0.000020 3.559280 
# 
# 
# High freq. dielectric constant tensor:
#      x y z
#    x 1.867300 0.000000 -0.002940 
#    y 0.000000 1.842150 0.000000 
#    z -0.002940 0.000000 1.850130 
# 
# From -- ./inp_files/249123.got.cif
#   From: 2010.06.25/outbox.cif.g09.slc.cpg/sg15_125_cif.got.tgz:249123.got - 2010.06.28 07:06:18.
