data_PCOD8147217
_publ_section_title
;
Structure prediction by ZEFSAII (Michael W. Deem and Ramdas Pophale) SiO2 
 PCOD8147217
Probable space group: C 2/C
;
_chemical_formula_sum "Si O2"
_cell_formula_units_Z 48
_cell_length_a 16.714680
_cell_length_b 9.758292
_cell_length_c 14.313049
_cell_angle_alpha 90.000000
_cell_angle_beta 86.286036
_cell_angle_gamma 90.000000
_cell_volume 2329.651703
_symmetry_space_group_name_H-M "C 2/C"
_symmetry_group_IT_number 15
_symmetry_cell_setting 'monoclinic'
loop_
_space_group_symop_operation_xyz
x,y,z
-x,y,1/2-z
-x,-y,-z
x,-y,1/2+z
1/2+x,1/2+y,z
1/2-x,1/2+y,1/2-z
1/2-x,1/2-y,-z
1/2+x,1/2-y,1/2+z
loop_
_atom_site_type_symbol
_atom_site_label
_atom_site_fract_x
_atom_site_fract_y
_atom_site_fract_z
Si Si1 0.258992 0.751394 0.152198
Si Si2 0.985796 0.286014 0.527240
Si Si3 0.682762 0.659137 0.956809
Si Si4 0.287737 0.034418 0.797053
Si Si5 0.462256 0.964478 0.354390
Si Si6 0.140379 0.130096 0.522275
O O1 0.301063 0.878060 0.202321
O O2 0.236086 0.623918 0.222128
O O3 0.176954 0.803595 0.112414
O O4 0.321864 0.703538 0.070340
O O5 0.895552 0.246837 0.558920
O O6 0.991369 0.345926 0.422135
O O7 0.011609 0.391413 0.605172
O O8 0.044933 0.155513 0.528195
O O9 0.714196 0.604378 0.856120
O O10 0.750000 0.750000 0.000000
O O11 0.658854 0.531354 0.024470
O O12 0.366181 0.039716 0.855674
O O13 0.500000 0.940631 0.250000
#
# Coordination Sequence:
#
# PCOD8147217 Si02
#       6
#     8   8   8   8   8   8
#     4  10  23  39  68  92 134 172 220 271 333 393
#     4  11  23  42  66  96 131 175 222 279 333 397
#     4  11  24  40  65  94 130 172 220 274 332 397
#     4  11  23  42  61 101 127 174 221 269 334 393
#     4  11  24  39  66  94 134 172 224 274 337 400
#     4  10  22  43  64  93 132 175 218 275 335 396
#
# _framework density 20.603937999999999
#
# number of rings (size 3 to 8) (size 9 to 14) (size 15 to 20)
#    0.000    1.333    3.333    1.500    4.667    0.000 
#    0.000    0.000    0.000    2.000    0.000    0.000 
#    0.000    0.000    0.000    0.000    0.000    0.000 
#
# Total GULP energy -297663.524038 kJ/mol
# GULP energy per Si atom -12402.646835 kJ/mol
# Density = 2.055704 g / cm^3
# Si number density = 20.603938 Si / 1000 Ang^3
#
#
#
# Elastic Constant Matrix: (Units=GPa)
#
#
# Indices 1 2 3 4 5 6 
#
# 1 151.8607 57.2266 31.7298 0.0000 15.0551 0.0000
# 2 57.2266 134.5187 47.1694 0.0000 15.4094 0.0000
# 3 31.7298 47.1694 86.0985 0.0000 8.4520 0.0000
# 4 0.0000 0.0000 0.0000 27.3902 0.0000 7.8934
# 5 15.0551 15.4094 8.4520 0.0000 27.1596 0.0000
# 6 0.0000 0.0000 0.0000 7.8934 0.0000 41.4286
#
#
#
# Elastic Compliance Matrix: (Units=1/GPa)
#
#
# Indices 1 2 3 4 5 6 
#
# 1 0.008128 -0.002725 -0.001250 0.000000 -0.002570 0.000000
# 2 -0.002725 0.010505 -0.004450 0.000000 -0.003065 0.000000
# 3 -0.001250 -0.004450 0.014645 0.000000 -0.001340 0.000000
# 4 0.000000 0.000000 0.000000 0.038631 0.000000 -0.007360
# 5 -0.002570 -0.003065 -0.001340 0.000000 0.040400 0.000000
# 6 0.000000 0.000000 0.000000 -0.007360 0.000000 0.025540
#
#
# Mechanical properties :
#
#
# Convention : Reuss Voigt Hill
#
# Bulk Modulus (GPa) = 60.87471 71.63661 66.25566
# Shear Modulus (GPa) = 31.21612 34.95248 33.08430
#
# Velocity S-wave (km/s) = 3.89659 4.12320 4.01150
# Velocity P-wave (km/s) = 7.06073 7.58364 7.32685
#
# Compressibility (1/GPa) = 0.01642718
#
# Stress axis : x y z
#
# Youngs Moduli (GPa) = 123.03361 95.19664 68.28384
#
# Poissons Ratio (x) = 0.25940 0.08537
# Poissons Ratio (y) = 0.33526 0.30386
# Poissons Ratio (z) = 0.15381 0.42362
#
# Static dielectric constant tensor:
#      x y z
#    x 3.768450 0.000000 0.049610 
#    y 0.000000 3.905640 0.000000 
#    z 0.049610 0.000000 3.508840 
# 
# 
# High freq. dielectric constant tensor:
#      x y z
#    x 1.815180 0.000000 0.004450 
#    y 0.000000 1.815330 0.000000 
#    z 0.004450 0.000000 1.792600 
# 
# From -- ./inp_files/159689.got.cif
#   From: 2010.06.25/outbox.cif.g09.slc.cpg/sg15_80_cif.got.tgz:159689.got - 2010.06.28 07:06:18.
