data_PCOD8147749
_publ_section_title
;
Structure prediction by ZEFSAII (Michael W. Deem and Ramdas Pophale) SiO2 
 PCOD8147749
Probable space group: C 2/C
;
_chemical_formula_sum "Si O2"
_cell_formula_units_Z 32
_cell_length_a 8.851699
_cell_length_b 11.544531
_cell_length_c 14.240855
_cell_angle_alpha 90.000000
_cell_angle_beta 69.844398
_cell_angle_gamma 90.000000
_cell_volume 1366.135307
_symmetry_space_group_name_H-M "C 2/C"
_symmetry_group_IT_number 15
_symmetry_cell_setting 'monoclinic'
loop_
_space_group_symop_operation_xyz
x,y,z
-x,y,1/2-z
-x,-y,-z
x,-y,1/2+z
1/2+x,1/2+y,z
1/2-x,1/2+y,1/2-z
1/2-x,1/2-y,-z
1/2+x,1/2-y,1/2+z
loop_
_atom_site_type_symbol
_atom_site_label
_atom_site_fract_x
_atom_site_fract_y
_atom_site_fract_z
Si Si1 0.707779 0.819780 0.416637
Si Si2 0.838353 0.851816 0.740621
Si Si3 0.991395 0.057285 0.602527
Si Si4 0.629867 0.208004 0.446031
O O1 0.750000 0.750000 0.500000
O O2 0.730471 0.736753 0.321903
O O3 0.520223 0.856057 0.470711
O O4 0.830843 0.929057 0.387022
O O5 0.713343 0.876064 0.852269
O O6 0.000000 0.795754 0.750000
O O7 0.877497 0.977807 0.690216
O O8 0.916353 0.183018 0.608428
O O9 0.000000 0.000000 0.500000
O O10 0.750000 0.250000 0.500000
#
# Coordination Sequence:
#
# PCOD8147749 Si02
#       4
#     8   8   8   8
#     4  10  22  44  73 102 152 188 244 321 376 451
#     4  12  24  44  75 110 149 196 252 317 375 450
#     4  11  23  46  76 106 148 201 249 310 390 450
#     4  11  23  46  74 105 158 192 251 322 375 456
#
# _framework density 23.423739999999999
#
# number of rings (size 3 to 8) (size 9 to 14) (size 15 to 20)
#    0.000    1.000    7.500    0.000    3.500    3.000 
#    0.000    7.500    0.000    0.000    0.000    0.000 
#    0.000    0.000    0.000    0.000    0.000    0.000 
#
# Total GULP energy -198298.788536 kJ/mol
# GULP energy per Si atom -12393.674284 kJ/mol
# Density = 2.337043 g / cm^3
# Si number density = 23.423740 Si / 1000 Ang^3
#
#
#
# Elastic Constant Matrix: (Units=GPa)
#
#
# Indices 1 2 3 4 5 6 
#
# 1 140.7093 37.1921 40.4405 0.0000 -5.3840 0.0000
# 2 37.1921 91.2412 41.0296 0.0000 -9.0138 0.0000
# 3 40.4405 41.0296 133.0201 0.0000 -14.6130 0.0000
# 4 0.0000 0.0000 0.0000 43.8235 0.0000 0.5262
# 5 -5.3840 -9.0138 -14.6130 0.0000 52.0511 0.0000
# 6 0.0000 0.0000 0.0000 0.5262 0.0000 49.1077
#
#
#
# Elastic Compliance Matrix: (Units=1/GPa)
#
#
# Indices 1 2 3 4 5 6 
#
# 1 0.008289 -0.002612 -0.001723 0.000000 -0.000079 0.000000
# 2 -0.002612 0.013613 -0.003277 0.000000 0.001167 0.000000
# 3 -0.001723 -0.003277 0.009256 0.000000 0.001853 0.000000
# 4 0.000000 0.000000 0.000000 0.022822 0.000000 -0.000245
# 5 -0.000079 0.001167 0.001853 0.000000 0.019926 0.000000
# 6 0.000000 0.000000 0.000000 -0.000245 0.000000 0.020366
#
#
# Mechanical properties :
#
#
# Convention : Reuss Voigt Hill
#
# Bulk Modulus (GPa) = 62.75431 66.92165 64.83798
# Shear Modulus (GPa) = 43.55109 45.41703 44.48406
#
# Velocity S-wave (km/s) = 4.31660 4.40811 4.36260
# Velocity P-wave (km/s) = 7.18980 7.38516 7.28813
#
# Compressibility (1/GPa) = 0.01593516
#
# Stress axis : x y z
#
# Youngs Moduli (GPa) = 120.63525 73.45688 108.04072
#
# Poissons Ratio (x) = 0.19186 0.18617
# Poissons Ratio (y) = 0.31508 0.35402
# Poissons Ratio (z) = 0.20787 0.24070
#
# Static dielectric constant tensor:
#      x y z
#    x 5.213880 0.000000 -0.132450 
#    y 0.000000 4.138710 0.000000 
#    z -0.132450 0.000000 4.418810 
# 
# 
# High freq. dielectric constant tensor:
#      x y z
#    x 1.935680 0.000000 0.006900 
#    y 0.000000 1.905090 0.000000 
#    z 0.006900 0.000000 1.949980 
# 
# From -- ./inp_files/131929.got.cif
#   From: 2010.06.25/outbox.cif.g09.slc.cpg/sg15_66_cif.got.tgz:131929.got - 2010.06.28 07:06:18.
