data_PCOD8147559
_publ_section_title
;
Structure prediction by ZEFSAII (Michael W. Deem and Ramdas Pophale) SiO2 
 PCOD8147559
Probable space group: C 2/C
;
_chemical_formula_sum "Si O2"
_cell_formula_units_Z 52
_cell_length_a 23.252089
_cell_length_b 6.629515
_cell_length_c 16.688739
_cell_angle_alpha 90.000000
_cell_angle_beta 65.830538
_cell_angle_gamma 90.000000
_cell_volume 2347.054883
_symmetry_space_group_name_H-M "C 2/C"
_symmetry_group_IT_number 15
_symmetry_cell_setting 'monoclinic'
loop_
_space_group_symop_operation_xyz
x,y,z
-x,y,1/2-z
-x,-y,-z
x,-y,1/2+z
1/2+x,1/2+y,z
1/2-x,1/2+y,1/2-z
1/2-x,1/2-y,-z
1/2+x,1/2-y,1/2+z
loop_
_atom_site_type_symbol
_atom_site_label
_atom_site_fract_x
_atom_site_fract_y
_atom_site_fract_z
Si Si1 0.766914 0.874176 0.353357
Si Si2 0.899021 0.178902 0.853898
Si Si3 0.848982 0.130954 0.050831
Si Si4 0.000000 0.882910 0.750000
Si Si5 0.590157 0.006612 0.914969
Si Si6 0.468746 0.956453 0.388551
Si Si7 0.207546 0.256552 0.833570
O O1 0.833112 0.791999 0.346635
O O2 0.710673 0.774071 0.436571
O O3 0.757088 0.811834 0.266353
O O4 0.757663 0.118774 0.360744
O O5 0.936373 0.390974 0.843251
O O6 0.939194 0.026694 0.775945
O O7 0.886143 0.080944 0.948128
O O8 0.896897 0.251857 0.082780
O O9 0.822447 0.928776 0.102993
O O10 0.989203 0.749232 0.834576
O O11 0.532417 0.950772 0.890016
O O12 0.650963 0.905429 0.841322
O O13 0.578620 0.913717 0.010710
#
# Coordination Sequence:
#
# PCOD8147559 Si02
#       7
#     8   8   8   4   8   8   8
#     4  11  24  40  64  95 125 169 219 267 331 383
#     4  11  26  42  64  94 133 172 212 272 331 391
#     4  10  22  44  66  94 127 167 217 269 331 391
#     4  12  26  38  62  98 130 168 216 260 332 390
#     4   9  22  41  69  88 125 171 214 263 323 386
#     4  10  23  44  61  95 128 170 216 262 320 393
#     4  11  22  38  64  94 123 163 217 268 318 390
#
# _framework density 22.155425999999999
#
# number of rings (size 3 to 8) (size 9 to 14) (size 15 to 20)
#    0.000    1.538    1.538    1.846    6.462    1.846 
#    0.000    4.615    0.000    0.000    0.000    0.000 
#    0.000    0.000    0.000    0.000    0.000    0.000 
#
# Total GULP energy -322331.441268 kJ/mol
# GULP energy per Si atom -12397.363126 kJ/mol
# Density = 2.210500 g / cm^3
# Si number density = 22.155426 Si / 1000 Ang^3
#
#
#
# Elastic Constant Matrix: (Units=GPa)
#
#
# Indices 1 2 3 4 5 6 
#
# 1 122.7357 38.8547 15.6187 0.0016 -7.5484 0.0043
# 2 38.8547 101.4711 34.6404 0.0064 -1.7410 0.0152
# 3 15.6187 34.6404 61.0544 0.0003 -18.3891 0.0047
# 4 0.0016 0.0064 0.0003 45.3860 0.0013 -12.0743
# 5 -7.5484 -1.7410 -18.3891 0.0013 28.8955 0.0040
# 6 0.0043 0.0152 0.0047 -12.0743 0.0040 28.3713
#
#
#
# Elastic Compliance Matrix: (Units=1/GPa)
#
#
# Indices 1 2 3 4 5 6 
#
# 1 0.009423 -0.003723 0.000465 0.000000 0.002533 0.000000
# 2 -0.003723 0.014197 -0.008830 -0.000003 -0.005737 -0.000006
# 3 0.000465 -0.008830 0.026161 0.000000 0.016238 -0.000002
# 4 0.000000 -0.000003 0.000000 0.024846 -0.000003 0.010574
# 5 0.002533 -0.005737 0.016238 -0.000003 0.045258 -0.000008
# 6 0.000000 -0.000006 -0.000002 0.010574 -0.000008 0.039747
#
#
# Mechanical properties :
#
#
# Convention : Reuss Voigt Hill
#
# Bulk Modulus (GPa) = 39.05775 51.49875 45.27825
# Shear Modulus (GPa) = 25.99520 33.60705 29.80112
#
# Velocity S-wave (km/s) = 3.42908 3.89894 3.67153
# Velocity P-wave (km/s) = 5.77454 6.60028 6.20117
#
# Compressibility (1/GPa) = 0.02560311
#
# Stress axis : x y z
#
# Youngs Moduli (GPa) = 106.12383 70.43813 38.22526
#
# Poissons Ratio (x) = 0.26227 -0.01778
# Poissons Ratio (y) = 0.39515 0.33754
# Poissons Ratio (z) = -0.04935 0.62199
#
# Static dielectric constant tensor:
#      x y z
#    x 3.835250 0.000000 -0.300390 
#    y 0.000000 4.025080 -0.000020 
#    z -0.300390 -0.000020 4.158150 
# 
# 
# High freq. dielectric constant tensor:
#      x y z
#    x 1.858970 0.000000 -0.027090 
#    y 0.000000 1.867880 0.000000 
#    z -0.027090 0.000000 1.883520 
# 
# From -- ./inp_files/221166.got.cif
#   From: 2010.06.25/outbox.cif.g09.slc.cpg/sg15_111_cif.got.tgz:221166.got - 2010.06.28 07:06:18.
