data_PCOD8147462
_publ_section_title
;
Structure prediction by ZEFSAII (Michael W. Deem and Ramdas Pophale) SiO2 
 PCOD8147462
Probable space group: C 2/C
;
_chemical_formula_sum "Si O2"
_cell_formula_units_Z 56
_cell_length_a 27.780113
_cell_length_b 8.131916
_cell_length_c 11.451868
_cell_angle_alpha 90.000000
_cell_angle_beta 74.825413
_cell_angle_gamma 90.000000
_cell_volume 2496.837346
_symmetry_space_group_name_H-M "C 2/C"
_symmetry_group_IT_number 15
_symmetry_cell_setting 'monoclinic'
loop_
_space_group_symop_operation_xyz
x,y,z
-x,y,1/2-z
-x,-y,-z
x,-y,1/2+z
1/2+x,1/2+y,z
1/2-x,1/2+y,1/2-z
1/2-x,1/2-y,-z
1/2+x,1/2-y,1/2+z
loop_
_atom_site_type_symbol
_atom_site_label
_atom_site_fract_x
_atom_site_fract_y
_atom_site_fract_z
Si Si1 0.099777 0.236890 0.386756
Si Si2 0.677329 0.237964 0.255069
Si Si3 0.498291 0.375523 0.888684
Si Si4 0.607410 0.373030 0.477517
Si Si5 0.670315 0.736260 0.127863
Si Si6 0.249707 0.512320 0.332339
Si Si7 0.836234 0.591993 0.474490
O O1 0.042735 0.259726 0.376469
O O2 0.140878 0.271510 0.263885
O O3 0.115005 0.363989 0.479062
O O4 0.101611 0.048131 0.422026
O O5 0.629743 0.243060 0.370212
O O6 0.705758 0.410979 0.255307
O O7 0.712322 0.081676 0.258556
O O8 0.658446 0.215903 0.136212
O O9 0.500000 0.445052 0.750000
O O10 0.500000 0.500000 0.000000
O O11 0.444011 0.294042 0.940471
O O12 0.643536 0.401213 0.565493
O O13 0.726360 0.669949 0.115754
O O14 0.667124 0.900151 0.053074
O O15 0.217611 0.381549 0.429055
#
# Coordination Sequence:
#
# PCOD8147462 Si02
#       7
#     8   8   8   8   8   8   8
#     4  11  24  45  72  99 134 178 236 287 355 415
#     4  12  25  42  65  97 138 178 237 281 355 411
#     4  10  22  43  76 107 137 178 235 300 357 421
#     4  11  24  43  70 100 132 176 228 291 345 417
#     4  12  24  43  68  97 142 176 233 281 352 416
#     4  12  25  41  66  98 136 188 231 285 348 423
#     4  12  26  42  65  98 142 185 230 289 341 429
#
# _framework density 22.428372
#
# number of rings (size 3 to 8) (size 9 to 14) (size 15 to 20)
#    0.000    0.571    4.286    4.286    2.000    1.143 
#    0.000    0.714    3.143    0.000    0.000    0.000 
#    0.000    0.000    0.000    0.000    0.000    0.000 
#
# Total GULP energy -346923.596401 kJ/mol
# GULP energy per Si atom -12390.128443 kJ/mol
# Density = 2.237732 g / cm^3
# Si number density = 22.428372 Si / 1000 Ang^3
#
#
#
# Elastic Constant Matrix: (Units=GPa)
#
#
# Indices 1 2 3 4 5 6 
#
# 1 120.6765 20.0529 57.0293 0.0000 -1.3206 0.0000
# 2 20.0529 45.2719 18.9488 0.0000 0.8757 0.0000
# 3 57.0293 18.9488 134.1682 0.0000 6.1257 0.0000
# 4 0.0000 0.0000 0.0000 28.5247 0.0000 13.1769
# 5 -1.3206 0.8757 6.1257 0.0000 36.1549 0.0000
# 6 0.0000 0.0000 0.0000 13.1769 0.0000 28.3890
#
#
#
# Elastic Compliance Matrix: (Units=1/GPa)
#
#
# Indices 1 2 3 4 5 6 
#
# 1 0.010796 -0.003041 -0.004213 0.000000 0.001182 0.000000
# 2 -0.003041 0.024333 -0.002128 0.000000 -0.000340 0.000000
# 3 -0.004213 -0.002128 0.009624 0.000000 -0.001733 0.000000
# 4 0.000000 0.000000 0.000000 0.044626 0.000000 -0.020713
# 5 0.001182 -0.000340 -0.001733 0.000000 0.028004 0.000000
# 6 0.000000 0.000000 0.000000 -0.020713 0.000000 0.044839
#
#
# Mechanical properties :
#
#
# Convention : Reuss Voigt Hill
#
# Bulk Modulus (GPa) = 38.48058 54.68652 46.58355
# Shear Modulus (GPa) = 26.36427 32.21943 29.29185
#
# Velocity S-wave (km/s) = 3.43226 3.79429 3.61781
# Velocity P-wave (km/s) = 5.73599 6.60539 6.18598
#
# Compressibility (1/GPa) = 0.02598713
#
# Stress axis : x y z
#
# Youngs Moduli (GPa) = 92.62602 41.09593 103.90709
#
# Poissons Ratio (x) = 0.12499 0.43780
# Poissons Ratio (y) = 0.28171 0.22115
# Poissons Ratio (z) = 0.39027 0.08747
#
# Static dielectric constant tensor:
#      x y z
#    x 4.802750 0.000000 -0.108930 
#    y 0.000000 3.660880 0.000000 
#    z -0.108930 0.000000 4.444770 
# 
# 
# High freq. dielectric constant tensor:
#      x y z
#    x 1.893050 0.000000 0.006190 
#    y 0.000000 1.853010 0.000000 
#    z 0.006190 0.000000 1.901660 
# 
# From -- ./inp_files/121904.got.cif
#   From: 2010.06.25/outbox.cif.g09.slc.cpg/sg15_61_cif.got.tgz:121904.got - 2010.06.28 07:06:18.
