data_PCOD8147479
_publ_section_title
;
Structure prediction by ZEFSAII (Michael W. Deem and Ramdas Pophale) SiO2 
 PCOD8147479
Probable space group: C 2/C
;
_chemical_formula_sum "Si O2"
_cell_formula_units_Z 56
_cell_length_a 11.278360
_cell_length_b 8.477084
_cell_length_c 29.744876
_cell_angle_alpha 90.000000
_cell_angle_beta 66.309760
_cell_angle_gamma 90.000000
_cell_volume 2604.189253
_symmetry_space_group_name_H-M "C 2/C"
_symmetry_group_IT_number 15
_symmetry_cell_setting 'monoclinic'
loop_
_space_group_symop_operation_xyz
x,y,z
-x,y,1/2-z
-x,-y,-z
x,-y,1/2+z
1/2+x,1/2+y,z
1/2-x,1/2+y,1/2-z
1/2-x,1/2-y,-z
1/2+x,1/2-y,1/2+z
loop_
_atom_site_type_symbol
_atom_site_label
_atom_site_fract_x
_atom_site_fract_y
_atom_site_fract_z
Si Si1 0.500000 0.203898 0.250000
Si Si2 0.294201 0.989623 0.910483
Si Si3 0.473205 0.452333 0.178002
Si Si4 0.313185 0.956195 0.309482
Si Si5 0.843787 0.605349 0.995603
Si Si6 0.500000 0.701144 0.250000
Si Si7 0.034665 0.152920 0.966841
Si Si8 0.174226 0.860491 0.075380
O O1 0.478458 0.300384 0.208199
O O2 0.369243 0.102522 0.273082
O O3 0.366749 0.023741 0.852584
O O4 0.381415 0.031989 0.941173
O O5 0.173188 0.108746 0.925305
O O6 0.257242 0.802543 0.918796
O O7 0.342374 0.454134 0.168503
O O8 0.475268 0.604457 0.208779
O O9 0.599209 0.450755 0.126753
O O10 0.370392 0.800214 0.278199
O O11 0.750000 0.750000 0.000000
O O12 0.964419 0.684916 0.003432
O O13 0.779068 0.476129 0.037898
O O14 0.930079 0.190767 0.945543
O O15 0.000000 0.000000 0.000000
#
# Coordination Sequence:
#
# PCOD8147479 Si02
#       8
#     4   8   8   8   8   4   8   8
#     4  10  22  44  62  92 122 156 206 264 312 358
#     4  11  23  41  63  94 126 164 209 255 310 373
#     4  11  23  40  67  89 123 163 206 253 319 369
#     4  11  22  42  65  90 123 163 206 257 313 368
#     4  10  23  40  63  92 128 164 207 254 302 376
#     4  10  26  40  64  92 124 158 212 264 306 374
#     4  11  23  42  65  88 128 172 203 254 311 363
#     4  12  23  41  64  94 128 165 207 259 310 372
#
# _framework density 21.503813000000001
#
# number of rings (size 3 to 8) (size 9 to 14) (size 15 to 20)
#    0.000    1.143    5.714    1.286    4.000    0.571 
#    0.000    0.000    0.000    0.000    0.000    0.000 
#    0.000    0.000    0.000    0.000    0.000    0.000 
#
# Total GULP energy -347078.330343 kJ/mol
# GULP energy per Si atom -12395.654655 kJ/mol
# Density = 2.145487 g / cm^3
# Si number density = 21.503813 Si / 1000 Ang^3
#
#
#
# Elastic Constant Matrix: (Units=GPa)
#
#
# Indices 1 2 3 4 5 6 
#
# 1 65.2601 27.2054 26.6964 0.0000 10.6394 0.0000
# 2 27.2054 123.7356 48.0561 0.0000 9.8308 0.0000
# 3 26.6964 48.0561 133.2091 0.0000 21.2963 0.0000
# 4 0.0000 0.0000 0.0000 72.3816 0.0000 -25.8518
# 5 10.6394 9.8308 21.2963 0.0000 25.4014 0.0000
# 6 0.0000 0.0000 0.0000 -25.8518 0.0000 141.8826
#
#
#
# Elastic Compliance Matrix: (Units=1/GPa)
#
#
# Indices 1 2 3 4 5 6 
#
# 1 0.018064 -0.002884 -0.001788 0.000000 -0.004951 0.000000
# 2 -0.002884 0.009878 -0.002965 0.000000 -0.000129 0.000000
# 3 -0.001788 -0.002965 0.009968 0.000000 -0.006460 0.000000
# 4 0.000000 0.000000 0.000000 0.014777 0.000000 0.002693
# 5 -0.004951 -0.000129 -0.006460 0.000000 0.046908 0.000000
# 6 0.000000 0.000000 0.000000 0.002693 0.000000 0.007539
#
#
# Mechanical properties :
#
#
# Convention : Reuss Voigt Hill
#
# Bulk Modulus (GPa) = 44.17830 58.45787 51.31809
# Shear Modulus (GPa) = 38.47556 62.61626 50.54591
#
# Velocity S-wave (km/s) = 4.23453 5.40203 4.85351
# Velocity P-wave (km/s) = 6.67064 8.13346 7.43809
#
# Compressibility (1/GPa) = 0.02263555
#
# Stress axis : x y z
#
# Youngs Moduli (GPa) = 55.35803 101.23995 100.32295
#
# Poissons Ratio (x) = 0.29196 0.17942
# Poissons Ratio (y) = 0.15964 0.29744
# Poissons Ratio (z) = 0.09900 0.30015
#
# Static dielectric constant tensor:
#      x y z
#    x 3.352150 0.000000 0.178310 
#    y 0.000000 4.105310 0.000000 
#    z 0.178310 0.000000 4.057960 
# 
# 
# High freq. dielectric constant tensor:
#      x y z
#    x 1.822980 0.000000 0.009280 
#    y 0.000000 1.861420 0.000000 
#    z 0.009280 0.000000 1.856410 
# 
# From -- ./inp_files/291563.got.cif
#   From: 2010.06.25/outbox.cif.g09.slc.cpg/sg15_146_cif.got.tgz:291563.got - 2010.06.28 07:06:18.
