data_PCOD8147882
_publ_section_title
;
Structure prediction by ZEFSAII (Michael W. Deem and Ramdas Pophale) SiO2 
 PCOD8147882
Probable space group: C 2/C
;
_chemical_formula_sum "Si O2"
_cell_formula_units_Z 48
_cell_length_a 11.115892
_cell_length_b 8.882063
_cell_length_c 25.350824
_cell_angle_alpha 90.000000
_cell_angle_beta 110.640994
_cell_angle_gamma 90.000000
_cell_volume 2342.269146
_symmetry_space_group_name_H-M "C 2/C"
_symmetry_group_IT_number 15
_symmetry_cell_setting 'monoclinic'
loop_
_space_group_symop_operation_xyz
x,y,z
-x,y,1/2-z
-x,-y,-z
x,-y,1/2+z
1/2+x,1/2+y,z
1/2-x,1/2+y,1/2-z
1/2-x,1/2-y,-z
1/2+x,1/2-y,1/2+z
loop_
_atom_site_type_symbol
_atom_site_label
_atom_site_fract_x
_atom_site_fract_y
_atom_site_fract_z
Si Si1 0.867783 0.296160 0.555240
Si Si2 0.575428 0.211644 0.687177
Si Si3 0.663348 0.283696 0.331119
Si Si4 0.573043 0.342150 0.017354
Si Si5 0.000000 0.464633 0.750000
Si Si6 0.500000 0.532968 0.250000
Si Si7 0.368879 0.857090 0.073278
O O1 0.750000 0.250000 0.500000
O O2 0.842260 0.215253 0.606770
O O3 0.894387 0.472100 0.562141
O O4 0.001427 0.242549 0.552603
O O5 0.688217 0.217141 0.662134
O O6 0.579568 0.364416 0.721633
O O7 0.438257 0.193197 0.637483
O O8 0.592138 0.068414 0.728231
O O9 0.592885 0.135160 0.300004
O O10 0.598666 0.432847 0.298324
O O11 0.717593 0.351045 0.060439
O O12 0.500000 0.500000 0.000000
O O13 0.575152 0.252641 0.962837
#
# Coordination Sequence:
#
# PCOD8147882 Si02
#       7
#     8   8   8   8   4   4   8
#     4  12  24  43  70  98 135 177 219 275 336 396
#     4  11  23  43  69  95 131 171 224 273 330 392
#     4  11  24  43  67  98 134 171 221 273 333 390
#     4  11  25  44  66  97 140 173 221 275 334 403
#     4  10  22  46  62  98 128 174 222 270 332 388
#     4  10  26  42  66 100 130 178 220 272 332 394
#     4  11  25  43  67  99 130 181 221 273 337 398
#
# _framework density 20.492948999999999
#
# number of rings (size 3 to 8) (size 9 to 14) (size 15 to 20)
#    0.000    1.000    3.333    2.500    2.333    1.333 
#   12.000    0.000    0.000    0.000    0.000    0.000 
#    0.000    0.000    0.000    0.000    0.000    0.000 
#
# Total GULP energy -297652.581819 kJ/mol
# GULP energy per Si atom -12402.190909 kJ/mol
# Density = 2.044631 g / cm^3
# Si number density = 20.492949 Si / 1000 Ang^3
#
#
#
# Elastic Constant Matrix: (Units=GPa)
#
#
# Indices 1 2 3 4 5 6 
#
# 1 156.9583 60.5644 66.5340 0.0000 -19.5401 0.0000
# 2 60.5644 150.0642 60.9856 0.0000 -1.1229 0.0000
# 3 66.5340 60.9856 144.2296 0.0000 2.5622 0.0000
# 4 0.0000 0.0000 0.0000 26.9214 0.0000 4.5019
# 5 -19.5401 -1.1229 2.5622 0.0000 29.2015 0.0000
# 6 0.0000 0.0000 0.0000 4.5019 0.0000 -0.3548
#
#
#
# Elastic Compliance Matrix: (Units=1/GPa)
#
#
# Indices 1 2 3 4 5 6 
#
# 1 0.009628 -0.002394 -0.003547 0.000000 0.006662 0.000000
# 2 -0.002394 0.008653 -0.002536 0.000000 -0.001047 0.000000
# 3 -0.003547 -0.002536 0.009701 0.000000 -0.003322 0.000000
# 4 0.000000 0.000000 0.000000 0.011898 0.000000 0.150979
# 5 0.006662 -0.001047 -0.003322 0.000000 0.038954 0.000000
# 6 0.000000 0.000000 0.000000 0.150979 0.000000 -0.902849
#
#
# Mechanical properties :
#
#
# Convention : Reuss Voigt Hill
#
# Bulk Modulus (GPa) = 90.68503 91.93558 91.31031
# Shear Modulus (GPa) = -6.22367 28.69816 11.23725
#
# Velocity S-wave (km/s) = -1.74458 3.74624 2.34422
# Velocity P-wave (km/s) = 6.34742 7.97947 7.20977
#
# Compressibility (1/GPa) = 0.01102718
#
# Stress axis : x y z
#
# Youngs Moduli (GPa) = 103.86297 115.57021 103.08192
#
# Poissons Ratio (x) = 0.27671 0.36568
# Poissons Ratio (y) = 0.24868 0.26138
# Poissons Ratio (z) = 0.36845 0.29304
#
# Static dielectric constant tensor:
#      x y z
#    x 3.693640 0.000000 -0.142310 
#    y 0.000000 4.029430 0.000000 
#    z -0.142310 0.000000 3.475210 
# 
# 
# High freq. dielectric constant tensor:
#      x y z
#    x 1.808620 0.000000 -0.002690 
#    y 0.000000 1.820790 0.000000 
#    z -0.002690 0.000000 1.810730 
# 
# From -- ./inp_files/267763.got.cif
#   From: 2010.06.25/outbox.cif.g09.slc.cpg/sg15_134_cif.got.tgz:267763.got - 2010.06.28 07:06:18.
