data_PCOD8147878
_publ_section_title
;
Structure prediction by ZEFSAII (Michael W. Deem and Ramdas Pophale) SiO2 
 PCOD8147878
Probable space group: C 2/C
;
_chemical_formula_sum "Si O2"
_cell_formula_units_Z 44
_cell_length_a 14.132887
_cell_length_b 25.520067
_cell_length_c 5.551690
_cell_angle_alpha 90.000000
_cell_angle_beta 101.283692
_cell_angle_gamma 90.000000
_cell_volume 1963.635917
_symmetry_space_group_name_H-M "C 2/C"
_symmetry_group_IT_number 15
_symmetry_cell_setting 'monoclinic'
loop_
_space_group_symop_operation_xyz
x,y,z
-x,y,1/2-z
-x,-y,-z
x,-y,1/2+z
1/2+x,1/2+y,z
1/2-x,1/2+y,1/2-z
1/2-x,1/2-y,-z
1/2+x,1/2-y,1/2+z
loop_
_atom_site_type_symbol
_atom_site_label
_atom_site_fract_x
_atom_site_fract_y
_atom_site_fract_z
Si Si1 0.000000 0.753723 0.250000
Si Si2 0.898235 0.809797 0.583893
Si Si3 0.329653 0.777366 0.383101
Si Si4 0.612475 0.469540 0.311277
Si Si5 0.258430 0.384527 0.317462
Si Si6 0.611741 0.029369 0.818848
O O1 0.061814 0.717135 0.456658
O O2 0.920174 0.792319 0.323564
O O3 0.842048 0.759564 0.657905
O O4 0.831033 0.861370 0.557053
O O5 0.000000 0.824754 0.750000
O O6 0.250000 0.750000 0.500000
O O7 0.295898 0.836106 0.327938
O O8 0.500000 0.454381 0.250000
O O9 0.638307 0.499964 0.572629
O O10 0.677429 0.417140 0.343125
O O11 0.176079 0.419615 0.396679
O O12 0.500000 0.045204 0.750000
O O13 0.637028 0.005500 0.567353
#
# Coordination Sequence:
#
# PCOD8147878 Si02
#       6
#     4   8   8   8   8   8
#     4  10  22  46  62  86 146 178 218 282 340 400
#     4  10  24  43  65  96 140 180 223 282 344 417
#     4  11  24  42  66 100 139 180 226 284 336 417
#     4  10  24  45  68 101 141 178 226 290 353 419
#     4  12  24  41  73 103 131 181 240 277 353 416
#     4  10  24  49  71 100 141 184 236 298 355 415
#
# _framework density 22.407412999999998
#
# number of rings (size 3 to 8) (size 9 to 14) (size 15 to 20)
#    0.000    1.455    1.818    1.636    1.273    7.273 
#    4.909    0.000    0.000    0.000    0.000    0.000 
#    0.000    0.000    0.000    0.000    0.000    0.000 
#
# Total GULP energy -272575.782322 kJ/mol
# GULP energy per Si atom -12389.808287 kJ/mol
# Density = 2.235641 g / cm^3
# Si number density = 22.407413 Si / 1000 Ang^3
#
#
#
# Elastic Constant Matrix: (Units=GPa)
#
#
# Indices 1 2 3 4 5 6 
#
# 1 119.2233 98.0480 57.4958 0.0000 3.3669 0.0000
# 2 98.0480 164.0916 59.2024 0.0000 1.9795 0.0000
# 3 57.4958 59.2024 120.2789 0.0000 -6.8818 0.0000
# 4 0.0000 0.0000 0.0000 13.8605 0.0000 7.4663
# 5 3.3669 1.9795 -6.8818 0.0000 46.7979 0.0000
# 6 0.0000 0.0000 0.0000 7.4663 0.0000 54.1232
#
#
#
# Elastic Compliance Matrix: (Units=1/GPa)
#
#
# Indices 1 2 3 4 5 6 
#
# 1 0.018062 -0.009275 -0.004156 0.000000 -0.001518 0.000000
# 2 -0.009275 0.012207 -0.001579 0.000000 -0.000081 0.000000
# 3 -0.004156 -0.001579 0.011193 0.000000 0.002012 0.000000
# 4 0.000000 0.000000 0.000000 0.077939 0.000000 -0.010752
# 5 -0.001518 -0.000081 0.002012 0.000000 0.021777 0.000000
# 6 0.000000 0.000000 0.000000 -0.010752 0.000000 0.019960
#
#
# Mechanical properties :
#
#
# Convention : Reuss Voigt Hill
#
# Bulk Modulus (GPa) = 87.39725 92.56512 89.98119
# Shear Modulus (GPa) = 25.64472 35.54617 30.59545
#
# Velocity S-wave (km/s) = 3.38668 3.98723 3.69916
# Velocity P-wave (km/s) = 7.37436 7.91183 7.64782
#
# Compressibility (1/GPa) = 0.01144201
#
# Stress axis : x y z
#
# Youngs Moduli (GPa) = 55.36443 81.92114 89.34092
#
# Poissons Ratio (x) = 0.75980 0.37128
# Poissons Ratio (y) = 0.51349 0.14111
# Poissons Ratio (z) = 0.23008 0.12939
#
# Static dielectric constant tensor:
#      x y z
#    x 4.423920 0.000000 0.029770 
#    y 0.000000 19.952440 0.000000 
#    z 0.029770 0.000000 4.291710 
# 
# 
# High freq. dielectric constant tensor:
#      x y z
#    x 1.919850 0.000000 0.008580 
#    y 0.000000 1.866330 0.000000 
#    z 0.008580 0.000000 1.879780 
# 
# From -- ./inp_files/7620.got.cif
#   From: 2010.06.25/outbox.cif.g09.slc.cpg/sg15_4_cif.got.tgz:7620.got - 2010.06.28 07:06:18.
