data_PCOD8147902
_publ_section_title
;
Structure prediction by ZEFSAII (Michael W. Deem and Ramdas Pophale) SiO2 
 PCOD8147902
Probable space group: C 2/C
;
_chemical_formula_sum "Si O2"
_cell_formula_units_Z 48
_cell_length_a 22.810426
_cell_length_b 7.489060
_cell_length_c 12.299024
_cell_angle_alpha 90.000000
_cell_angle_beta 87.177501
_cell_angle_gamma 90.000000
_cell_volume 2098.476853
_symmetry_space_group_name_H-M "C 2/C"
_symmetry_group_IT_number 15
_symmetry_cell_setting 'monoclinic'
loop_
_space_group_symop_operation_xyz
x,y,z
-x,y,1/2-z
-x,-y,-z
x,-y,1/2+z
1/2+x,1/2+y,z
1/2-x,1/2+y,1/2-z
1/2-x,1/2-y,-z
1/2+x,1/2-y,1/2+z
loop_
_atom_site_type_symbol
_atom_site_label
_atom_site_fract_x
_atom_site_fract_y
_atom_site_fract_z
Si Si1 0.432594 0.168219 0.245529
Si Si2 0.146771 0.639361 0.829103
Si Si3 0.931200 0.793609 0.478379
Si Si4 0.828881 0.254787 0.400961
Si Si5 0.742639 0.960066 0.473450
Si Si6 0.439938 0.696298 0.518293
O O1 0.500000 0.118811 0.250000
O O2 0.407198 0.236991 0.362226
O O3 0.423708 0.310945 0.148411
O O4 0.400467 0.989247 0.217571
O O5 0.118067 0.750712 0.929268
O O6 0.165610 0.769532 0.729354
O O7 0.202451 0.529498 0.869309
O O8 0.995660 0.710225 0.502024
O O9 0.941517 0.002521 0.466839
O O10 0.787414 0.426322 0.426945
O O11 0.890462 0.303958 0.455473
O O12 0.803855 0.063808 0.445566
O O13 0.750000 0.750000 0.500000
#
# Coordination Sequence:
#
# PCOD8147902 Si02
#       6
#     8   8   8   8   8   8
#     4  10  23  41  68 102 143 185 233 288 349 430
#     4  12  25  43  71 102 138 182 229 294 354 423
#     4  10  24  42  71 102 143 187 225 291 357 424
#     4  11  26  45  72 105 136 184 239 291 351 425
#     4  11  26  51  70  97 139 188 241 293 350 419
#     4  10  22  46  67 103 142 181 239 282 354 425
#
# _framework density 22.873735
#
# number of rings (size 3 to 8) (size 9 to 14) (size 15 to 20)
#    0.000    1.333    1.667    2.000    7.000    1.333 
#    0.000    0.000    0.000    0.000    0.000    0.000 
#    0.000    0.000    0.000    0.000    0.000    0.000 
#
# Total GULP energy -297534.194038 kJ/mol
# GULP energy per Si atom -12397.258085 kJ/mol
# Density = 2.282167 g / cm^3
# Si number density = 22.873735 Si / 1000 Ang^3
#
#
#
# Elastic Constant Matrix: (Units=GPa)
#
#
# Indices 1 2 3 4 5 6 
#
# 1 73.9918 -1.0387 37.8273 0.0000 2.6115 0.0000
# 2 -1.0387 89.9736 18.8023 0.0000 -5.2073 0.0000
# 3 37.8273 18.8023 155.8491 0.0000 -8.1493 0.0000
# 4 0.0000 0.0000 0.0000 33.0327 0.0000 1.1736
# 5 2.6115 -5.2073 -8.1493 0.0000 34.6374 0.0000
# 6 0.0000 0.0000 0.0000 1.1736 0.0000 26.2919
#
#
#
# Elastic Compliance Matrix: (Units=1/GPa)
#
#
# Indices 1 2 3 4 5 6 
#
# 1 0.015649 0.000904 -0.004011 0.000000 -0.001988 0.000000
# 2 0.000904 0.011522 -0.001541 0.000000 0.001301 0.000000
# 3 -0.004011 -0.001541 0.007674 0.000000 0.001876 0.000000
# 4 0.000000 0.000000 0.000000 0.030321 0.000000 -0.001353
# 5 -0.001988 0.001301 0.001876 0.000000 0.029657 0.000000
# 6 0.000000 0.000000 0.000000 -0.001353 0.000000 0.038095
#
#
# Mechanical properties :
#
#
# Convention : Reuss Voigt Hill
#
# Bulk Modulus (GPa) = 39.14288 47.88846 43.51567
# Shear Modulus (GPa) = 33.17156 36.40732 34.78944
#
# Velocity S-wave (km/s) = 3.81228 3.99390 3.90415
# Velocity P-wave (km/s) = 6.04382 6.49998 6.27604
#
# Compressibility (1/GPa) = 0.02554743
#
# Stress axis : x y z
#
# Youngs Moduli (GPa) = 63.90388 86.78861 130.30828
#
# Poissons Ratio (x) = -0.07844 0.52269
# Poissons Ratio (y) = -0.05776 0.20086
# Poissons Ratio (z) = 0.25633 0.13378
#
# Static dielectric constant tensor:
#      x y z
#    x 4.577700 0.000000 0.040420 
#    y 0.000000 3.776610 0.000000 
#    z 0.040420 0.000000 4.458400 
# 
# 
# High freq. dielectric constant tensor:
#      x y z
#    x 1.916530 0.000000 0.005890 
#    y 0.000000 1.889220 0.000000 
#    z 0.005890 0.000000 1.908130 
# 
# From -- ./inp_files/116343.got.cif
#   From: 2010.06.25/outbox.cif.g09.slc.cpg/sg15_59_cif.got.tgz:116343.got - 2010.06.28 07:06:18.
