data_PCOD8147531
_publ_section_title
;
Structure prediction by ZEFSAII (Michael W. Deem and Ramdas Pophale) SiO2 
 PCOD8147531
Probable space group: C 2/C
;
_chemical_formula_sum "Si O2"
_cell_formula_units_Z 64
_cell_length_a 31.388631
_cell_length_b 13.968697
_cell_length_c 9.410844
_cell_angle_alpha 90.000000
_cell_angle_beta 132.274574
_cell_angle_gamma 90.000000
_cell_volume 3053.144055
_symmetry_space_group_name_H-M "C 2/C"
_symmetry_group_IT_number 15
_symmetry_cell_setting 'monoclinic'
loop_
_space_group_symop_operation_xyz
x,y,z
-x,y,1/2-z
-x,-y,-z
x,-y,1/2+z
1/2+x,1/2+y,z
1/2-x,1/2+y,1/2-z
1/2-x,1/2-y,-z
1/2+x,1/2-y,1/2+z
loop_
_atom_site_type_symbol
_atom_site_label
_atom_site_fract_x
_atom_site_fract_y
_atom_site_fract_z
Si Si1 0.555123 0.256049 0.973573
Si Si2 0.764050 0.170201 0.420762
Si Si3 0.596510 0.613704 0.059956
Si Si4 0.858646 0.403419 0.925460
Si Si5 0.980274 0.287925 0.554888
Si Si6 0.802806 0.744635 0.721203
Si Si7 0.884110 0.922243 0.227760
Si Si8 0.623851 0.919969 0.216651
O O1 0.500000 0.277963 0.750000
O O2 0.603136 0.192881 0.000775
O O3 0.533904 0.204048 0.068885
O O4 0.584685 0.353023 0.090961
O O5 0.750000 0.250000 0.500000
O O6 0.707216 0.108411 0.269202
O O7 0.782250 0.236346 0.331980
O O8 0.815547 0.098281 0.580499
O O9 0.652075 0.675253 0.223372
O O10 0.599966 0.525697 0.175720
O O11 0.541139 0.677844 0.976394
O O12 0.593870 0.586137 0.886203
O O13 0.888587 0.481568 0.892195
O O14 0.853888 0.440801 0.075321
O O15 0.933521 0.359807 0.390094
O O16 0.000000 0.328506 0.750000
O O17 0.750000 0.750000 0.500000
O O18 0.830307 0.639392 0.773685
#
# Coordination Sequence:
#
# PCOD8147531 Si02
#       8
#     8   8   8   8   8   8   8   8
#     4  12  26  46  69  98 135 177 232 277 340 396
#     4  11  24  43  70  97 140 178 219 276 331 399
#     4  10  25  41  67 101 134 172 227 269 340 398
#     4  12  27  44  68 106 134 180 228 273 341 402
#     4  11  24  47  70  94 136 181 222 286 334 394
#     4  10  22  44  65  94 134 181 218 267 331 397
#     4  11  25  43  67 104 135 177 221 279 334 408
#     4  11  27  44  68 100 138 174 228 280 335 400
#
# _framework density 20.961998999999999
#
# number of rings (size 3 to 8) (size 9 to 14) (size 15 to 20)
#    0.000    1.000    5.000    0.000    7.000    3.000 
#    0.000    0.000    0.000    0.000    0.000    0.000 
#    0.000    0.000    0.000    0.000    0.000    0.000 
#
# Total GULP energy -396800.232443 kJ/mol
# GULP energy per Si atom -12400.007264 kJ/mol
# Density = 2.091429 g / cm^3
# Si number density = 20.961999 Si / 1000 Ang^3
#
#
#
# Elastic Constant Matrix: (Units=GPa)
#
#
# Indices 1 2 3 4 5 6 
#
# 1 81.1423 20.9636 13.8102 0.0000 -2.4037 0.0000
# 2 20.9636 90.3964 37.9389 0.0000 -7.7930 0.0000
# 3 13.8102 37.9389 110.8899 0.0000 2.6597 0.0000
# 4 0.0000 0.0000 0.0000 27.9224 0.0000 -11.6016
# 5 -2.4037 -7.7930 2.6597 0.0000 38.3085 0.0000
# 6 0.0000 0.0000 0.0000 -11.6016 0.0000 15.4415
#
#
#
# Elastic Compliance Matrix: (Units=1/GPa)
#
#
# Indices 1 2 3 4 5 6 
#
# 1 0.013159 -0.002724 -0.000715 0.000000 0.000321 0.000000
# 2 -0.002724 0.013820 -0.004460 0.000000 0.002950 0.000000
# 3 -0.000715 -0.004460 0.010673 0.000000 -0.001693 0.000000
# 4 0.000000 0.000000 0.000000 0.052068 0.000000 0.039120
# 5 0.000321 0.002950 -0.001693 0.000000 0.026842 0.000000
# 6 0.000000 0.000000 0.000000 0.039120 0.000000 0.094152
#
#
# Mechanical properties :
#
#
# Convention : Reuss Voigt Hill
#
# Bulk Modulus (GPa) = 45.75468 47.53931 46.64700
# Shear Modulus (GPa) = 21.38612 30.31553 25.85082
#
# Velocity S-wave (km/s) = 3.19757 3.80704 3.51554
# Velocity P-wave (km/s) = 5.95881 6.48481 6.22737
#
# Compressibility (1/GPa) = 0.02185569
#
# Stress axis : x y z
#
# Youngs Moduli (GPa) = 75.99399 72.35774 93.69093
#
# Poissons Ratio (x) = 0.19711 0.06694
# Poissons Ratio (y) = 0.20701 0.41785
# Poissons Ratio (z) = 0.05430 0.32270
#
# Static dielectric constant tensor:
#      x y z
#    x 3.814430 0.000000 0.066840 
#    y 0.000000 3.712900 0.000000 
#    z 0.066840 0.000000 4.225610 
# 
# 
# High freq. dielectric constant tensor:
#      x y z
#    x 1.831740 0.000000 -0.001560 
#    y 0.000000 1.813580 0.000000 
#    z -0.001560 0.000000 1.839650 
# 
# From -- ./inp_files/70177.got.cif
#   From: 2010.06.25/outbox.cif.g09.slc.cpg/sg15_36_cif.got.tgz:70177.got - 2010.06.28 07:06:18.
