data_PCOD8147097
_publ_section_title
;
Structure prediction by ZEFSAII (Michael W. Deem and Ramdas Pophale) SiO2 
 PCOD8147097
Probable space group: C 2/C
;
_chemical_formula_sum "Si O2"
_cell_formula_units_Z 52
_cell_length_a 21.574316
_cell_length_b 14.612198
_cell_length_c 11.469040
_cell_angle_alpha 90.000000
_cell_angle_beta 40.567683
_cell_angle_gamma 90.000000
_cell_volume 2351.386544
_symmetry_space_group_name_H-M "C 2/C"
_symmetry_group_IT_number 15
_symmetry_cell_setting 'monoclinic'
loop_
_space_group_symop_operation_xyz
x,y,z
-x,y,1/2-z
-x,-y,-z
x,-y,1/2+z
1/2+x,1/2+y,z
1/2-x,1/2+y,1/2-z
1/2-x,1/2-y,-z
1/2+x,1/2-y,1/2+z
loop_
_atom_site_type_symbol
_atom_site_label
_atom_site_fract_x
_atom_site_fract_y
_atom_site_fract_z
Si Si1 0.598295 0.576216 0.247666
Si Si2 0.738978 0.416290 0.355791
Si Si3 0.095903 0.111027 0.880187
Si Si4 0.000000 0.654150 0.750000
Si Si5 0.869161 0.733283 0.748249
Si Si6 0.529201 0.783131 0.842996
Si Si7 0.410050 0.058603 0.093945
O O1 0.489045 0.614096 0.401537
O O2 0.602719 0.490589 0.324151
O O3 0.659313 0.659842 0.217733
O O4 0.645517 0.546012 0.057783
O O5 0.698747 0.372625 0.293268
O O6 0.777706 0.331832 0.376968
O O7 0.814325 0.497812 0.229095
O O8 0.076895 0.184792 0.804764
O O9 0.071143 0.718323 0.719327
O O10 0.067673 0.594830 0.567781
O O11 0.929628 0.702873 0.550041
O O12 0.500000 0.793130 0.750000
O O13 0.600666 0.861396 0.792081
O O14 0.500000 0.000000 0.000000
#
# Coordination Sequence:
#
# PCOD8147097 Si02
#       7
#     8   8   8   4   8   8   8
#     4  10  24  44  64  93 139 180 222 281 325 414
#     4  12  24  40  68 106 132 173 235 280 347 398
#     4  10  25  44  67  98 134 187 222 273 349 402
#     4  10  22  42  70  96 140 172 230 278 348 394
#     4  10  23  41  70 102 128 182 225 288 334 394
#     4  10  23  45  71  96 141 183 225 274 350 410
#     4  11  24  41  70 103 136 181 220 291 347 398
#
# _framework density 22.114611
#
# number of rings (size 3 to 8) (size 9 to 14) (size 15 to 20)
#    0.000    1.538    3.077    0.923    9.692    6.154 
#    0.000    1.538    0.000    0.000    0.000    0.000 
#    0.000    0.000    0.000    0.000    0.000    0.000 
#
# Total GULP energy -322165.304551 kJ/mol
# GULP energy per Si atom -12390.973252 kJ/mol
# Density = 2.206428 g / cm^3
# Si number density = 22.114611 Si / 1000 Ang^3
#
#
#
# Elastic Constant Matrix: (Units=GPa)
#
#
# Indices 1 2 3 4 5 6 
#
# 1 143.9059 56.8139 50.3396 0.0000 10.6842 0.0000
# 2 56.8139 152.1118 44.0513 0.0000 2.1590 0.0000
# 3 50.3396 44.0513 86.7880 0.0000 12.4348 0.0000
# 4 0.0000 0.0000 0.0000 19.8562 0.0000 3.8423
# 5 10.6842 2.1590 12.4348 0.0000 31.7341 0.0000
# 6 0.0000 0.0000 0.0000 3.8423 0.0000 24.6776
#
#
#
# Elastic Compliance Matrix: (Units=1/GPa)
#
#
# Indices 1 2 3 4 5 6 
#
# 1 0.009389 -0.002307 -0.004073 0.000000 -0.001408 0.000000
# 2 -0.002307 0.008308 -0.003082 0.000000 0.001419 0.000000
# 3 -0.004073 -0.003082 0.016128 0.000000 -0.004739 0.000000
# 4 0.000000 0.000000 0.000000 0.051927 0.000000 -0.008085
# 5 -0.001408 0.001419 -0.004739 0.000000 0.033746 0.000000
# 6 0.000000 0.000000 0.000000 -0.008085 0.000000 0.041781
#
#
# Mechanical properties :
#
#
# Convention : Reuss Voigt Hill
#
# Bulk Modulus (GPa) = 67.11129 76.13502 71.62316
# Shear Modulus (GPa) = 27.00188 30.69363 28.84776
#
# Velocity S-wave (km/s) = 3.49807 3.72954 3.61566
# Velocity P-wave (km/s) = 6.83580 7.28342 7.06316
#
# Compressibility (1/GPa) = 0.01490062
#
# Stress axis : x y z
#
# Youngs Moduli (GPa) = 106.50422 120.36096 62.00308
#
# Poissons Ratio (x) = 0.27771 0.25255
# Poissons Ratio (y) = 0.24574 0.19110
# Poissons Ratio (z) = 0.43381 0.37097
#
# Static dielectric constant tensor:
#      x y z
#    x 3.840940 0.000000 -0.165140 
#    y 0.000000 4.423350 0.000000 
#    z -0.165140 0.000000 3.927430 
# 
# 
# High freq. dielectric constant tensor:
#      x y z
#    x 1.859980 0.000000 -0.001750 
#    y 0.000000 1.884980 0.000000 
#    z -0.001750 0.000000 1.868110 
# 
# From -- ./inp_files/118719.got.cif
#   From: 2010.06.25/outbox.cif.g09.slc.cpg/sg15_60_cif.got.tgz:118719.got - 2010.06.28 07:06:18.
