data_PCOD8147271
_publ_section_title
;
Structure prediction by ZEFSAII (Michael W. Deem and Ramdas Pophale) SiO2 
 PCOD8147271
Probable space group: C 2/C
;
_chemical_formula_sum "Si O2"
_cell_formula_units_Z 64
_cell_length_a 29.648896
_cell_length_b 8.141218
_cell_length_c 23.172424
_cell_angle_alpha 90.000000
_cell_angle_beta 149.791138
_cell_angle_gamma 90.000000
_cell_volume 2814.297326
_symmetry_space_group_name_H-M "C 2/C"
_symmetry_group_IT_number 15
_symmetry_cell_setting 'monoclinic'
loop_
_space_group_symop_operation_xyz
x,y,z
-x,y,1/2-z
-x,-y,-z
x,-y,1/2+z
1/2+x,1/2+y,z
1/2-x,1/2+y,1/2-z
1/2-x,1/2-y,-z
1/2+x,1/2-y,1/2+z
loop_
_atom_site_type_symbol
_atom_site_label
_atom_site_fract_x
_atom_site_fract_y
_atom_site_fract_z
Si Si1 0.869698 0.727021 0.668358
Si Si2 0.626146 0.679471 0.738876
Si Si3 0.061025 0.685107 0.498627
Si Si4 0.095821 0.083580 0.834237
Si Si5 0.462026 0.840134 0.077951
Si Si6 0.700120 0.122866 0.024294
Si Si7 0.809934 0.243018 0.457073
Si Si8 0.938972 0.115225 0.395780
O O1 0.794622 0.777616 0.633631
O O2 0.825418 0.612587 0.571384
O O3 0.951132 0.621117 0.785868
O O4 0.905866 0.888401 0.675575
O O5 0.542593 0.768546 0.617922
O O6 0.617159 0.669866 0.797783
O O7 0.712005 0.798564 0.821837
O O8 0.635484 0.496050 0.719705
O O9 0.066388 0.489713 0.495382
O O10 0.113463 0.781169 0.506032
O O11 0.100828 0.742335 0.605418
O O12 0.000000 0.147576 0.750000
O O13 0.168826 0.135892 0.963107
O O14 0.491600 0.684385 0.074217
O O15 0.376267 0.789046 0.021679
O O16 0.707723 0.934221 0.049039
O O17 0.000000 0.000000 0.500000
#
# Coordination Sequence:
#
# PCOD8147271 Si02
#       8
#     8   8   8   8   8   8   8   8
#     4  11  23  37  57  91 128 167 205 253 315 384
#     4  11  22  42  62  94 129 166 210 263 316 383
#     4  10  24  41  65  92 124 166 215 269 325 373
#     4  12  22  36  64  95 133 168 209 253 319 386
#     4  11  21  41  63  86 124 162 213 258 322 375
#     4  10  23  37  57  89 128 165 201 257 317 382
#     4  11  23  40  63  95 129 167 210 263 320 388
#     4  10  22  43  66  87 119 161 216 270 316 371
#
# _framework density 22.741022000000001
#
# number of rings (size 3 to 8) (size 9 to 14) (size 15 to 20)
#    0.000    1.250    3.750    1.875    1.750    1.000 
#    0.000    8.750    0.000    0.000    0.000    0.000 
#    0.000    0.000    0.000    0.000    0.000    0.000 
#
# Total GULP energy -396607.286017 kJ/mol
# GULP energy per Si atom -12393.977688 kJ/mol
# Density = 2.268926 g / cm^3
# Si number density = 22.741022 Si / 1000 Ang^3
#
#
#
# Elastic Constant Matrix: (Units=GPa)
#
#
# Indices 1 2 3 4 5 6 
#
# 1 82.1471 18.2164 36.9534 0.0000 3.6865 0.0000
# 2 18.2164 37.7908 14.3394 0.0000 -0.2413 0.0000
# 3 36.9534 14.3394 91.8590 0.0000 13.8282 0.0000
# 4 0.0000 0.0000 0.0000 36.4392 0.0000 -5.9850
# 5 3.6865 -0.2413 13.8282 0.0000 35.7594 0.0000
# 6 0.0000 0.0000 0.0000 -5.9850 0.0000 32.2255
#
#
#
# Elastic Compliance Matrix: (Units=1/GPa)
#
#
# Indices 1 2 3 4 5 6 
#
# 1 0.015901 -0.005534 -0.005607 0.000000 0.000492 0.000000
# 2 -0.005534 0.030190 -0.002764 0.000000 0.001843 0.000000
# 3 -0.005607 -0.002764 0.014323 0.000000 -0.004979 0.000000
# 4 0.000000 0.000000 0.000000 0.028306 0.000000 0.005257
# 5 0.000492 0.001843 -0.004979 0.000000 0.029852 0.000000
# 6 0.000000 0.000000 0.000000 0.005257 0.000000 0.032008
#
#
# Mechanical properties :
#
#
# Convention : Reuss Voigt Hill
#
# Bulk Modulus (GPa) = 30.67132 38.97949 34.82540
# Shear Modulus (GPa) = 26.41926 30.37067 28.39496
#
# Velocity S-wave (km/s) = 3.41214 3.65842 3.53742
# Velocity P-wave (km/s) = 5.38888 5.91804 5.65965
#
# Compressibility (1/GPa) = 0.03260375
#
# Stress axis : x y z
#
# Youngs Moduli (GPa) = 62.89099 33.12402 69.81909
#
# Poissons Ratio (x) = 0.18331 0.39145
# Poissons Ratio (y) = 0.34804 0.19297
# Poissons Ratio (z) = 0.35261 0.09155
#
# Static dielectric constant tensor:
#      x y z
#    x 4.163970 0.000000 0.361140 
#    y 0.000000 5.780980 0.000000 
#    z 0.361140 0.000000 4.109480 
# 
# 
# High freq. dielectric constant tensor:
#      x y z
#    x 1.900880 0.000000 0.002290 
#    y 0.000000 1.880650 0.000000 
#    z 0.002290 0.000000 1.897960 
# 
# From -- ./inp_files/284469.got.cif
#   From: 2010.06.25/outbox.cif.g09.slc.cpg/sg15_143_cif.got.tgz:284469.got - 2010.06.28 07:06:18.
