data_PCOD8147520
_publ_section_title
;
Structure prediction by ZEFSAII (Michael W. Deem and Ramdas Pophale) SiO2 
 PCOD8147520
Probable space group: C 2/C
;
_chemical_formula_sum "Si O2"
_cell_formula_units_Z 44
_cell_length_a 22.650906
_cell_length_b 12.968073
_cell_length_c 16.488573
_cell_angle_alpha 90.000000
_cell_angle_beta 22.425588
_cell_angle_gamma 90.000000
_cell_volume 1847.649350
_symmetry_space_group_name_H-M "C 2/C"
_symmetry_group_IT_number 15
_symmetry_cell_setting 'monoclinic'
loop_
_space_group_symop_operation_xyz
x,y,z
-x,y,1/2-z
-x,-y,-z
x,-y,1/2+z
1/2+x,1/2+y,z
1/2-x,1/2+y,1/2-z
1/2-x,1/2-y,-z
1/2+x,1/2-y,1/2+z
loop_
_atom_site_type_symbol
_atom_site_label
_atom_site_fract_x
_atom_site_fract_y
_atom_site_fract_z
Si Si1 0.392566 0.415079 0.597792
Si Si2 0.587839 0.161817 0.563601
Si Si3 0.703119 0.847392 0.173117
Si Si4 0.969334 0.306780 0.963083
Si Si5 0.000000 0.772988 0.250000
Si Si6 0.270852 0.570717 0.079422
O O1 0.500000 0.500000 0.500000
O O2 0.481566 0.305778 0.488845
O O3 0.375189 0.442020 0.526058
O O4 0.224941 0.409842 0.854776
O O5 0.500000 0.104787 0.750000
O O6 0.461226 0.189668 0.655803
O O7 0.660966 0.265003 0.511761
O O8 0.676916 0.860353 0.304893
O O9 0.749528 0.955661 0.071188
O O10 0.952869 0.298906 0.886168
O O11 0.110573 0.378500 0.807824
O O12 0.856586 0.849625 0.409093
#
# Coordination Sequence:
#
# PCOD8147520 Si02
#       6
#     8   8   8   8   4   8
#     4  10  24  41  71 102 142 191 242 295 365 441
#     4  11  25  45  69 104 139 188 241 303 358 431
#     4  11  25  44  73  99 145 190 240 296 371 438
#     4  10  22  44  65 100 140 186 236 295 363 426
#     4  10  24  42  70 104 140 184 238 310 360 420
#     4  11  23  43  68 100 141 187 233 293 368 433
#
# _framework density 23.814043000000002
#
# number of rings (size 3 to 8) (size 9 to 14) (size 15 to 20)
#    0.000    1.455    1.818    1.636    6.364    2.909 
#    1.636    0.000    0.000    0.000    0.000    0.000 
#    0.000    0.000    0.000    0.000    0.000    0.000 
#
# Total GULP energy -272632.507290 kJ/mol
# GULP energy per Si atom -12392.386695 kJ/mol
# Density = 2.375984 g / cm^3
# Si number density = 23.814043 Si / 1000 Ang^3
#
#
#
# Elastic Constant Matrix: (Units=GPa)
#
#
# Indices 1 2 3 4 5 6 
#
# 1 92.8183 15.1479 25.6485 0.0000 0.3665 0.0000
# 2 15.1479 75.1349 12.4624 0.0000 -21.9732 0.0000
# 3 25.6485 12.4624 80.2527 0.0001 1.6656 0.0000
# 4 0.0000 0.0000 0.0001 31.3264 0.0000 -7.4168
# 5 0.3665 -21.9732 1.6656 0.0000 48.1633 0.0000
# 6 0.0000 0.0000 0.0000 -7.4168 0.0000 26.0564
#
#
#
# Elastic Compliance Matrix: (Units=1/GPa)
#
#
# Indices 1 2 3 4 5 6 
#
# 1 0.012097 -0.002131 -0.003516 0.000000 -0.000943 0.000000
# 2 -0.002131 0.016266 -0.002001 0.000000 0.007506 0.000000
# 3 -0.003516 -0.002001 0.013923 0.000000 -0.001367 0.000000
# 4 0.000000 0.000000 0.000000 0.034229 0.000000 0.009743
# 5 -0.000943 0.007506 -0.001367 0.000000 0.024242 0.000000
# 6 0.000000 0.000000 0.000000 0.009743 0.000000 0.041152
#
#
# Mechanical properties :
#
#
# Convention : Reuss Voigt Hill
#
# Bulk Modulus (GPa) = 37.04920 39.41370 38.23145
# Shear Modulus (GPa) = 30.08417 34.10568 32.09492
#
# Velocity S-wave (km/s) = 3.55814 3.78850 3.67513
# Velocity P-wave (km/s) = 5.69842 5.97692 5.83933
#
# Compressibility (1/GPa) = 0.02699113
#
# Stress axis : x y z
#
# Youngs Moduli (GPa) = 82.66675 61.47718 71.82236
#
# Poissons Ratio (x) = 0.13104 0.25249
# Poissons Ratio (y) = 0.17620 0.14368
# Poissons Ratio (z) = 0.29062 0.12299
#
# Static dielectric constant tensor:
#      x y z
#    x 4.184060 0.000000 0.130000 
#    y 0.000000 4.276810 0.000000 
#    z 0.130000 0.000000 4.444720 
# 
# 
# High freq. dielectric constant tensor:
#      x y z
#    x 1.929990 0.000000 0.010320 
#    y 0.000000 1.932660 0.000000 
#    z 0.010320 0.000000 1.955880 
# 
# From -- ./inp_files/219666.got.cif
#   From: 2010.06.25/outbox.cif.g09.slc.cpg/sg15_110_cif.got.tgz:219666.got - 2010.06.28 07:06:18.
