data_PCOD8147204
_publ_section_title
;
Structure prediction by ZEFSAII (Michael W. Deem and Ramdas Pophale) SiO2 
 PCOD8147204
Probable space group: C 2/C
;
_chemical_formula_sum "Si O2"
_cell_formula_units_Z 56
_cell_length_a 5.679769
_cell_length_b 26.341887
_cell_length_c 15.582962
_cell_angle_alpha 90.000000
_cell_angle_beta 96.238568
_cell_angle_gamma 90.000000
_cell_volume 2317.651044
_symmetry_space_group_name_H-M "C 2/C"
_symmetry_group_IT_number 15
_symmetry_cell_setting 'monoclinic'
loop_
_space_group_symop_operation_xyz
x,y,z
-x,y,1/2-z
-x,-y,-z
x,-y,1/2+z
1/2+x,1/2+y,z
1/2-x,1/2+y,1/2-z
1/2-x,1/2-y,-z
1/2+x,1/2-y,1/2+z
loop_
_atom_site_type_symbol
_atom_site_label
_atom_site_fract_x
_atom_site_fract_y
_atom_site_fract_z
Si Si1 0.686789 0.761442 0.595759
Si Si2 0.489200 0.140301 0.473163
Si Si3 0.000000 0.647809 0.750000
Si Si4 0.723401 0.501301 0.204490
Si Si5 0.792902 0.907586 0.398967
Si Si6 0.218499 0.388170 0.820597
Si Si7 0.671149 0.674380 0.874199
Si Si8 0.000000 0.201889 0.250000
O O1 0.750000 0.750000 0.500000
O O2 0.621421 0.820568 0.599869
O O3 0.481401 0.724014 0.616160
O O4 0.888580 0.758045 0.676947
O O5 0.285433 0.104699 0.506261
O O6 0.662680 0.108016 0.420306
O O7 0.614102 0.175116 0.549680
O O8 0.915933 0.612712 0.669610
O O9 0.776389 0.678760 0.781324
O O10 0.500000 0.478274 0.250000
O O11 0.699998 0.468024 0.115954
O O12 0.639516 0.559247 0.185310
O O13 0.000000 0.496923 0.250000
O O14 0.034158 0.878470 0.384786
O O15 0.344452 0.335528 0.802636
O O16 0.000000 0.393371 0.750000
#
# Coordination Sequence:
#
# PCOD8147204 Si02
#       8
#     8   8   4   8   8   8   8   4
#     4  12  25  50  73 109 150 198 254 314 378 463
#     4  11  25  46  69 104 151 195 245 314 385 446
#     4  10  22  43  64 100 148 184 246 299 380 444
#     4  11  24  45  79 110 150 201 257 322 397 465
#     4  11  23  44  71 106 148 191 245 313 385 457
#     4  11  24  48  74 103 144 192 256 311 376 473
#     4  11  24  44  72 102 152 193 243 320 374 460
#     4  12  26  49  78 106 142 208 256 315 390 458
#
# _framework density 24.162393999999999
#
# number of rings (size 3 to 8) (size 9 to 14) (size 15 to 20)
#    0.000    0.857    4.286    2.571    2.000    1.143 
#    7.714    0.714    0.000    0.000    0.000    0.000 
#    0.000    0.000    0.000    0.000    0.000    0.000 
#
# Total GULP energy -346883.214105 kJ/mol
# GULP energy per Si atom -12388.686218 kJ/mol
# Density = 2.410740 g / cm^3
# Si number density = 24.162394 Si / 1000 Ang^3
#
#
#
# Elastic Constant Matrix: (Units=GPa)
#
#
# Indices 1 2 3 4 5 6 
#
# 1 107.3769 25.5867 45.6450 0.0000 -30.2876 0.0000
# 2 25.5867 88.0627 45.8138 0.0000 -18.0586 0.0000
# 3 45.6450 45.8138 130.5761 0.0000 -33.7950 0.0000
# 4 0.0000 0.0000 0.0000 43.1674 0.0000 7.6033
# 5 -30.2876 -18.0586 -33.7950 0.0000 49.3944 0.0000
# 6 0.0000 0.0000 0.0000 7.6033 0.0000 38.3614
#
#
#
# Elastic Compliance Matrix: (Units=1/GPa)
#
#
# Indices 1 2 3 4 5 6 
#
# 1 0.012138 -0.001154 -0.002456 0.000000 0.005341 0.000000
# 2 -0.001154 0.014186 -0.004149 0.000000 0.001640 0.000000
# 3 -0.002456 -0.004149 0.011168 0.000000 0.004618 0.000000
# 4 0.000000 0.000000 0.000000 0.024004 0.000000 -0.004758
# 5 0.005341 0.001640 0.004618 0.000000 0.027279 0.000000
# 6 0.000000 0.000000 0.000000 -0.004758 0.000000 0.027011
#
#
# Mechanical properties :
#
#
# Convention : Reuss Voigt Hill
#
# Bulk Modulus (GPa) = 45.50950 62.23408 53.87179
# Shear Modulus (GPa) = 36.06745 40.11597 38.09171
#
# Velocity S-wave (km/s) = 3.86775 4.07905 3.97481
# Velocity P-wave (km/s) = 6.23071 6.92802 6.58859
#
# Compressibility (1/GPa) = 0.02197343
#
# Stress axis : x y z
#
# Youngs Moduli (GPa) = 82.38273 70.49304 89.54160
#
# Poissons Ratio (x) = 0.08134 0.21992
# Poissons Ratio (y) = 0.09506 0.37155
# Poissons Ratio (z) = 0.20234 0.29251
#
# Static dielectric constant tensor:
#      x y z
#    x 4.483400 0.000000 -0.044300 
#    y 0.000000 4.564190 0.000000 
#    z -0.044300 0.000000 4.385030 
# 
# 
# High freq. dielectric constant tensor:
#      x y z
#    x 1.962220 0.000000 -0.010240 
#    y 0.000000 1.960740 0.000000 
#    z -0.010240 0.000000 1.963470 
# 
# From -- ./inp_files/130806.got.cif
#   From: 2010.06.25/outbox.cif.g09.slc.cpg/sg15_66_cif.got.tgz:130806.got - 2010.06.28 07:06:18.
