data_PCOD8147693
_publ_section_title
;
Structure prediction by ZEFSAII (Michael W. Deem and Ramdas Pophale) SiO2 
 PCOD8147693
Probable space group: C 2/C
;
_chemical_formula_sum "Si O2"
_cell_formula_units_Z 60
_cell_length_a 19.170666
_cell_length_b 15.100357
_cell_length_c 13.761559
_cell_angle_alpha 90.000000
_cell_angle_beta 44.171799
_cell_angle_gamma 90.000000
_cell_volume 2775.925266
_symmetry_space_group_name_H-M "C 2/C"
_symmetry_group_IT_number 15
_symmetry_cell_setting 'monoclinic'
loop_
_space_group_symop_operation_xyz
x,y,z
-x,y,1/2-z
-x,-y,-z
x,-y,1/2+z
1/2+x,1/2+y,z
1/2-x,1/2+y,1/2-z
1/2-x,1/2-y,-z
1/2+x,1/2-y,1/2+z
loop_
_atom_site_type_symbol
_atom_site_label
_atom_site_fract_x
_atom_site_fract_y
_atom_site_fract_z
Si Si1 0.438081 0.130350 0.512282
Si Si2 0.727951 0.599805 0.371408
Si Si3 0.500000 0.141844 0.750000
Si Si4 0.931241 0.935563 0.630366
Si Si5 0.073398 0.502907 0.804186
Si Si6 0.107482 0.921810 0.179830
Si Si7 0.948258 0.237120 0.481471
Si Si8 0.780181 0.795358 0.290645
O O1 0.490710 0.076970 0.369657
O O2 0.494366 0.222014 0.481937
O O3 0.320368 0.146269 0.616132
O O4 0.464843 0.067976 0.574716
O O5 0.663372 0.593939 0.338393
O O6 0.824329 0.539664 0.261961
O O7 0.674519 0.562166 0.519238
O O8 0.755732 0.701417 0.362656
O O9 0.550946 0.201543 0.615389
O O10 0.584737 0.071398 0.702407
O O11 0.995239 0.852590 0.602788
O O12 0.893492 0.984631 0.764177
O O13 0.000000 0.000000 0.500000
O O14 0.144835 0.844779 0.212754
O O15 0.000000 0.890445 0.250000
O O16 0.834136 0.216941 0.631152
#
# Coordination Sequence:
#
# PCOD8147693 Si02
#       8
#     8   8   4   8   8   8   8   8
#     4  10  22  44  70  96 136 184 235 282 352 414
#     4  12  25  44  71 105 138 185 243 287 363 414
#     4  10  26  44  70 104 146 184 236 290 356 420
#     4  12  24  46  73  99 144 191 230 293 352 421
#     4  10  23  43  67 100 137 183 230 289 340 431
#     4  12  27  44  68 105 142 181 241 293 349 427
#     4  11  23  46  70 103 142 184 235 291 358 421
#     4  12  24  44  72 101 137 189 231 297 355 415
#
# _framework density 21.614415000000001
#
# number of rings (size 3 to 8) (size 9 to 14) (size 15 to 20)
#    0.000    0.800    5.333    1.200    2.800    1.067 
#    1.200    1.333    0.000    0.000    0.000    0.000 
#    0.000    0.000    0.000    0.000    0.000    0.000 
#
# Total GULP energy -371874.578968 kJ/mol
# GULP energy per Si atom -12395.819299 kJ/mol
# Density = 2.156522 g / cm^3
# Si number density = 21.614415 Si / 1000 Ang^3
#
#
#
# Elastic Constant Matrix: (Units=GPa)
#
#
# Indices 1 2 3 4 5 6 
#
# 1 79.4619 52.0937 39.4375 0.0000 -2.6662 0.0000
# 2 52.0937 135.5298 40.8702 0.0000 -4.4124 0.0000
# 3 39.4375 40.8702 118.7122 0.0000 -6.4717 0.0000
# 4 0.0000 0.0000 0.0000 57.7579 0.0000 0.1830
# 5 -2.6662 -4.4124 -6.4717 0.0000 33.2312 0.0000
# 6 0.0000 0.0000 0.0000 0.1830 0.0000 41.3976
#
#
#
# Elastic Compliance Matrix: (Units=1/GPa)
#
#
# Indices 1 2 3 4 5 6 
#
# 1 0.018469 -0.005858 -0.004124 0.000000 -0.000099 0.000000
# 2 -0.005858 0.010101 -0.001500 0.000000 0.000579 0.000000
# 3 -0.004124 -0.001500 0.010392 0.000000 0.001494 0.000000
# 4 0.000000 0.000000 0.000000 0.017314 0.000000 -0.000077
# 5 -0.000099 0.000579 0.001494 0.000000 0.030452 0.000000
# 6 0.000000 0.000000 0.000000 -0.000077 0.000000 0.024156
#
#
# Mechanical properties :
#
#
# Convention : Reuss Voigt Hill
#
# Bulk Modulus (GPa) = 62.51138 66.50074 64.50606
# Shear Modulus (GPa) = 35.92441 39.89751 37.91096
#
# Velocity S-wave (km/s) = 4.08126 4.30103 4.19258
# Velocity P-wave (km/s) = 7.15492 7.44975 7.30382
#
# Compressibility (1/GPa) = 0.01599709
#
# Stress axis : x y z
#
# Youngs Moduli (GPa) = 54.14540 98.99591 96.23170
#
# Poissons Ratio (x) = 0.57996 0.39686
# Poissons Ratio (y) = 0.31721 0.14434
# Poissons Ratio (z) = 0.22330 0.14848
#
# Static dielectric constant tensor:
#      x y z
#    x 3.906250 0.000000 0.091680 
#    y 0.000000 3.688150 0.000000 
#    z 0.091680 0.000000 3.953410 
# 
# 
# High freq. dielectric constant tensor:
#      x y z
#    x 1.839080 0.000000 -0.002710 
#    y 0.000000 1.871890 0.000000 
#    z -0.002710 0.000000 1.847520 
# 
# From -- ./inp_files/168609.got.cif
#   From: 2010.06.25/outbox.cif.g09.slc.cpg/sg15_85_cif.got.tgz:168609.got - 2010.06.28 07:06:18.
