data_PCOD8147172
_publ_section_title
;
Structure prediction by ZEFSAII (Michael W. Deem and Ramdas Pophale) SiO2 
 PCOD8147172
Probable space group: C 2/C
;
_chemical_formula_sum "Si O2"
_cell_formula_units_Z 44
_cell_length_a 9.367956
_cell_length_b 21.191815
_cell_length_c 10.830706
_cell_angle_alpha 90.000000
_cell_angle_beta 109.016903
_cell_angle_gamma 90.000000
_cell_volume 2032.804865
_symmetry_space_group_name_H-M "C 2/C"
_symmetry_group_IT_number 15
_symmetry_cell_setting 'monoclinic'
loop_
_space_group_symop_operation_xyz
x,y,z
-x,y,1/2-z
-x,-y,-z
x,-y,1/2+z
1/2+x,1/2+y,z
1/2-x,1/2+y,1/2-z
1/2-x,1/2-y,-z
1/2+x,1/2-y,1/2+z
loop_
_atom_site_type_symbol
_atom_site_label
_atom_site_fract_x
_atom_site_fract_y
_atom_site_fract_z
Si Si1 0.500000 0.159285 0.750000
Si Si2 0.192750 0.426745 0.916076
Si Si3 0.580969 0.238020 0.999257
Si Si4 0.868544 0.383370 0.863071
Si Si5 0.744764 0.573044 0.578139
Si Si6 0.530624 0.639187 0.900134
O O1 0.517513 0.204601 0.636055
O O2 0.355810 0.113766 0.696457
O O3 0.212859 0.394032 0.789125
O O4 0.227346 0.499501 0.907242
O O5 0.022941 0.423091 0.919204
O O6 0.301662 0.389456 0.040442
O O7 0.592010 0.190606 0.117892
O O8 0.494975 0.300096 0.020193
O O9 0.750000 0.250000 0.000000
O O10 0.756554 0.403931 0.940440
O O11 0.577913 0.583869 0.582533
O O12 0.500000 0.657235 0.750000
#
# Coordination Sequence:
#
# PCOD8147172 Si02
#       6
#     4   8   8   8   8   8
#     4  10  22  42  82  92 132 180 240 280 340 416
#     4  11  26  44  72 105 139 178 233 301 339 417
#     4  11  24  46  69 101 137 182 237 281 349 422
#     4  10  24  45  72 100 132 181 240 283 353 402
#     4  11  24  47  70 102 136 189 228 280 353 422
#     4  12  29  43  68 104 148 184 228 288 354 412
#
# _framework density 21.644970000000001
#
# number of rings (size 3 to 8) (size 9 to 14) (size 15 to 20)
#    0.000    1.091    3.636    2.182   12.727    1.455 
#    0.000    0.000    0.000    0.000    0.000    0.000 
#    0.000    0.000    0.000    0.000    0.000    0.000 
#
# Total GULP energy -272852.785442 kJ/mol
# GULP energy per Si atom -12402.399338 kJ/mol
# Density = 2.159571 g / cm^3
# Si number density = 21.644970 Si / 1000 Ang^3
#
#
#
# Elastic Constant Matrix: (Units=GPa)
#
#
# Indices 1 2 3 4 5 6 
#
# 1 53.6399 10.2658 15.4445 0.0000 -5.4329 0.0000
# 2 10.2658 151.2812 33.8061 0.0000 1.8253 0.0000
# 3 15.4445 33.8061 119.8223 0.0000 3.9433 0.0000
# 4 0.0000 0.0000 0.0000 19.7482 0.0000 -2.3377
# 5 -5.4329 1.8253 3.9433 0.0000 31.2506 0.0000
# 6 0.0000 0.0000 0.0000 -2.3377 0.0000 34.0320
#
#
#
# Elastic Compliance Matrix: (Units=1/GPa)
#
#
# Indices 1 2 3 4 5 6 
#
# 1 0.019898 -0.000849 -0.002451 0.000000 0.003818 0.000000
# 2 -0.000849 0.007092 -0.001881 0.000000 -0.000324 0.000000
# 3 -0.002451 -0.001881 0.009241 0.000000 -0.001482 0.000000
# 4 0.000000 0.000000 0.000000 0.051053 0.000000 0.003507
# 5 0.003818 -0.000324 -0.001482 0.000000 0.032869 0.000000
# 6 0.000000 0.000000 0.000000 0.003507 0.000000 0.029625
#
#
# Mechanical properties :
#
#
# Convention : Reuss Voigt Hill
#
# Bulk Modulus (GPa) = 38.65491 49.30844 43.98168
# Shear Modulus (GPa) = 29.62758 34.68796 32.15777
#
# Velocity S-wave (km/s) = 3.70374 4.00758 3.85865
# Velocity P-wave (km/s) = 6.01562 6.65163 6.34160
#
# Compressibility (1/GPa) = 0.02586994
#
# Stress axis : x y z
#
# Youngs Moduli (GPa) = 50.25721 141.00373 108.21296
#
# Poissons Ratio (x) = 0.11966 0.26522
# Poissons Ratio (y) = 0.04265 0.20353
# Poissons Ratio (z) = 0.12318 0.26521
#
# Static dielectric constant tensor:
#      x y z
#    x 3.948380 0.000000 -0.067700 
#    y 0.000000 4.126640 0.000000 
#    z -0.067700 0.000000 4.023560 
# 
# 
# High freq. dielectric constant tensor:
#      x y z
#    x 1.845100 0.000000 -0.005030 
#    y 0.000000 1.866070 0.000000 
#    z -0.005030 0.000000 1.852880 
# 
# From -- ./inp_files/78384.got.cif
#   From: 2010.06.25/outbox.cif.g09.slc.cpg/sg15_40_cif.got.tgz:78384.got - 2010.06.28 07:06:18.
