data_PCOD8147871
_publ_section_title
;
Structure prediction by ZEFSAII (Michael W. Deem and Ramdas Pophale) SiO2 
 PCOD8147871
Probable space group: C 2/C
;
_chemical_formula_sum "Si O2"
_cell_formula_units_Z 56
_cell_length_a 7.780326
_cell_length_b 22.367771
_cell_length_c 14.563545
_cell_angle_alpha 90.000000
_cell_angle_beta 73.811923
_cell_angle_gamma 90.000000
_cell_volume 2433.985147
_symmetry_space_group_name_H-M "C 2/C"
_symmetry_group_IT_number 15
_symmetry_cell_setting 'monoclinic'
loop_
_space_group_symop_operation_xyz
x,y,z
-x,y,1/2-z
-x,-y,-z
x,-y,1/2+z
1/2+x,1/2+y,z
1/2-x,1/2+y,1/2-z
1/2-x,1/2-y,-z
1/2+x,1/2-y,1/2+z
loop_
_atom_site_type_symbol
_atom_site_label
_atom_site_fract_x
_atom_site_fract_y
_atom_site_fract_z
Si Si1 0.034157 0.195217 0.500101
Si Si2 0.372840 0.629373 0.686806
Si Si3 0.440016 0.177297 0.462299
Si Si4 0.028100 0.012869 0.602119
Si Si5 0.595142 0.386683 0.821826
Si Si6 0.000000 0.641879 0.250000
Si Si7 0.573771 0.944694 0.434175
Si Si8 0.000000 0.593077 0.750000
O O1 0.231314 0.186894 0.510597
O O2 0.973539 0.264886 0.500104
O O3 0.027769 0.158962 0.407835
O O4 0.899230 0.166365 0.591438
O O5 0.500000 0.651750 0.750000
O O6 0.383630 0.558450 0.663966
O O7 0.166120 0.637510 0.744505
O O8 0.497816 0.179680 0.345348
O O9 0.493283 0.115222 0.503025
O O10 0.212528 0.047571 0.597482
O O11 0.000000 0.000000 0.500000
O O12 0.002389 0.950356 0.655797
O O13 0.500000 0.355950 0.750000
O O14 0.811930 0.395372 0.781672
O O15 0.488618 0.946922 0.344693
O O16 0.500000 0.000000 0.500000
#
# Coordination Sequence:
#
# PCOD8147871 Si02
#       8
#     8   8   8   8   8   4   8   4
#     4  10  22  45  74 101 144 188 237 291 352 433
#     4  12  23  44  71 102 145 189 238 300 355 425
#     4  10  22  46  74 107 137 191 239 287 361 420
#     4  12  22  44  70 101 143 188 232 293 362 421
#     4  11  25  43  70 105 144 185 236 289 356 424
#     4  10  24  45  72 106 142 186 233 294 350 426
#     4  12  27  46  72 106 150 185 241 301 360 431
#     4  12  28  45  70 112 138 194 247 296 360 428
#
# _framework density 23.007535000000001
#
# number of rings (size 3 to 8) (size 9 to 14) (size 15 to 20)
#    0.000    0.857    4.286    2.143    3.000    1.143 
#    3.857    1.429    0.000    0.000    0.000    0.000 
#    0.000    0.000    0.000    0.000    0.000    0.000 
#
# Total GULP energy -346994.206587 kJ/mol
# GULP energy per Si atom -12392.650235 kJ/mol
# Density = 2.295517 g / cm^3
# Si number density = 23.007535 Si / 1000 Ang^3
#
#
#
# Elastic Constant Matrix: (Units=GPa)
#
#
# Indices 1 2 3 4 5 6 
#
# 1 115.5859 27.0030 53.1845 0.0000 9.4195 0.0000
# 2 27.0030 175.5081 63.1026 0.0000 4.3194 0.0000
# 3 53.1845 63.1026 142.3065 0.0000 10.9026 0.0000
# 4 0.0000 0.0000 0.0000 417.8634 0.0000 -58.6032
# 5 9.4195 4.3194 10.9026 0.0000 43.4696 0.0000
# 6 0.0000 0.0000 0.0000 -58.6032 0.0000 27.9776
#
#
#
# Elastic Compliance Matrix: (Units=1/GPa)
#
#
# Indices 1 2 3 4 5 6 
#
# 1 0.010531 -0.000249 -0.003724 0.000000 -0.001323 0.000000
# 2 -0.000249 0.006785 -0.002924 0.000000 0.000113 0.000000
# 3 -0.003724 -0.002924 0.009820 0.000000 -0.001365 0.000000
# 4 0.000000 0.000000 0.000000 0.003389 0.000000 0.007098
# 5 -0.001323 0.000113 -0.001365 0.000000 0.023623 0.000000
# 6 0.000000 0.000000 0.000000 0.007098 0.000000 0.050610
#
#
# Mechanical properties :
#
#
# Convention : Reuss Voigt Hill
#
# Bulk Modulus (GPa) = 74.95245 79.99784 77.47515
# Shear Modulus (GPa) = 40.65086 117.20282 78.92684
#
# Velocity S-wave (km/s) = 4.20795 7.14504 5.86338
# Velocity P-wave (km/s) = 7.50048 10.14468 8.92109
#
# Compressibility (1/GPa) = 0.01334179
#
# Stress axis : x y z
#
# Youngs Moduli (GPa) = 94.95677 147.39273 101.83091
#
# Poissons Ratio (x) = 0.03666 0.37923
# Poissons Ratio (y) = 0.02362 0.29777
# Poissons Ratio (z) = 0.35363 0.43100
#
# Static dielectric constant tensor:
#      x y z
#    x 6.476000 0.000000 -0.273840 
#    y 0.000000 4.268420 0.000000 
#    z -0.273840 0.000000 4.437260 
# 
# 
# High freq. dielectric constant tensor:
#      x y z
#    x 1.904820 0.000000 -0.002480 
#    y 0.000000 1.894730 0.000000 
#    z -0.002480 0.000000 1.930620 
# 
# From -- ./inp_files/137324.got.cif
#   From: 2010.06.25/outbox.cif.g09.slc.cpg/sg15_69_cif.got.tgz:137324.got - 2010.06.28 07:06:18.
