data_PCOD8147885
_publ_section_title
;
Structure prediction by ZEFSAII (Michael W. Deem and Ramdas Pophale) SiO2 
 PCOD8147885
Probable space group: C 2/C
;
_chemical_formula_sum "Si O2"
_cell_formula_units_Z 48
_cell_length_a 25.607503
_cell_length_b 6.421138
_cell_length_c 14.161756
_cell_angle_alpha 90.000000
_cell_angle_beta 104.629561
_cell_angle_gamma 90.000000
_cell_volume 2253.111960
_symmetry_space_group_name_H-M "C 2/C"
_symmetry_group_IT_number 15
_symmetry_cell_setting 'monoclinic'
loop_
_space_group_symop_operation_xyz
x,y,z
-x,y,1/2-z
-x,-y,-z
x,-y,1/2+z
1/2+x,1/2+y,z
1/2-x,1/2+y,1/2-z
1/2-x,1/2-y,-z
1/2+x,1/2-y,1/2+z
loop_
_atom_site_type_symbol
_atom_site_label
_atom_site_fract_x
_atom_site_fract_y
_atom_site_fract_z
Si Si1 0.562084 0.845256 0.254006
Si Si2 0.818962 0.529796 0.883224
Si Si3 0.372176 0.695931 0.035430
Si Si4 0.713469 0.592006 0.927619
Si Si5 0.387182 0.589926 0.381452
Si Si6 0.364426 0.207590 0.240885
O O1 0.500000 0.834230 0.250000
O O2 0.595966 0.733121 0.352693
O O3 0.569734 0.735878 0.154271
O O4 0.579332 0.088263 0.255173
O O5 0.755128 0.496466 0.870445
O O6 0.836517 0.772284 0.894187
O O7 0.826981 0.451502 0.780736
O O8 0.858834 0.408455 0.973921
O O9 0.313198 0.597598 0.027865
O O10 0.407408 0.538975 0.983540
O O11 0.664966 0.736455 0.868895
O O12 0.750000 0.750000 0.000000
O O13 0.369538 0.422693 0.297101
#
# Coordination Sequence:
#
# PCOD8147885 Si02
#       6
#     8   8   8   8   8   8
#     4  11  25  45  69  93 127 175 223 282 338 381
#     4  10  23  38  65  96 137 171 213 261 331 389
#     4  11  23  42  67  98 138 168 222 275 313 405
#     4  12  22  37  66  96 133 180 209 253 330 393
#     4  10  22  46  64 100 131 171 220 276 328 394
#     4  10  24  41  61  96 133 167 222 273 315 403
#
# _framework density 21.30387
#
# number of rings (size 3 to 8) (size 9 to 14) (size 15 to 20)
#    0.000    1.333    3.333    1.500    2.333    1.333 
#    0.000    7.500    0.000    0.000    0.000    0.000 
#    0.000    0.000    0.000    0.000    0.000    0.000 
#
# Total GULP energy -297418.061472 kJ/mol
# GULP energy per Si atom -12392.419228 kJ/mol
# Density = 2.125538 g / cm^3
# Si number density = 21.303870 Si / 1000 Ang^3
#
#
#
# Elastic Constant Matrix: (Units=GPa)
#
#
# Indices 1 2 3 4 5 6 
#
# 1 125.3811 43.0822 25.4366 0.0000 -6.1938 0.0000
# 2 43.0822 124.0473 35.5281 0.0000 -2.4017 0.0000
# 3 25.4366 35.5281 71.7349 0.0000 -8.4512 0.0000
# 4 0.0000 0.0000 0.0000 38.7102 0.0000 -9.6424
# 5 -6.1938 -2.4017 -8.4512 0.0000 23.1635 0.0000
# 6 0.0000 0.0000 0.0000 -9.6424 0.0000 31.3548
#
#
#
# Elastic Compliance Matrix: (Units=1/GPa)
#
#
# Indices 1 2 3 4 5 6 
#
# 1 0.009345 -0.002702 -0.001791 0.000000 0.001565 0.000000
# 2 -0.002702 0.010188 -0.004230 0.000000 -0.001210 0.000000
# 3 -0.001791 -0.004230 0.017306 0.000000 0.005397 0.000000
# 4 0.000000 0.000000 0.000000 0.027976 0.000000 0.008603
# 5 0.001565 -0.001210 0.005397 0.000000 0.045433 0.000000
# 6 0.000000 0.000000 0.000000 0.008603 0.000000 0.034539
#
#
# Mechanical properties :
#
#
# Convention : Reuss Voigt Hill
#
# Bulk Modulus (GPa) = 51.56643 58.80633 55.18638
# Shear Modulus (GPa) = 29.63878 33.12014 31.37946
#
# Velocity S-wave (km/s) = 3.73398 3.94719 3.84206
# Velocity P-wave (km/s) = 6.54583 6.95969 6.75593
#
# Compressibility (1/GPa) = 0.01939246
#
# Stress axis : x y z
#
# Youngs Moduli (GPa) = 107.01074 98.15393 57.78318
#
# Poissons Ratio (x) = 0.26524 0.10348
# Poissons Ratio (y) = 0.28917 0.24443
# Poissons Ratio (z) = 0.19164 0.41520
#
# Static dielectric constant tensor:
#      x y z
#    x 5.157430 0.000000 -0.434250 
#    y 0.000000 4.311730 0.000000 
#    z -0.434250 0.000000 3.930540 
# 
# 
# High freq. dielectric constant tensor:
#      x y z
#    x 1.815830 0.000000 -0.035590 
#    y 0.000000 1.855520 0.000000 
#    z -0.035590 0.000000 1.831000 
# 
# From -- ./inp_files/217794.got.cif
#   From: 2010.06.25/outbox.cif.g09.slc.cpg/sg15_109_cif.got.tgz:217794.got - 2010.06.28 07:06:18.
