data_PCOD8147423
_publ_section_title
;
Structure prediction by ZEFSAII (Michael W. Deem and Ramdas Pophale) SiO2 
 PCOD8147423
Probable space group: C 2/C
;
_chemical_formula_sum "Si O2"
_cell_formula_units_Z 32
_cell_length_a 8.644203
_cell_length_b 16.727866
_cell_length_c 11.072343
_cell_angle_alpha 90.000000
_cell_angle_beta 71.025908
_cell_angle_gamma 90.000000
_cell_volume 1514.058528
_symmetry_space_group_name_H-M "C 2/C"
_symmetry_group_IT_number 15
_symmetry_cell_setting 'monoclinic'
loop_
_space_group_symop_operation_xyz
x,y,z
-x,y,1/2-z
-x,-y,-z
x,-y,1/2+z
1/2+x,1/2+y,z
1/2-x,1/2+y,1/2-z
1/2-x,1/2-y,-z
1/2+x,1/2-y,1/2+z
loop_
_atom_site_type_symbol
_atom_site_label
_atom_site_fract_x
_atom_site_fract_y
_atom_site_fract_z
Si Si1 0.401714 0.013238 0.901766
Si Si2 0.812763 0.228410 0.809435
Si Si3 0.784588 0.831869 0.061815
Si Si4 0.841219 0.130379 0.037423
O O1 0.500000 0.004419 0.750000
O O2 0.241785 0.956317 0.931142
O O3 0.346058 0.103043 0.943066
O O4 0.500000 0.000000 0.000000
O O5 0.748746 0.181990 0.710657
O O6 0.718740 0.312237 0.840217
O O7 0.000000 0.252597 0.750000
O O8 0.779370 0.169445 0.928733
O O9 0.750000 0.750000 0.000000
O O10 0.963528 0.871095 0.999721
#
# Coordination Sequence:
#
# PCOD8147423 Si02
#       4
#     8   8   8   8
#     4  12  28  46  71 103 142 181 233 289 346 410
#     4   9  20  40  69  98 133 176 225 282 336 406
#     4  11  26  42  67 102 139 177 233 281 347 411
#     4  10  22  43  71  94 136 181 230 276 350 402
#
# _framework density 21.135245000000001
#
# number of rings (size 3 to 8) (size 9 to 14) (size 15 to 20)
#    0.000    1.500    0.000    3.000   17.500    0.000 
#    0.000    2.500    0.000    0.000    0.000    0.000 
#    0.000    0.000    0.000    0.000    0.000    0.000 
#
# Total GULP energy -198324.767808 kJ/mol
# GULP energy per Si atom -12395.297988 kJ/mol
# Density = 2.108714 g / cm^3
# Si number density = 21.135245 Si / 1000 Ang^3
#
#
#
# Elastic Constant Matrix: (Units=GPa)
#
#
# Indices 1 2 3 4 5 6 
#
# 1 110.1537 70.7620 55.8830 0.0000 12.9939 0.0000
# 2 70.7620 142.8686 58.4269 0.0000 -10.0189 0.0000
# 3 55.8830 58.4269 116.5619 0.0000 -3.1630 0.0000
# 4 0.0000 0.0000 0.0000 12.1578 0.0000 -10.1188
# 5 12.9939 -10.0189 -3.1630 0.0000 25.2893 0.0000
# 6 0.0000 0.0000 0.0000 -10.1188 0.0000 47.8876
#
#
#
# Elastic Compliance Matrix: (Units=1/GPa)
#
#
# Indices 1 2 3 4 5 6 
#
# 1 0.018333 -0.007880 -0.005198 0.000000 -0.013192 0.000000
# 2 -0.007880 0.012415 -0.002210 0.000000 0.008691 0.000000
# 3 -0.005198 -0.002210 0.012269 0.000000 0.003330 0.000000
# 4 0.000000 0.000000 0.000000 0.099804 0.000000 0.021089
# 5 -0.013192 0.008691 0.003330 0.000000 0.050180 0.000000
# 6 0.000000 0.000000 0.000000 0.021089 0.000000 0.025338
#
#
# Mechanical properties :
#
#
# Convention : Reuss Voigt Hill
#
# Bulk Modulus (GPa) = 80.36382 82.19201 81.27791
# Shear Modulus (GPa) = 19.75805 29.36775 24.56290
#
# Velocity S-wave (km/s) = 3.06083 3.73166 3.41277
# Velocity P-wave (km/s) = 7.11321 7.58552 7.35316
#
# Compressibility (1/GPa) = 0.01244341
#
# Stress axis : x y z
#
# Youngs Moduli (GPa) = 54.54627 80.54559 81.50675
#
# Poissons Ratio (x) = 0.63468 0.42364
# Poissons Ratio (y) = 0.42981 0.18010
# Poissons Ratio (z) = 0.28351 0.17797
#
# Static dielectric constant tensor:
#      x y z
#    x 4.182960 0.000000 2.331390 
#    y 0.000000 3.853810 0.000000 
#    z 2.331390 0.000000 17.468370 
# 
# 
# High freq. dielectric constant tensor:
#      x y z
#    x 1.832330 0.000000 -0.005620 
#    y 0.000000 1.836340 0.000000 
#    z -0.005620 0.000000 1.840270 
# 
# From -- ./inp_files/75516.got.cif
#   From: 2010.06.25/outbox.cif.g09.slc.cpg/sg15_38_cif.got.tgz:75516.got - 2010.06.28 07:06:18.
