data_PCOD8147488
_publ_section_title
;
Structure prediction by ZEFSAII (Michael W. Deem and Ramdas Pophale) SiO2 
 PCOD8147488
Probable space group: C 2/C
;
_chemical_formula_sum "Si O2"
_cell_formula_units_Z 64
_cell_length_a 26.557972
_cell_length_b 13.338410
_cell_length_c 15.021755
_cell_angle_alpha 90.000000
_cell_angle_beta 35.316613
_cell_angle_gamma 90.000000
_cell_volume 3076.226354
_symmetry_space_group_name_H-M "C 2/C"
_symmetry_group_IT_number 15
_symmetry_cell_setting 'monoclinic'
loop_
_space_group_symop_operation_xyz
x,y,z
-x,y,1/2-z
-x,-y,-z
x,-y,1/2+z
1/2+x,1/2+y,z
1/2-x,1/2+y,1/2-z
1/2-x,1/2-y,-z
1/2+x,1/2-y,1/2+z
loop_
_atom_site_type_symbol
_atom_site_label
_atom_site_fract_x
_atom_site_fract_y
_atom_site_fract_z
Si Si1 0.803245 0.519887 0.460378
Si Si2 0.525288 0.619711 0.618397
Si Si3 0.833493 0.496315 0.609757
Si Si4 0.649190 0.563776 0.931204
Si Si5 0.357094 0.351237 0.248100
Si Si6 0.098928 0.631485 0.327569
Si Si7 0.093489 0.690676 0.929584
Si Si8 0.252269 0.164177 0.924818
O O1 0.838146 0.463303 0.499322
O O2 0.734439 0.604790 0.587537
O O3 0.881566 0.563051 0.286943
O O4 0.753481 0.441346 0.471955
O O5 0.500000 0.665930 0.750000
O O6 0.572722 0.513550 0.566780
O O7 0.436534 0.605648 0.691504
O O8 0.590020 0.699388 0.478631
O O9 0.735816 0.499194 0.788290
O O10 0.883722 0.421596 0.602894
O O11 0.875302 0.607383 0.545345
O O12 0.619217 0.620623 0.886611
O O13 0.669238 0.649019 0.978038
O O14 0.344839 0.231696 0.267640
O O15 0.998684 0.659641 0.476949
O O16 0.160549 0.691414 0.752663
O O17 0.250000 0.250000 0.000000
#
# Coordination Sequence:
#
# PCOD8147488 Si02
#       8
#     8   8   8   8   8   8   8   8
#     4  11  23  41  67  98 124 177 220 272 335 398
#     4  11  24  41  69  96 133 172 218 277 331 394
#     4  10  23  38  67  92 130 171 212 275 328 394
#     4  10  22  44  63  96 125 176 217 270 335 387
#     4  10  24  40  66 100 130 170 221 278 335 394
#     4  11  22  43  65  93 137 168 223 278 329 396
#     4  10  24  43  63  97 132 173 216 278 331 388
#     4  11  25  45  69  94 133 177 224 268 338 406
#
# _framework density 20.804711000000001
#
# number of rings (size 3 to 8) (size 9 to 14) (size 15 to 20)
#    0.000    1.500    2.500    1.875    8.750    2.000 
#    4.500    0.000    0.000    0.000    0.000    0.000 
#    0.000    0.000    0.000    0.000    0.000    0.000 
#
# Total GULP energy -396708.337798 kJ/mol
# GULP energy per Si atom -12397.135556 kJ/mol
# Density = 2.075736 g / cm^3
# Si number density = 20.804711 Si / 1000 Ang^3
#
#
#
# Elastic Constant Matrix: (Units=GPa)
#
#
# Indices 1 2 3 4 5 6 
#
# 1 140.7434 43.2968 58.2617 0.0000 23.2927 0.0000
# 2 43.2968 82.1563 39.5504 0.0000 8.1456 0.0000
# 3 58.2617 39.5504 73.9982 0.0000 15.3541 0.0000
# 4 0.0000 0.0000 0.0000 27.5170 0.0000 2.5091
# 5 23.2927 8.1456 15.3541 0.0000 32.2138 0.0000
# 6 0.0000 0.0000 0.0000 2.5091 0.0000 39.0623
#
#
#
# Elastic Compliance Matrix: (Units=1/GPa)
#
#
# Indices 1 2 3 4 5 6 
#
# 1 0.011349 -0.002266 -0.006815 0.000000 -0.004385 0.000000
# 2 -0.002266 0.016841 -0.007406 0.000000 0.000910 0.000000
# 3 -0.006815 -0.007406 0.023778 0.000000 -0.004533 0.000000
# 4 0.000000 0.000000 0.000000 0.036555 0.000000 -0.002348
# 5 -0.004385 0.000910 -0.004533 0.000000 0.036144 0.000000
# 6 0.000000 0.000000 0.000000 -0.002348 0.000000 0.025751
#
#
# Mechanical properties :
#
#
# Convention : Reuss Voigt Hill
#
# Bulk Modulus (GPa) = 52.64405 64.34618 58.49512
# Shear Modulus (GPa) = 26.35427 30.14455 28.24941
#
# Velocity S-wave (km/s) = 3.56300 3.81061 3.68888
# Velocity P-wave (km/s) = 6.50273 7.09625 6.80596
#
# Compressibility (1/GPa) = 0.01899550
#
# Stress axis : x y z
#
# Youngs Moduli (GPa) = 88.11587 59.37874 42.05513
#
# Poissons Ratio (x) = 0.13452 0.28659
# Poissons Ratio (y) = 0.19963 0.31147
# Poissons Ratio (z) = 0.60047 0.43977
#
# Static dielectric constant tensor:
#      x y z
#    x 3.855090 0.000000 0.150860 
#    y 0.000000 3.715330 0.000000 
#    z 0.150860 0.000000 3.703670 
# 
# 
# High freq. dielectric constant tensor:
#      x y z
#    x 1.829470 0.000000 0.009650 
#    y 0.000000 1.810980 0.000000 
#    z 0.009650 0.000000 1.809900 
# 
# From -- ./inp_files/177816.got.cif
#   From: 2010.06.25/outbox.cif.g09.slc.cpg/sg15_89_cif.got.tgz:177816.got - 2010.06.28 07:06:18.
