data_PCOD8147596
_publ_section_title
;
Structure prediction by ZEFSAII (Michael W. Deem and Ramdas Pophale) SiO2 
 PCOD8147596
Probable space group: C 2/C
;
_chemical_formula_sum "Si O2"
_cell_formula_units_Z 48
_cell_length_a 15.320196
_cell_length_b 16.447916
_cell_length_c 9.890885
_cell_angle_alpha 90.000000
_cell_angle_beta 121.236949
_cell_angle_gamma 90.000000
_cell_volume 2131.040553
_symmetry_space_group_name_H-M "C 2/C"
_symmetry_group_IT_number 15
_symmetry_cell_setting 'monoclinic'
loop_
_space_group_symop_operation_xyz
x,y,z
-x,y,1/2-z
-x,-y,-z
x,-y,1/2+z
1/2+x,1/2+y,z
1/2-x,1/2+y,1/2-z
1/2-x,1/2-y,-z
1/2+x,1/2-y,1/2+z
loop_
_atom_site_type_symbol
_atom_site_label
_atom_site_fract_x
_atom_site_fract_y
_atom_site_fract_z
Si Si1 0.281637 0.481738 0.390103
Si Si2 0.441949 0.301021 0.831233
Si Si3 0.106982 0.951243 0.276771
Si Si4 0.923090 0.228559 0.797792
Si Si5 0.217997 0.364073 0.711448
Si Si6 0.819167 0.326312 0.100642
O O1 0.378821 0.480483 0.366455
O O2 0.308890 0.503605 0.565170
O O3 0.202111 0.550742 0.275770
O O4 0.234766 0.391322 0.344621
O O5 0.500000 0.344287 0.750000
O O6 0.340216 0.350457 0.789315
O O7 0.414585 0.209344 0.759251
O O8 0.519370 0.294217 0.017299
O O9 0.120969 0.854257 0.302306
O O10 0.000000 0.980129 0.250000
O O11 0.828814 0.289390 0.741628
O O12 0.000000 0.268135 0.750000
O O13 0.154888 0.370720 0.519978
O O14 0.750000 0.250000 0.000000
#
# Coordination Sequence:
#
# PCOD8147596 Si02
#       6
#     8   8   8   8   8   8
#     4  12  24  42  66  98 140 180 220 289 350 401
#     4  11  23  41  75  97 132 189 234 273 327 422
#     4  11  24  40  62 100 143 173 222 281 349 417
#     4  11  25  45  68 102 136 179 232 280 345 406
#     4  11  23  43  69 102 137 173 231 285 342 402
#     4  10  22  44  67  95 128 183 231 267 332 415
#
# _framework density 22.524207000000001
#
# number of rings (size 3 to 8) (size 9 to 14) (size 15 to 20)
#    0.000    1.000    3.333    4.500    2.333    4.667 
#    0.000    1.667    0.000    0.000    0.000    0.000 
#    0.000    0.000    0.000    0.000    0.000    0.000 
#
# Total GULP energy -297501.621890 kJ/mol
# GULP energy per Si atom -12395.900912 kJ/mol
# Density = 2.247294 g / cm^3
# Si number density = 22.524207 Si / 1000 Ang^3
#
#
#
# Elastic Constant Matrix: (Units=GPa)
#
#
# Indices 1 2 3 4 5 6 
#
# 1 100.8266 26.4009 11.2775 0.0000 -14.5580 0.0000
# 2 26.4009 127.4853 27.6595 0.0000 3.6101 0.0000
# 3 11.2775 27.6595 60.0050 0.0000 -17.3790 0.0000
# 4 0.0000 0.0000 0.0000 32.2137 0.0000 -7.1730
# 5 -14.5580 3.6101 -17.3790 0.0000 28.7207 0.0000
# 6 0.0000 0.0000 0.0000 -7.1730 0.0000 22.4878
#
#
#
# Elastic Compliance Matrix: (Units=1/GPa)
#
#
# Indices 1 2 3 4 5 6 
#
# 1 0.011525 -0.002827 0.001130 0.000000 0.006881 0.000000
# 2 -0.002827 0.009865 -0.005808 0.000000 -0.006187 0.000000
# 3 0.001130 -0.005808 0.023653 0.000000 0.015615 0.000000
# 4 0.000000 0.000000 0.000000 0.033416 0.000000 0.010659
# 5 0.006881 -0.006187 0.015615 0.000000 0.048532 0.000000
# 6 0.000000 0.000000 0.000000 0.010659 0.000000 0.047868
#
#
# Mechanical properties :
#
#
# Convention : Reuss Voigt Hill
#
# Bulk Modulus (GPa) = 33.29671 46.55476 39.92573
# Shear Modulus (GPa) = 25.01497 31.54970 28.28234
#
# Velocity S-wave (km/s) = 3.33615 3.74666 3.54735
# Velocity P-wave (km/s) = 5.44561 6.27935 5.87728
#
# Compressibility (1/GPa) = 0.03003300
#
# Stress axis : x y z
#
# Youngs Moduli (GPa) = 86.76538 101.37115 42.27862
#
# Poissons Ratio (x) = 0.28655 -0.04777
# Poissons Ratio (y) = 0.24526 0.24555
# Poissons Ratio (z) = -0.09803 0.58875
#
# Static dielectric constant tensor:
#      x y z
#    x 4.079640 0.000000 -0.297920 
#    y 0.000000 4.266150 0.000000 
#    z -0.297920 0.000000 4.255460 
# 
# 
# High freq. dielectric constant tensor:
#      x y z
#    x 1.877070 0.000000 -0.028610 
#    y 0.000000 1.892260 0.000000 
#    z -0.028610 0.000000 1.878790 
# 
# From -- ./inp_files/97176.got.cif
#   From: 2010.06.25/outbox.cif.g09.slc.cpg/sg15_49_cif.got.tgz:97176.got - 2010.06.28 07:06:18.
