data_PCOD8147402
_publ_section_title
;
Structure prediction by ZEFSAII (Michael W. Deem and Ramdas Pophale) SiO2 
 PCOD8147402
Probable space group: C 2/C
;
_chemical_formula_sum "Si O2"
_cell_formula_units_Z 48
_cell_length_a 16.863559
_cell_length_b 8.190314
_cell_length_c 29.638315
_cell_angle_alpha 90.000000
_cell_angle_beta 151.856527
_cell_angle_gamma 90.000000
_cell_volume 1930.864210
_symmetry_space_group_name_H-M "C 2/C"
_symmetry_group_IT_number 15
_symmetry_cell_setting 'monoclinic'
loop_
_space_group_symop_operation_xyz
x,y,z
-x,y,1/2-z
-x,-y,-z
x,-y,1/2+z
1/2+x,1/2+y,z
1/2-x,1/2+y,1/2-z
1/2-x,1/2-y,-z
1/2+x,1/2-y,1/2+z
loop_
_atom_site_type_symbol
_atom_site_label
_atom_site_fract_x
_atom_site_fract_y
_atom_site_fract_z
Si Si1 0.606496 0.607443 0.258818
Si Si2 0.281400 0.256087 0.948749
Si Si3 0.007042 0.871610 0.368949
Si Si4 0.814524 0.590099 0.750108
Si Si5 0.963487 0.466415 0.415689
Si Si6 0.107997 0.872109 0.583089
O O1 0.500000 0.564958 0.250000
O O2 0.510693 0.542475 0.166196
O O3 0.611005 0.802494 0.253273
O O4 0.794582 0.533441 0.355683
O O5 0.099426 0.250472 0.880826
O O6 0.252869 0.312632 0.883428
O O7 0.389019 0.388275 0.032071
O O8 0.378197 0.081922 0.995257
O O9 0.822053 0.802575 0.289154
O O10 0.951655 0.530836 0.855013
O O11 0.707319 0.441990 0.675493
O O12 0.000301 0.284235 0.453677
O O13 0.000000 0.000000 0.500000
#
# Coordination Sequence:
#
# PCOD8147402 Si02
#       6
#     8   8   8   8   8   8
#     4  11  23  44  67  99 135 181 233 282 346 410
#     4  11  23  44  71 101 137 178 232 284 353 407
#     4  10  22  43  70  98 135 180 228 280 343 420
#     4  11  24  46  69 100 140 182 229 285 342 414
#     4  11  23  44  73  96 136 188 225 283 354 407
#     4  12  24  40  67 104 137 174 230 288 336 413
#
# _framework density 24.859335999999999
#
# number of rings (size 3 to 8) (size 9 to 14) (size 15 to 20)
#    0.000    1.000    3.333    3.500    2.333    1.333 
#    6.000    4.167    0.000    0.000    0.000    0.000 
#    0.000    0.000    0.000    0.000    0.000    0.000 
#
# Total GULP energy -297417.507237 kJ/mol
# GULP energy per Si atom -12392.396135 kJ/mol
# Density = 2.480275 g / cm^3
# Si number density = 24.859336 Si / 1000 Ang^3
#
#
#
# Elastic Constant Matrix: (Units=GPa)
#
#
# Indices 1 2 3 4 5 6 
#
# 1 116.1855 33.4720 26.2979 0.0002 -16.4873 -0.0002
# 2 33.4720 103.4490 30.6441 0.0002 -13.3640 -0.0001
# 3 26.2979 30.6441 52.6695 0.0001 -13.3321 0.0000
# 4 0.0002 0.0002 0.0001 33.2214 -0.0001 -11.8561
# 5 -16.4873 -13.3640 -13.3321 -0.0001 37.9680 0.0001
# 6 -0.0002 -0.0001 0.0000 -11.8561 0.0001 36.2936
#
#
#
# Elastic Compliance Matrix: (Units=1/GPa)
#
#
# Indices 1 2 3 4 5 6 
#
# 1 0.010307 -0.002017 -0.003314 0.000000 0.002602 0.000000
# 2 -0.002017 0.012200 -0.005735 0.000000 0.001404 0.000000
# 3 -0.003314 -0.005735 0.025357 0.000000 0.005446 0.000000
# 4 0.000000 0.000000 0.000000 0.034074 0.000000 0.011131
# 5 0.002602 0.001404 0.005446 0.000000 0.029874 0.000000
# 6 0.000000 0.000000 0.000000 0.011131 0.000000 0.031189
#
#
# Mechanical properties :
#
#
# Convention : Reuss Voigt Hill
#
# Bulk Modulus (GPa) = 38.86496 50.34801 44.60649
# Shear Modulus (GPa) = 28.78345 33.62260 31.20303
#
# Velocity S-wave (km/s) = 3.40641 3.68164 3.54670
# Velocity P-wave (km/s) = 5.58027 6.19434 5.89530
#
# Compressibility (1/GPa) = 0.02573012
#
# Stress axis : x y z
#
# Youngs Moduli (GPa) = 97.01701 81.96973 39.43760
#
# Poissons Ratio (x) = 0.16535 0.13070
# Poissons Ratio (y) = 0.19570 0.22619
# Poissons Ratio (z) = 0.32154 0.47013
#
# Static dielectric constant tensor:
#      x y z
#    x 4.799310 0.000000 -0.161500 
#    y 0.000000 4.503460 0.000000 
#    z -0.161500 0.000000 4.330770 
# 
# 
# High freq. dielectric constant tensor:
#      x y z
#    x 2.005000 0.000000 -0.022200 
#    y 0.000000 1.982340 0.000000 
#    z -0.022200 0.000000 1.969950 
# 
# From -- ./inp_files/315782.got.cif
#   From: 2010.06.25/outbox.cif.g09.slc.cpg/sg15_158_cif.got.tgz:315782.got - 2010.06.28 07:06:18.
