data_PCOD8147980
_publ_section_title
;
Structure prediction by ZEFSAII (Michael W. Deem and Ramdas Pophale) SiO2 
 PCOD8147980
Probable space group: C 2/C
;
_chemical_formula_sum "Si O2"
_cell_formula_units_Z 44
_cell_length_a 25.043084
_cell_length_b 9.309446
_cell_length_c 24.464108
_cell_angle_alpha 90.000000
_cell_angle_beta 21.164760
_cell_angle_gamma 90.000000
_cell_volume 2059.252831
_symmetry_space_group_name_H-M "C 2/C"
_symmetry_group_IT_number 15
_symmetry_cell_setting 'monoclinic'
loop_
_space_group_symop_operation_xyz
x,y,z
-x,y,1/2-z
-x,-y,-z
x,-y,1/2+z
1/2+x,1/2+y,z
1/2-x,1/2+y,1/2-z
1/2-x,1/2-y,-z
1/2+x,1/2-y,1/2+z
loop_
_atom_site_type_symbol
_atom_site_label
_atom_site_fract_x
_atom_site_fract_y
_atom_site_fract_z
Si Si1 0.655420 0.328266 0.544301
Si Si2 0.805597 0.773616 0.301087
Si Si3 0.517686 0.066568 0.042083
Si Si4 0.500000 0.877362 0.750000
Si Si5 0.578205 0.896448 0.264788
Si Si6 0.092755 0.859863 0.087953
O O1 0.750000 0.250000 0.500000
O O2 0.511134 0.238037 0.672119
O O3 0.752812 0.340251 0.395358
O O4 0.609538 0.490657 0.604569
O O5 0.686852 0.881508 0.387703
O O6 0.896219 0.691609 0.166729
O O7 0.716149 0.657265 0.422737
O O8 0.926187 0.857729 0.222195
O O9 0.485671 0.942223 0.116442
O O10 0.500000 0.000000 0.000000
O O11 0.384503 0.773614 0.891899
O O12 0.420259 0.973707 0.780756
#
# Coordination Sequence:
#
# PCOD8147980 Si02
#       6
#     8   8   8   4   8   8
#     4  12  26  42  62 102 147 184 220 279 353 414
#     4  10  22  47  71 104 129 180 242 285 336 416
#     4  11  25  49  72  97 139 175 236 295 338 410
#     4  12  22  40  72 102 134 184 224 286 334 412
#     4  12  26  44  64 102 143 177 234 281 343 414
#     4  11  24  41  71  99 145 180 234 279 346 413
#
# _framework density 21.366973999999999
#
# number of rings (size 3 to 8) (size 9 to 14) (size 15 to 20)
#    0.000    0.727    7.273    0.000    5.091    4.364 
#    0.000    1.818    0.000    0.000    0.000    0.000 
#    0.000    0.000    0.000    0.000    0.000    0.000 
#
# Total GULP energy -272669.839861 kJ/mol
# GULP energy per Si atom -12394.083630 kJ/mol
# Density = 2.131834 g / cm^3
# Si number density = 21.366974 Si / 1000 Ang^3
#
#
#
# Elastic Constant Matrix: (Units=GPa)
#
#
# Indices 1 2 3 4 5 6 
#
# 1 96.9473 40.6240 37.7763 0.0001 15.5863 0.0006
# 2 40.6240 138.6810 40.4983 0.0118 1.7118 -0.0035
# 3 37.7763 40.4983 137.5891 0.0080 -6.4387 -0.0038
# 4 0.0001 0.0118 0.0080 32.7970 0.0007 3.8409
# 5 15.5863 1.7118 -6.4387 0.0007 32.3484 -0.0007
# 6 0.0006 -0.0035 -0.0038 3.8409 -0.0007 38.8461
#
#
#
# Elastic Compliance Matrix: (Units=1/GPa)
#
#
# Indices 1 2 3 4 5 6 
#
# 1 0.014051 -0.003064 -0.003296 0.000002 -0.007264 -0.000001
# 2 -0.003064 0.008582 -0.001653 -0.000003 0.000693 0.000001
# 3 -0.003296 -0.001653 0.008820 -0.000002 0.003431 0.000001
# 4 0.000002 -0.000003 -0.000002 0.030848 -0.000002 -0.003050
# 5 -0.007264 0.000693 0.003431 -0.000002 0.035060 0.000001
# 6 -0.000001 0.000001 0.000001 -0.003050 0.000001 0.026044
#
#
# Mechanical properties :
#
#
# Convention : Reuss Voigt Hill
#
# Bulk Modulus (GPa) = 64.81458 67.89052 66.35255
# Shear Modulus (GPa) = 34.58489 37.75290 36.16889
#
# Velocity S-wave (km/s) = 4.02757 4.20799 4.11876
# Velocity P-wave (km/s) = 7.21306 7.44662 7.33077
#
# Compressibility (1/GPa) = 0.01542863
#
# Stress axis : x y z
#
# Youngs Moduli (GPa) = 71.17029 116.51910 113.37992
#
# Poissons Ratio (x) = 0.35699 0.37369
# Poissons Ratio (y) = 0.21805 0.18736
# Poissons Ratio (z) = 0.23457 0.19255
#
# Static dielectric constant tensor:
#      x y z
#    x 3.526560 0.000000 0.011690 
#    y 0.000000 3.852230 0.000000 
#    z 0.011690 0.000000 4.337540 
# 
# 
# High freq. dielectric constant tensor:
#      x y z
#    x 1.797540 0.000000 -0.004410 
#    y 0.000000 1.847380 0.000000 
#    z -0.004410 0.000000 1.870750 
# 
# From -- ./inp_files/68415.got.cif
#   From: 2010.06.25/outbox.cif.g09.slc.cpg/sg15_35_cif.got.tgz:68415.got - 2010.06.28 07:06:18.
