data_PCOD8147768
_publ_section_title
;
Structure prediction by ZEFSAII (Michael W. Deem and Ramdas Pophale) SiO2 
 PCOD8147768
Probable space group: C 2/C
;
_chemical_formula_sum "Si O2"
_cell_formula_units_Z 40
_cell_length_a 16.383792
_cell_length_b 11.309481
_cell_length_c 9.376212
_cell_angle_alpha 90.000000
_cell_angle_beta 86.935383
_cell_angle_gamma 90.000000
_cell_volume 1734.854193
_symmetry_space_group_name_H-M "C 2/C"
_symmetry_group_IT_number 15
_symmetry_cell_setting 'monoclinic'
loop_
_space_group_symop_operation_xyz
x,y,z
-x,y,1/2-z
-x,-y,-z
x,-y,1/2+z
1/2+x,1/2+y,z
1/2-x,1/2+y,1/2-z
1/2-x,1/2-y,-z
1/2+x,1/2-y,1/2+z
loop_
_atom_site_type_symbol
_atom_site_label
_atom_site_fract_x
_atom_site_fract_y
_atom_site_fract_z
Si Si1 0.660152 0.048230 0.324286
Si Si2 0.417577 0.238374 0.997087
Si Si3 0.000000 0.581752 0.750000
Si Si4 0.000000 0.150162 0.750000
Si Si5 0.909539 0.996331 0.942278
Si Si6 0.251159 0.612416 0.028750
O O1 0.568732 0.000455 0.312704
O O2 0.716483 0.949703 0.390507
O O3 0.656497 0.162399 0.428802
O O4 0.696783 0.083751 0.169871
O O5 0.481406 0.267719 0.117000
O O6 0.463669 0.164223 0.874668
O O7 0.382267 0.359107 0.928791
O O8 0.920653 0.065914 0.790385
O O9 0.843520 0.066205 0.044083
O O10 0.000000 0.000000 0.000000
O O11 0.250000 0.750000 0.000000
#
# Coordination Sequence:
#
# PCOD8147768 Si02
#       6
#     8   8   4   4   8   8
#     4  12  28  48  74 112 145 199 246 310 376 450
#     4  11  24  45  76 105 151 189 249 301 368 450
#     4  12  26  48  72 116 148 196 246 306 386 452
#     4  10  22  44  78 108 142 196 240 300 370 450
#     4  10  25  45  73 109 143 196 244 300 370 444
#     4  12  30  49  76 109 155 195 251 314 378 444
#
# _framework density 23.056692000000002
#
# number of rings (size 3 to 8) (size 9 to 14) (size 15 to 20)
#    0.000    0.800    2.000    3.000   16.800    2.400 
#    0.000    0.000    0.000    0.000    0.000    0.000 
#    0.000    0.000    0.000    0.000    0.000    0.000 
#
# Total GULP energy -248010.366906 kJ/mol
# GULP energy per Si atom -12400.518345 kJ/mol
# Density = 2.300421 g / cm^3
# Si number density = 23.056692 Si / 1000 Ang^3
#
#
#
# Elastic Constant Matrix: (Units=GPa)
#
#
# Indices 1 2 3 4 5 6 
#
# 1 97.3216 40.4515 6.2134 0.0000 -10.6171 0.0000
# 2 40.4515 169.0247 39.3607 0.0000 -12.2498 0.0000
# 3 6.2134 39.3607 98.3377 0.0000 -16.5155 0.0000
# 4 0.0000 0.0000 0.0000 28.5669 0.0000 3.8040
# 5 -10.6171 -12.2498 -16.5155 0.0000 42.6769 0.0000
# 6 0.0000 0.0000 0.0000 3.8040 0.0000 26.4827
#
#
#
# Elastic Compliance Matrix: (Units=1/GPa)
#
#
# Indices 1 2 3 4 5 6 
#
# 1 0.011649 -0.002797 0.000787 0.000000 0.002400 0.000000
# 2 -0.002797 0.007230 -0.002658 0.000000 0.000351 0.000000
# 3 0.000787 -0.002658 0.011859 0.000000 0.004022 0.000000
# 4 0.000000 0.000000 0.000000 0.035688 0.000000 -0.005126
# 5 0.002400 0.000351 0.004022 0.000000 0.025686 0.000000
# 6 0.000000 0.000000 0.000000 -0.005126 0.000000 0.038497
#
#
# Mechanical properties :
#
#
# Convention : Reuss Voigt Hill
#
# Bulk Modulus (GPa) = 46.72792 59.63724 53.18258
# Shear Modulus (GPa) = 33.99489 38.12253 36.05871
#
# Velocity S-wave (km/s) = 3.84396 4.07065 3.95893
# Velocity P-wave (km/s) = 6.32550 6.92930 6.63427
#
# Compressibility (1/GPa) = 0.02140048
#
# Stress axis : x y z
#
# Youngs Moduli (GPa) = 85.84102 138.30880 84.32533
#
# Poissons Ratio (x) = 0.38688 -0.06633
# Poissons Ratio (y) = 0.24012 0.22416
# Poissons Ratio (z) = -0.06752 0.36767
#
# Static dielectric constant tensor:
#      x y z
#    x 3.963210 0.000000 -0.368540 
#    y 0.000000 4.770750 0.000000 
#    z -0.368540 0.000000 4.544560 
# 
# 
# High freq. dielectric constant tensor:
#      x y z
#    x 1.898780 0.000000 -0.018440 
#    y 0.000000 1.936090 0.000000 
#    z -0.018440 0.000000 1.923810 
# 
# From -- ./inp_files/46151.got.cif
#   From: 2010.06.25/outbox.cif.g09.slc.cpg/sg15_24_cif.got.tgz:46151.got - 2010.06.28 07:06:18.
