data_PCOD8147063
_publ_section_title
;
Structure prediction by ZEFSAII (Michael W. Deem and Ramdas Pophale) SiO2 
 PCOD8147063
Probable space group: C 2/C
;
_chemical_formula_sum "Si O2"
_cell_formula_units_Z 52
_cell_length_a 8.143865
_cell_length_b 23.608326
_cell_length_c 22.838064
_cell_angle_alpha 90.000000
_cell_angle_beta 146.209793
_cell_angle_gamma 90.000000
_cell_volume 2442.023161
_symmetry_space_group_name_H-M "C 2/C"
_symmetry_group_IT_number 15
_symmetry_cell_setting 'monoclinic'
loop_
_space_group_symop_operation_xyz
x,y,z
-x,y,1/2-z
-x,-y,-z
x,-y,1/2+z
1/2+x,1/2+y,z
1/2-x,1/2+y,1/2-z
1/2-x,1/2-y,-z
1/2+x,1/2-y,1/2+z
loop_
_atom_site_type_symbol
_atom_site_label
_atom_site_fract_x
_atom_site_fract_y
_atom_site_fract_z
Si Si1 0.791040 0.606504 0.893451
Si Si2 0.170507 0.559489 0.396298
Si Si3 0.633988 0.840404 0.967475
Si Si4 0.665437 0.731720 0.668651
Si Si5 0.187214 0.965526 0.977484
Si Si6 0.416169 0.496440 0.287029
Si Si7 0.000000 0.794926 0.250000
O O1 0.474444 0.572553 0.805717
O O2 0.764130 0.664836 0.849986
O O3 0.956083 0.621490 0.003276
O O4 0.003868 0.565704 0.918372
O O5 0.096710 0.621650 0.398351
O O6 0.328895 0.525944 0.495604
O O7 0.406120 0.571139 0.414819
O O8 0.908193 0.519679 0.292629
O O9 0.415352 0.788668 0.890235
O O10 0.964224 0.818503 0.081884
O O11 0.612722 0.738956 0.724544
O O12 0.000000 0.716713 0.750000
O O13 0.161915 0.976761 0.901539
O O14 0.500000 0.523234 0.250000
#
# Coordination Sequence:
#
# PCOD8147063 Si02
#       7
#     8   8   8   8   8   8   4
#     4  11  20  40  66  93 124 175 211 258 323 401
#     4  11  23  39  61  94 137 169 206 268 321 383
#     4  10  23  45  66  94 129 167 220 272 331 388
#     4  10  24  47  70  96 126 167 226 288 332 389
#     4  11  23  38  58  99 132 167 215 257 313 396
#     4  12  21  37  60  88 131 169 213 250 305 395
#     4  10  22  42  70 100 122 164 226 266 340 392
#
# _framework density 21.293821000000001
#
# number of rings (size 3 to 8) (size 9 to 14) (size 15 to 20)
#    0.000    1.231    3.846    1.846    2.154    1.846 
#    8.308    2.308    0.000    0.000    0.000    0.000 
#    0.000    0.000    0.000    0.000    0.000    0.000 
#
# Total GULP energy -322118.690816 kJ/mol
# GULP energy per Si atom -12389.180416 kJ/mol
# Density = 2.124535 g / cm^3
# Si number density = 21.293821 Si / 1000 Ang^3
#
#
#
# Elastic Constant Matrix: (Units=GPa)
#
#
# Indices 1 2 3 4 5 6 
#
# 1 87.7569 23.9061 33.0243 0.0004 -0.7014 -0.0012
# 2 23.9061 77.6862 23.6491 0.0002 3.4229 -0.0001
# 3 33.0243 23.6491 90.8700 -0.0059 3.1245 -0.0016
# 4 0.0004 0.0002 -0.0059 32.0877 -0.0002 -11.1568
# 5 -0.7014 3.4229 3.1245 -0.0002 38.9352 -0.0006
# 6 -0.0012 -0.0001 -0.0016 -11.1568 -0.0006 27.9694
#
#
#
# Elastic Compliance Matrix: (Units=1/GPa)
#
#
# Indices 1 2 3 4 5 6 
#
# 1 0.013826 -0.002991 -0.004276 -0.000001 0.000855 0.000000
# 2 -0.002991 0.014661 -0.002690 -0.000001 -0.001127 -0.000001
# 3 -0.004276 -0.002690 0.013290 0.000003 -0.000907 0.000002
# 4 -0.000001 -0.000001 0.000003 0.036183 0.000000 0.014433
# 5 0.000855 -0.001127 -0.000907 0.000000 0.025871 0.000001
# 6 0.000000 -0.000001 0.000002 0.014433 0.000001 0.041511
#
#
# Mechanical properties :
#
#
# Convention : Reuss Voigt Hill
#
# Bulk Modulus (GPa) = 45.73701 46.38580 46.06140
# Shear Modulus (GPa) = 28.97851 31.51403 30.24627
#
# Velocity S-wave (km/s) = 3.69302 3.85120 3.77294
# Velocity P-wave (km/s) = 6.30160 6.45032 6.37640
#
# Compressibility (1/GPa) = 0.02186413
#
# Stress axis : x y z
#
# Youngs Moduli (GPa) = 72.32948 68.20765 75.24526
#
# Poissons Ratio (x) = 0.20398 0.32172
# Poissons Ratio (y) = 0.21631 0.20241
# Poissons Ratio (z) = 0.30926 0.18348
#
# Static dielectric constant tensor:
#      x y z
#    x 3.921390 0.000000 -0.225750 
#    y 0.000000 3.742830 0.000000 
#    z -0.225750 0.000000 3.898440 
# 
# 
# High freq. dielectric constant tensor:
#      x y z
#    x 1.828130 0.000000 -0.019140 
#    y 0.000000 1.819400 0.000000 
#    z -0.019140 0.000000 1.840710 
# 
# From -- ./inp_files/290241.got.cif
#   From: 2010.06.25/outbox.cif.g09.slc.cpg/sg15_146_cif.got.tgz:290241.got - 2010.06.28 07:06:18.
