data_PCOD8147877
_publ_section_title
;
Structure prediction by ZEFSAII (Michael W. Deem and Ramdas Pophale) SiO2 
 PCOD8147877
Probable space group: C 2/C
;
_chemical_formula_sum "Si O2"
_cell_formula_units_Z 44
_cell_length_a 14.597133
_cell_length_b 12.849370
_cell_length_c 11.418395
_cell_angle_alpha 90.000000
_cell_angle_beta 96.657996
_cell_angle_gamma 90.000000
_cell_volume 2127.235747
_symmetry_space_group_name_H-M "C 2/C"
_symmetry_group_IT_number 15
_symmetry_cell_setting 'monoclinic'
loop_
_space_group_symop_operation_xyz
x,y,z
-x,y,1/2-z
-x,-y,-z
x,-y,1/2+z
1/2+x,1/2+y,z
1/2-x,1/2+y,1/2-z
1/2-x,1/2-y,-z
1/2+x,1/2-y,1/2+z
loop_
_atom_site_type_symbol
_atom_site_label
_atom_site_fract_x
_atom_site_fract_y
_atom_site_fract_z
Si Si1 0.317421 0.735049 0.399515
Si Si2 0.000000 0.225677 0.750000
Si Si3 0.145888 0.279766 0.478802
Si Si4 0.502535 0.622897 0.991410
Si Si5 0.160825 0.640440 0.232907
Si Si6 0.892155 0.590155 0.749810
O O1 0.250000 0.750000 0.500000
O O2 0.397773 0.657316 0.448769
O O3 0.261580 0.684385 0.282042
O O4 0.364219 0.842202 0.360392
O O5 0.980285 0.149835 0.854437
O O6 0.086078 0.298622 0.801302
O O7 0.250000 0.250000 0.500000
O O8 0.124133 0.338377 0.596414
O O9 0.140512 0.358405 0.372849
O O10 0.077769 0.181244 0.446012
O O11 0.500000 0.500000 0.000000
O O12 0.161864 0.517846 0.251737
O O13 0.000000 0.570382 0.750000
#
# Coordination Sequence:
#
# PCOD8147877 Si02
#       6
#     8   4   8   8   8   8
#     4  12  26  46  67 105 142 178 235 284 340 424
#     4  10  22  46  62 100 140 170 228 288 336 404
#     4  11  25  46  66 102 142 174 236 290 339 412
#     4  11  26  43  70  97 137 185 226 284 346 408
#     4  11  25  42  73  98 138 181 227 288 349 398
#     4  12  26  46  73 101 138 188 233 288 346 410
#
# _framework density 20.684118999999999
#
# number of rings (size 3 to 8) (size 9 to 14) (size 15 to 20)
#    0.000    0.727    6.364    0.000    5.091    2.182 
#    0.000    0.000    0.000    0.000    0.000    0.000 
#    0.000    0.000    0.000    0.000    0.000    0.000 
#
# Total GULP energy -272786.426133 kJ/mol
# GULP energy per Si atom -12399.383006 kJ/mol
# Density = 2.063704 g / cm^3
# Si number density = 20.684119 Si / 1000 Ang^3
#
#
#
# Elastic Constant Matrix: (Units=GPa)
#
#
# Indices 1 2 3 4 5 6 
#
# 1 126.7262 48.8498 12.9028 0.0000 11.5097 0.0000
# 2 48.8498 172.4478 37.7152 0.0000 -0.6513 0.0000
# 3 12.9028 37.7152 74.5147 0.0000 1.8874 0.0000
# 4 0.0000 0.0000 0.0000 29.9716 0.0000 3.3276
# 5 11.5097 -0.6513 1.8874 0.0000 40.7453 0.0000
# 6 0.0000 0.0000 0.0000 3.3276 0.0000 28.3886
#
#
#
# Elastic Compliance Matrix: (Units=1/GPa)
#
#
# Indices 1 2 3 4 5 6 
#
# 1 0.009133 -0.002548 -0.000226 0.000000 -0.002610 0.000000
# 2 -0.002548 0.007234 -0.003245 0.000000 0.000986 0.000000
# 3 -0.000226 -0.003245 0.015119 0.000000 -0.000688 0.000000
# 4 0.000000 0.000000 0.000000 0.033805 0.000000 -0.003963
# 5 -0.002610 0.000986 -0.000688 0.000000 0.025328 0.000000
# 6 0.000000 0.000000 0.000000 -0.003963 0.000000 0.035690
#
#
# Mechanical properties :
#
#
# Convention : Reuss Voigt Hill
#
# Bulk Modulus (GPa) = 51.41689 63.62493 57.52091
# Shear Modulus (GPa) = 34.52339 38.10252 36.31295
#
# Velocity S-wave (km/s) = 4.08987 4.29664 4.19453
# Velocity P-wave (km/s) = 6.87130 7.44593 7.16438
#
# Compressibility (1/GPa) = 0.01944886
#
# Stress axis : x y z
#
# Youngs Moduli (GPa) = 109.49140 138.23584 66.14062
#
# Poissons Ratio (x) = 0.35217 0.01494
# Poissons Ratio (y) = 0.27894 0.21465
# Poissons Ratio (z) = 0.02473 0.44861
#
# Static dielectric constant tensor:
#      x y z
#    x 3.926310 0.000000 -0.218860 
#    y 0.000000 3.630160 0.000000 
#    z -0.218860 0.000000 3.136860 
# 
# 
# High freq. dielectric constant tensor:
#      x y z
#    x 1.826190 0.000000 0.005000 
#    y 0.000000 1.806580 0.000000 
#    z 0.005000 0.000000 1.819530 
# 
# From -- ./inp_files/94962.got.cif
#   From: 2010.06.25/outbox.cif.g09.slc.cpg/sg15_48_cif.got.tgz:94962.got - 2010.06.28 07:06:18.
