data_PCOD8147440
_publ_section_title
;
Structure prediction by ZEFSAII (Michael W. Deem and Ramdas Pophale) SiO2 
 PCOD8147440
Probable space group: C 2/C
;
_chemical_formula_sum "Si O2"
_cell_formula_units_Z 60
_cell_length_a 23.536646
_cell_length_b 23.652984
_cell_length_c 9.418712
_cell_angle_alpha 90.000000
_cell_angle_beta 150.979804
_cell_angle_gamma 90.000000
_cell_volume 2543.720057
_symmetry_space_group_name_H-M "C 2/C"
_symmetry_group_IT_number 15
_symmetry_cell_setting 'monoclinic'
loop_
_space_group_symop_operation_xyz
x,y,z
-x,y,1/2-z
-x,-y,-z
x,-y,1/2+z
1/2+x,1/2+y,z
1/2-x,1/2+y,1/2-z
1/2-x,1/2-y,-z
1/2+x,1/2-y,1/2+z
loop_
_atom_site_type_symbol
_atom_site_label
_atom_site_fract_x
_atom_site_fract_y
_atom_site_fract_z
Si Si1 0.797095 0.690048 0.652113
Si Si2 0.000000 0.071443 0.750000
Si Si3 0.574373 0.384200 0.704257
Si Si4 0.810136 0.437344 0.627798
Si Si5 0.497598 0.853571 0.411891
Si Si6 0.302562 0.513023 0.893280
Si Si7 0.851109 0.724357 0.064967
Si Si8 0.846100 0.831543 0.212208
O O1 0.750000 0.750000 0.500000
O O2 0.689661 0.652381 0.465372
O O3 0.865523 0.652955 0.683238
O O4 0.880939 0.703619 0.970582
O O5 0.982503 0.110807 0.576166
O O6 0.880764 0.035453 0.495418
O O7 0.466480 0.353315 0.548691
O O8 0.602333 0.445209 0.829536
O O9 0.788004 0.488752 0.687827
O O10 0.777633 0.455885 0.397826
O O11 0.731396 0.384822 0.506009
O O12 0.945514 0.415374 0.927906
O O13 0.500000 0.843252 0.250000
O O14 0.566610 0.803633 0.638455
O O15 0.865103 0.791975 0.113947
O O16 0.717444 0.705550 0.805346
#
# Coordination Sequence:
#
# PCOD8147440 Si02
#       8
#     8   4   8   8   8   8   8   8
#     4  12  29  46  73 112 148 192 250 298 367 444
#     4  12  24  40  72 108 150 182 238 312 362 444
#     4  12  25  41  72 106 148 188 239 305 374 435
#     4  11  25  47  74 102 147 189 250 303 367 437
#     4  11  27  49  76 103 148 200 244 306 363 437
#     4  12  24  46  69 110 141 193 244 307 373 435
#     4  10  24  46  73 105 153 192 245 298 365 456
#     4  10  22  43  72 106 146 193 236 299 377 435
#
# _framework density 23.587502000000001
#
# number of rings (size 3 to 8) (size 9 to 14) (size 15 to 20)
#    0.000    0.800    2.667    4.000    9.333    1.600 
#    2.400    2.667    0.000    0.000    0.000    0.000 
#    0.000    0.000    0.000    0.000    0.000    0.000 
#
# Total GULP energy -372004.353210 kJ/mol
# GULP energy per Si atom -12400.145107 kJ/mol
# Density = 2.353382 g / cm^3
# Si number density = 23.587502 Si / 1000 Ang^3
#
#
#
# Elastic Constant Matrix: (Units=GPa)
#
#
# Indices 1 2 3 4 5 6 
#
# 1 50.2872 13.3488 22.9987 0.0000 -8.0620 0.0000
# 2 13.3488 103.6959 31.2235 0.0000 -2.3902 0.0000
# 3 22.9987 31.2235 101.5428 0.0000 -15.0671 0.0000
# 4 0.0000 0.0000 0.0000 40.9177 0.0000 7.2420
# 5 -8.0620 -2.3902 -15.0671 0.0000 56.0703 0.0000
# 6 0.0000 0.0000 0.0000 7.2420 0.0000 25.0598
#
#
#
# Elastic Compliance Matrix: (Units=1/GPa)
#
#
# Indices 1 2 3 4 5 6 
#
# 1 0.022608 -0.001556 -0.004343 0.000000 0.002017 0.000000
# 2 -0.001556 0.010745 -0.003038 0.000000 -0.000582 0.000000
# 3 -0.004343 -0.003038 0.012138 0.000000 0.002508 0.000000
# 4 0.000000 0.000000 0.000000 0.025757 0.000000 -0.007443
# 5 0.002017 -0.000582 0.002508 0.000000 0.018774 0.000000
# 6 0.000000 0.000000 0.000000 -0.007443 0.000000 0.042056
#
#
# Mechanical properties :
#
#
# Convention : Reuss Voigt Hill
#
# Bulk Modulus (GPa) = 36.20869 43.40754 39.80811
# Shear Modulus (GPa) = 31.41539 36.93988 34.17764
#
# Velocity S-wave (km/s) = 3.65343 3.96166 3.81067
# Velocity P-wave (km/s) = 5.76028 6.27448 6.02287
#
# Compressibility (1/GPa) = 0.02761768
#
# Stress axis : x y z
#
# Youngs Moduli (GPa) = 44.23123 93.06442 82.38644
#
# Poissons Ratio (x) = 0.14483 0.35779
# Poissons Ratio (y) = 0.06883 0.25029
# Poissons Ratio (z) = 0.19209 0.28273
#
# Static dielectric constant tensor:
#      x y z
#    x 4.483090 0.000000 0.127170 
#    y 0.000000 3.024650 0.000000 
#    z 0.127170 0.000000 4.267570 
# 
# 
# High freq. dielectric constant tensor:
#      x y z
#    x 1.935420 0.000000 -0.001390 
#    y 0.000000 1.938600 0.000000 
#    z -0.001390 0.000000 1.935140 
# 
# From -- ./inp_files/64127.got.cif
#   From: 2010.06.25/outbox.cif.g09.slc.cpg/sg15_33_cif.got.tgz:64127.got - 2010.06.28 07:06:18.
