data_PCOD8147631
_publ_section_title
;
Structure prediction by ZEFSAII (Michael W. Deem and Ramdas Pophale) SiO2 
 PCOD8147631
Probable space group: C 2/C
;
_chemical_formula_sum "Si O2"
_cell_formula_units_Z 56
_cell_length_a 19.478409
_cell_length_b 8.728201
_cell_length_c 19.288848
_cell_angle_alpha 90.000000
_cell_angle_beta 126.481445
_cell_angle_gamma 90.000000
_cell_volume 2636.739768
_symmetry_space_group_name_H-M "C 2/C"
_symmetry_group_IT_number 15
_symmetry_cell_setting 'monoclinic'
loop_
_space_group_symop_operation_xyz
x,y,z
-x,y,1/2-z
-x,-y,-z
x,-y,1/2+z
1/2+x,1/2+y,z
1/2-x,1/2+y,1/2-z
1/2-x,1/2-y,-z
1/2+x,1/2-y,1/2+z
loop_
_atom_site_type_symbol
_atom_site_label
_atom_site_fract_x
_atom_site_fract_y
_atom_site_fract_z
Si Si1 0.403915 0.150362 0.672759
Si Si2 0.030783 0.844546 0.051303
Si Si3 0.307827 0.842244 0.630094
Si Si4 0.782276 0.825115 0.682865
Si Si5 0.809329 0.149778 0.759194
Si Si6 0.867038 0.282728 0.516927
Si Si7 0.877581 0.640845 0.499593
O O1 0.500000 0.099487 0.750000
O O2 0.374961 0.290963 0.704651
O O3 0.398219 0.199476 0.589266
O O4 0.334196 0.019312 0.647404
O O5 0.113200 0.888903 0.144432
O O6 0.048944 0.709950 0.006137
O O7 0.958605 0.788810 0.059993
O O8 0.000000 0.000000 0.000000
O O9 0.343151 0.767715 0.721506
O O10 0.205386 0.814406 0.567242
O O11 0.349947 0.764470 0.588335
O O12 0.767690 0.720715 0.741896
O O13 0.712304 0.792228 0.581073
O O14 0.774269 0.000078 0.700673
O O15 0.871401 0.457496 0.493846
#
# Coordination Sequence:
#
# PCOD8147631 Si02
#       7
#     8   8   8   8   8   8   8
#     4  11  26  42  68  97 133 171 215 270 325 389
#     4  11  27  40  66  97 134 169 217 274 325 381
#     4  10  23  43  68  94 126 173 219 263 324 386
#     4  11  24  45  66  96 132 170 220 264 329 385
#     4  11  25  42  68  98 127 173 217 273 318 388
#     4  10  22  44  68  94 128 175 215 265 326 390
#     4  10  23  45  66  97 129 176 214 265 333 385
#
# _framework density 21.238348999999999
#
# number of rings (size 3 to 8) (size 9 to 14) (size 15 to 20)
#    0.000    1.429    1.429    1.714   12.000    1.143 
#    0.000    0.000    0.000    0.000    0.000    0.000 
#    0.000    0.000    0.000    0.000    0.000    0.000 
#
# Total GULP energy -347242.600789 kJ/mol
# GULP energy per Si atom -12401.521457 kJ/mol
# Density = 2.119001 g / cm^3
# Si number density = 21.238349 Si / 1000 Ang^3
#
#
#
# Elastic Constant Matrix: (Units=GPa)
#
#
# Indices 1 2 3 4 5 6 
#
# 1 114.5865 29.0156 38.0602 0.0000 -6.3580 0.0000
# 2 29.0156 52.6792 29.5169 0.0000 -4.1455 0.0000
# 3 38.0602 29.5169 120.2410 0.0000 -18.6308 0.0000
# 4 0.0000 0.0000 0.0000 31.7476 0.0000 -2.0331
# 5 -6.3580 -4.1455 -18.6308 0.0000 23.2681 0.0000
# 6 0.0000 0.0000 0.0000 -2.0331 0.0000 36.9620
#
#
#
# Elastic Compliance Matrix: (Units=1/GPa)
#
#
# Indices 1 2 3 4 5 6 
#
# 1 0.010638 -0.004610 -0.002184 0.000000 0.000337 0.000000
# 2 -0.004610 0.024012 -0.004530 0.000000 -0.000608 0.000000
# 3 -0.002184 -0.004530 0.011305 0.000000 0.007648 0.000000
# 4 0.000000 0.000000 0.000000 0.031610 0.000000 0.001739
# 5 0.000337 -0.000608 0.007648 0.000000 0.049085 0.000000
# 6 0.000000 0.000000 0.000000 0.001739 0.000000 0.027150
#
#
# Mechanical properties :
#
#
# Convention : Reuss Voigt Hill
#
# Bulk Modulus (GPa) = 42.90105 53.41023 48.15564
# Shear Modulus (GPa) = 27.14214 31.12314 29.13264
#
# Velocity S-wave (km/s) = 3.57876 3.83224 3.70766
# Velocity P-wave (km/s) = 6.10904 6.69208 6.40720
#
# Compressibility (1/GPa) = 0.02330945
#
# Stress axis : x y z
#
# Youngs Moduli (GPa) = 94.00063 41.64603 88.45813
#
# Poissons Ratio (x) = 0.19197 0.19315
# Poissons Ratio (y) = 0.43330 0.40069
# Poissons Ratio (z) = 0.20525 0.18864
#
# Static dielectric constant tensor:
#      x y z
#    x 3.924790 0.000000 -0.135190 
#    y 0.000000 -14.113440 0.000000 
#    z -0.135190 0.000000 3.931840 
# 
# 
# High freq. dielectric constant tensor:
#      x y z
#    x 1.836310 0.000000 -0.011640 
#    y 0.000000 1.829910 0.000000 
#    z -0.011640 0.000000 1.842100 
# 
# From -- ./inp_files/209642.got.cif
#   From: 2010.06.25/outbox.cif.g09.slc.cpg/sg15_105_cif.got.tgz:209642.got - 2010.06.28 07:06:18.
