data_PCOD8147573
_publ_section_title
;
Structure prediction by ZEFSAII (Michael W. Deem and Ramdas Pophale) SiO2 
 PCOD8147573
Probable space group: C 2/C
;
_chemical_formula_sum "Si O2"
_cell_formula_units_Z 64
_cell_length_a 14.879213
_cell_length_b 9.276062
_cell_length_c 27.405318
_cell_angle_alpha 90.000000
_cell_angle_beta 128.469307
_cell_angle_gamma 90.000000
_cell_volume 2961.472984
_symmetry_space_group_name_H-M "C 2/C"
_symmetry_group_IT_number 15
_symmetry_cell_setting 'monoclinic'
loop_
_space_group_symop_operation_xyz
x,y,z
-x,y,1/2-z
-x,-y,-z
x,-y,1/2+z
1/2+x,1/2+y,z
1/2-x,1/2+y,1/2-z
1/2-x,1/2-y,-z
1/2+x,1/2-y,1/2+z
loop_
_atom_site_type_symbol
_atom_site_label
_atom_site_fract_x
_atom_site_fract_y
_atom_site_fract_z
Si Si1 0.438095 0.188019 0.849665
Si Si2 0.982053 0.787396 0.301813
Si Si3 0.390902 0.325479 0.431330
Si Si4 0.693673 0.161478 0.937965
Si Si5 0.595697 0.348333 0.567707
Si Si6 0.198763 0.330940 0.936074
Si Si7 0.151300 0.622236 0.170827
Si Si8 0.590865 0.601905 0.240950
O O1 0.570565 0.232634 0.888918
O O2 0.379271 0.252679 0.877278
O O3 0.380287 0.264952 0.784414
O O4 0.424152 0.018143 0.845108
O O5 0.087518 0.741309 0.372848
O O6 0.000000 0.748130 0.250000
O O7 0.866761 0.711281 0.284422
O O8 0.963430 0.958723 0.301251
O O9 0.264151 0.320170 0.411619
O O10 0.482566 0.284377 0.503683
O O11 0.421775 0.485343 0.422386
O O12 0.403447 0.214556 0.391445
O O13 0.676309 0.994059 0.945939
O O14 0.750000 0.250000 0.000000
O O15 0.704404 0.329967 0.571262
O O16 0.250000 0.250000 0.000000
O O17 0.278812 0.572055 0.197453
O O18 0.500000 0.657797 0.250000
#
# Coordination Sequence:
#
# PCOD8147573 Si02
#       8
#     8   8   8   8   8   8   8   8
#     4  12  25  42  67 102 132 173 224 282 346 398
#     4  11  26  48  70 100 141 185 235 284 345 419
#     4  10  22  44  66  97 137 179 224 273 339 415
#     4  11  23  43  65 104 138 173 220 283 346 402
#     4  10  23  39  69  98 134 178 220 275 346 406
#     4  11  25  44  71 102 138 182 228 280 344 414
#     4  12  25  45  69  98 134 178 235 281 343 409
#     4  11  27  46  69  96 134 184 231 282 344 408
#
# _framework density 21.610866999999999
#
# number of rings (size 3 to 8) (size 9 to 14) (size 15 to 20)
#    0.000    1.000    2.500    3.000    7.000    2.000 
#    2.250    0.000    0.000    0.000    0.000    0.000 
#    0.000    0.000    0.000    0.000    0.000    0.000 
#
# Total GULP energy -396695.862991 kJ/mol
# GULP energy per Si atom -12396.745718 kJ/mol
# Density = 2.156168 g / cm^3
# Si number density = 21.610867 Si / 1000 Ang^3
#
#
#
# Elastic Constant Matrix: (Units=GPa)
#
#
# Indices 1 2 3 4 5 6 
#
# 1 105.0210 36.9910 35.5078 0.0000 -1.8662 0.0000
# 2 36.9910 128.4532 49.2976 0.0000 -24.7235 0.0000
# 3 35.5078 49.2976 100.0750 0.0000 -4.4446 0.0000
# 4 0.0000 0.0000 0.0000 31.5620 0.0000 -0.8593
# 5 -1.8662 -24.7235 -4.4446 0.0000 43.9738 0.0000
# 6 0.0000 0.0000 0.0000 -0.8593 0.0000 34.3709
#
#
#
# Elastic Compliance Matrix: (Units=1/GPa)
#
#
# Indices 1 2 3 4 5 6 
#
# 1 0.011315 -0.002365 -0.002900 0.000000 -0.001143 0.000000
# 2 -0.002365 0.011297 -0.004468 0.000000 0.005800 0.000000
# 3 -0.002900 -0.004468 0.013165 0.000000 -0.001305 0.000000
# 4 0.000000 0.000000 0.000000 0.031705 0.000000 0.000793
# 5 -0.001143 0.005800 -0.001305 0.000000 0.025821 0.000000
# 6 0.000000 0.000000 0.000000 0.000793 0.000000 0.029114
#
#
# Mechanical properties :
#
#
# Convention : Reuss Voigt Hill
#
# Bulk Modulus (GPa) = 61.31466 64.12689 62.72077
# Shear Modulus (GPa) = 33.93921 36.09821 35.01871
#
# Velocity S-wave (km/s) = 3.96721 4.09145 4.02981
# Velocity P-wave (km/s) = 7.02985 7.21511 7.12308
#
# Compressibility (1/GPa) = 0.01630931
#
# Stress axis : x y z
#
# Youngs Moduli (GPa) = 88.37537 88.51781 75.96053
#
# Poissons Ratio (x) = 0.20938 0.22032
# Poissons Ratio (y) = 0.20904 0.33941
# Poissons Ratio (z) = 0.25632 0.39552
#
# Static dielectric constant tensor:
#      x y z
#    x 4.206320 0.000000 0.105100 
#    y 0.000000 4.630310 0.000000 
#    z 0.105100 0.000000 3.559520 
# 
# 
# High freq. dielectric constant tensor:
#      x y z
#    x 1.871630 0.000000 0.009550 
#    y 0.000000 1.852560 0.000000 
#    z 0.009550 0.000000 1.841350 
# 
# From -- ./inp_files/313155.got.cif
#   From: 2010.06.25/outbox.cif.g09.slc.cpg/sg15_157_cif.got.tgz:313155.got - 2010.06.28 07:06:18.
