data_PCOD8147876
_publ_section_title
;
Structure prediction by ZEFSAII (Michael W. Deem and Ramdas Pophale) SiO2 
 PCOD8147876
Probable space group: C 2/C
;
_chemical_formula_sum "Si O2"
_cell_formula_units_Z 52
_cell_length_a 29.192926
_cell_length_b 12.481708
_cell_length_c 11.367815
_cell_angle_alpha 90.000000
_cell_angle_beta 142.944316
_cell_angle_gamma 90.000000
_cell_volume 2496.038137
_symmetry_space_group_name_H-M "C 2/C"
_symmetry_group_IT_number 15
_symmetry_cell_setting 'monoclinic'
loop_
_space_group_symop_operation_xyz
x,y,z
-x,y,1/2-z
-x,-y,-z
x,-y,1/2+z
1/2+x,1/2+y,z
1/2-x,1/2+y,1/2-z
1/2-x,1/2-y,-z
1/2+x,1/2-y,1/2+z
loop_
_atom_site_type_symbol
_atom_site_label
_atom_site_fract_x
_atom_site_fract_y
_atom_site_fract_z
Si Si1 0.659845 0.940256 0.062423
Si Si2 0.191499 0.762710 0.484329
Si Si3 0.546835 0.429533 0.738308
Si Si4 0.707831 0.374434 0.000996
Si Si5 0.470026 0.664369 0.869343
Si Si6 0.761551 0.643683 0.361005
Si Si7 0.500000 0.152654 0.250000
O O1 0.676821 0.857577 0.993853
O O2 0.713244 0.919355 0.284823
O O3 0.673780 0.057646 0.037864
O O4 0.571784 0.925281 0.916669
O O5 0.250000 0.750000 0.500000
O O6 0.118194 0.819672 0.277816
O O7 0.215132 0.832803 0.646554
O O8 0.500000 0.380054 0.750000
O O9 0.518248 0.551370 0.671503
O O10 0.523777 0.345351 0.591088
O O11 0.638732 0.431753 0.928703
O O12 0.697164 0.248817 0.005257
O O13 0.707003 0.396769 0.857511
O O14 0.497250 0.768047 0.854811
#
# Coordination Sequence:
#
# PCOD8147876 Si02
#       7
#     8   8   8   8   8   8   4
#     4  10  23  41  69  88 124 172 215 253 325 383
#     4  10  23  40  63  94 124 162 214 266 310 382
#     4  11  24  38  63  94 124 166 205 266 327 374
#     4  10  24  42  67  95 128 165 214 267 322 379
#     4  10  23  38  62  87 130 160 206 263 320 378
#     4  10  23  42  65  95 125 168 213 266 318 385
#     4  10  22  46  60  94 126 170 212 258 322 386
#
# _framework density 20.833015
#
# number of rings (size 3 to 8) (size 9 to 14) (size 15 to 20)
#    0.000    1.846    0.769    0.923   17.231    1.231 
#    1.385    0.769    0.000    0.000    0.000    0.000 
#    0.000    0.000    0.000    0.000    0.000    0.000 
#
# Total GULP energy -322233.727287 kJ/mol
# GULP energy per Si atom -12393.604896 kJ/mol
# Density = 2.078560 g / cm^3
# Si number density = 20.833015 Si / 1000 Ang^3
#
#
#
# Elastic Constant Matrix: (Units=GPa)
#
#
# Indices 1 2 3 4 5 6 
#
# 1 150.1143 33.3743 58.9554 0.0000 15.7631 0.0000
# 2 33.3743 100.6941 33.4202 0.0000 6.5599 0.0000
# 3 58.9554 33.4202 109.8735 0.0000 18.2975 0.0000
# 4 0.0000 0.0000 0.0000 18.2395 0.0000 11.4186
# 5 15.7631 6.5599 18.2975 0.0000 29.2207 0.0000
# 6 0.0000 0.0000 0.0000 11.4186 0.0000 25.1025
#
#
#
# Elastic Compliance Matrix: (Units=1/GPa)
#
#
# Indices 1 2 3 4 5 6 
#
# 1 0.008728 -0.001468 -0.003916 0.000000 -0.001927 0.000000
# 2 -0.001468 0.011298 -0.002633 0.000000 -0.000096 0.000000
# 3 -0.003916 -0.002633 0.012898 0.000000 -0.005373 0.000000
# 4 0.000000 0.000000 0.000000 0.076655 0.000000 -0.034868
# 5 -0.001927 -0.000096 -0.005373 0.000000 0.038648 0.000000
# 6 0.000000 0.000000 0.000000 -0.034868 0.000000 0.055697
#
#
# Mechanical properties :
#
#
# Convention : Reuss Voigt Hill
#
# Bulk Modulus (GPa) = 59.20366 68.02019 63.61192
# Shear Modulus (GPa) = 22.16433 30.17468 26.16951
#
# Velocity S-wave (km/s) = 3.26529 3.80992 3.54807
# Velocity P-wave (km/s) = 6.53422 7.21631 6.88372
#
# Compressibility (1/GPa) = 0.01689085
#
# Stress axis : x y z
#
# Youngs Moduli (GPa) = 114.57134 88.51425 77.52971
#
# Poissons Ratio (x) = 0.12991 0.30361
# Poissons Ratio (y) = 0.16815 0.20413
# Poissons Ratio (z) = 0.44867 0.23305
#
# Static dielectric constant tensor:
#      x y z
#    x 4.335180 0.000000 0.150230 
#    y 0.000000 3.778010 0.000000 
#    z 0.150230 0.000000 3.760140 
# 
# 
# High freq. dielectric constant tensor:
#      x y z
#    x 1.817530 0.000000 -0.000950 
#    y 0.000000 1.814760 0.000000 
#    z -0.000950 0.000000 1.809350 
# 
# From -- ./inp_files/126493.got.cif
#   From: 2010.06.25/outbox.cif.g09.slc.cpg/sg15_64_cif.got.tgz:126493.got - 2010.06.28 07:06:18.
