data_PCOD8147201
_publ_section_title
;
Structure prediction by ZEFSAII (Michael W. Deem and Ramdas Pophale) SiO2 
 PCOD8147201
Probable space group: C 2/C
;
_chemical_formula_sum "Si O2"
_cell_formula_units_Z 32
_cell_length_a 9.275940
_cell_length_b 13.142265
_cell_length_c 13.729332
_cell_angle_alpha 90.000000
_cell_angle_beta 76.732140
_cell_angle_gamma 90.000000
_cell_volume 1629.024990
_symmetry_space_group_name_H-M "C 2/C"
_symmetry_group_IT_number 15
_symmetry_cell_setting 'monoclinic'
loop_
_space_group_symop_operation_xyz
x,y,z
-x,y,1/2-z
-x,-y,-z
x,-y,1/2+z
1/2+x,1/2+y,z
1/2-x,1/2+y,1/2-z
1/2-x,1/2-y,-z
1/2+x,1/2-y,1/2+z
loop_
_atom_site_type_symbol
_atom_site_label
_atom_site_fract_x
_atom_site_fract_y
_atom_site_fract_z
Si Si1 0.396939 0.250668 0.674897
Si Si2 0.828066 0.903050 0.253659
Si Si3 0.639038 0.456625 0.920569
Si Si4 0.130488 0.575167 0.953212
O O1 0.500000 0.225601 0.750000
O O2 0.231601 0.213867 0.733974
O O3 0.410555 0.368272 0.645876
O O4 0.440454 0.182615 0.572336
O O5 0.735884 0.967746 0.349570
O O6 0.000000 0.905069 0.250000
O O7 0.794741 0.951627 0.153758
O O8 0.500000 0.500000 0.000000
O O9 0.765659 0.409449 0.969054
O O10 0.000000 0.500000 0.000000
#
# Coordination Sequence:
#
# PCOD8147201 Si02
#       4
#     8   8   8   8
#     4  10  23  42  63  93 132 164 220 259 322 381
#     4  10  22  43  63  95 131 170 215 269 317 378
#     4  12  22  42  68  93 131 170 215 264 323 386
#     4  10  23  42  65  94 130 164 219 265 320 383
#
# _framework density 19.643650999999998
#
# number of rings (size 3 to 8) (size 9 to 14) (size 15 to 20)
#    1.500    0.000    2.500    3.000    0.000    0.000 
#    9.000    2.500    0.000    0.000    0.000    0.000 
#    0.000    0.000    0.000    0.000    0.000    0.000 
#
# Total GULP energy -198237.925356 kJ/mol
# GULP energy per Si atom -12389.870335 kJ/mol
# Density = 1.959894 g / cm^3
# Si number density = 19.643651 Si / 1000 Ang^3
#
#
#
# Elastic Constant Matrix: (Units=GPa)
#
#
# Indices 1 2 3 4 5 6 
#
# 1 112.9707 33.4026 48.7560 0.0000 0.4643 0.0000
# 2 33.4026 102.8200 41.1015 0.0000 -9.2248 0.0000
# 3 48.7560 41.1015 111.2474 0.0000 -3.6557 0.0000
# 4 0.0000 0.0000 0.0000 44.3887 0.0000 -0.9888
# 5 0.4643 -9.2248 -3.6557 0.0000 49.6654 0.0000
# 6 0.0000 0.0000 0.0000 -0.9888 0.0000 27.6832
#
#
#
# Elastic Compliance Matrix: (Units=1/GPa)
#
#
# Indices 1 2 3 4 5 6 
#
# 1 0.011279 -0.002052 -0.004211 0.000000 -0.000797 0.000000
# 2 -0.002052 0.011950 -0.003450 0.000000 0.001985 0.000000
# 3 -0.004211 -0.003450 0.012119 0.000000 0.000291 0.000000
# 4 0.000000 0.000000 0.000000 0.022546 0.000000 0.000805
# 5 -0.000797 0.001985 0.000291 0.000000 0.020532 0.000000
# 6 0.000000 0.000000 0.000000 0.000805 0.000000 0.036152
#
#
# Mechanical properties :
#
#
# Convention : Reuss Voigt Hill
#
# Bulk Modulus (GPa) = 62.81288 63.72870 63.27079
# Shear Modulus (GPa) = 35.89039 37.93265 36.91152
#
# Velocity S-wave (km/s) = 4.27906 4.39913 4.33951
# Velocity P-wave (km/s) = 7.51395 7.63648 7.57547
#
# Compressibility (1/GPa) = 0.01592030
#
# Stress axis : x y z
#
# Youngs Moduli (GPa) = 88.65655 83.68374 82.51539
#
# Poissons Ratio (x) = 0.17175 0.34750
# Poissons Ratio (y) = 0.18195 0.28470
# Poissons Ratio (z) = 0.37336 0.28873
#
# Static dielectric constant tensor:
#      x y z
#    x 3.569850 0.000000 0.182560 
#    y 0.000000 3.321120 0.000000 
#    z 0.182560 0.000000 3.856010 
# 
# 
# High freq. dielectric constant tensor:
#      x y z
#    x 1.764930 0.000000 0.012830 
#    y 0.000000 1.744710 0.000000 
#    z 0.012830 0.000000 1.777050 
# 
# From -- ./inp_files/132292.got.cif
#   From: 2010.06.25/outbox.cif.g09.slc.cpg/sg15_67_cif.got.tgz:132292.got - 2010.06.28 07:06:18.
