data_PCOD8147003
_publ_section_title
;
Structure prediction by ZEFSAII (Michael W. Deem and Ramdas Pophale) SiO2 
 PCOD8147003
Probable space group: C 2/C
;
_chemical_formula_sum "Si O2"
_cell_formula_units_Z 44
_cell_length_a 9.883244
_cell_length_b 19.462873
_cell_length_c 11.079877
_cell_angle_alpha 90.000000
_cell_angle_beta 100.153562
_cell_angle_gamma 90.000000
_cell_volume 2097.905949
_symmetry_space_group_name_H-M "C 2/C"
_symmetry_group_IT_number 15
_symmetry_cell_setting 'monoclinic'
loop_
_space_group_symop_operation_xyz
x,y,z
-x,y,1/2-z
-x,-y,-z
x,-y,1/2+z
1/2+x,1/2+y,z
1/2-x,1/2+y,1/2-z
1/2-x,1/2-y,-z
1/2+x,1/2-y,1/2+z
loop_
_atom_site_type_symbol
_atom_site_label
_atom_site_fract_x
_atom_site_fract_y
_atom_site_fract_z
Si Si1 0.684334 0.871723 0.165779
Si Si2 0.443208 0.075302 0.487279
Si Si3 0.684746 0.444612 0.089324
Si Si4 0.000000 0.348980 0.750000
Si Si5 0.267443 0.724713 0.367528
Si Si6 0.387445 0.596768 0.478664
O O1 0.733495 0.921551 0.279491
O O2 0.688353 0.791122 0.204344
O O3 0.525876 0.883089 0.103221
O O4 0.781449 0.889747 0.068855
O O5 0.280529 0.074300 0.490212
O O6 0.467925 0.103764 0.358604
O O7 0.500000 0.000000 0.500000
O O8 0.653125 0.525899 0.094253
O O9 0.541971 0.404101 0.053639
O O10 0.875552 0.298690 0.708128
O O11 0.250000 0.750000 0.500000
O O12 0.374185 0.660280 0.381635
#
# Coordination Sequence:
#
# PCOD8147003 Si02
#       6
#     8   8   8   4   8   8
#     4  11  23  42  70  95 133 175 219 270 329 400
#     4  12  25  41  66 100 131 175 224 268 331 393
#     4  11  24  40  68 103 134 164 219 289 323 383
#     4  12  24  44  72  92 134 184 220 272 326 400
#     4  10  22  42  68  95 126 179 225 253 322 412
#     4  10  22  43  65  98 133 174 221 262 337 394
#
# _framework density 20.973295
#
# number of rings (size 3 to 8) (size 9 to 14) (size 15 to 20)
#    0.000    1.091    5.455    1.091   10.182    0.000 
#    0.000    6.364    0.000    0.000    0.000    0.000 
#    0.000    0.000    0.000    0.000    0.000    0.000 
#
# Total GULP energy -272756.852663 kJ/mol
# GULP energy per Si atom -12398.038757 kJ/mol
# Density = 2.092556 g / cm^3
# Si number density = 20.973295 Si / 1000 Ang^3
#
#
#
# Elastic Constant Matrix: (Units=GPa)
#
#
# Indices 1 2 3 4 5 6 
#
# 1 78.7590 31.1722 9.4904 0.0000 27.9867 0.0000
# 2 31.1722 155.0822 50.1746 0.0000 16.2100 0.0000
# 3 9.4904 50.1746 101.4425 0.0000 24.0340 0.0000
# 4 0.0000 0.0000 0.0000 39.9133 0.0000 7.1225
# 5 27.9867 16.2100 24.0340 0.0000 28.7091 0.0000
# 6 0.0000 0.0000 0.0000 7.1225 0.0000 27.2498
#
#
#
# Elastic Compliance Matrix: (Units=1/GPa)
#
#
# Indices 1 2 3 4 5 6 
#
# 1 0.021993 -0.003677 0.005425 0.000000 -0.023905 0.000000
# 2 -0.003677 0.008340 -0.004384 0.000000 0.002546 0.000000
# 3 0.005425 -0.004384 0.015200 0.000000 -0.015538 0.000000
# 4 0.000000 0.000000 0.000000 0.026280 0.000000 -0.006869
# 5 -0.023905 0.002546 -0.015538 0.000000 0.069706 0.000000
# 6 0.000000 0.000000 0.000000 -0.006869 0.000000 0.038493
#
#
# Mechanical properties :
#
#
# Convention : Reuss Voigt Hill
#
# Bulk Modulus (GPa) = 24.83857 57.43982 41.13920
# Shear Modulus (GPa) = 25.16303 35.47087 30.31695
#
# Velocity S-wave (km/s) = 3.46752 4.11693 3.80610
# Velocity P-wave (km/s) = 5.28207 7.07428 6.24282
#
# Compressibility (1/GPa) = 0.04025996
#
# Stress axis : x y z
#
# Youngs Moduli (GPa) = 45.46851 119.90978 65.78986
#
# Poissons Ratio (x) = 0.44093 -0.35690
# Poissons Ratio (y) = 0.16720 0.28843
# Poissons Ratio (z) = -0.24666 0.52569
#
# Static dielectric constant tensor:
#      x y z
#    x 4.154610 0.000000 0.160560 
#    y 0.000000 4.513230 0.000000 
#    z 0.160560 0.000000 3.736890 
# 
# 
# High freq. dielectric constant tensor:
#      x y z
#    x 1.819340 0.000000 0.020650 
#    y 0.000000 1.841600 0.000000 
#    z 0.020650 0.000000 1.813210 
# 
# From -- ./inp_files/78380.got.cif
#   From: 2010.06.25/outbox.cif.g09.slc.cpg/sg15_40_cif.got.tgz:78380.got - 2010.06.28 07:06:18.
