data_PCOD8147763
_publ_section_title
;
Structure prediction by ZEFSAII (Michael W. Deem and Ramdas Pophale) SiO2 
 PCOD8147763
Probable space group: C 2/C
;
_chemical_formula_sum "Si O2"
_cell_formula_units_Z 52
_cell_length_a 17.744309
_cell_length_b 5.469539
_cell_length_c 25.142882
_cell_angle_alpha 90.000000
_cell_angle_beta 105.810866
_cell_angle_gamma 90.000000
_cell_volume 2347.875324
_symmetry_space_group_name_H-M "C 2/C"
_symmetry_group_IT_number 15
_symmetry_cell_setting 'monoclinic'
loop_
_space_group_symop_operation_xyz
x,y,z
-x,y,1/2-z
-x,-y,-z
x,-y,1/2+z
1/2+x,1/2+y,z
1/2-x,1/2+y,1/2-z
1/2-x,1/2-y,-z
1/2+x,1/2-y,1/2+z
loop_
_atom_site_type_symbol
_atom_site_label
_atom_site_fract_x
_atom_site_fract_y
_atom_site_fract_z
Si Si1 0.832005 0.295308 0.488744
Si Si2 0.353657 0.700279 0.928950
Si Si3 0.859210 0.735032 0.242957
Si Si4 0.789568 0.012840 0.320224
Si Si5 0.509558 0.095451 0.441932
Si Si6 0.500000 0.467135 0.750000
Si Si7 0.067275 0.656733 0.667731
O O1 0.750000 0.250000 0.500000
O O2 0.831290 0.554036 0.456947
O O3 0.901595 0.305423 0.546327
O O4 0.844819 0.055295 0.456681
O O5 0.298092 0.696961 0.866428
O O6 0.443058 0.697194 0.924309
O O7 0.801491 0.591157 0.192374
O O8 0.905947 0.583756 0.296197
O O9 0.801797 0.921057 0.262542
O O10 0.924163 0.871244 0.219940
O O11 0.855258 0.220880 0.342940
O O12 0.500000 0.000000 0.500000
O O13 0.492232 0.898468 0.392285
O O14 0.519587 0.317973 0.700783
#
# Coordination Sequence:
#
# PCOD8147763 Si02
#       7
#     8   8   8   8   8   4   8
#     4  11  25  47  69 105 146 184 234 300 367 436
#     4  11  23  45  73 102 139 184 243 294 358 434
#     4  11  22  43  66 100 136 186 235 295 362 428
#     4  11  22  39  72 100 133 182 242 300 348 424
#     4  10  22  44  76 101 135 187 238 295 357 424
#     4  10  26  44  68  96 150 190 238 296 372 442
#     4  11  22  45  67 101 144 181 244 297 359 438
#
# _framework density 22.147683000000001
#
# number of rings (size 3 to 8) (size 9 to 14) (size 15 to 20)
#    0.000    1.231    3.077    3.231    0.000    1.231 
#    5.538    0.000    0.000    0.000    0.000    0.000 
#    0.000    0.000    0.000    0.000    0.000    0.000 
#
# Total GULP energy -322180.464948 kJ/mol
# GULP energy per Si atom -12391.556344 kJ/mol
# Density = 2.209727 g / cm^3
# Si number density = 22.147683 Si / 1000 Ang^3
#
#
#
# Elastic Constant Matrix: (Units=GPa)
#
#
# Indices 1 2 3 4 5 6 
#
# 1 176.5760 58.7753 75.9734 0.0000 23.3834 0.0000
# 2 58.7753 112.2795 45.9966 -0.0001 -0.1767 0.0001
# 3 75.9734 45.9966 130.7729 0.0000 20.1935 0.0000
# 4 0.0000 -0.0001 0.0000 33.1096 0.0000 0.9322
# 5 23.3834 -0.1767 20.1935 0.0000 27.1784 0.0000
# 6 0.0000 0.0001 0.0000 0.9322 0.0000 37.7960
#
#
#
# Elastic Compliance Matrix: (Units=1/GPa)
#
#
# Indices 1 2 3 4 5 6 
#
# 1 0.008825 -0.003344 -0.003135 0.000000 -0.005285 0.000000
# 2 -0.003344 0.011917 -0.003056 0.000000 0.005225 0.000000
# 3 -0.003135 -0.003056 0.011442 0.000000 -0.005824 0.000000
# 4 0.000000 0.000000 0.000000 0.030224 0.000000 -0.000745
# 5 -0.005285 0.005225 -0.005824 0.000000 0.045703 0.000000
# 6 0.000000 0.000000 0.000000 -0.000745 0.000000 0.026476
#
#
# Mechanical properties :
#
#
# Convention : Reuss Voigt Hill
#
# Bulk Modulus (GPa) = 76.24520 86.79101 81.51810
# Shear Modulus (GPa) = 31.64027 35.54234 33.59131
#
# Velocity S-wave (km/s) = 3.78379 4.01033 3.89870
# Velocity P-wave (km/s) = 7.32052 7.79205 7.55996
#
# Compressibility (1/GPa) = 0.01311558
#
# Stress axis : x y z
#
# Youngs Moduli (GPa) = 113.31524 83.91557 87.39674
#
# Poissons Ratio (x) = 0.28060 0.27396
# Poissons Ratio (y) = 0.37890 0.26705
# Poissons Ratio (z) = 0.35520 0.25642
#
# Static dielectric constant tensor:
#      x y z
#    x 4.353620 0.000000 0.214970 
#    y 0.000000 4.129880 0.000000 
#    z 0.214970 0.000000 4.339060 
# 
# 
# High freq. dielectric constant tensor:
#      x y z
#    x 1.873460 0.000000 0.014190 
#    y 0.000000 1.877240 0.000000 
#    z 0.014190 0.000000 1.868590 
# 
# From -- ./inp_files/297528.got.cif
#   From: 2010.06.25/outbox.cif.g09.slc.cpg/sg15_149_cif.got.tgz:297528.got - 2010.06.28 07:06:18.
