data_PCOD8147883
_publ_section_title
;
Structure prediction by ZEFSAII (Michael W. Deem and Ramdas Pophale) SiO2 
 PCOD8147883
Probable space group: C 2/C
;
_chemical_formula_sum "Si O2"
_cell_formula_units_Z 48
_cell_length_a 8.859800
_cell_length_b 11.205332
_cell_length_c 25.193649
_cell_angle_alpha 90.000000
_cell_angle_beta 111.410994
_cell_angle_gamma 90.000000
_cell_volume 2328.535008
_symmetry_space_group_name_H-M "C 2/C"
_symmetry_group_IT_number 15
_symmetry_cell_setting 'monoclinic'
loop_
_space_group_symop_operation_xyz
x,y,z
-x,y,1/2-z
-x,-y,-z
x,-y,1/2+z
1/2+x,1/2+y,z
1/2-x,1/2+y,1/2-z
1/2-x,1/2-y,-z
1/2+x,1/2-y,1/2+z
loop_
_atom_site_type_symbol
_atom_site_label
_atom_site_fract_x
_atom_site_fract_y
_atom_site_fract_z
Si Si1 0.033864 0.441063 0.429277
Si Si2 0.000000 0.424232 0.250000
Si Si3 0.315210 0.821026 0.318513
Si Si4 0.424758 0.189381 0.020549
Si Si5 0.500000 0.554793 0.750000
Si Si6 0.892833 0.075813 0.944882
Si Si7 0.684187 0.547023 0.173570
O O1 0.047170 0.584176 0.433906
O O2 0.215725 0.398667 0.444400
O O3 0.917503 0.413540 0.365992
O O4 0.956016 0.370498 0.468021
O O5 0.107199 0.333428 0.229434
O O6 0.127498 0.508036 0.297941
O O7 0.128962 0.860564 0.295405
O O8 0.325222 0.686816 0.340654
O O9 0.547347 0.290557 0.053209
O O10 0.250000 0.250000 0.000000
O O11 0.413771 0.475980 0.784487
O O12 0.898204 0.015978 0.887597
O O13 0.000000 0.000000 0.000000
#
# Coordination Sequence:
#
# PCOD8147883 Si02
#       7
#     8   4   8   8   4   8   8
#     4  11  25  43  67  98 131 182 218 275 335 402
#     4  10  22  46  62  98 128 174 224 272 336 388
#     4  11  23  43  68  95 132 169 224 272 336 391
#     4  11  25  44  66  97 139 173 222 272 333 410
#     4  10  26  42  66 100 130 178 222 276 336 396
#     4  12  24  43  70  99 135 178 224 275 342 402
#     4  11  24  43  68  98 133 174 223 278 330 399
#
# _framework density 20.613817999999998
#
# number of rings (size 3 to 8) (size 9 to 14) (size 15 to 20)
#    0.000    1.000    3.333    2.500    2.333    1.333 
#   12.000    0.000    0.000    0.000    0.000    0.000 
#    0.000    0.000    0.000    0.000    0.000    0.000 
#
# Total GULP energy -297579.409111 kJ/mol
# GULP energy per Si atom -12399.142046 kJ/mol
# Density = 2.056690 g / cm^3
# Si number density = 20.613818 Si / 1000 Ang^3
#
#
#
# Elastic Constant Matrix: (Units=GPa)
#
#
# Indices 1 2 3 4 5 6 
#
# 1 128.0958 57.0261 26.5190 0.0000 18.3089 0.0000
# 2 57.0261 173.9009 52.5871 0.0000 15.6633 0.0000
# 3 26.5190 52.5871 93.4917 0.0000 19.8449 0.0000
# 4 0.0000 0.0000 0.0000 20.1891 0.0000 1.9671
# 5 18.3089 15.6633 19.8449 0.0000 35.7928 0.0000
# 6 0.0000 0.0000 0.0000 1.9671 0.0000 33.0754
#
#
#
# Elastic Compliance Matrix: (Units=1/GPa)
#
#
# Indices 1 2 3 4 5 6 
#
# 1 0.009599 -0.002693 -0.000472 0.000000 -0.003470 0.000000
# 2 -0.002693 0.007715 -0.003572 0.000000 -0.000019 0.000000
# 3 -0.000472 -0.003572 0.014118 0.000000 -0.006023 0.000000
# 4 0.000000 0.000000 0.000000 0.049820 0.000000 -0.002963
# 5 -0.003470 -0.000019 -0.006023 0.000000 0.033061 0.000000
# 6 0.000000 0.000000 0.000000 -0.002963 0.000000 0.030410
#
#
# Mechanical properties :
#
#
# Convention : Reuss Voigt Hill
#
# Bulk Modulus (GPa) = 55.68107 74.19476 64.93792
# Shear Modulus (GPa) = 30.45400 35.10188 32.77794
#
# Velocity S-wave (km/s) = 3.84781 4.13102 3.99193
# Velocity P-wave (km/s) = 6.84186 7.66972 7.26759
#
# Compressibility (1/GPa) = 0.01795943
#
# Stress axis : x y z
#
# Youngs Moduli (GPa) = 104.17761 129.61499 70.83405
#
# Poissons Ratio (x) = 0.34899 0.03341
# Poissons Ratio (y) = 0.28050 0.25302
# Poissons Ratio (z) = 0.04913 0.46298
#
# Static dielectric constant tensor:
#      x y z
#    x 3.354440 0.000000 0.128900 
#    y 0.000000 3.844990 0.000000 
#    z 0.128900 0.000000 3.706640 
# 
# 
# High freq. dielectric constant tensor:
#      x y z
#    x 1.825130 0.000000 0.000340 
#    y 0.000000 1.815430 0.000000 
#    z 0.000340 0.000000 1.811020 
# 
# From -- ./inp_files/263129.got.cif
#   From: 2010.06.25/outbox.cif.g09.slc.cpg/sg15_132_cif.got.tgz:263129.got - 2010.06.28 07:06:18.
