data_PCOD8147237
_publ_section_title
;
Structure prediction by ZEFSAII (Michael W. Deem and Ramdas Pophale) SiO2 
 PCOD8147237
Probable space group: C 2/C
;
_chemical_formula_sum "Si O2"
_cell_formula_units_Z 44
_cell_length_a 16.582272
_cell_length_b 8.828996
_cell_length_c 15.080099
_cell_angle_alpha 90.000000
_cell_angle_beta 120.777643
_cell_angle_gamma 90.000000
_cell_volume 1896.851843
_symmetry_space_group_name_H-M "C 2/C"
_symmetry_group_IT_number 15
_symmetry_cell_setting 'monoclinic'
loop_
_space_group_symop_operation_xyz
x,y,z
-x,y,1/2-z
-x,-y,-z
x,-y,1/2+z
1/2+x,1/2+y,z
1/2-x,1/2+y,1/2-z
1/2-x,1/2-y,-z
1/2+x,1/2-y,1/2+z
loop_
_atom_site_type_symbol
_atom_site_label
_atom_site_fract_x
_atom_site_fract_y
_atom_site_fract_z
Si Si1 0.000000 0.419383 0.250000
Si Si2 0.777066 0.634847 0.178964
Si Si3 0.100924 0.129126 0.330825
Si Si4 0.588064 0.548131 0.992681
Si Si5 0.725644 0.968091 0.154821
Si Si6 0.096211 0.624325 0.423425
O O1 0.092162 0.310432 0.306340
O O2 0.005056 0.526940 0.340916
O O3 0.672398 0.572238 0.107597
O O4 0.823011 0.539858 0.285310
O O5 0.833550 0.619839 0.120125
O O6 0.772145 0.808817 0.204164
O O7 0.188881 0.076603 0.323953
O O8 0.000000 0.051010 0.250000
O O9 0.117017 0.087553 0.442740
O O10 0.500000 0.500000 0.000000
O O11 0.566784 0.703860 0.927370
O O12 0.646311 0.954573 0.034901
#
# Coordination Sequence:
#
# PCOD8147237 Si02
#       6
#     4   8   8   8   8   8
#     4  10  28  38  70 100 142 188 232 296 368 414
#     4  11  24  42  73 108 136 197 242 299 371 438
#     4  10  22  43  65 101 139 181 244 290 355 433
#     4  11  22  42  75 103 142 192 246 293 366 438
#     4  11  23  44  73  99 142 188 246 296 366 444
#     4  11  24  48  68 106 152 187 239 313 364 425
#
# _framework density 23.19633
#
# number of rings (size 3 to 8) (size 9 to 14) (size 15 to 20)
#    0.545    0.727    3.636    2.182    3.818    5.091 
#    0.000    1.818    0.000    0.000    0.000    0.000 
#    0.000    0.000    0.000    0.000    0.000    0.000 
#
# Total GULP energy -272693.224673 kJ/mol
# GULP energy per Si atom -12395.146576 kJ/mol
# Density = 2.314353 g / cm^3
# Si number density = 23.196330 Si / 1000 Ang^3
#
#
#
# Elastic Constant Matrix: (Units=GPa)
#
#
# Indices 1 2 3 4 5 6 
#
# 1 96.1692 41.6406 28.1692 0.0000 -17.5178 0.0000
# 2 41.6406 144.2212 88.8897 0.0000 -7.0667 0.0000
# 3 28.1692 88.8897 138.8657 0.0000 -22.7573 0.0000
# 4 0.0000 0.0000 0.0000 53.9195 0.0000 0.6542
# 5 -17.5178 -7.0667 -22.7573 0.0000 32.0699 0.0000
# 6 0.0000 0.0000 0.0000 0.6542 0.0000 34.2586
#
#
#
# Elastic Compliance Matrix: (Units=1/GPa)
#
#
# Indices 1 2 3 4 5 6 
#
# 1 0.013154 -0.004165 0.001160 0.000000 0.007090 0.000000
# 2 -0.004165 0.013037 -0.008377 0.000000 -0.005347 0.000000
# 3 0.001160 -0.008377 0.013725 0.000000 0.008528 0.000000
# 4 0.000000 0.000000 0.000000 0.018550 0.000000 -0.000354
# 5 0.007090 -0.005347 0.008528 0.000000 0.039928 0.000000
# 6 0.000000 0.000000 0.000000 -0.000354 0.000000 0.029197
#
#
# Mechanical properties :
#
#
# Convention : Reuss Voigt Hill
#
# Bulk Modulus (GPa) = 58.30074 77.40613 67.85344
# Shear Modulus (GPa) = 32.03633 38.75336 35.39484
#
# Velocity S-wave (km/s) = 3.72034 4.09181 3.91049
# Velocity P-wave (km/s) = 6.60627 7.46769 7.05015
#
# Compressibility (1/GPa) = 0.01715244
#
# Stress axis : x y z
#
# Youngs Moduli (GPa) = 76.02432 76.70283 72.85786
#
# Poissons Ratio (x) = 0.31950 -0.08452
# Poissons Ratio (y) = 0.31667 0.61030
# Poissons Ratio (z) = -0.08819 0.64251
#
# Static dielectric constant tensor:
#      x y z
#    x 3.922940 0.000000 0.099430 
#    y 0.000000 4.398480 0.000000 
#    z 0.099430 0.000000 4.894050 
# 
# 
# High freq. dielectric constant tensor:
#      x y z
#    x 1.907380 0.000000 -0.000700 
#    y 0.000000 1.925100 0.000000 
#    z -0.000700 0.000000 1.924990 
# 
# From -- ./inp_files/159435.got.cif
#   From: 2010.06.25/outbox.cif.g09.slc.cpg/sg15_80_cif.got.tgz:159435.got - 2010.06.28 07:06:18.
