data_PCOD8147288
_publ_section_title
;
Structure prediction by ZEFSAII (Michael W. Deem and Ramdas Pophale) SiO2 
 PCOD8147288
Probable space group: C 2/C
;
_chemical_formula_sum "Si O2"
_cell_formula_units_Z 48
_cell_length_a 20.641769
_cell_length_b 8.329828
_cell_length_c 21.336260
_cell_angle_alpha 90.000000
_cell_angle_beta 142.346595
_cell_angle_gamma 90.000000
_cell_volume 2241.091336
_symmetry_space_group_name_H-M "C 2/C"
_symmetry_group_IT_number 15
_symmetry_cell_setting 'monoclinic'
loop_
_space_group_symop_operation_xyz
x,y,z
-x,y,1/2-z
-x,-y,-z
x,-y,1/2+z
1/2+x,1/2+y,z
1/2-x,1/2+y,1/2-z
1/2-x,1/2-y,-z
1/2+x,1/2-y,1/2+z
loop_
_atom_site_type_symbol
_atom_site_label
_atom_site_fract_x
_atom_site_fract_y
_atom_site_fract_z
Si Si1 0.138309 0.467173 0.659995
Si Si2 0.076279 0.082616 0.255162
Si Si3 0.232493 0.083511 0.952956
Si Si4 0.910316 0.353832 0.502113
Si Si5 0.611550 0.490560 0.973915
Si Si6 0.747449 0.297507 0.166088
O O1 0.117510 0.598431 0.590190
O O2 0.201176 0.545775 0.764713
O O3 0.209365 0.322348 0.690146
O O4 0.031526 0.396098 0.608175
O O5 0.165347 0.214849 0.310813
O O6 0.000000 0.155454 0.250000
O O7 0.135338 0.922092 0.327790
O O8 0.009035 0.039373 0.141625
O O9 0.250000 0.250000 0.000000
O O10 0.340075 0.039906 0.997514
O O11 0.196853 0.967264 0.982527
O O12 0.884947 0.166401 0.492102
O O13 0.643571 0.354484 0.048124
#
# Coordination Sequence:
#
# PCOD8147288 Si02
#       6
#     8   8   8   8   8   8
#     4  11  26  41  64  95 133 180 220 269 329 395
#     4  10  23  41  65  98 132 168 217 277 333 392
#     4   9  19  42  70  97 130 166 212 276 330 389
#     4  10  22  43  66  95 130 171 224 267 326 402
#     4  10  24  41  70  95 128 175 219 279 337 379
#     4  12  26  43  65  95 136 177 225 273 331 399
#
# _framework density 21.418137999999999
#
# number of rings (size 3 to 8) (size 9 to 14) (size 15 to 20)
#    0.000    1.667    1.667    1.000    7.000    7.333 
#    0.000    1.667    0.000    0.000    0.000    0.000 
#    0.000    0.000    0.000    0.000    0.000    0.000 
#
# Total GULP energy -297485.038096 kJ/mol
# GULP energy per Si atom -12395.209921 kJ/mol
# Density = 2.136939 g / cm^3
# Si number density = 21.418138 Si / 1000 Ang^3
#
#
#
# Elastic Constant Matrix: (Units=GPa)
#
#
# Indices 1 2 3 4 5 6 
#
# 1 127.2400 37.9465 38.6807 0.0000 24.3716 0.0000
# 2 37.9465 89.4198 58.9471 0.0000 6.2006 0.0000
# 3 38.6807 58.9471 134.1698 0.0000 6.8252 0.0000
# 4 0.0000 0.0000 0.0000 36.4432 0.0000 1.8809
# 5 24.3716 6.2006 6.8252 0.0000 29.3703 0.0000
# 6 0.0000 0.0000 0.0000 1.8809 0.0000 32.1241
#
#
#
# Elastic Compliance Matrix: (Units=1/GPa)
#
#
# Indices 1 2 3 4 5 6 
#
# 1 0.010708 -0.003133 -0.001308 0.000000 -0.007920 0.000000
# 2 -0.003133 0.016747 -0.006484 0.000000 0.000571 0.000000
# 3 -0.001308 -0.006484 0.010680 0.000000 -0.000028 0.000000
# 4 0.000000 0.000000 0.000000 0.027523 0.000000 -0.001612
# 5 -0.007920 0.000571 -0.000028 0.000000 0.040506 0.000000
# 6 0.000000 0.000000 0.000000 -0.001612 0.000000 0.031224
#
#
# Mechanical properties :
#
#
# Convention : Reuss Voigt Hill
#
# Bulk Modulus (GPa) = 61.39860 69.10869 65.25364
# Shear Modulus (GPa) = 30.36442 33.93786 32.15114
#
# Velocity S-wave (km/s) = 3.76932 3.98494 3.87863
# Velocity P-wave (km/s) = 6.90453 7.31502 7.11274
#
# Compressibility (1/GPa) = 0.01628702
#
# Stress axis : x y z
#
# Youngs Moduli (GPa) = 93.38738 59.71131 93.63031
#
# Poissons Ratio (x) = 0.18706 0.12245
# Poissons Ratio (y) = 0.29256 0.60707
# Poissons Ratio (z) = 0.12214 0.38715
#
# Static dielectric constant tensor:
#      x y z
#    x 4.350630 0.000000 0.084690 
#    y 0.000000 3.599790 0.000000 
#    z 0.084690 0.000000 3.942650 
# 
# 
# High freq. dielectric constant tensor:
#      x y z
#    x 1.857280 0.000000 0.004430 
#    y 0.000000 1.821470 0.000000 
#    z 0.004430 0.000000 1.844060 
# 
# From -- ./inp_files/252021.got.cif
#   From: 2010.06.25/outbox.cif.g09.slc.cpg/sg15_127_cif.got.tgz:252021.got - 2010.06.28 07:06:18.
