data_PCOD8147225
_publ_section_title
;
Structure prediction by ZEFSAII (Michael W. Deem and Ramdas Pophale) SiO2 
 PCOD8147225
Probable space group: C 2/C
;
_chemical_formula_sum "Si O2"
_cell_formula_units_Z 52
_cell_length_a 27.597160
_cell_length_b 8.488378
_cell_length_c 19.049031
_cell_angle_alpha 90.000000
_cell_angle_beta 151.059193
_cell_angle_gamma 90.000000
_cell_volume 2159.348809
_symmetry_space_group_name_H-M "C 2/C"
_symmetry_group_IT_number 15
_symmetry_cell_setting 'monoclinic'
loop_
_space_group_symop_operation_xyz
x,y,z
-x,y,1/2-z
-x,-y,-z
x,-y,1/2+z
1/2+x,1/2+y,z
1/2-x,1/2+y,1/2-z
1/2-x,1/2-y,-z
1/2+x,1/2-y,1/2+z
loop_
_atom_site_type_symbol
_atom_site_label
_atom_site_fract_x
_atom_site_fract_y
_atom_site_fract_z
Si Si1 0.477431 0.235798 0.459325
Si Si2 0.563122 0.506732 0.496968
Si Si3 0.000000 0.732986 0.250000
Si Si4 0.183069 0.844810 0.026777
Si Si5 0.875108 0.023444 0.680519
Si Si6 0.601835 0.958948 0.220955
Si Si7 0.843442 0.505142 0.551702
O O1 0.567171 0.324666 0.529286
O O2 0.407246 0.374109 0.402865
O O3 0.510680 0.130739 0.567760
O O4 0.407575 0.140480 0.316450
O O5 0.630369 0.539142 0.514819
O O6 0.446237 0.549269 0.330305
O O7 0.939676 0.831769 0.231342
O O8 0.914756 0.623586 0.104334
O O9 0.162906 0.657547 0.007480
O O10 0.143552 0.888809 0.900009
O O11 0.299145 0.878039 0.183264
O O12 0.766302 0.070953 0.573367
O O13 0.601072 0.951705 0.304250
#
# Coordination Sequence:
#
# PCOD8147225 Si02
#       7
#     8   8   4   8   8   8   8
#     4  10  23  40  66  90 133 190 216 275 329 403
#     4  11  22  41  66  95 135 178 227 270 340 408
#     4  12  24  36  66 104 136 180 218 284 358 412
#     4  11  23  41  70  98 134 175 228 291 343 413
#     4  11  22  44  65 101 140 172 222 297 356 403
#     4  10  22  43  64  94 133 176 228 274 337 407
#     4  11  25  41  70 103 135 180 226 291 357 406
#
# _framework density 24.081333000000001
#
# number of rings (size 3 to 8) (size 9 to 14) (size 15 to 20)
#    0.000    1.231    1.538    5.077    4.308    2.462 
#    0.000    0.000    0.000    0.000    0.000    0.000 
#    0.000    0.000    0.000    0.000    0.000    0.000 
#
# Total GULP energy -322182.902720 kJ/mol
# GULP energy per Si atom -12391.650105 kJ/mol
# Density = 2.402652 g / cm^3
# Si number density = 24.081333 Si / 1000 Ang^3
#
#
#
# Elastic Constant Matrix: (Units=GPa)
#
#
# Indices 1 2 3 4 5 6 
#
# 1 50.0382 12.7926 21.8210 0.0000 9.9220 0.0000
# 2 12.7926 120.7573 23.9921 0.0000 7.8272 0.0000
# 3 21.8210 23.9921 34.0136 0.0000 0.5448 0.0000
# 4 0.0000 0.0000 0.0000 43.7655 0.0000 -1.2037
# 5 9.9220 7.8272 0.5448 0.0000 40.3785 0.0000
# 6 0.0000 0.0000 0.0000 -1.2037 0.0000 39.1726
#
#
#
# Elastic Compliance Matrix: (Units=1/GPa)
#
#
# Indices 1 2 3 4 5 6 
#
# 1 0.029777 0.001268 -0.019881 0.000000 -0.007294 0.000000
# 2 0.001268 0.009814 -0.007702 0.000000 -0.002110 0.000000
# 3 -0.019881 -0.007702 0.047495 0.000000 0.005737 0.000000
# 4 0.000000 0.000000 0.000000 0.022868 0.000000 0.000703
# 5 -0.007294 -0.002110 0.005737 0.000000 0.026890 0.000000
# 6 0.000000 0.000000 0.000000 0.000703 0.000000 0.025550
#
#
# Mechanical properties :
#
#
# Convention : Reuss Voigt Hill
#
# Bulk Modulus (GPa) = 29.02208 35.78007 32.40107
# Shear Modulus (GPa) = 22.07432 34.41019 28.24225
#
# Velocity S-wave (km/s) = 3.03092 3.78420 3.42831
# Velocity P-wave (km/s) = 4.93219 5.82957 5.39955
#
# Compressibility (1/GPa) = 0.03445653
#
# Stress axis : x y z
#
# Youngs Moduli (GPa) = 33.58351 101.89777 21.05479
#
# Poissons Ratio (x) = -0.12923 0.41858
# Poissons Ratio (y) = -0.04259 0.16217
# Poissons Ratio (z) = 0.66766 0.78483
#
# Static dielectric constant tensor:
#      x y z
#    x 4.186660 0.000000 0.000840 
#    y 0.000000 4.655850 0.000000 
#    z 0.000840 0.000000 4.391310 
# 
# 
# High freq. dielectric constant tensor:
#      x y z
#    x 1.942390 0.000000 -0.008300 
#    y 0.000000 1.971250 0.000000 
#    z -0.008300 0.000000 1.941510 
# 
# From -- ./inp_files/258863.got.cif
#   From: 2010.06.25/outbox.cif.g09.slc.cpg/sg15_130_cif.got.tgz:258863.got - 2010.06.28 07:06:18.
