data_PCOD8147866
_publ_section_title
;
Structure prediction by ZEFSAII (Michael W. Deem and Ramdas Pophale) SiO2 
 PCOD8147866
Probable space group: C 2/C
;
_chemical_formula_sum "Si O2"
_cell_formula_units_Z 36
_cell_length_a 10.331094
_cell_length_b 24.568994
_cell_length_c 5.398886
_cell_angle_alpha 90.000000
_cell_angle_beta 92.474344
_cell_angle_gamma 90.000000
_cell_volume 1369.092347
_symmetry_space_group_name_H-M "C 2/C"
_symmetry_group_IT_number 15
_symmetry_cell_setting 'monoclinic'
loop_
_space_group_symop_operation_xyz
x,y,z
-x,y,1/2-z
-x,-y,-z
x,-y,1/2+z
1/2+x,1/2+y,z
1/2-x,1/2+y,1/2-z
1/2-x,1/2-y,-z
1/2+x,1/2-y,1/2+z
loop_
_atom_site_type_symbol
_atom_site_label
_atom_site_fract_x
_atom_site_fract_y
_atom_site_fract_z
Si Si1 0.166413 0.831771 0.572937
Si Si2 0.000000 0.090972 0.750000
Si Si3 0.241810 0.533081 0.840474
Si Si4 0.341741 0.222990 0.702378
Si Si5 0.390856 0.872814 0.928417
O O1 0.052409 0.871711 0.479001
O O2 0.262397 0.820094 0.356343
O O3 0.098171 0.773696 0.639826
O O4 0.251077 0.861085 0.791281
O O5 0.110744 0.053874 0.638594
O O6 0.217337 0.491878 0.066569
O O7 0.137353 0.581504 0.866542
O O8 0.250000 0.250000 0.500000
O O9 0.443228 0.184046 0.559376
O O10 0.500000 0.893920 0.750000
#
# Coordination Sequence:
#
# PCOD8147866 Si02
#       5
#     8   4   8   8   8
#     4  10  22  45  73 108 152 196 252 309 390 467
#     4  12  24  50  80 114 156 198 254 332 398 472
#     4  12  28  51  79 114 152 204 272 337 403 455
#     4   9  20  46  66 108 147 196 255 299 376 466
#     4  11  25  48  73 106 153 206 260 320 386 467
#
# _framework density 26.294792999999999
#
# number of rings (size 3 to 8) (size 9 to 14) (size 15 to 20)
#    0.000    1.333    2.222    2.000    0.000    4.444 
#   22.000    0.000    0.000    0.000    0.000    0.000 
#    0.000    0.000    0.000    0.000    0.000    0.000 
#
# Total GULP energy -223116.919593 kJ/mol
# GULP energy per Si atom -12395.384422 kJ/mol
# Density = 2.623494 g / cm^3
# Si number density = 26.294793 Si / 1000 Ang^3
#
#
#
# Elastic Constant Matrix: (Units=GPa)
#
#
# Indices 1 2 3 4 5 6 
#
# 1 77.0087 23.5706 11.6989 0.0000 -17.9073 0.0000
# 2 23.5706 141.7810 46.5110 0.0000 -17.4974 0.0000
# 3 11.6989 46.5110 112.4270 0.0000 -9.6317 0.0000
# 4 0.0000 0.0000 0.0000 76.5876 0.0000 -0.1700
# 5 -17.9073 -17.4974 -9.6317 0.0000 54.0834 0.0000
# 6 0.0000 0.0000 0.0000 -0.1700 0.0000 12.2459
#
#
#
# Elastic Compliance Matrix: (Units=1/GPa)
#
#
# Indices 1 2 3 4 5 6 
#
# 1 0.014561 -0.001765 -0.000427 0.000000 0.004174 0.000000
# 2 -0.001765 0.008610 -0.003239 0.000000 0.001624 0.000000
# 3 -0.000427 -0.003239 0.010335 0.000000 0.000651 0.000000
# 4 0.000000 0.000000 0.000000 0.013057 0.000000 0.000181
# 5 0.004174 0.001624 0.000651 0.000000 0.020513 0.000000
# 6 0.000000 0.000000 0.000000 0.000181 0.000000 0.081662
#
#
# Mechanical properties :
#
#
# Convention : Reuss Voigt Hill
#
# Bulk Modulus (GPa) = 44.16466 54.97530 49.56998
# Shear Modulus (GPa) = 29.91328 45.21246 37.56287
#
# Velocity S-wave (km/s) = 3.37651 4.15112 3.78369
# Velocity P-wave (km/s) = 5.65982 6.62785 6.16287
#
# Compressibility (1/GPa) = 0.02264254
#
# Stress axis : x y z
#
# Youngs Moduli (GPa) = 68.67441 116.14951 96.75995
#
# Poissons Ratio (x) = 0.20506 0.04134
# Poissons Ratio (y) = 0.12124 0.31340
# Poissons Ratio (z) = 0.02934 0.37620
#
# Static dielectric constant tensor:
#      x y z
#    x 4.491390 0.000000 -0.068380 
#    y 0.000000 5.379370 0.000000 
#    z -0.068380 0.000000 5.059160 
# 
# 
# High freq. dielectric constant tensor:
#      x y z
#    x 2.047420 0.000000 -0.005450 
#    y 0.000000 2.070520 0.000000 
#    z -0.005450 0.000000 2.072440 
# 
# From -- ./inp_files/4256.got.cif
#   From: 2010.06.25/outbox.cif.g09.slc.cpg/sg15_3_cif.got.tgz:4256.got - 2010.06.28 07:06:18.
