data_PCOD8147737
_publ_section_title
;
Structure prediction by ZEFSAII (Michael W. Deem and Ramdas Pophale) SiO2 
 PCOD8147737
Probable space group: C 2/C
;
_chemical_formula_sum "Si O2"
_cell_formula_units_Z 52
_cell_length_a 9.035981
_cell_length_b 25.532972
_cell_length_c 17.457607
_cell_angle_alpha 90.000000
_cell_angle_beta 38.339477
_cell_angle_gamma 90.000000
_cell_volume 2498.485844
_symmetry_space_group_name_H-M "C 2/C"
_symmetry_group_IT_number 15
_symmetry_cell_setting 'monoclinic'
loop_
_space_group_symop_operation_xyz
x,y,z
-x,y,1/2-z
-x,-y,-z
x,-y,1/2+z
1/2+x,1/2+y,z
1/2-x,1/2+y,1/2-z
1/2-x,1/2-y,-z
1/2+x,1/2-y,1/2+z
loop_
_atom_site_type_symbol
_atom_site_label
_atom_site_fract_x
_atom_site_fract_y
_atom_site_fract_z
Si Si1 0.362407 0.621308 0.009299
Si Si2 0.799539 0.317332 0.386885
Si Si3 0.591278 0.103438 0.536305
Si Si4 0.421764 0.445053 0.633308
Si Si5 0.609745 0.554651 0.786761
Si Si6 0.865393 0.633738 0.151539
Si Si7 0.000000 0.782702 0.750000
O O1 0.536543 0.668683 0.962418
O O2 0.440585 0.596781 0.896640
O O3 0.355823 0.575335 0.075507
O O4 0.099477 0.646653 0.106941
O O5 0.828539 0.341324 0.459269
O O6 0.000000 0.343546 0.250000
O O7 0.844086 0.254435 0.370505
O O8 0.363037 0.080833 0.670709
O O9 0.543360 0.116054 0.468088
O O10 0.797981 0.060840 0.463762
O O11 0.356104 0.505809 0.669693
O O12 0.274772 0.414486 0.756650
O O13 0.500000 0.536915 0.750000
O O14 0.684345 0.682771 0.224350
#
# Coordination Sequence:
#
# PCOD8147737 Si02
#       7
#     8   8   8   8   8   8   4
#     4  11  24  44  66  97 138 171 218 286 325 388
#     4   9  21  44  65  95 129 169 220 268 335 396
#     4  11  22  42  69  91 134 175 221 279 324 397
#     4  11  26  42  62  94 137 181 219 268 330 399
#     4  12  23  39  68 100 129 178 231 266 328 390
#     4  12  23  43  66  97 135 173 219 282 329 388
#     4  10  22  44  72  94 130 174 228 266 346 400
#
# _framework density 20.812604
#
# number of rings (size 3 to 8) (size 9 to 14) (size 15 to 20)
#    0.462    0.615    4.615    1.846    2.154    2.462 
#    5.538    0.000    3.385    0.000    0.000    0.000 
#    0.000    0.000    0.000    0.000    0.000    0.000 
#
# Total GULP energy -322405.546158 kJ/mol
# GULP energy per Si atom -12400.213314 kJ/mol
# Density = 2.076523 g / cm^3
# Si number density = 20.812604 Si / 1000 Ang^3
#
#
#
# Elastic Constant Matrix: (Units=GPa)
#
#
# Indices 1 2 3 4 5 6 
#
# 1 128.2787 39.1602 46.6278 0.0000 -22.9787 0.0001
# 2 39.1602 101.9442 44.3650 0.0000 -25.5446 0.0000
# 3 46.6278 44.3650 80.4366 0.0000 -12.0935 0.0002
# 4 0.0000 0.0000 0.0000 7.6719 0.0000 -10.2666
# 5 -22.9787 -25.5446 -12.0935 0.0000 37.9405 -0.0001
# 6 0.0001 0.0000 0.0002 -10.2666 -0.0001 4.8678
#
#
#
# Elastic Compliance Matrix: (Units=1/GPa)
#
#
# Indices 1 2 3 4 5 6 
#
# 1 0.010660 -0.000804 -0.005091 0.000000 0.004292 0.000000
# 2 -0.000804 0.014851 -0.006612 0.000000 0.007404 0.000000
# 3 -0.005091 -0.006612 0.018798 0.000000 -0.001543 0.000000
# 4 0.000000 0.000000 0.000000 -0.071526 0.000000 -0.150853
# 5 0.004292 0.007404 -0.001543 0.000000 0.033450 0.000000
# 6 0.000000 0.000000 0.000000 -0.150853 0.000000 -0.112729
#
#
# Mechanical properties :
#
#
# Convention : Reuss Voigt Hill
#
# Bulk Modulus (GPa) = 51.82403 63.44061 57.63232
# Shear Modulus (GPa) = -66.62247 22.12980 -22.24633
#
# Velocity S-wave (km/s) = -5.66393 3.26435 -3.27293
# Velocity P-wave (km/s) = 4.22127 6.68999 3.66993
#
# Compressibility (1/GPa) = 0.01929607
#
# Stress axis : x y z
#
# Youngs Moduli (GPa) = 93.80573 67.33635 53.19719
#
# Poissons Ratio (x) = 0.05413 0.27082
# Poissons Ratio (y) = 0.07541 0.35173
# Poissons Ratio (z) = 0.47755 0.44521
#
# Static dielectric constant tensor:
#      x y z
#    x 3.754600 0.000000 -0.022030 
#    y 0.000000 3.532620 0.000000 
#    z -0.022030 0.000000 3.920540 
# 
# 
# High freq. dielectric constant tensor:
#      x y z
#    x 1.815810 0.000000 -0.000170 
#    y 0.000000 1.795470 0.000000 
#    z -0.000170 0.000000 1.834440 
# 
# From -- ./inp_files/193673.got.cif
#   From: 2010.06.25/outbox.cif.g09.slc.cpg/sg15_97_cif.got.tgz:193673.got - 2010.06.28 07:06:18.
