data_PCOD8147138
_publ_section_title
;
Structure prediction by ZEFSAII (Michael W. Deem and Ramdas Pophale) SiO2 
 PCOD8147138
Probable space group: C 2/C
;
_chemical_formula_sum "Si O2"
_cell_formula_units_Z 60
_cell_length_a 18.487391
_cell_length_b 5.270152
_cell_length_c 28.675948
_cell_angle_alpha 90.000000
_cell_angle_beta 107.846682
_cell_angle_gamma 90.000000
_cell_volume 2659.492429
_symmetry_space_group_name_H-M "C 2/C"
_symmetry_group_IT_number 15
_symmetry_cell_setting 'monoclinic'
loop_
_space_group_symop_operation_xyz
x,y,z
-x,y,1/2-z
-x,-y,-z
x,-y,1/2+z
1/2+x,1/2+y,z
1/2-x,1/2+y,1/2-z
1/2-x,1/2-y,-z
1/2+x,1/2-y,1/2+z
loop_
_atom_site_type_symbol
_atom_site_label
_atom_site_fract_x
_atom_site_fract_y
_atom_site_fract_z
Si Si1 0.483826 0.734791 0.346969
Si Si2 0.000000 0.098727 0.250000
Si Si3 0.099979 0.271827 0.650077
Si Si4 0.232926 0.336242 0.607532
Si Si5 0.368600 0.041334 0.598452
Si Si6 0.705743 0.001282 0.504653
Si Si7 0.858698 0.820635 0.175109
Si Si8 0.205968 0.397757 0.751755
O O1 0.470422 0.765376 0.288209
O O2 0.452224 0.475130 0.361356
O O3 0.448539 0.972933 0.367973
O O4 0.574105 0.732615 0.376016
O O5 0.930353 0.935940 0.216241
O O6 0.164055 0.227853 0.624015
O O7 0.136909 0.294270 0.707762
O O8 0.193898 0.502220 0.558214
O O9 0.289011 0.489988 0.652483
O O10 0.281743 0.109288 0.594787
O O11 0.370972 0.992522 0.542778
O O12 0.390392 0.792886 0.632830
O O13 0.750000 0.250000 0.500000
O O14 0.750000 0.750000 0.500000
O O15 0.822632 0.597908 0.200397
O O16 0.227824 0.683701 0.741160
#
# Coordination Sequence:
#
# PCOD8147138 Si02
#       8
#     8   4   8   8   8   8   8   8
#     4  12  28  45  66  97 146 185 228 280 343 426
#     4  12  26  44  64 102 136 194 228 272 336 418
#     4  12  27  44  65 101 143 181 227 285 353 409
#     4  11  24  45  73 101 136 178 233 296 346 408
#     4  11  25  44  74 100 137 183 239 286 349 411
#     4  10  22  42  72 106 132 170 236 300 348 400
#     4  12  24  40  69  97 137 179 233 280 341 409
#     4  12  25  40  61  94 133 176 222 275 339 406
#
# _framework density 22.560697999999999
#
# number of rings (size 3 to 8) (size 9 to 14) (size 15 to 20)
#    0.000    0.533    5.333    2.400    3.733    0.533 
#    0.000    1.333    0.000    0.000    0.000    0.000 
#    0.000    0.000    0.000    0.000    0.000    0.000 
#
# Total GULP energy -371869.510990 kJ/mol
# GULP energy per Si atom -12395.650366 kJ/mol
# Density = 2.250935 g / cm^3
# Si number density = 22.560698 Si / 1000 Ang^3
#
#
#
# Elastic Constant Matrix: (Units=GPa)
#
#
# Indices 1 2 3 4 5 6 
#
# 1 108.3564 40.4945 43.0277 0.0000 -1.1201 0.0003
# 2 40.4945 112.8592 20.6360 -0.0001 5.3327 0.0016
# 3 43.0277 20.6360 151.4838 -0.0002 16.4517 -0.0001
# 4 0.0000 -0.0001 -0.0002 25.4461 0.0002 -3.1421
# 5 -1.1201 5.3327 16.4517 0.0002 23.3955 0.0000
# 6 0.0003 0.0016 -0.0001 -3.1421 0.0000 32.3547
#
#
#
# Elastic Compliance Matrix: (Units=1/GPa)
#
#
# Indices 1 2 3 4 5 6 
#
# 1 0.012032 -0.003893 -0.003298 0.000000 0.003783 0.000000
# 2 -0.003893 0.010383 -0.000034 0.000000 -0.002529 0.000000
# 3 -0.003298 -0.000034 0.008184 0.000000 -0.005905 0.000000
# 4 0.000000 0.000000 0.000000 0.039776 0.000000 0.003863
# 5 0.003783 -0.002529 -0.005905 0.000000 0.047653 0.000000
# 6 0.000000 0.000000 0.000000 0.003863 0.000000 0.031283
#
#
# Mechanical properties :
#
#
# Convention : Reuss Voigt Hill
#
# Bulk Modulus (GPa) = 61.92195 64.55733 63.23964
# Shear Modulus (GPa) = 29.56041 34.14200 31.85121
#
# Velocity S-wave (km/s) = 3.62368 3.89439 3.76147
# Velocity P-wave (km/s) = 6.70928 6.99276 6.85249
#
# Compressibility (1/GPa) = 0.01614936
#
# Stress axis : x y z
#
# Youngs Moduli (GPa) = 83.10829 96.30992 122.18714
#
# Poissons Ratio (x) = 0.37493 0.40300
# Poissons Ratio (y) = 0.32354 0.00415
# Poissons Ratio (z) = 0.27411 0.00327
#
# Static dielectric constant tensor:
#      x y z
#    x 4.080730 0.000000 -0.023410 
#    y 0.000000 4.015930 0.000000 
#    z -0.023410 0.000000 4.824010 
# 
# 
# High freq. dielectric constant tensor:
#      x y z
#    x 1.873140 0.000000 0.004780 
#    y 0.000000 1.892230 0.000000 
#    z 0.004780 0.000000 1.897010 
# 
# From -- ./inp_files/315078.got.cif
#   From: 2010.06.25/outbox.cif.g09.slc.cpg/sg15_158_cif.got.tgz:315078.got - 2010.06.28 07:06:18.
