data_PCOD8147342
_publ_section_title
;
Structure prediction by ZEFSAII (Michael W. Deem and Ramdas Pophale) SiO2 
 PCOD8147342
Probable space group: C 2/C
;
_chemical_formula_sum "Si O2"
_cell_formula_units_Z 40
_cell_length_a 9.070505
_cell_length_b 14.852474
_cell_length_c 15.070753
_cell_angle_alpha 90.000000
_cell_angle_beta 63.850369
_cell_angle_gamma 90.000000
_cell_volume 1822.511989
_symmetry_space_group_name_H-M "C 2/C"
_symmetry_group_IT_number 15
_symmetry_cell_setting 'monoclinic'
loop_
_space_group_symop_operation_xyz
x,y,z
-x,y,1/2-z
-x,-y,-z
x,-y,1/2+z
1/2+x,1/2+y,z
1/2-x,1/2+y,1/2-z
1/2-x,1/2-y,-z
1/2+x,1/2-y,1/2+z
loop_
_atom_site_type_symbol
_atom_site_label
_atom_site_fract_x
_atom_site_fract_y
_atom_site_fract_z
Si Si1 0.181130 0.678057 0.712504
Si Si2 0.820321 0.040528 0.540120
Si Si3 0.137214 0.369505 0.551097
Si Si4 0.285562 0.175348 0.065003
Si Si5 0.158950 0.800615 0.155394
O O1 0.300358 0.610529 0.627200
O O2 0.208931 0.781832 0.674104
O O3 0.196306 0.681948 0.814060
O O4 0.000000 0.641572 0.750000
O O5 0.808091 0.087636 0.446477
O O6 0.670400 0.968194 0.583001
O O7 0.000000 0.000000 0.500000
O O8 0.134208 0.303608 0.636392
O O9 0.297950 0.352652 0.446588
O O10 0.973854 0.354138 0.535296
O O11 0.250000 0.250000 0.000000
O O12 0.000000 0.837534 0.250000
#
# Coordination Sequence:
#
# PCOD8147342 Si02
#       5
#     8   8   8   8   8
#     4  11  24  44  68  98 140 179 229 278 339 417
#     4  11  25  43  69 102 137 177 229 286 347 402
#     4  11  24  42  71  98 141 179 227 287 346 399
#     4  10  22  43  68  95 133 180 226 275 346 406
#     4  11  22  41  68 101 132 180 229 274 341 408
#
# _framework density 21.947728999999999
#
# number of rings (size 3 to 8) (size 9 to 14) (size 15 to 20)
#    0.000    1.200    2.000    4.200   11.200    0.800 
#    3.600    1.000    0.000    0.000    0.000    0.000 
#    0.000    0.000    0.000    0.000    0.000    0.000 
#
# Total GULP energy -247789.450606 kJ/mol
# GULP energy per Si atom -12389.472530 kJ/mol
# Density = 2.189778 g / cm^3
# Si number density = 21.947729 Si / 1000 Ang^3
#
#
#
# Elastic Constant Matrix: (Units=GPa)
#
#
# Indices 1 2 3 4 5 6 
#
# 1 152.5562 50.2983 32.9059 0.0000 5.0674 0.0000
# 2 50.2983 91.9757 11.1678 0.0000 11.6766 0.0000
# 3 32.9059 11.1678 89.2488 0.0000 3.0357 0.0000
# 4 0.0000 0.0000 0.0000 19.2540 0.0000 0.3312
# 5 5.0674 11.6766 3.0357 0.0000 40.3061 0.0000
# 6 0.0000 0.0000 0.0000 0.3312 0.0000 36.8616
#
#
#
# Elastic Compliance Matrix: (Units=1/GPa)
#
#
# Indices 1 2 3 4 5 6 
#
# 1 0.008562 -0.004415 -0.002618 0.000000 0.000400 0.000000
# 2 -0.004415 0.013718 0.000028 0.000000 -0.003421 0.000000
# 3 -0.002618 0.000028 0.012187 0.000000 -0.000597 0.000000
# 4 0.000000 0.000000 0.000000 0.051945 0.000000 -0.000467
# 5 0.000400 -0.003421 -0.000597 0.000000 0.025796 0.000000
# 6 0.000000 0.000000 0.000000 -0.000467 0.000000 0.027133
#
#
# Mechanical properties :
#
#
# Convention : Reuss Voigt Hill
#
# Bulk Modulus (GPa) = 48.88588 58.05829 53.47209
# Shear Modulus (GPa) = 31.21682 35.24491 33.23087
#
# Velocity S-wave (km/s) = 3.77546 4.01166 3.89535
# Velocity P-wave (km/s) = 6.42866 6.92592 6.68191
#
# Compressibility (1/GPa) = 0.02045580
#
# Stress axis : x y z
#
# Youngs Moduli (GPa) = 116.79434 72.89755 82.05675
#
# Poissons Ratio (x) = 0.32186 0.21482
# Poissons Ratio (y) = 0.51567 -0.00227
# Poissons Ratio (z) = 0.30576 -0.00202
#
# Static dielectric constant tensor:
#      x y z
#    x 4.121090 0.000000 0.423760 
#    y 0.000000 4.183610 0.000000 
#    z 0.423760 0.000000 4.402340 
# 
# 
# High freq. dielectric constant tensor:
#      x y z
#    x 1.878300 0.000000 0.013510 
#    y 0.000000 1.853310 0.000000 
#    z 0.013510 0.000000 1.857790 
# 
# From -- ./inp_files/133090.got.cif
#   From: 2010.06.25/outbox.cif.g09.slc.cpg/sg15_67_cif.got.tgz:133090.got - 2010.06.28 07:06:18.
