data_PCOD8147376
_publ_section_title
;
Structure prediction by ZEFSAII (Michael W. Deem and Ramdas Pophale) SiO2 
 PCOD8147376
Probable space group: C 2/C
;
_chemical_formula_sum "Si O2"
_cell_formula_units_Z 52
_cell_length_a 30.119317
_cell_length_b 14.648346
_cell_length_c 8.788920
_cell_angle_alpha 90.000000
_cell_angle_beta 141.911809
_cell_angle_gamma 90.000000
_cell_volume 2392.023567
_symmetry_space_group_name_H-M "C 2/C"
_symmetry_group_IT_number 15
_symmetry_cell_setting 'monoclinic'
loop_
_space_group_symop_operation_xyz
x,y,z
-x,y,1/2-z
-x,-y,-z
x,-y,1/2+z
1/2+x,1/2+y,z
1/2-x,1/2+y,1/2-z
1/2-x,1/2-y,-z
1/2+x,1/2-y,1/2+z
loop_
_atom_site_type_symbol
_atom_site_label
_atom_site_fract_x
_atom_site_fract_y
_atom_site_fract_z
Si Si1 0.184718 0.610941 0.627680
Si Si2 0.614134 0.387359 0.573421
Si Si3 0.500000 0.464245 0.750000
Si Si4 0.788375 0.251555 0.764961
Si Si5 0.931152 0.810299 0.746781
Si Si6 0.775038 0.425817 0.928469
Si Si7 0.453103 0.223258 0.267188
O O1 0.246006 0.686294 0.766449
O O2 0.202260 0.522743 0.576496
O O3 0.107677 0.648497 0.363084
O O4 0.180940 0.591934 0.797902
O O5 0.565022 0.473397 0.482216
O O6 0.616221 0.324542 0.728668
O O7 0.690773 0.427350 0.736331
O O8 0.581961 0.323940 0.352979
O O9 0.471684 0.402322 0.810617
O O10 0.750000 0.250000 0.500000
O O11 0.791838 0.351981 0.845082
O O12 0.871647 0.220944 0.962835
O O13 0.992808 0.733574 0.942593
O O14 0.500000 0.191507 0.250000
#
# Coordination Sequence:
#
# PCOD8147376 Si02
#       7
#     8   8   4   8   8   8   8
#     4  12  25  46  72 106 142 185 240 295 356 425
#     4  11  21  39  66 101 141 181 227 285 361 429
#     4  12  24  36  66 104 144 176 228 282 358 438
#     4  12  26  47  72 104 145 187 243 294 352 426
#     4  11  24  42  65 101 143 185 227 291 359 419
#     4  12  25  44  76 106 141 186 242 298 354 419
#     4  10  22  43  69  95 137 187 228 282 357 423
#
# _framework density 21.738916
#
# number of rings (size 3 to 8) (size 9 to 14) (size 15 to 20)
#    0.000    0.615    5.385    4.615    2.154    0.000 
#    0.000    3.077    0.000    0.000    0.000    0.000 
#    0.000    0.000    0.000    0.000    0.000    0.000 
#
# Total GULP energy -322436.125348 kJ/mol
# GULP energy per Si atom -12401.389436 kJ/mol
# Density = 2.168944 g / cm^3
# Si number density = 21.738916 Si / 1000 Ang^3
#
#
#
# Elastic Constant Matrix: (Units=GPa)
#
#
# Indices 1 2 3 4 5 6 
#
# 1 81.3231 53.8246 53.8904 0.0000 17.4085 0.0000
# 2 53.8246 104.0878 47.9477 0.0000 24.8586 0.0000
# 3 53.8904 47.9477 159.0977 0.0000 12.3896 0.0000
# 4 0.0000 0.0000 0.0000 20.4380 0.0000 8.6283
# 5 17.4085 24.8586 12.3896 0.0000 43.7928 0.0000
# 6 0.0000 0.0000 0.0000 8.6283 0.0000 47.3840
#
#
#
# Elastic Compliance Matrix: (Units=1/GPa)
#
#
# Indices 1 2 3 4 5 6 
#
# 1 0.021363 -0.008378 -0.004520 0.000000 -0.002458 0.000000
# 2 -0.008378 0.015909 -0.001547 0.000000 -0.005263 0.000000
# 3 -0.004520 -0.001547 0.008256 0.000000 0.000339 0.000000
# 4 0.000000 0.000000 0.000000 0.053003 0.000000 -0.009651
# 5 -0.002458 -0.005263 0.000339 0.000000 0.026703 0.000000
# 6 0.000000 0.000000 0.000000 -0.009651 0.000000 0.022862
#
#
# Mechanical properties :
#
#
# Convention : Reuss Voigt Hill
#
# Bulk Modulus (GPa) = 60.10066 72.87044 66.48555
# Shear Modulus (GPa) = 27.39250 34.91268 31.15259
#
# Velocity S-wave (km/s) = 3.55359 4.01184 3.78965
# Velocity P-wave (km/s) = 6.67413 7.41979 7.05682
#
# Compressibility (1/GPa) = 0.01663875
#
# Stress axis : x y z
#
# Youngs Moduli (GPa) = 46.80999 62.85773 121.12042
#
# Poissons Ratio (x) = 0.52662 0.54745
# Poissons Ratio (y) = 0.39217 0.18736
# Poissons Ratio (z) = 0.21158 0.09723
#
# Static dielectric constant tensor:
#      x y z
#    x 3.895920 0.000000 0.151550 
#    y 0.000000 3.888400 0.000000 
#    z 0.151550 0.000000 4.068850 
# 
# 
# High freq. dielectric constant tensor:
#      x y z
#    x 1.854500 0.000000 0.008940 
#    y 0.000000 1.843230 0.000000 
#    z 0.008940 0.000000 1.863590 
# 
# From -- ./inp_files/70187.got.cif
#   From: 2010.06.25/outbox.cif.g09.slc.cpg/sg15_36_cif.got.tgz:70187.got - 2010.06.28 07:06:18.
