data_PCOD8147457
_publ_section_title
;
Structure prediction by ZEFSAII (Michael W. Deem and Ramdas Pophale) SiO2 
 PCOD8147457
Probable space group: C 2/C
;
_chemical_formula_sum "Si O2"
_cell_formula_units_Z 40
_cell_length_a 17.284916
_cell_length_b 15.473730
_cell_length_c 10.546462
_cell_angle_alpha 90.000000
_cell_angle_beta 34.504926
_cell_angle_gamma 90.000000
_cell_volume 1597.906744
_symmetry_space_group_name_H-M "C 2/C"
_symmetry_group_IT_number 15
_symmetry_cell_setting 'monoclinic'
loop_
_space_group_symop_operation_xyz
x,y,z
-x,y,1/2-z
-x,-y,-z
x,-y,1/2+z
1/2+x,1/2+y,z
1/2-x,1/2+y,1/2-z
1/2-x,1/2-y,-z
1/2+x,1/2-y,1/2+z
loop_
_atom_site_type_symbol
_atom_site_label
_atom_site_fract_x
_atom_site_fract_y
_atom_site_fract_z
Si Si1 0.686452 0.849137 0.956730
Si Si2 0.477471 0.318851 0.499411
Si Si3 0.285400 0.019254 0.866665
Si Si4 0.500000 0.558456 0.750000
Si Si5 0.483570 0.877855 0.548629
Si Si6 0.000000 0.204922 0.250000
O O1 0.815251 0.825470 0.695426
O O2 0.561867 0.882269 0.037844
O O3 0.634382 0.762795 0.099216
O O4 0.735404 0.924796 0.980811
O O5 0.548831 0.383720 0.304211
O O6 0.519454 0.221350 0.403505
O O7 0.519050 0.345410 0.589880
O O8 0.373709 0.932814 0.778262
O O9 0.366578 0.076566 0.650638
O O10 0.130965 0.998440 0.030468
#
# Coordination Sequence:
#
# PCOD8147457 Si02
#       6
#     8   8   8   4   8   4
#     4  11  20  45  73 101 136 188 251 290 341 437
#     4  11  24  47  71 106 144 185 247 293 358 422
#     4  11  23  46  70 102 148 188 236 293 366 426
#     4  12  28  47  65 118 154 178 230 314 370 415
#     4  10  23  48  72 100 139 200 239 290 353 444
#     4  10  22  43  75 104 132 192 248 292 336 435
#
# _framework density 25.032748000000002
#
# number of rings (size 3 to 8) (size 9 to 14) (size 15 to 20)
#    0.000    1.200    6.000    0.600    0.000    2.400 
#   14.400    0.000    0.000    0.000    0.000    0.000 
#    0.000    0.000    0.000    0.000    0.000    0.000 
#
# Total GULP energy -247886.597934 kJ/mol
# GULP energy per Si atom -12394.329897 kJ/mol
# Density = 2.497577 g / cm^3
# Si number density = 25.032748 Si / 1000 Ang^3
#
#
#
# Elastic Constant Matrix: (Units=GPa)
#
#
# Indices 1 2 3 4 5 6 
#
# 1 95.1667 50.3318 25.2909 0.0000 9.8691 0.0000
# 2 50.3318 75.3899 28.3570 0.0000 -7.9547 0.0000
# 3 25.2909 28.3570 105.0527 0.0000 -24.9490 0.0000
# 4 0.0000 0.0000 0.0000 53.1520 0.0000 -7.4127
# 5 9.8691 -7.9547 -24.9490 0.0000 39.7569 0.0000
# 6 0.0000 0.0000 0.0000 -7.4127 0.0000 62.1233
#
#
#
# Elastic Compliance Matrix: (Units=1/GPa)
#
#
# Indices 1 2 3 4 5 6 
#
# 1 0.018894 -0.012303 -0.003439 0.000000 -0.009310 0.000000
# 2 -0.012303 0.022784 -0.001622 0.000000 0.006595 0.000000
# 3 -0.003439 -0.001622 0.012821 0.000000 0.008575 0.000000
# 4 0.000000 0.000000 0.000000 0.019132 0.000000 0.002283
# 5 -0.009310 0.006595 0.008575 0.000000 0.034164 0.000000
# 6 0.000000 0.000000 0.000000 0.002283 0.000000 0.016369
#
#
# Mechanical properties :
#
#
# Convention : Reuss Voigt Hill
#
# Bulk Modulus (GPa) = 50.57673 53.72986 52.15330
# Shear Modulus (GPa) = 30.21466 42.44843 36.33155
#
# Velocity S-wave (km/s) = 3.47797 4.12237 3.81381
# Velocity P-wave (km/s) = 6.03129 6.64598 6.34608
#
# Compressibility (1/GPa) = 0.01977194
#
# Stress axis : x y z
#
# Youngs Moduli (GPa) = 52.92732 43.89063 77.99613
#
# Poissons Ratio (x) = 0.53998 0.26820
# Poissons Ratio (y) = 0.65115 0.12651
# Poissons Ratio (z) = 0.18200 0.07119
#
# Static dielectric constant tensor:
#      x y z
#    x 4.093000 0.000000 -0.149250 
#    y 0.000000 4.743460 0.000000 
#    z -0.149250 0.000000 4.551770 
# 
# 
# High freq. dielectric constant tensor:
#      x y z
#    x 1.962690 0.000000 -0.016410 
#    y 0.000000 2.003120 0.000000 
#    z -0.016410 0.000000 2.003750 
# 
# From -- ./inp_files/106861.got.cif
#   From: 2010.06.25/outbox.cif.g09.slc.cpg/sg15_54_cif.got.tgz:106861.got - 2010.06.28 07:06:18.
