data_PCOD8147041
_publ_section_title
;
Structure prediction by ZEFSAII (Michael W. Deem and Ramdas Pophale) SiO2 
 PCOD8147041
Probable space group: C 2/C
;
_chemical_formula_sum "Si O2"
_cell_formula_units_Z 40
_cell_length_a 8.843677
_cell_length_b 15.940299
_cell_length_c 15.026375
_cell_angle_alpha 90.000000
_cell_angle_beta 67.711399
_cell_angle_gamma 90.000000
_cell_volume 1960.013989
_symmetry_space_group_name_H-M "C 2/C"
_symmetry_group_IT_number 15
_symmetry_cell_setting 'monoclinic'
loop_
_space_group_symop_operation_xyz
x,y,z
-x,y,1/2-z
-x,-y,-z
x,-y,1/2+z
1/2+x,1/2+y,z
1/2-x,1/2+y,1/2-z
1/2-x,1/2-y,-z
1/2+x,1/2-y,1/2+z
loop_
_atom_site_type_symbol
_atom_site_label
_atom_site_fract_x
_atom_site_fract_y
_atom_site_fract_z
Si Si1 0.343065 0.460619 0.992757
Si Si2 0.998588 0.818090 0.848077
Si Si3 0.565397 0.130191 0.640295
Si Si4 0.149371 0.716488 0.146765
Si Si5 0.189713 0.623773 0.958326
O O1 0.226270 0.426072 0.095940
O O2 0.500000 0.500000 0.000000
O O3 0.386355 0.378915 0.928325
O O4 0.261836 0.531377 0.950495
O O5 0.181710 0.811312 0.845168
O O6 0.000000 0.857128 0.750000
O O7 0.902628 0.729718 0.865992
O O8 0.500000 0.100501 0.750000
O O9 0.449556 0.111335 0.583125
O O10 0.169914 0.812025 0.107368
O O11 0.000000 0.710505 0.250000
O O12 0.115417 0.656689 0.069151
#
# Coordination Sequence:
#
# PCOD8147041 Si02
#       5
#     8   8   8   8   8
#     4  12  24  41  65  98 133 163 213 274 321 379
#     4  10  23  42  64  97 125 173 217 262 325 382
#     4  10  24  45  67  93 128 175 218 259 323 388
#     4  10  22  42  69  94 127 173 218 261 320 392
#     4  10  23  43  64  97 127 169 216 262 328 374
#
# _framework density 20.408017000000001
#
# number of rings (size 3 to 8) (size 9 to 14) (size 15 to 20)
#    0.000    1.600    2.000    1.200    2.800    8.000 
#    0.000    0.000    0.000    0.000    0.000    0.000 
#    0.000    0.000    0.000    0.000    0.000    0.000 
#
# Total GULP energy -247966.067111 kJ/mol
# GULP energy per Si atom -12398.303356 kJ/mol
# Density = 2.036157 g / cm^3
# Si number density = 20.408017 Si / 1000 Ang^3
#
#
#
# Elastic Constant Matrix: (Units=GPa)
#
#
# Indices 1 2 3 4 5 6 
#
# 1 84.8380 50.2799 80.5111 0.0000 -4.8783 0.0000
# 2 50.2799 97.0486 66.5118 0.0000 -19.9918 0.0000
# 3 80.5111 66.5118 170.9376 0.0000 -1.4100 0.0000
# 4 0.0000 0.0000 0.0000 -29.5543 0.0000 4.3222
# 5 -4.8783 -19.9918 -1.4100 0.0000 35.2473 0.0000
# 6 0.0000 0.0000 0.0000 4.3222 0.0000 26.0711
#
#
#
# Elastic Compliance Matrix: (Units=1/GPa)
#
#
# Indices 1 2 3 4 5 6 
#
# 1 0.023901 -0.006575 -0.008705 0.000000 -0.000770 0.000000
# 2 -0.006575 0.018354 -0.003968 0.000000 0.009342 0.000000
# 3 -0.008705 -0.003968 0.011469 0.000000 -0.002996 0.000000
# 4 0.000000 0.000000 0.000000 -0.033035 0.000000 0.005477
# 5 -0.000770 0.009342 -0.002996 0.000000 0.033443 0.000000
# 6 0.000000 0.000000 0.000000 0.005477 0.000000 0.037449
#
#
# Mechanical properties :
#
#
# Convention : Reuss Voigt Hill
#
# Bulk Modulus (GPa) = 65.66749 83.04778 74.35763
# Shear Modulus (GPa) = 36.99491 16.72091 26.85791
#
# Velocity S-wave (km/s) = 4.26227 2.86550 3.63167
# Velocity P-wave (km/s) = 7.51464 7.19237 7.35527
#
# Compressibility (1/GPa) = 0.01522824
#
# Stress axis : x y z
#
# Youngs Moduli (GPa) = 41.83909 54.48323 87.18931
#
# Poissons Ratio (x) = 0.35825 0.75900
# Poissons Ratio (y) = 0.27511 0.34593
# Poissons Ratio (z) = 0.36422 0.21617
#
# Static dielectric constant tensor:
#      x y z
#    x 3.896640 0.000000 0.197430 
#    y 0.000000 3.767030 0.000000 
#    z 0.197430 0.000000 3.821870 
# 
# 
# High freq. dielectric constant tensor:
#      x y z
#    x 1.795970 0.000000 0.010710 
#    y 0.000000 1.807760 0.000000 
#    z 0.010710 0.000000 1.806740 
# 
# From -- ./inp_files/76935.got.cif
#   From: 2010.06.25/outbox.cif.g09.slc.cpg/sg15_39_cif.got.tgz:76935.got - 2010.06.28 07:06:18.
