data_PCOD8147641
_publ_section_title
;
Structure prediction by ZEFSAII (Michael W. Deem and Ramdas Pophale) SiO2 
 PCOD8147641
Probable space group: C 2/C
;
_chemical_formula_sum "Si O2"
_cell_formula_units_Z 52
_cell_length_a 14.852218
_cell_length_b 11.291772
_cell_length_c 20.598598
_cell_angle_alpha 90.000000
_cell_angle_beta 139.090576
_cell_angle_gamma 90.000000
_cell_volume 2262.262215
_symmetry_space_group_name_H-M "C 2/C"
_symmetry_group_IT_number 15
_symmetry_cell_setting 'monoclinic'
loop_
_space_group_symop_operation_xyz
x,y,z
-x,y,1/2-z
-x,-y,-z
x,-y,1/2+z
1/2+x,1/2+y,z
1/2-x,1/2+y,1/2-z
1/2-x,1/2-y,-z
1/2+x,1/2-y,1/2+z
loop_
_atom_site_type_symbol
_atom_site_label
_atom_site_fract_x
_atom_site_fract_y
_atom_site_fract_z
Si Si1 0.732590 0.732365 0.862349
Si Si2 0.500000 0.138694 0.750000
Si Si3 0.153369 0.083988 0.699088
Si Si4 0.041346 0.714001 0.061127
Si Si5 0.393454 0.060788 0.282693
Si Si6 0.741075 0.694167 0.425612
Si Si7 0.597293 0.458120 0.361579
O O1 0.727455 0.633051 0.803784
O O2 0.636757 0.843692 0.790759
O O3 0.665317 0.672340 0.889767
O O4 0.890460 0.764478 0.962503
O O5 0.369948 0.226117 0.673430
O O6 0.522352 0.051814 0.699691
O O7 0.145223 0.184727 0.640938
O O8 0.996202 0.042849 0.625048
O O9 0.240576 0.974405 0.721529
O O10 0.029972 0.614326 0.112019
O O11 0.115576 0.675737 0.034925
O O12 0.750000 0.750000 0.500000
O O13 0.708126 0.559476 0.424946
O O14 0.500000 0.492727 0.250000
#
# Coordination Sequence:
#
# PCOD8147641 Si02
#       7
#     8   4   8   8   8   8   8
#     4  10  25  42  71 101 139 179 237 287 348 419
#     4  12  28  50  66 108 144 180 238 296 350 416
#     4  10  23  43  68  96 136 187 228 282 355 413
#     4  11  25  45  69 106 138 184 235 280 356 422
#     4  11  26  45  73  98 144 185 229 300 348 419
#     4  12  28  44  73 104 141 185 233 292 354 422
#     4  10  22  44  68  95 137 182 230 279 346 416
#
# _framework density 22.985842000000002
#
# number of rings (size 3 to 8) (size 9 to 14) (size 15 to 20)
#    0.000    1.231    2.308    1.846   11.846    3.692 
#    0.000    0.000    0.000    0.000    0.000    0.000 
#    0.000    0.000    0.000    0.000    0.000    0.000 
#
# Total GULP energy -322251.770757 kJ/mol
# GULP energy per Si atom -12394.298875 kJ/mol
# Density = 2.293353 g / cm^3
# Si number density = 22.985842 Si / 1000 Ang^3
#
#
#
# Elastic Constant Matrix: (Units=GPa)
#
#
# Indices 1 2 3 4 5 6 
#
# 1 93.2941 9.9593 8.4031 0.0000 10.1113 0.0000
# 2 9.9593 82.0925 -5.0358 0.0000 0.9376 0.0000
# 3 8.4031 -5.0358 60.2851 0.0001 3.9171 0.0000
# 4 0.0000 0.0000 0.0001 9.1178 0.0000 15.0586
# 5 10.1113 0.9376 3.9171 0.0000 31.3705 0.0000
# 6 0.0000 0.0000 0.0000 15.0586 0.0000 40.2623
#
#
#
# Elastic Compliance Matrix: (Units=1/GPa)
#
#
# Indices 1 2 3 4 5 6 
#
# 1 0.011378 -0.001432 -0.001482 0.000000 -0.003439 0.000000
# 2 -0.001432 0.012432 0.001242 0.000000 -0.000065 0.000000
# 3 -0.001482 0.001242 0.017008 0.000000 -0.001683 0.000000
# 4 0.000000 0.000000 0.000000 0.286884 0.000000 -0.107298
# 5 -0.003439 -0.000065 -0.001683 0.000000 0.033198 0.000000
# 6 0.000000 0.000000 0.000000 -0.107298 0.000000 0.064968
#
#
# Mechanical properties :
#
#
# Convention : Reuss Voigt Hill
#
# Bulk Modulus (GPa) = 26.68513 29.14720 27.91616
# Shear Modulus (GPa) = 11.31985 30.97313 21.14649
#
# Velocity S-wave (km/s) = 2.22158 3.67480 3.03641
# Velocity P-wave (km/s) = 4.26792 5.54198 4.94614
#
# Compressibility (1/GPa) = 0.03747406
#
# Stress axis : x y z
#
# Youngs Moduli (GPa) = 87.88943 80.43719 58.79730
#
# Poissons Ratio (x) = 0.11518 0.08714
# Poissons Ratio (y) = 0.12586 -0.07305
# Poissons Ratio (z) = 0.13026 -0.09993
#
# Static dielectric constant tensor:
#      x y z
#    x 4.424160 0.000000 0.097630 
#    y 0.000000 3.725370 0.000000 
#    z 0.097630 0.000000 3.946140 
# 
# 
# High freq. dielectric constant tensor:
#      x y z
#    x 1.920500 0.000000 0.007900 
#    y 0.000000 1.910540 0.000000 
#    z 0.007900 0.000000 1.891360 
# 
# From -- ./inp_files/273879.got.cif
#   From: 2010.06.25/outbox.cif.g09.slc.cpg/sg15_137_cif.got.tgz:273879.got - 2010.06.28 07:06:18.
