data_PCOD8147494
_publ_section_title
;
Structure prediction by ZEFSAII (Michael W. Deem and Ramdas Pophale) SiO2 
 PCOD8147494
Probable space group: C 2/C
;
_chemical_formula_sum "Si O2"
_cell_formula_units_Z 48
_cell_length_a 8.361567
_cell_length_b 31.269100
_cell_length_c 8.598049
_cell_angle_alpha 90.000000
_cell_angle_beta 89.627593
_cell_angle_gamma 90.000000
_cell_volume 2247.987011
_symmetry_space_group_name_H-M "C 2/C"
_symmetry_group_IT_number 15
_symmetry_cell_setting 'monoclinic'
loop_
_space_group_symop_operation_xyz
x,y,z
-x,y,1/2-z
-x,-y,-z
x,-y,1/2+z
1/2+x,1/2+y,z
1/2-x,1/2+y,1/2-z
1/2-x,1/2-y,-z
1/2+x,1/2-y,1/2+z
loop_
_atom_site_type_symbol
_atom_site_label
_atom_site_fract_x
_atom_site_fract_y
_atom_site_fract_z
Si Si1 0.500000 0.842303 0.250000
Si Si2 0.239178 0.299280 0.461976
Si Si3 0.175370 0.018586 0.025186
Si Si4 0.325140 0.046481 0.326024
Si Si5 0.312999 0.632784 0.217314
Si Si6 0.000000 0.163879 0.750000
Si Si7 0.230575 0.886320 0.442232
O O1 0.568891 0.812528 0.388537
O O2 0.367999 0.873751 0.321091
O O3 0.250000 0.250000 0.500000
O O4 0.274895 0.324496 0.621867
O O5 0.366672 0.306328 0.325255
O O6 0.206331 0.062912 0.934981
O O7 0.313405 0.984799 0.973636
O O8 0.197246 0.026875 0.206785
O O9 0.000000 0.000000 0.000000
O O10 0.500000 0.049298 0.250000
O O11 0.261231 0.093136 0.379432
O O12 0.500000 0.626648 0.250000
O O13 0.225564 0.631650 0.386383
O O14 0.064667 0.134688 0.889391
#
# Coordination Sequence:
#
# PCOD8147494 Si02
#       7
#     4   8   8   8   8   4   8
#     4  10  26  44  66 104 138 178 222 278 362 392
#     4  11  26  44  74 100 136 173 222 285 339 412
#     4  11  24  40  65  96 131 181 230 269 325 398
#     4  11  25  41  64  98 134 172 227 281 335 386
#     4  11  23  44  70  95 133 182 228 269 347 408
#     4  10  22  44  64 100 132 178 218 270 336 404
#     4  10  23  41  68  98 136 181 226 272 336 404
#
# _framework density 21.352436999999998
#
# number of rings (size 3 to 8) (size 9 to 14) (size 15 to 20)
#    0.000    1.333    1.667    3.000    9.333    2.667 
#    0.000    3.333    0.000    0.000    0.000    0.000 
#    0.000    0.000    0.000    0.000    0.000    0.000 
#
# Total GULP energy -297619.513842 kJ/mol
# GULP energy per Si atom -12400.813077 kJ/mol
# Density = 2.130384 g / cm^3
# Si number density = 21.352437 Si / 1000 Ang^3
#
#
#
# Elastic Constant Matrix: (Units=GPa)
#
#
# Indices 1 2 3 4 5 6 
#
# 1 94.0472 39.3998 10.7147 0.0000 3.6560 0.0000
# 2 39.3998 172.9269 52.3040 0.0000 -3.0093 0.0000
# 3 10.7147 52.3040 69.1183 0.0000 2.2294 0.0000
# 4 0.0000 0.0000 0.0000 38.0709 0.0000 2.2780
# 5 3.6560 -3.0093 2.2294 0.0000 29.5983 0.0000
# 6 0.0000 0.0000 0.0000 2.2780 0.0000 23.5305
#
#
#
# Elastic Compliance Matrix: (Units=1/GPa)
#
#
# Indices 1 2 3 4 5 6 
#
# 1 0.011851 -0.002844 0.000372 0.000000 -0.001781 0.000000
# 2 -0.002844 0.008224 -0.005835 0.000000 0.001627 0.000000
# 3 0.000372 -0.005835 0.018892 0.000000 -0.002062 0.000000
# 4 0.000000 0.000000 0.000000 0.026420 0.000000 -0.002558
# 5 -0.001781 0.001627 -0.002062 0.000000 0.034326 0.000000
# 6 0.000000 0.000000 0.000000 -0.002558 0.000000 0.042746
#
#
# Mechanical properties :
#
#
# Convention : Reuss Voigt Hill
#
# Bulk Modulus (GPa) = 44.73393 60.10327 52.41860
# Shear Modulus (GPa) = 30.02580 33.81819 31.92200
#
# Velocity S-wave (km/s) = 3.75400 3.98403 3.87072
# Velocity P-wave (km/s) = 6.30760 7.02656 6.67677
#
# Compressibility (1/GPa) = 0.02235440
#
# Stress axis : x y z
#
# Youngs Moduli (GPa) = 84.38009 121.59728 52.93191
#
# Poissons Ratio (x) = 0.34579 -0.01970
# Poissons Ratio (y) = 0.23996 0.30885
# Poissons Ratio (z) = -0.03141 0.70951
#
# Static dielectric constant tensor:
#      x y z
#    x 3.908360 0.000000 0.148110 
#    y 0.000000 3.789340 0.000000 
#    z 0.148110 0.000000 4.082850 
# 
# 
# High freq. dielectric constant tensor:
#      x y z
#    x 1.845750 0.000000 -0.001570 
#    y 0.000000 1.832820 0.000000 
#    z -0.001570 0.000000 1.844360 
# 
# From -- ./inp_files/26185.got.cif
#   From: 2010.06.25/outbox.cif.g09.slc.cpg/sg15_14_cif.got.tgz:26185.got - 2010.06.28 07:06:18.
