data_PCOD8147813
_publ_section_title
;
Structure prediction by ZEFSAII (Michael W. Deem and Ramdas Pophale) SiO2 
 PCOD8147813
Probable space group: C 2/C
;
_chemical_formula_sum "Si O2"
_cell_formula_units_Z 56
_cell_length_a 17.100933
_cell_length_b 6.421677
_cell_length_c 26.165053
_cell_angle_alpha 90.000000
_cell_angle_beta 120.757985
_cell_angle_gamma 90.000000
_cell_volume 2469.178329
_symmetry_space_group_name_H-M "C 2/C"
_symmetry_group_IT_number 15
_symmetry_cell_setting 'monoclinic'
loop_
_space_group_symop_operation_xyz
x,y,z
-x,y,1/2-z
-x,-y,-z
x,-y,1/2+z
1/2+x,1/2+y,z
1/2-x,1/2+y,1/2-z
1/2-x,1/2-y,-z
1/2+x,1/2-y,1/2+z
loop_
_atom_site_type_symbol
_atom_site_label
_atom_site_fract_x
_atom_site_fract_y
_atom_site_fract_z
Si Si1 0.155929 0.625163 0.972889
Si Si2 0.602686 0.315125 0.293690
Si Si3 0.230082 0.538227 0.820091
Si Si4 0.418980 0.310445 0.029498
Si Si5 0.111103 0.849216 0.057145
Si Si6 0.357294 0.616019 0.277365
Si Si7 0.936892 0.893001 0.628005
O O1 0.150724 0.376823 0.980348
O O2 0.105183 0.668369 0.901526
O O3 0.250000 0.750000 0.000000
O O4 0.105479 0.700726 0.006789
O O5 0.500000 0.236388 0.250000
O O6 0.664386 0.117720 0.330177
O O7 0.644182 0.402472 0.254986
O O8 0.604320 0.504829 0.334783
O O9 0.294847 0.668344 0.879906
O O10 0.290171 0.398497 0.802388
O O11 0.166859 0.691372 0.766768
O O12 0.528167 0.268702 0.065403
O O13 0.402331 0.469225 0.069487
O O14 0.396297 0.412050 0.966313
O O15 0.456887 0.648211 0.333398
#
# Coordination Sequence:
#
# PCOD8147813 Si02
#       7
#     8   8   8   8   8   8   8
#     4  11  26  41  66 103 128 176 232 283 346 418
#     4  10  25  44  65  96 137 177 218 279 349 405
#     4  12  24  42  72  98 132 176 229 278 333 411
#     4  10  22  45  68  92 138 174 225 283 352 412
#     4  10  24  42  67  98 131 181 221 280 352 412
#     4  11  24  43  65 100 130 173 231 276 335 408
#     4  10  24  44  65  95 136 174 220 286 351 410
#
# _framework density 22.679607000000001
#
# number of rings (size 3 to 8) (size 9 to 14) (size 15 to 20)
#    0.000    1.429    2.857    0.429    6.000    6.286 
#    0.000    0.000    0.000    0.000    0.000    0.000 
#    0.000    0.000    0.000    0.000    0.000    0.000 
#
# Total GULP energy -346987.713054 kJ/mol
# GULP energy per Si atom -12392.418323 kJ/mol
# Density = 2.262799 g / cm^3
# Si number density = 22.679607 Si / 1000 Ang^3
#
#
#
# Elastic Constant Matrix: (Units=GPa)
#
#
# Indices 1 2 3 4 5 6 
#
# 1 90.5025 26.5453 21.5047 0.0000 6.6040 0.0000
# 2 26.5453 75.6556 34.9738 -0.0001 21.3192 0.0002
# 3 21.5047 34.9738 98.3684 0.0000 10.1852 0.0000
# 4 0.0000 -0.0001 0.0000 32.1190 0.0000 0.7009
# 5 6.6040 21.3192 10.1852 0.0000 28.0355 0.0000
# 6 0.0000 0.0002 0.0000 0.7009 0.0000 36.7314
#
#
#
# Elastic Compliance Matrix: (Units=1/GPa)
#
#
# Indices 1 2 3 4 5 6 
#
# 1 0.012482 -0.003876 -0.001404 0.000000 0.000518 0.000000
# 2 -0.003876 0.020579 -0.005137 0.000000 -0.012870 0.000000
# 3 -0.001404 -0.005137 0.012324 0.000000 -0.000240 0.000000
# 4 0.000000 0.000000 0.000000 0.031147 0.000000 -0.000594
# 5 0.000518 -0.012870 -0.000240 0.000000 0.045421 0.000000
# 6 0.000000 0.000000 0.000000 -0.000594 0.000000 0.027236
#
#
# Mechanical properties :
#
#
# Convention : Reuss Voigt Hill
#
# Bulk Modulus (GPa) = 40.73173 47.84156 44.28664
# Shear Modulus (GPa) = 28.05714 31.47737 29.76726
#
# Velocity S-wave (km/s) = 3.52107 3.72952 3.62679
# Velocity P-wave (km/s) = 5.87616 6.29969 6.09160
#
# Compressibility (1/GPa) = 0.02455088
#
# Stress axis : x y z
#
# Youngs Moduli (GPa) = 80.11354 48.59308 81.14240
#
# Poissons Ratio (x) = 0.18837 0.11394
# Poissons Ratio (y) = 0.31055 0.41680
# Poissons Ratio (z) = 0.11249 0.24961
#
# Static dielectric constant tensor:
#      x y z
#    x 4.137410 0.000000 -0.083850 
#    y 0.000000 4.049860 0.000000 
#    z -0.083850 0.000000 4.209450 
# 
# 
# High freq. dielectric constant tensor:
#      x y z
#    x 1.904890 0.000000 -0.000840 
#    y 0.000000 1.880740 0.000000 
#    z -0.000840 0.000000 1.898660 
# 
# From -- ./inp_files/315140.got.cif
#   From: 2010.06.25/outbox.cif.g09.slc.cpg/sg15_158_cif.got.tgz:315140.got - 2010.06.28 07:06:18.
