data_PCOD8147180
_publ_section_title
;
Structure prediction by ZEFSAII (Michael W. Deem and Ramdas Pophale) SiO2 
 PCOD8147180
Probable space group: C 2/C
;
_chemical_formula_sum "Si O2"
_cell_formula_units_Z 56
_cell_length_a 17.978605
_cell_length_b 11.977365
_cell_length_c 14.743179
_cell_angle_alpha 90.000000
_cell_angle_beta 60.934485
_cell_angle_gamma 90.000000
_cell_volume 2774.930012
_symmetry_space_group_name_H-M "C 2/C"
_symmetry_group_IT_number 15
_symmetry_cell_setting 'monoclinic'
loop_
_space_group_symop_operation_xyz
x,y,z
-x,y,1/2-z
-x,-y,-z
x,-y,1/2+z
1/2+x,1/2+y,z
1/2-x,1/2+y,1/2-z
1/2-x,1/2-y,-z
1/2+x,1/2-y,1/2+z
loop_
_atom_site_type_symbol
_atom_site_label
_atom_site_fract_x
_atom_site_fract_y
_atom_site_fract_z
Si Si1 0.067123 0.915742 0.137441
Si Si2 0.337371 0.121961 0.193983
Si Si3 0.489455 0.737586 0.533059
Si Si4 0.641397 0.868218 0.356901
Si Si5 0.788922 0.230210 0.879334
Si Si6 0.638273 0.639111 0.026441
Si Si7 0.713539 0.247720 0.651595
O O1 0.119505 0.824998 0.163035
O O2 0.000000 0.964867 0.250000
O O3 0.026242 0.861047 0.072864
O O4 0.128703 0.013132 0.065794
O O5 0.419683 0.197888 0.131953
O O6 0.299559 0.154466 0.315774
O O7 0.266640 0.146619 0.158791
O O8 0.367988 0.995601 0.168236
O O9 0.561630 0.826428 0.462558
O O10 0.448835 0.680563 0.468241
O O11 0.728352 0.854566 0.361211
O O12 0.645390 0.794395 0.264285
O O13 0.750000 0.250000 0.000000
O O14 0.658141 0.720635 0.097968
O O15 0.718737 0.648252 0.910420
#
# Coordination Sequence:
#
# PCOD8147180 Si02
#       7
#     8   8   8   8   8   8   8
#     4  12  24  41  66  92 127 168 204 263 321 371
#     4  10  22  43  61  90 127 164 207 257 317 369
#     4  11  23  42  60  93 128 159 210 264 304 383
#     4  11  23  39  68  90 124 168 206 254 318 371
#     4  11  23  42  65  94 127 160 216 261 306 385
#     4  10  23  42  64  89 127 163 206 256 324 367
#     4   9  22  42  63  92 125 160 209 263 300 387
#
# _framework density 20.180689000000001
#
# number of rings (size 3 to 8) (size 9 to 14) (size 15 to 20)
#    0.000    1.429    2.857    1.714    4.000    0.000 
#    0.000    1.429    0.000    0.000    0.000    0.000 
#    0.000    0.000    0.000    0.000    0.000    0.000 
#
# Total GULP energy -347252.374426 kJ/mol
# GULP energy per Si atom -12401.870515 kJ/mol
# Density = 2.013476 g / cm^3
# Si number density = 20.180689 Si / 1000 Ang^3
#
#
#
# Elastic Constant Matrix: (Units=GPa)
#
#
# Indices 1 2 3 4 5 6 
#
# 1 108.5003 25.1085 26.6441 0.0000 17.3727 0.0000
# 2 25.1085 98.4971 32.5067 0.0000 2.8220 0.0000
# 3 26.6441 32.5067 114.2368 0.0000 6.6158 0.0000
# 4 0.0000 0.0000 0.0000 25.4064 0.0000 -3.2279
# 5 17.3727 2.8220 6.6158 0.0000 28.2656 0.0000
# 6 0.0000 0.0000 0.0000 -3.2279 0.0000 25.0903
#
#
#
# Elastic Compliance Matrix: (Units=1/GPa)
#
#
# Indices 1 2 3 4 5 6 
#
# 1 0.011103 -0.002115 -0.001627 0.000000 -0.006233 0.000000
# 2 -0.002115 0.011612 -0.002858 0.000000 0.000810 0.000000
# 3 -0.001627 -0.002858 0.010008 0.000000 -0.001057 0.000000
# 4 0.000000 0.000000 0.000000 0.040014 0.000000 0.005148
# 5 -0.006233 0.000810 -0.001057 0.000000 0.039376 0.000000
# 6 0.000000 0.000000 0.000000 0.005148 0.000000 0.040518
#
#
# Mechanical properties :
#
#
# Convention : Reuss Voigt Hill
#
# Bulk Modulus (GPa) = 51.22058 54.41698 52.81878
# Shear Modulus (GPa) = 29.01269 31.55078 30.28174
#
# Velocity S-wave (km/s) = 3.79574 3.95829 3.87787
# Velocity P-wave (km/s) = 6.68179 6.92201 6.80296
#
# Compressibility (1/GPa) = 0.01952340
#
# Stress axis : x y z
#
# Youngs Moduli (GPa) = 90.06206 86.12030 99.92382
#
# Poissons Ratio (x) = 0.18214 0.16257
# Poissons Ratio (y) = 0.19048 0.28556
# Poissons Ratio (z) = 0.14653 0.24611
#
# Static dielectric constant tensor:
#      x y z
#    x 3.872240 0.000000 0.047040 
#    y 0.000000 3.422020 0.000000 
#    z 0.047040 0.000000 3.868150 
# 
# 
# High freq. dielectric constant tensor:
#      x y z
#    x 1.796720 0.000000 0.004010 
#    y 0.000000 1.773670 0.000000 
#    z 0.004010 0.000000 1.802390 
# 
# From -- ./inp_files/161238.got.cif
#   From: 2010.06.25/outbox.cif.g09.slc.cpg/sg15_81_cif.got.tgz:161238.got - 2010.06.28 07:06:18.
