data_PCOD8147522
_publ_section_title
;
Structure prediction by ZEFSAII (Michael W. Deem and Ramdas Pophale) SiO2 
 PCOD8147522
Probable space group: C 2/C
;
_chemical_formula_sum "Si O2"
_cell_formula_units_Z 44
_cell_length_a 12.544794
_cell_length_b 18.976290
_cell_length_c 9.905913
_cell_angle_alpha 90.000000
_cell_angle_beta 68.295203
_cell_angle_gamma 90.000000
_cell_volume 2190.950500
_symmetry_space_group_name_H-M "C 2/C"
_symmetry_group_IT_number 15
_symmetry_cell_setting 'monoclinic'
loop_
_space_group_symop_operation_xyz
x,y,z
-x,y,1/2-z
-x,-y,-z
x,-y,1/2+z
1/2+x,1/2+y,z
1/2-x,1/2+y,1/2-z
1/2-x,1/2-y,-z
1/2+x,1/2-y,1/2+z
loop_
_atom_site_type_symbol
_atom_site_label
_atom_site_fract_x
_atom_site_fract_y
_atom_site_fract_z
Si Si1 0.809371 0.071114 0.403734
Si Si2 0.630041 0.176306 0.145446
Si Si3 0.632537 0.890914 0.183132
Si Si4 0.500000 0.328575 0.750000
Si Si5 0.674285 0.236812 0.835009
Si Si6 0.738304 0.030855 0.147977
O O1 0.688812 0.109136 0.505653
O O2 0.915824 0.122911 0.379729
O O3 0.809894 0.053495 0.245226
O O4 0.823177 0.001477 0.492570
O O5 0.500000 0.179218 0.250000
O O6 0.710650 0.216102 0.216205
O O7 0.669996 0.095481 0.114289
O O8 0.636660 0.215445 0.001087
O O9 0.500000 0.870024 0.250000
O O10 0.701619 0.833163 0.236793
O O11 0.649532 0.969364 0.237448
O O12 0.571089 0.280911 0.819390
#
# Coordination Sequence:
#
# PCOD8147522 Si02
#       6
#     8   8   8   4   8   8
#     4  10  25  41  69  97 136 181 224 287 330 414
#     4  11  25  42  71  96 142 175 231 283 343 402
#     4  10  23  40  69  96 135 171 225 282 337 391
#     4  12  24  46  68  96 138 184 238 262 350 410
#     4  11  25  43  65 105 133 185 222 280 344 411
#     4  10  22  44  65 103 131 176 231 274 353 382
#
# _framework density 20.082609000000001
#
# number of rings (size 3 to 8) (size 9 to 14) (size 15 to 20)
#    1.091    0.364    2.727    1.636    5.091    2.182 
#    0.000    0.000    4.000    0.000    0.000    0.000 
#    0.000    0.000    0.000    0.000    0.000    0.000 
#
# Total GULP energy -272676.194124 kJ/mol
# GULP energy per Si atom -12394.372460 kJ/mol
# Density = 2.003690 g / cm^3
# Si number density = 20.082609 Si / 1000 Ang^3
#
#
#
# Elastic Constant Matrix: (Units=GPa)
#
#
# Indices 1 2 3 4 5 6 
#
# 1 112.3036 72.6367 41.9669 0.0000 7.4894 0.0000
# 2 72.6367 149.6646 35.6305 0.0000 -2.9859 0.0000
# 3 41.9669 35.6305 75.6601 0.0000 3.6002 0.0000
# 4 0.0000 0.0000 0.0000 33.9325 0.0000 3.2432
# 5 7.4894 -2.9859 3.6002 0.0000 32.0286 0.0000
# 6 0.0000 0.0000 0.0000 3.2432 0.0000 27.0183
#
#
#
# Elastic Compliance Matrix: (Units=1/GPa)
#
#
# Indices 1 2 3 4 5 6 
#
# 1 0.015087 -0.006126 -0.005317 0.000000 -0.003501 0.000000
# 2 -0.006126 0.010052 -0.001456 0.000000 0.002533 0.000000
# 3 -0.005317 -0.001456 0.016890 0.000000 -0.000791 0.000000
# 4 0.000000 0.000000 0.000000 0.029812 0.000000 -0.003579
# 5 -0.003501 0.002533 -0.000791 0.000000 0.032366 0.000000
# 6 0.000000 0.000000 0.000000 -0.003579 0.000000 0.037442
#
#
# Mechanical properties :
#
#
# Convention : Reuss Voigt Hill
#
# Bulk Modulus (GPa) = 61.61415 70.89962 66.25688
# Shear Modulus (GPa) = 28.92549 31.08880 30.00714
#
# Velocity S-wave (km/s) = 3.79928 3.93879 3.86966
# Velocity P-wave (km/s) = 7.07057 7.48773 7.28214
#
# Compressibility (1/GPa) = 0.01623004
#
# Stress axis : x y z
#
# Youngs Moduli (GPa) = 66.28090 99.48113 59.20814
#
# Poissons Ratio (x) = 0.60946 0.31480
# Poissons Ratio (y) = 0.40606 0.08622
# Poissons Ratio (z) = 0.35241 0.14487
#
# Static dielectric constant tensor:
#      x y z
#    x 3.546880 0.000000 0.082850 
#    y 0.000000 3.943740 0.000000 
#    z 0.082850 0.000000 3.459340 
# 
# 
# High freq. dielectric constant tensor:
#      x y z
#    x 1.772270 0.000000 0.005640 
#    y 0.000000 1.804600 0.000000 
#    z 0.005640 0.000000 1.773670 
# 
# From -- ./inp_files/87191.got.cif
#   From: 2010.06.25/outbox.cif.g09.slc.cpg/sg15_44_cif.got.tgz:87191.got - 2010.06.28 07:06:18.
