data_PCOD8147315
_publ_section_title
;
Structure prediction by ZEFSAII (Michael W. Deem and Ramdas Pophale) SiO2 
 PCOD8147315
Probable space group: C 2/C
;
_chemical_formula_sum "Si O2"
_cell_formula_units_Z 44
_cell_length_a 25.474199
_cell_length_b 11.704408
_cell_length_c 12.495911
_cell_angle_alpha 90.000000
_cell_angle_beta 144.656293
_cell_angle_gamma 90.000000
_cell_volume 2155.292833
_symmetry_space_group_name_H-M "C 2/C"
_symmetry_group_IT_number 15
_symmetry_cell_setting 'monoclinic'
loop_
_space_group_symop_operation_xyz
x,y,z
-x,y,1/2-z
-x,-y,-z
x,-y,1/2+z
1/2+x,1/2+y,z
1/2-x,1/2+y,1/2-z
1/2-x,1/2-y,-z
1/2+x,1/2-y,1/2+z
loop_
_atom_site_type_symbol
_atom_site_label
_atom_site_fract_x
_atom_site_fract_y
_atom_site_fract_z
Si Si1 0.871056 0.961919 0.185421
Si Si2 0.763291 0.866356 0.643121
Si Si3 0.299559 0.915792 0.729952
Si Si4 0.135406 0.649435 0.738503
Si Si5 0.500000 0.595910 0.250000
Si Si6 0.552189 0.270921 0.042579
O O1 0.936202 0.870533 0.350538
O O2 0.844572 0.061393 0.224543
O O3 0.780186 0.904859 0.989286
O O4 0.922882 0.016859 0.172025
O O5 0.740630 0.921397 0.718346
O O6 0.799625 0.737389 0.716879
O O7 0.671872 0.865217 0.420179
O O8 0.358619 0.804658 0.809315
O O9 0.359910 0.029308 0.814985
O O10 0.032835 0.692691 0.568114
O O11 0.544468 0.676258 0.412594
#
# Coordination Sequence:
#
# PCOD8147315 Si02
#       6
#     8   8   8   8   4   8
#     4  11  25  42  64 100 129 167 217 271 314 378
#     4  10  22  43  67  94 129 170 219 261 315 391
#     4  11  25  41  69  92 135 172 206 263 337 373
#     4  10  23  43  65  97 130 169 217 266 312 386
#     4  12  24  42  70  94 124 180 218 260 320 378
#     4  12  24  43  67  98 130 167 218 269 315 387
#
# _framework density 20.414859
#
# number of rings (size 3 to 8) (size 9 to 14) (size 15 to 20)
#    0.000    1.091    1.818    3.818   10.182    0.000 
#    0.000    0.000    0.000    0.000    0.000    0.000 
#    0.000    0.000    0.000    0.000    0.000    0.000 
#
# Total GULP energy -272948.420918 kJ/mol
# GULP energy per Si atom -12406.746405 kJ/mol
# Density = 2.036839 g / cm^3
# Si number density = 20.414859 Si / 1000 Ang^3
#
#
#
# Elastic Constant Matrix: (Units=GPa)
#
#
# Indices 1 2 3 4 5 6 
#
# 1 81.7076 39.8943 19.3388 0.0000 -9.2318 0.0000
# 2 39.8943 109.1939 46.2437 0.0000 -7.3039 0.0000
# 3 19.3388 46.2437 86.2056 0.0000 -2.2105 0.0000
# 4 0.0000 0.0000 0.0000 39.1921 0.0000 3.9363
# 5 -9.2318 -7.3039 -2.2105 0.0000 31.1192 0.0000
# 6 0.0000 0.0000 0.0000 3.9363 0.0000 39.2207
#
#
#
# Elastic Compliance Matrix: (Units=1/GPa)
#
#
# Indices 1 2 3 4 5 6 
#
# 1 0.015239 -0.005093 -0.000602 0.000000 0.003283 0.000000
# 2 -0.005093 0.013724 -0.006187 0.000000 0.001271 0.000000
# 3 -0.000602 -0.006187 0.015040 0.000000 -0.000562 0.000000
# 4 0.000000 0.000000 0.000000 0.025775 0.000000 -0.002587
# 5 0.003283 0.001271 -0.000562 0.000000 0.033367 0.000000
# 6 0.000000 0.000000 0.000000 -0.002587 0.000000 0.025756
#
#
# Mechanical properties :
#
#
# Convention : Reuss Voigt Hill
#
# Bulk Modulus (GPa) = 49.41160 54.22895 51.82028
# Shear Modulus (GPa) = 31.36549 33.34844 32.35697
#
# Velocity S-wave (km/s) = 3.92395 4.04609 3.98549
# Velocity P-wave (km/s) = 6.69225 6.96053 6.82770
#
# Compressibility (1/GPa) = 0.02023816
#
# Stress axis : x y z
#
# Youngs Moduli (GPa) = 65.62169 72.86588 66.49051
#
# Poissons Ratio (x) = 0.37110 0.04006
# Poissons Ratio (y) = 0.33420 0.41137
# Poissons Ratio (z) = 0.03953 0.45081
#
# Static dielectric constant tensor:
#      x y z
#    x 3.599700 0.000000 0.022350 
#    y 0.000000 3.841340 0.000000 
#    z 0.022350 0.000000 3.716190 
# 
# 
# High freq. dielectric constant tensor:
#      x y z
#    x 1.797660 0.000000 0.006470 
#    y 0.000000 1.810080 0.000000 
#    z 0.006470 0.000000 1.805000 
# 
# From -- ./inp_files/95076.got.cif
#   From: 2010.06.25/outbox.cif.g09.slc.cpg/sg15_48_cif.got.tgz:95076.got - 2010.06.28 07:06:18.
