data_PCOD8147320
_publ_section_title
;
Structure prediction by ZEFSAII (Michael W. Deem and Ramdas Pophale) SiO2 
 PCOD8147320
Probable space group: C 2/C
;
_chemical_formula_sum "Si O2"
_cell_formula_units_Z 60
_cell_length_a 9.469198
_cell_length_b 11.271992
_cell_length_c 25.926238
_cell_angle_alpha 90.000000
_cell_angle_beta 91.351448
_cell_angle_gamma 90.000000
_cell_volume 2766.511950
_symmetry_space_group_name_H-M "C 2/C"
_symmetry_group_IT_number 15
_symmetry_cell_setting 'monoclinic'
loop_
_space_group_symop_operation_xyz
x,y,z
-x,y,1/2-z
-x,-y,-z
x,-y,1/2+z
1/2+x,1/2+y,z
1/2-x,1/2+y,1/2-z
1/2-x,1/2-y,-z
1/2+x,1/2-y,1/2+z
loop_
_atom_site_type_symbol
_atom_site_label
_atom_site_fract_x
_atom_site_fract_y
_atom_site_fract_z
Si Si1 0.276189 0.371693 0.682793
Si Si2 0.977503 0.434432 0.654507
Si Si3 0.000000 0.012678 0.750000
Si Si4 0.737172 0.612340 0.681241
Si Si5 0.162105 0.980896 0.919654
Si Si6 0.048598 0.566254 0.551163
Si Si7 0.017579 0.811437 0.105738
Si Si8 0.411055 0.286450 0.509020
O O1 0.400941 0.437393 0.712120
O O2 0.303056 0.236251 0.701713
O O3 0.283273 0.381526 0.620190
O O4 0.118479 0.428521 0.692476
O O5 0.845639 0.499826 0.682547
O O6 0.948951 0.297526 0.637647
O O7 0.992264 0.510612 0.603206
O O8 0.102289 0.091032 0.716087
O O9 0.675348 0.650207 0.624554
O O10 0.077697 0.915942 0.964917
O O11 0.283217 0.059033 0.947218
O O12 0.072279 0.071124 0.884788
O O13 0.000000 0.500000 0.500000
O O14 0.994741 0.700425 0.548428
O O15 0.013062 0.781886 0.045321
O O16 0.250000 0.250000 0.500000
#
# Coordination Sequence:
#
# PCOD8147320 Si02
#       8
#     8   8   4   8   8   8   8   8
#     4  10  24  47  68 103 133 173 222 278 344 401
#     4  10  22  43  67  96 140 180 217 273 338 396
#     4  12  26  48  74 102 128 166 230 284 346 414
#     4  11  25  46  74  98 134 176 218 285 347 401
#     4  11  23  40  61  96 138 174 229 279 320 399
#     4  11  20  37  59  90 132 180 225 263 317 396
#     4  11  23  40  63  98 138 178 225 274 331 395
#     4  12  21  36  62  90 134 186 224 267 322 391
#
# _framework density 21.687961000000001
#
# number of rings (size 3 to 8) (size 9 to 14) (size 15 to 20)
#    0.000    1.067    4.000    3.600    0.000    5.333 
#    4.800    0.000    0.000    0.000    0.000    0.000 
#    0.000    0.000    0.000    0.000    0.000    0.000 
#
# Total GULP energy -371745.488266 kJ/mol
# GULP energy per Si atom -12391.516276 kJ/mol
# Density = 2.163860 g / cm^3
# Si number density = 21.687961 Si / 1000 Ang^3
#
#
#
# Elastic Constant Matrix: (Units=GPa)
#
#
# Indices 1 2 3 4 5 6 
#
# 1 99.5653 64.6008 33.4312 0.0000 0.7623 0.0000
# 2 64.6008 133.7560 30.4251 0.0000 -0.4812 0.0000
# 3 33.4312 30.4251 64.7243 0.0000 4.6571 0.0000
# 4 0.0000 0.0000 0.0000 -0.3693 0.0000 -8.8746
# 5 0.7623 -0.4812 4.6571 0.0000 33.5215 0.0000
# 6 0.0000 0.0000 0.0000 -8.8746 0.0000 38.8232
#
#
#
# Elastic Compliance Matrix: (Units=1/GPa)
#
#
# Indices 1 2 3 4 5 6 
#
# 1 0.016056 -0.006565 -0.005226 0.000000 0.000267 0.000000
# 2 -0.006565 0.011071 -0.001854 0.000000 0.000566 0.000000
# 3 -0.005226 -0.001854 0.019206 0.000000 -0.002576 0.000000
# 4 0.000000 0.000000 0.000000 -0.417027 0.000000 -0.095328
# 5 0.000267 0.000566 -0.002576 0.000000 0.030192 0.000000
# 6 0.000000 0.000000 0.000000 -0.095328 0.000000 0.003967
#
#
# Mechanical properties :
#
#
# Convention : Reuss Voigt Hill
#
# Bulk Modulus (GPa) = 52.51308 61.66218 57.08763
# Shear Modulus (GPa) = -16.50724 25.70097 4.59687
#
# Velocity S-wave (km/s) = -2.76184 3.44617 1.45745
# Velocity P-wave (km/s) = 3.75436 6.65793 5.40478
#
# Compressibility (1/GPa) = 0.01904288
#
# Stress axis : x y z
#
# Youngs Moduli (GPa) = 62.28226 90.32878 52.06572
#
# Poissons Ratio (x) = 0.59299 0.27212
# Poissons Ratio (y) = 0.40887 0.09652
# Poissons Ratio (z) = 0.32551 0.16746
#
# Static dielectric constant tensor:
#      x y z
#    x 4.475940 0.000000 -0.344990 
#    y 0.000000 4.208530 0.000000 
#    z -0.344990 0.000000 4.213110 
# 
# 
# High freq. dielectric constant tensor:
#      x y z
#    x 1.845440 0.000000 0.009580 
#    y 0.000000 1.861120 0.000000 
#    z 0.009580 0.000000 1.848960 
# 
# From -- ./inp_files/288031.got.cif
#   From: 2010.06.25/outbox.cif.g09.slc.cpg/sg15_145_cif.got.tgz:288031.got - 2010.06.28 07:06:18.
