data_PCOD8147627
_publ_section_title
;
Structure prediction by ZEFSAII (Michael W. Deem and Ramdas Pophale) SiO2 
 PCOD8147627
Probable space group: C 2/C
;
_chemical_formula_sum "Si O2"
_cell_formula_units_Z 56
_cell_length_a 8.853555
_cell_length_b 11.318832
_cell_length_c 31.303626
_cell_angle_alpha 90.000000
_cell_angle_beta 60.401754
_cell_angle_gamma 90.000000
_cell_volume 2727.649454
_symmetry_space_group_name_H-M "C 2/C"
_symmetry_group_IT_number 15
_symmetry_cell_setting 'monoclinic'
loop_
_space_group_symop_operation_xyz
x,y,z
-x,y,1/2-z
-x,-y,-z
x,-y,1/2+z
1/2+x,1/2+y,z
1/2-x,1/2+y,1/2-z
1/2-x,1/2-y,-z
1/2+x,1/2-y,1/2+z
loop_
_atom_site_type_symbol
_atom_site_label
_atom_site_fract_x
_atom_site_fract_y
_atom_site_fract_z
Si Si1 0.961782 0.517104 0.590513
Si Si2 0.500000 0.510770 0.750000
Si Si3 0.664932 0.143866 0.488702
Si Si4 0.920986 0.726543 0.448949
Si Si5 0.000000 0.543320 0.750000
Si Si6 0.644207 0.858501 0.314144
Si Si7 0.150841 0.087698 0.313343
Si Si8 0.383872 0.530052 0.907814
O O1 0.982153 0.581555 0.632874
O O2 0.754899 0.514996 0.611136
O O3 0.025113 0.584815 0.539235
O O4 0.069922 0.394102 0.580369
O O5 0.661518 0.591274 0.713713
O O6 0.447854 0.428493 0.717725
O O7 0.750000 0.250000 0.500000
O O8 0.580371 0.203679 0.458882
O O9 0.811216 0.046061 0.457736
O O10 0.750000 0.750000 0.500000
O O11 0.936231 0.837344 0.414992
O O12 0.948128 0.627902 0.718413
O O13 0.845298 0.457641 0.784142
O O14 0.655757 0.723379 0.325152
O O15 0.061915 0.021119 0.365102
#
# Coordination Sequence:
#
# PCOD8147627 Si02
#       8
#     8   4   8   8   4   8   8   8
#     4  11  22  40  66  95 128 173 221 260 325 389
#     4  10  22  44  68  92 124 176 212 264 344 380
#     4  11  23  39  62  95 133 167 215 271 318 384
#     4  11  21  42  65  88 133 176 218 261 311 389
#     4  10  26  44  64 104 126 162 222 274 326 394
#     4  11  23  44  68  96 132 167 216 275 327 388
#     4  11  23  43  68  95 129 167 218 268 330 387
#     4  11  22  41  65  95 127 177 216 260 323 392
#
# _framework density 20.530495999999999
#
# number of rings (size 3 to 8) (size 9 to 14) (size 15 to 20)
#    0.000    1.143    4.286    2.571    0.000    5.143 
#   12.857    0.000    0.000    0.000    0.000    0.000 
#    0.000    0.000    0.000    0.000    0.000    0.000 
#
# Total GULP energy -347093.528626 kJ/mol
# GULP energy per Si atom -12396.197451 kJ/mol
# Density = 2.048377 g / cm^3
# Si number density = 20.530496 Si / 1000 Ang^3
#
#
#
# Elastic Constant Matrix: (Units=GPa)
#
#
# Indices 1 2 3 4 5 6 
#
# 1 65.6251 17.6069 22.0670 0.0000 -18.3230 0.0000
# 2 17.6069 118.1860 32.9437 0.0000 -9.7229 0.0000
# 3 22.0670 32.9437 117.8950 0.0000 -16.8757 0.0000
# 4 0.0000 0.0000 0.0000 53.3715 0.0000 -3.3633
# 5 -18.3230 -9.7229 -16.8757 0.0000 10.8148 0.0000
# 6 0.0000 0.0000 0.0000 -3.3633 0.0000 31.8091
#
#
#
# Elastic Compliance Matrix: (Units=1/GPa)
#
#
# Indices 1 2 3 4 5 6 
#
# 1 0.029358 -0.000665 0.002221 0.000000 0.052609 0.000000
# 2 -0.000665 0.009449 -0.001881 0.000000 0.004433 0.000000
# 3 0.002221 -0.001881 0.011445 0.000000 0.019931 0.000000
# 4 0.000000 0.000000 0.000000 0.018862 0.000000 0.001994
# 5 0.052609 0.004433 0.019931 0.000000 0.216685 0.000000
# 6 0.000000 0.000000 0.000000 0.001994 0.000000 0.031648
#
#
# Mechanical properties :
#
#
# Convention : Reuss Voigt Hill
#
# Bulk Modulus (GPa) = 20.16022 49.66013 34.91017
# Shear Modulus (GPa) = 14.94172 34.47165 24.70668
#
# Velocity S-wave (km/s) = 2.70067 4.10206 3.47279
# Velocity P-wave (km/s) = 4.42332 6.83205 5.75511
#
# Compressibility (1/GPa) = 0.04960264
#
# Stress axis : x y z
#
# Youngs Moduli (GPa) = 34.06178 105.82637 87.37405
#
# Poissons Ratio (x) = 0.07035 -0.19407
# Poissons Ratio (y) = 0.02264 0.16439
# Poissons Ratio (z) = -0.07566 0.19911
#
# Static dielectric constant tensor:
#      x y z
#    x 3.809020 0.000000 0.022710 
#    y 0.000000 3.522480 0.000000 
#    z 0.022710 0.000000 3.746850 
# 
# 
# High freq. dielectric constant tensor:
#      x y z
#    x 1.796000 0.000000 -0.004220 
#    y 0.000000 1.810020 0.000000 
#    z -0.004220 0.000000 1.818750 
# 
# From -- ./inp_files/288106.got.cif
#   From: 2010.06.25/outbox.cif.g09.slc.cpg/sg15_145_cif.got.tgz:288106.got - 2010.06.28 07:06:18.
