data_PCOD8147340
_publ_section_title
;
Structure prediction by ZEFSAII (Michael W. Deem and Ramdas Pophale) SiO2 
 PCOD8147340
Probable space group: C 2/C
;
_chemical_formula_sum "Si O2"
_cell_formula_units_Z 48
_cell_length_a 10.864497
_cell_length_b 19.484813
_cell_length_c 21.376504
_cell_angle_alpha 90.000000
_cell_angle_beta 149.597902
_cell_angle_gamma 90.000000
_cell_volume 2290.072050
_symmetry_space_group_name_H-M "C 2/C"
_symmetry_group_IT_number 15
_symmetry_cell_setting 'monoclinic'
loop_
_space_group_symop_operation_xyz
x,y,z
-x,y,1/2-z
-x,-y,-z
x,-y,1/2+z
1/2+x,1/2+y,z
1/2-x,1/2+y,1/2-z
1/2-x,1/2-y,-z
1/2+x,1/2-y,1/2+z
loop_
_atom_site_type_symbol
_atom_site_label
_atom_site_fract_x
_atom_site_fract_y
_atom_site_fract_z
Si Si1 0.500000 0.296245 0.250000
Si Si2 0.105999 0.799260 0.631433
Si Si3 0.589594 0.807510 0.359757
Si Si4 0.366167 0.058992 0.757278
Si Si5 0.380688 0.408894 0.099798
Si Si6 0.630872 0.083435 0.178503
Si Si7 0.000000 0.979021 0.750000
O O1 0.730935 0.248111 0.340778
O O2 0.467577 0.341493 0.174053
O O3 0.253592 0.865995 0.719463
O O4 0.879467 0.819252 0.488354
O O5 0.999224 0.760592 0.644818
O O6 0.500000 0.800663 0.250000
O O7 0.475023 0.875438 0.342294
O O8 0.500000 0.057907 0.750000
O O9 0.072980 0.070159 0.629245
O O10 0.435552 0.989535 0.821439
O O11 0.359865 0.473205 0.138354
O O12 0.124609 0.387475 0.957690
O O13 0.810019 0.072195 0.198912
#
# Coordination Sequence:
#
# PCOD8147340 Si02
#       7
#     4   8   8   8   8   8   4
#     4  11  24  44  62  96 133 168 218 284 323 396
#     4  11  26  41  68  98 129 169 229 263 331 395
#     4  10  24  47  66  90 131 182 213 267 328 400
#     4  10  23  44  65  94 131 174 214 264 334 398
#     4  10  22  43  68  94 130 173 216 272 337 378
#     4  11  25  39  68 103 128 171 218 277 322 392
#     4   9  22  42  64 100 131 168 216 266 333 394
#
# _framework density 20.960038999999998
#
# number of rings (size 3 to 8) (size 9 to 14) (size 15 to 20)
#    0.000    1.667    1.667    0.500    9.333    5.333 
#    0.000    0.000    0.000    0.000    0.000    0.000 
#    0.000    0.000    0.000    0.000    0.000    0.000 
#
# Total GULP energy -297549.934953 kJ/mol
# GULP energy per Si atom -12397.913956 kJ/mol
# Density = 2.091233 g / cm^3
# Si number density = 20.960039 Si / 1000 Ang^3
#
#
#
# Elastic Constant Matrix: (Units=GPa)
#
#
# Indices 1 2 3 4 5 6 
#
# 1 114.8758 25.7642 42.5044 -0.0061 12.8191 -0.0001
# 2 25.7642 92.3663 38.9963 -0.0086 1.2267 0.0032
# 3 42.5044 38.9963 158.4930 -0.0129 8.3267 -0.0034
# 4 -0.0061 -0.0086 -0.0129 24.4860 0.0042 8.4879
# 5 12.8191 1.2267 8.3267 0.0042 29.3098 -0.0032
# 6 -0.0001 0.0032 -0.0034 8.4879 -0.0032 27.5754
#
#
#
# Elastic Compliance Matrix: (Units=1/GPa)
#
#
# Indices 1 2 3 4 5 6 
#
# 1 0.010346 -0.001952 -0.002092 0.000002 -0.003849 -0.000001
# 2 -0.001952 0.012453 -0.002597 0.000003 0.001070 -0.000003
# 3 -0.002092 -0.002597 0.007569 0.000003 -0.001126 0.000000
# 4 0.000002 0.000003 0.000003 0.045718 -0.000010 -0.014072
# 5 -0.003849 0.001070 -0.001126 -0.000010 0.036077 0.000007
# 6 -0.000001 -0.000003 0.000000 -0.014072 0.000007 0.040596
#
#
# Mechanical properties :
#
#
# Convention : Reuss Voigt Hill
#
# Bulk Modulus (GPa) = 58.52502 64.47386 61.49944
# Shear Modulus (GPa) = 29.11454 33.50558 31.31006
#
# Velocity S-wave (km/s) = 3.73104 4.00252 3.86916
# Velocity P-wave (km/s) = 6.82229 7.22408 7.02606
#
# Compressibility (1/GPa) = 0.01708671
#
# Stress axis : x y z
#
# Youngs Moduli (GPa) = 96.65182 80.30219 132.12387
#
# Poissons Ratio (x) = 0.15671 0.27644
# Poissons Ratio (y) = 0.18862 0.34310
# Poissons Ratio (z) = 0.20223 0.20853
#
# Static dielectric constant tensor:
#      x y z
#    x 3.803100 0.000000 0.205100 
#    y 0.000000 4.165350 -0.000030 
#    z 0.205100 -0.000030 3.708490 
# 
# 
# High freq. dielectric constant tensor:
#      x y z
#    x 1.824740 0.000000 0.018520 
#    y 0.000000 1.832820 0.000000 
#    z 0.018520 0.000000 1.814610 
# 
# From -- ./inp_files/270680.got.cif
#   From: 2010.06.25/outbox.cif.g09.slc.cpg/sg15_136_cif.got.tgz:270680.got - 2010.06.28 07:06:18.
