data_PCOD8147357
_publ_section_title
;
Structure prediction by ZEFSAII (Michael W. Deem and Ramdas Pophale) SiO2 
 PCOD8147357
Probable space group: C 2/C
;
_chemical_formula_sum "Si O2"
_cell_formula_units_Z 56
_cell_length_a 24.397104
_cell_length_b 8.936835
_cell_length_c 12.034266
_cell_angle_alpha 90.000000
_cell_angle_beta 64.413143
_cell_angle_gamma 90.000000
_cell_volume 2366.547554
_symmetry_space_group_name_H-M "C 2/C"
_symmetry_group_IT_number 15
_symmetry_cell_setting 'monoclinic'
loop_
_space_group_symop_operation_xyz
x,y,z
-x,y,1/2-z
-x,-y,-z
x,-y,1/2+z
1/2+x,1/2+y,z
1/2-x,1/2+y,1/2-z
1/2-x,1/2-y,-z
1/2+x,1/2-y,1/2+z
loop_
_atom_site_type_symbol
_atom_site_label
_atom_site_fract_x
_atom_site_fract_y
_atom_site_fract_z
Si Si1 0.019446 0.731320 0.542143
Si Si2 0.637078 0.767080 0.594187
Si Si3 0.317069 0.962935 0.316739
Si Si4 0.401204 0.701727 0.328525
Si Si5 0.089373 0.562960 0.938405
Si Si6 0.678899 0.512744 0.939897
Si Si7 0.912145 0.063818 0.672252
O O1 0.040780 0.755576 0.648973
O O2 0.057683 0.596136 0.456780
O O3 0.032274 0.874510 0.451611
O O4 0.948558 0.680565 0.606070
O O5 0.591744 0.869482 0.559999
O O6 0.676029 0.663671 0.474710
O O7 0.596842 0.672449 0.715092
O O8 0.680629 0.876564 0.625023
O O9 0.359246 0.844120 0.342153
O O10 0.342949 0.965685 0.168386
O O11 0.246594 0.920427 0.373307
O O12 0.355885 0.592891 0.431532
O O13 0.428584 0.603917 0.200747
O O14 0.648985 0.547731 0.847106
#
# Coordination Sequence:
#
# PCOD8147357 Si02
#       7
#     8   8   8   8   8   8   8
#     4  10  22  46  67  98 139 176 228 291 332 414
#     4  11  23  43  66 102 133 183 234 282 343 411
#     4  12  23  41  67 101 132 182 230 276 344 402
#     4  10  22  43  68  99 135 175 224 277 347 413
#     4  11  24  42  69 100 135 175 236 285 337 408
#     4  10  24  42  66  95 144 174 224 284 339 411
#     4  10  22  45  68 100 138 183 222 280 358 406
#
# _framework density 23.663163999999998
#
# number of rings (size 3 to 8) (size 9 to 14) (size 15 to 20)
#    0.000    1.429    2.857    1.714    0.000    5.714 
#    0.000   15.714    0.000    0.000    0.000    0.000 
#    0.000    0.000    0.000    0.000    0.000    0.000 
#
# Total GULP energy -347168.337877 kJ/mol
# GULP energy per Si atom -12398.869210 kJ/mol
# Density = 2.360931 g / cm^3
# Si number density = 23.663164 Si / 1000 Ang^3
#
#
#
# Elastic Constant Matrix: (Units=GPa)
#
#
# Indices 1 2 3 4 5 6 
#
# 1 71.4261 19.8275 42.4412 0.0000 -15.1444 0.0000
# 2 19.8275 118.0664 42.6491 0.0000 2.6365 0.0000
# 3 42.4412 42.6491 59.7453 0.0000 -1.4295 0.0000
# 4 0.0000 0.0000 0.0000 49.2126 0.0000 11.0215
# 5 -15.1444 2.6365 -1.4295 0.0000 30.1371 0.0000
# 6 0.0000 0.0000 0.0000 11.0215 0.0000 30.9736
#
#
#
# Elastic Compliance Matrix: (Units=1/GPa)
#
#
# Indices 1 2 3 4 5 6 
#
# 1 0.029615 0.002973 -0.022836 0.000000 0.013539 0.000000
# 2 0.002973 0.011769 -0.010515 0.000000 -0.000034 0.000000
# 3 -0.022836 -0.010515 0.040259 0.000000 -0.008646 0.000000
# 4 0.000000 0.000000 0.000000 0.022080 0.000000 -0.007857
# 5 0.013539 -0.000034 -0.008646 0.000000 0.039578 0.000000
# 6 0.000000 0.000000 0.000000 -0.007857 0.000000 0.035081
#
#
# Mechanical properties :
#
#
# Convention : Reuss Voigt Hill
#
# Bulk Modulus (GPa) = 47.87352 51.00818 49.44085
# Shear Modulus (GPa) = 20.31702 31.68599 26.00151
#
# Velocity S-wave (km/s) = 2.93335 3.66326 3.31844
# Velocity P-wave (km/s) = 5.63453 6.28454 5.96839
#
# Compressibility (1/GPa) = 0.02088838
#
# Stress axis : x y z
#
# Youngs Moduli (GPa) = 33.76688 84.96594 24.83936
#
# Poissons Ratio (x) = -0.25263 0.56723
# Poissons Ratio (y) = -0.10040 0.26118
# Poissons Ratio (z) = 0.77110 0.89338
#
# Static dielectric constant tensor:
#      x y z
#    x 3.989480 0.000000 0.126190 
#    y 0.000000 4.645940 0.000000 
#    z 0.126190 0.000000 4.262960 
# 
# 
# High freq. dielectric constant tensor:
#      x y z
#    x 1.920900 0.000000 0.002960 
#    y 0.000000 1.965340 0.000000 
#    z 0.002960 0.000000 1.948760 
# 
# From -- ./inp_files/121907.got.cif
#   From: 2010.06.25/outbox.cif.g09.slc.cpg/sg15_61_cif.got.tgz:121907.got - 2010.06.28 07:06:18.
