data_PCOD8147626
_publ_section_title
;
Structure prediction by ZEFSAII (Michael W. Deem and Ramdas Pophale) SiO2 
 PCOD8147626
Probable space group: C 2/C
;
_chemical_formula_sum "Si O2"
_cell_formula_units_Z 56
_cell_length_a 8.887494
_cell_length_b 14.677552
_cell_length_c 22.242822
_cell_angle_alpha 90.000000
_cell_angle_beta 116.055528
_cell_angle_gamma 90.000000
_cell_volume 2606.618569
_symmetry_space_group_name_H-M "C 2/C"
_symmetry_group_IT_number 15
_symmetry_cell_setting 'monoclinic'
loop_
_space_group_symop_operation_xyz
x,y,z
-x,y,1/2-z
-x,-y,-z
x,-y,1/2+z
1/2+x,1/2+y,z
1/2-x,1/2+y,1/2-z
1/2-x,1/2-y,-z
1/2+x,1/2-y,1/2+z
loop_
_atom_site_type_symbol
_atom_site_label
_atom_site_fract_x
_atom_site_fract_y
_atom_site_fract_z
Si Si1 0.577283 0.443639 0.458232
Si Si2 0.503988 0.396362 0.631379
Si Si3 0.409869 0.218476 0.564872
Si Si4 0.279381 0.335219 0.349856
Si Si5 0.550846 0.901601 0.989674
Si Si6 0.183416 0.512565 0.265217
Si Si7 0.211535 0.365348 0.659365
O O1 0.500000 0.500000 0.500000
O O2 0.606712 0.520562 0.413368
O O3 0.451282 0.366729 0.411845
O O4 0.758498 0.398077 0.502681
O O5 0.518763 0.309785 0.590947
O O6 0.693414 0.425711 0.674525
O O7 0.404597 0.367814 0.673196
O O8 0.250000 0.250000 0.500000
O O9 0.357370 0.172759 0.619776
O O10 0.531390 0.155048 0.547676
O O11 0.219521 0.406435 0.287308
O O12 0.307035 0.239077 0.319195
O O13 0.423644 0.866478 0.917301
O O14 0.500000 0.000000 0.000000
O O15 0.194532 0.545935 0.198393
O O16 0.000000 0.541561 0.250000
#
# Coordination Sequence:
#
# PCOD8147626 Si02
#       7
#     8   8   8   8   8   8   8
#     4  11  23  38  64 102 142 175 213 279 354 410
#     4  10  22  44  68  91 136 178 218 290 333 413
#     4  11  20  42  71 104 133 170 229 281 363 423
#     4  10  24  44  68  97 139 176 226 290 341 411
#     4  12  23  38  70 104 135 177 222 283 345 429
#     4  11  27  44  65  97 132 185 234 282 337 407
#     4  11  24  46  67  98 134 180 235 272 343 415
#
# _framework density 21.483771999999998
#
# number of rings (size 3 to 8) (size 9 to 14) (size 15 to 20)
#    0.000    1.143    4.286    2.143    6.000    4.000 
#    0.000    2.857    0.000    0.000    0.000    0.000 
#    0.000    0.000    0.000    0.000    0.000    0.000 
#
# Total GULP energy -346898.478576 kJ/mol
# GULP energy per Si atom -12389.231378 kJ/mol
# Density = 2.143487 g / cm^3
# Si number density = 21.483772 Si / 1000 Ang^3
#
#
#
# Elastic Constant Matrix: (Units=GPa)
#
#
# Indices 1 2 3 4 5 6 
#
# 1 110.8800 47.7321 32.6124 0.0000 17.8011 0.0000
# 2 47.7321 145.0763 48.9742 0.0000 2.7148 0.0000
# 3 32.6124 48.9742 77.3661 0.0000 2.3122 0.0000
# 4 0.0000 0.0000 0.0000 38.5222 0.0000 -2.8291
# 5 17.8011 2.7148 2.3122 0.0000 33.3451 0.0000
# 6 0.0000 0.0000 0.0000 -2.8291 0.0000 27.6633
#
#
#
# Elastic Compliance Matrix: (Units=1/GPa)
#
#
# Indices 1 2 3 4 5 6 
#
# 1 0.012123 -0.002813 -0.003150 0.000000 -0.006024 0.000000
# 2 -0.002813 0.009422 -0.004811 0.000000 0.001068 0.000000
# 3 -0.003150 -0.004811 0.017272 0.000000 0.000875 0.000000
# 4 0.000000 0.000000 0.000000 0.026156 0.000000 0.002675
# 5 -0.006024 0.001068 0.000875 0.000000 0.033058 0.000000
# 6 0.000000 0.000000 0.000000 0.002675 0.000000 0.036423
#
#
# Mechanical properties :
#
#
# Convention : Reuss Voigt Hill
#
# Bulk Modulus (GPa) = 57.89904 65.77330 61.83617
# Shear Modulus (GPa) = 30.91044 33.50637 32.20840
#
# Velocity S-wave (km/s) = 3.79724 3.95348 3.87615
# Velocity P-wave (km/s) = 6.79956 7.17787 6.99127
#
# Compressibility (1/GPa) = 0.01727144
#
# Stress axis : x y z
#
# Youngs Moduli (GPa) = 82.48654 106.13056 57.89559
#
# Poissons Ratio (x) = 0.29851 0.18236
# Poissons Ratio (y) = 0.23201 0.27852
# Poissons Ratio (z) = 0.25982 0.51057
#
# Static dielectric constant tensor:
#      x y z
#    x 4.177360 0.000000 -0.032700 
#    y 0.000000 4.134470 0.000000 
#    z -0.032700 0.000000 4.223560 
# 
# 
# High freq. dielectric constant tensor:
#      x y z
#    x 1.836440 0.000000 0.011060 
#    y 0.000000 1.861440 0.000000 
#    z 0.011060 0.000000 1.836560 
# 
# From -- ./inp_files/264834.got.cif
#   From: 2010.06.25/outbox.cif.g09.slc.cpg/sg15_133_cif.got.tgz:264834.got - 2010.06.28 07:06:18.
