data_PCOD8147941
_publ_section_title
;
Structure prediction by ZEFSAII (Michael W. Deem and Ramdas Pophale) SiO2 
 PCOD8147941
Probable space group: C 2/C
;
_chemical_formula_sum "Si O2"
_cell_formula_units_Z 64
_cell_length_a 15.390710
_cell_length_b 25.667228
_cell_length_c 12.588819
_cell_angle_alpha 90.000000
_cell_angle_beta 36.495161
_cell_angle_gamma 90.000000
_cell_volume 2957.744374
_symmetry_space_group_name_H-M "C 2/C"
_symmetry_group_IT_number 15
_symmetry_cell_setting 'monoclinic'
loop_
_space_group_symop_operation_xyz
x,y,z
-x,y,1/2-z
-x,-y,-z
x,-y,1/2+z
1/2+x,1/2+y,z
1/2-x,1/2+y,1/2-z
1/2-x,1/2-y,-z
1/2+x,1/2-y,1/2+z
loop_
_atom_site_type_symbol
_atom_site_label
_atom_site_fract_x
_atom_site_fract_y
_atom_site_fract_z
Si Si1 0.506321 0.929210 0.077187
Si Si2 0.225674 0.347930 0.866452
Si Si3 0.082238 0.456083 0.566313
Si Si4 0.818249 0.337509 0.351301
Si Si5 0.453888 0.662862 0.521778
Si Si6 0.337720 0.799664 0.955850
Si Si7 0.486850 0.220064 0.518601
Si Si8 0.143417 0.104588 0.676177
O O1 0.400149 0.892713 0.251752
O O2 0.520239 0.985732 0.114795
O O3 0.669345 0.906907 0.917827
O O4 0.452513 0.926238 0.008437
O O5 0.392562 0.353459 0.676205
O O6 0.193309 0.323543 0.013935
O O7 0.137103 0.313241 0.866764
O O8 0.256743 0.447744 0.412714
O O9 0.000000 0.431817 0.750000
O O10 0.655928 0.341487 0.467291
O O11 0.908011 0.289841 0.209313
O O12 0.467033 0.721386 0.552729
O O13 0.408640 0.623546 0.658097
O O14 0.500000 0.802029 0.750000
O O15 0.250000 0.750000 0.000000
O O16 0.362663 0.798332 0.057907
O O17 0.241143 0.850506 0.023525
O O18 0.000000 0.090766 0.750000
#
# Coordination Sequence:
#
# PCOD8147941 Si02
#       8
#     8   8   8   8   8   8   8   8
#     4  10  22  46  71  98 131 163 225 277 341 412
#     4  11  25  39  68  94 130 180 220 279 341 399
#     4  11  23  44  75 100 124 174 221 281 338 407
#     4  11  22  44  64  95 133 174 224 283 332 399
#     4  12  24  40  60  96 138 176 218 279 328 394
#     4  12  25  42  65  92 129 183 223 274 340 398
#     4  11  23  40  63  91 132 174 236 267 322 404
#     4  12  26  43  64  99 142 174 224 281 333 397
#
# _framework density 21.638110000000001
#
# number of rings (size 3 to 8) (size 9 to 14) (size 15 to 20)
#    0.000    0.750    2.500    6.375    5.250    3.000 
#    0.000    3.125    0.000    0.000    0.000    0.000 
#    0.000    0.000    0.000    0.000    0.000    0.000 
#
# Total GULP energy -396741.831606 kJ/mol
# GULP energy per Si atom -12398.182238 kJ/mol
# Density = 2.158886 g / cm^3
# Si number density = 21.638110 Si / 1000 Ang^3
#
#
#
# Elastic Constant Matrix: (Units=GPa)
#
#
# Indices 1 2 3 4 5 6 
#
# 1 139.3768 17.6784 38.7202 -0.0002 -22.6857 0.0006
# 2 17.6784 44.2428 21.0611 -0.0001 -8.9963 0.0000
# 3 38.7202 21.0611 122.7367 -0.0005 -19.0455 0.0009
# 4 -0.0002 -0.0001 -0.0005 19.7593 0.0004 -15.3552
# 5 -22.6857 -8.9963 -19.0455 0.0004 43.9871 -0.0007
# 6 0.0006 0.0000 0.0009 -15.3552 -0.0007 44.0557
#
#
#
# Elastic Compliance Matrix: (Units=1/GPa)
#
#
# Indices 1 2 3 4 5 6 
#
# 1 0.008440 -0.001845 -0.001854 0.000000 0.003173 0.000000
# 2 -0.001845 0.025510 -0.003359 0.000000 0.002812 0.000000
# 3 -0.001854 -0.003359 0.009706 0.000000 0.002559 0.000000
# 4 0.000000 0.000000 0.000000 0.069409 0.000000 0.024192
# 5 0.003173 0.002812 0.002559 0.000000 0.026054 0.000000
# 6 0.000000 0.000000 0.000000 0.024192 0.000000 0.031130
#
#
# Mechanical properties :
#
#
# Convention : Reuss Voigt Hill
#
# Bulk Modulus (GPa) = 33.85128 51.25285 42.55207
# Shear Modulus (GPa) = 25.74502 36.82020 31.28261
#
# Velocity S-wave (km/s) = 3.45309 4.12957 3.80639
# Velocity P-wave (km/s) = 5.61931 6.81730 6.24709
#
# Compressibility (1/GPa) = 0.02954098
#
# Stress axis : x y z
#
# Youngs Moduli (GPa) = 118.48015 39.19955 103.03013
#
# Poissons Ratio (x) = 0.07232 0.19099
# Poissons Ratio (y) = 0.21858 0.34610
# Poissons Ratio (z) = 0.21963 0.13168
#
# Static dielectric constant tensor:
#      x y z
#    x 4.339250 0.000000 -0.085900 
#    y 0.000000 3.749750 0.000000 
#    z -0.085900 0.000000 3.955480 
# 
# 
# High freq. dielectric constant tensor:
#      x y z
#    x 1.871980 0.000000 -0.004220 
#    y 0.000000 1.829640 0.000000 
#    z -0.004220 0.000000 1.857710 
# 
# From -- ./inp_files/101311.got.cif
#   From: 2010.06.25/outbox.cif.g09.slc.cpg/sg15_51_cif.got.tgz:101311.got - 2010.06.28 07:06:18.
