data_PCOD8147613
_publ_section_title
;
Structure prediction by ZEFSAII (Michael W. Deem and Ramdas Pophale) SiO2 
 PCOD8147613
Probable space group: C 2/C
;
_chemical_formula_sum "Si O2"
_cell_formula_units_Z 64
_cell_length_a 31.732805
_cell_length_b 7.520001
_cell_length_c 14.258517
_cell_angle_alpha 90.000000
_cell_angle_beta 54.954072
_cell_angle_gamma 90.000000
_cell_volume 2785.616130
_symmetry_space_group_name_H-M "C 2/C"
_symmetry_group_IT_number 15
_symmetry_cell_setting 'monoclinic'
loop_
_space_group_symop_operation_xyz
x,y,z
-x,y,1/2-z
-x,-y,-z
x,-y,1/2+z
1/2+x,1/2+y,z
1/2-x,1/2+y,1/2-z
1/2-x,1/2-y,-z
1/2+x,1/2-y,1/2+z
loop_
_atom_site_type_symbol
_atom_site_label
_atom_site_fract_x
_atom_site_fract_y
_atom_site_fract_z
Si Si1 0.082947 0.077129 0.231171
Si Si2 0.420183 0.811088 0.700626
Si Si3 0.233076 0.386852 0.097477
Si Si4 0.506387 0.094107 0.842966
Si Si5 0.338812 0.543871 0.021631
Si Si6 0.158358 0.569975 0.054963
Si Si7 0.105816 0.562769 0.450142
Si Si8 0.354811 0.281754 0.681349
O O1 0.036581 0.217860 0.288704
O O2 0.126835 0.152057 0.241881
O O3 0.061997 0.889047 0.298209
O O4 0.112713 0.046233 0.094195
O O5 0.394763 0.905587 0.822460
O O6 0.381661 0.817434 0.658698
O O7 0.468129 0.945491 0.621057
O O8 0.284960 0.449941 0.078552
O O9 0.201998 0.528333 0.074725
O O10 0.199770 0.311857 0.226963
O O11 0.250000 0.250000 0.000000
O O12 0.500000 0.001852 0.750000
O O13 0.449901 0.137710 0.952002
O O14 0.350924 0.548319 0.117317
O O15 0.326369 0.745101 0.009539
O O16 0.146287 0.423316 0.986701
O O17 0.105366 0.357004 0.417052
#
# Coordination Sequence:
#
# PCOD8147613 Si02
#       8
#     8   8   8   8   8   8   8   8
#     4  11  25  47  68 106 145 184 240 305 355 431
#     4  11  23  44  69  98 142 186 233 297 362 423
#     4  12  23  42  73 100 139 189 237 298 369 437
#     4  12  25  44  72 101 142 189 242 293 363 434
#     4  10  25  45  70 103 142 188 239 300 362 435
#     4  10  22  44  68 100 142 183 234 300 359 432
#     4  11  23  44  72 100 139 195 233 295 362 429
#     4  11  24  46  71 104 148 185 244 302 362 443
#
# _framework density 22.975169000000001
#
# number of rings (size 3 to 8) (size 9 to 14) (size 15 to 20)
#    0.000    1.000    5.000    0.750    0.000    5.000 
#    4.500    0.000    0.000    0.000    0.000    0.000 
#    0.000    0.000    0.000    0.000    0.000    0.000 
#
# Total GULP energy -396461.381339 kJ/mol
# GULP energy per Si atom -12389.418167 kJ/mol
# Density = 2.292288 g / cm^3
# Si number density = 22.975169 Si / 1000 Ang^3
#
#
#
# Elastic Constant Matrix: (Units=GPa)
#
#
# Indices 1 2 3 4 5 6 
#
# 1 74.0900 31.3077 46.7285 0.0000 -3.1307 -0.0001
# 2 31.3077 89.5096 36.1561 0.0000 -18.3108 -0.0004
# 3 46.7285 36.1561 110.0896 0.0000 6.1453 0.0000
# 4 0.0000 0.0000 0.0000 33.3517 0.0000 5.0920
# 5 -3.1307 -18.3108 6.1453 0.0000 33.9270 0.0000
# 6 -0.0001 -0.0004 0.0000 5.0920 0.0000 28.7832
#
#
#
# Elastic Compliance Matrix: (Units=1/GPa)
#
#
# Indices 1 2 3 4 5 6 
#
# 1 0.019651 -0.003756 -0.007168 0.000000 0.001085 0.000000
# 2 -0.003756 0.016025 -0.004174 0.000000 0.009058 0.000000
# 3 -0.007168 -0.004174 0.013799 0.000000 -0.005414 0.000000
# 4 0.000000 0.000000 0.000000 0.030816 0.000000 -0.005452
# 5 0.001085 0.009058 -0.005414 0.000000 0.035445 0.000000
# 6 0.000000 0.000000 0.000000 -0.005452 0.000000 0.035707
#
#
# Mechanical properties :
#
#
# Convention : Reuss Voigt Hill
#
# Bulk Modulus (GPa) = 51.87166 55.78596 53.82881
# Shear Modulus (GPa) = 26.58650 29.84549 28.21600
#
# Velocity S-wave (km/s) = 3.40543 3.60812 3.50824
# Velocity P-wave (km/s) = 6.17162 6.45691 6.31588
#
# Compressibility (1/GPa) = 0.01927835
#
# Stress axis : x y z
#
# Youngs Moduli (GPa) = 50.88819 62.40262 72.46802
#
# Poissons Ratio (x) = 0.23439 0.51945
# Poissons Ratio (y) = 0.19114 0.30251
# Poissons Ratio (z) = 0.36477 0.26049
#
# Static dielectric constant tensor:
#      x y z
#    x 3.739350 0.000000 0.350040 
#    y 0.000000 4.132310 0.000000 
#    z 0.350040 0.000000 4.301070 
# 
# 
# High freq. dielectric constant tensor:
#      x y z
#    x 1.910020 0.000000 0.020000 
#    y 0.000000 1.901650 0.000000 
#    z 0.020000 0.000000 1.913230 
# 
# From -- ./inp_files/181154.got.cif
#   From: 2010.06.25/outbox.cif.g09.slc.cpg/sg15_91_cif.got.tgz:181154.got - 2010.06.28 07:06:18.
