data_PCOD8147174
_publ_section_title
;
Structure prediction by ZEFSAII (Michael W. Deem and Ramdas Pophale) SiO2 
 PCOD8147174
Probable space group: C 2/C
;
_chemical_formula_sum "Si O2"
_cell_formula_units_Z 44
_cell_length_a 16.746092
_cell_length_b 28.966682
_cell_length_c 8.995190
_cell_angle_alpha 90.000000
_cell_angle_beta 152.180415
_cell_angle_gamma 90.000000
_cell_volume 2036.339166
_symmetry_space_group_name_H-M "C 2/C"
_symmetry_group_IT_number 15
_symmetry_cell_setting 'monoclinic'
loop_
_space_group_symop_operation_xyz
x,y,z
-x,y,1/2-z
-x,-y,-z
x,-y,1/2+z
1/2+x,1/2+y,z
1/2-x,1/2+y,1/2-z
1/2-x,1/2-y,-z
1/2+x,1/2-y,1/2+z
loop_
_atom_site_type_symbol
_atom_site_label
_atom_site_fract_x
_atom_site_fract_y
_atom_site_fract_z
Si Si1 0.850295 0.361963 0.382985
Si Si2 0.543088 0.219763 0.145829
Si Si3 0.781585 0.458109 0.751616
Si Si4 0.500000 0.614254 0.750000
Si Si5 0.823772 0.548907 0.662649
Si Si6 0.393900 0.316016 0.302238
O O1 0.776673 0.403672 0.165108
O O2 0.679660 0.341387 0.175658
O O3 0.923534 0.322429 0.391827
O O4 0.000000 0.376150 0.750000
O O5 0.500000 0.225326 0.250000
O O6 0.503904 0.267954 0.994465
O O7 0.738583 0.202755 0.441565
O O8 0.664717 0.417898 0.491529
O O9 0.734166 0.508833 0.612801
O O10 0.752350 0.456068 0.879544
O O11 0.971798 0.450733 0.006441
O O12 0.484264 0.647566 0.581465
#
# Coordination Sequence:
#
# PCOD8147174 Si02
#       6
#     8   8   8   4   8   8
#     4   9  18  31  58  84 112 156 205 239 291 354
#     4   8  14  29  50  86 110 155 196 249 274 355
#     4  10  24  39  64  84 121 152 205 247 302 345
#     4  12  22  36  56  96 118 158 190 260 298 354
#     4  10  22  43  60  87 114 165 200 246 289 373
#     4   9  17  28  52  84 121 146 198 240 298 342
#
# _framework density 21.607403000000001
#
# number of rings (size 3 to 8) (size 9 to 14) (size 15 to 20)
#    0.000    2.909    0.909    2.182    7.636    0.727 
#    0.000    0.000    0.000    1.091    9.455    0.000 
#    0.000    0.000    0.000    0.000    0.000    0.000 
#
# Total GULP energy -272546.374285 kJ/mol
# GULP energy per Si atom -12388.471558 kJ/mol
# Density = 2.155822 g / cm^3
# Si number density = 21.607403 Si / 1000 Ang^3
#
#
#
# Elastic Constant Matrix: (Units=GPa)
#
#
# Indices 1 2 3 4 5 6 
#
# 1 70.0079 57.8940 7.0951 0.0000 -5.6455 0.0000
# 2 57.8940 197.7346 17.7823 0.0000 -11.4655 0.0000
# 3 7.0951 17.7823 19.3526 0.0000 -6.9190 0.0001
# 4 0.0000 0.0000 0.0000 16.5573 0.0000 5.0471
# 5 -5.6455 -11.4655 -6.9190 0.0000 20.2013 0.0000
# 6 0.0000 0.0000 0.0001 5.0471 0.0000 48.1025
#
#
#
# Elastic Compliance Matrix: (Units=1/GPa)
#
#
# Indices 1 2 3 4 5 6 
#
# 1 0.018976 -0.005324 -0.001424 0.000000 0.001794 0.000000
# 2 -0.005324 0.007052 -0.004135 0.000000 0.001098 0.000000
# 3 -0.001424 -0.004135 0.062689 0.000000 0.018727 0.000000
# 4 0.000000 0.000000 0.000000 0.062392 0.000000 -0.006546
# 5 0.001794 0.001098 0.018727 0.000000 0.057040 0.000000
# 6 0.000000 0.000000 0.000000 -0.006546 0.000000 0.021476
#
#
# Mechanical properties :
#
#
# Convention : Reuss Voigt Hill
#
# Bulk Modulus (GPa) = 14.93620 50.29309 32.61464
# Shear Modulus (GPa) = 18.26774 30.59379 24.43077
#
# Velocity S-wave (km/s) = 2.91080 3.76692 3.36619
# Velocity P-wave (km/s) = 4.26902 6.49969 5.49866
#
# Compressibility (1/GPa) = 0.06695143
#
# Stress axis : x y z
#
# Youngs Moduli (GPa) = 52.69927 141.81301 15.95170
#
# Poissons Ratio (x) = 0.75498 0.02271
# Poissons Ratio (y) = 0.28056 0.06596
# Poissons Ratio (z) = 0.07503 0.58639
#
# Static dielectric constant tensor:
#      x y z
#    x 3.757050 0.000000 0.211570 
#    y 0.000000 4.406550 0.000000 
#    z 0.211570 0.000000 3.236710 
# 
# 
# High freq. dielectric constant tensor:
#      x y z
#    x 1.843920 0.000000 0.024470 
#    y 0.000000 1.877620 0.000000 
#    z 0.024470 0.000000 1.779270 
# 
# From -- ./inp_files/52704.got.cif
#   From: 2010.06.25/outbox.cif.g09.slc.cpg/sg15_27_cif.got.tgz:52704.got - 2010.06.28 07:06:18.
