data_PCOD8147795
_publ_section_title
;
Structure prediction by ZEFSAII (Michael W. Deem and Ramdas Pophale) SiO2 
 PCOD8147795
Probable space group: C 2/C
;
_chemical_formula_sum "Si O2"
_cell_formula_units_Z 44
_cell_length_a 26.347550
_cell_length_b 11.657763
_cell_length_c 11.942740
_cell_angle_alpha 90.000000
_cell_angle_beta 146.001646
_cell_angle_gamma 90.000000
_cell_volume 2051.174414
_symmetry_space_group_name_H-M "C 2/C"
_symmetry_group_IT_number 15
_symmetry_cell_setting 'monoclinic'
loop_
_space_group_symop_operation_xyz
x,y,z
-x,y,1/2-z
-x,-y,-z
x,-y,1/2+z
1/2+x,1/2+y,z
1/2-x,1/2+y,1/2-z
1/2-x,1/2-y,-z
1/2+x,1/2-y,1/2+z
loop_
_atom_site_type_symbol
_atom_site_label
_atom_site_fract_x
_atom_site_fract_y
_atom_site_fract_z
Si Si1 0.171297 0.831460 0.494301
Si Si2 0.439813 0.782723 0.280759
Si Si3 0.000000 0.524040 0.750000
Si Si4 0.874967 0.347275 0.401801
Si Si5 0.641246 0.274039 0.190941
Si Si6 0.174583 0.087984 0.550071
O O1 0.128529 0.747790 0.507756
O O2 0.280550 0.821237 0.685977
O O3 0.127036 0.800721 0.294711
O O4 0.141060 0.959556 0.468672
O O5 0.426080 0.900966 0.186186
O O6 0.408802 0.788035 0.351096
O O7 0.548081 0.769875 0.468924
O O8 0.389339 0.676055 0.132719
O O9 0.943584 0.447275 0.560501
O O10 0.776889 0.398834 0.194311
O O11 0.670677 0.388088 0.176440
#
# Coordination Sequence:
#
# PCOD8147795 Si02
#       6
#     8   8   4   8   8   8
#     4  10  24  44  68  98 134 180 227 272 342 394
#     4  12  24  45  68 100 133 177 227 278 338 394
#     4  12  24  46  70  98 134 176 228 278 338 396
#     4  11  26  42  70 100 132 176 230 277 328 408
#     4  10  22  45  66  95 137 180 222 274 336 400
#     4  11  24  42  68  99 134 181 217 284 334 401
#
# _framework density 21.451127
#
# number of rings (size 3 to 8) (size 9 to 14) (size 15 to 20)
#    0.000    1.091    1.818    3.273    5.091    5.091 
#    6.545    0.000    0.000    0.000    0.000    0.000 
#    0.000    0.000    0.000    0.000    0.000    0.000 
#
# Total GULP energy -272863.249833 kJ/mol
# GULP energy per Si atom -12402.874992 kJ/mol
# Density = 2.140230 g / cm^3
# Si number density = 21.451127 Si / 1000 Ang^3
#
#
#
# Elastic Constant Matrix: (Units=GPa)
#
#
# Indices 1 2 3 4 5 6 
#
# 1 126.3447 47.3598 13.7571 0.0000 -24.8878 0.0000
# 2 47.3598 148.5542 33.2600 0.0000 -19.4204 0.0000
# 3 13.7571 33.2600 90.8108 0.0000 -5.7394 0.0000
# 4 0.0000 0.0000 0.0000 17.5520 0.0000 2.7934
# 5 -24.8878 -19.4204 -5.7394 0.0000 35.8107 0.0000
# 6 0.0000 0.0000 0.0000 2.7934 0.0000 21.5039
#
#
#
# Elastic Compliance Matrix: (Units=1/GPa)
#
#
# Indices 1 2 3 4 5 6 
#
# 1 0.009933 -0.002375 -0.000283 0.000000 0.005570 0.000000
# 2 -0.002375 0.008386 -0.002554 0.000000 0.002488 0.000000
# 3 -0.000283 -0.002554 0.012012 0.000000 0.000343 0.000000
# 4 0.000000 0.000000 0.000000 0.058176 0.000000 -0.007557
# 5 0.005570 0.002488 0.000343 0.000000 0.033200 0.000000
# 6 0.000000 0.000000 0.000000 -0.007557 0.000000 0.047485
#
#
# Mechanical properties :
#
#
# Convention : Reuss Voigt Hill
#
# Bulk Modulus (GPa) = 50.23549 61.60704 55.92127
# Shear Modulus (GPa) = 26.84536 33.06220 29.95378
#
# Velocity S-wave (km/s) = 3.54144 3.93017 3.74086
# Velocity P-wave (km/s) = 6.33971 7.02688 6.69212
#
# Compressibility (1/GPa) = 0.01990624
#
# Stress axis : x y z
#
# Youngs Moduli (GPa) = 100.67257 119.24791 83.25019
#
# Poissons Ratio (x) = 0.28325 0.02354
# Poissons Ratio (y) = 0.23913 0.21265
# Poissons Ratio (z) = 0.02847 0.30460
#
# Static dielectric constant tensor:
#      x y z
#    x 3.965220 0.000000 -0.049670 
#    y 0.000000 3.753380 0.000000 
#    z -0.049670 0.000000 3.958030 
# 
# 
# High freq. dielectric constant tensor:
#      x y z
#    x 1.854340 0.000000 -0.008230 
#    y 0.000000 1.837580 0.000000 
#    z -0.008230 0.000000 1.851750 
# 
# From -- ./inp_files/118128.got.cif
#   From: 2010.06.25/outbox.cif.g09.slc.cpg/sg15_60_cif.got.tgz:118128.got - 2010.06.28 07:06:18.
