data_PCOD8147461
_publ_section_title
;
Structure prediction by ZEFSAII (Michael W. Deem and Ramdas Pophale) SiO2 
 PCOD8147461
Probable space group: C 2/C
;
_chemical_formula_sum "Si O2"
_cell_formula_units_Z 36
_cell_length_a 29.295962
_cell_length_b 8.896346
_cell_length_c 9.786401
_cell_angle_alpha 90.000000
_cell_angle_beta 36.383269
_cell_angle_gamma 90.000000
_cell_volume 1512.974941
_symmetry_space_group_name_H-M "C 2/C"
_symmetry_group_IT_number 15
_symmetry_cell_setting 'monoclinic'
loop_
_space_group_symop_operation_xyz
x,y,z
-x,y,1/2-z
-x,-y,-z
x,-y,1/2+z
1/2+x,1/2+y,z
1/2-x,1/2+y,1/2-z
1/2-x,1/2-y,-z
1/2+x,1/2-y,1/2+z
loop_
_atom_site_type_symbol
_atom_site_label
_atom_site_fract_x
_atom_site_fract_y
_atom_site_fract_z
Si Si1 0.500000 0.295214 0.250000
Si Si2 0.130705 0.335102 0.874398
Si Si3 0.632627 0.513219 0.335801
Si Si4 0.889878 0.570291 0.372122
Si Si5 0.765364 0.011178 0.156857
O O1 0.447145 0.398185 0.473270
O O2 0.447877 0.199620 0.274379
O O3 0.110590 0.162680 0.899290
O O4 0.109037 0.438159 0.794877
O O5 0.222764 0.347640 0.684890
O O6 0.086141 0.410532 0.113131
O O7 0.686563 0.566800 0.329382
O O8 0.674883 0.560041 0.094069
O O9 0.802120 0.606327 0.635353
#
# Coordination Sequence:
#
# PCOD8147461 Si02
#       5
#     4   8   8   8   8
#     4  12  30  44  64 116 148 184 222 312 356 418
#     4  10  23  46  74 104 131 192 236 296 332 431
#     4  12  25  44  76 103 148 178 247 287 359 406
#     4  10  24  46  72 103 145 178 243 283 361 417
#     4  10  22  43  76 103 130 193 236 292 331 433
#
# _framework density 23.794181999999999
#
# number of rings (size 3 to 8) (size 9 to 14) (size 15 to 20)
#    1.333    0.000    2.222    2.000    3.111    8.000 
#    0.000    0.000    0.000    0.000    0.000    0.000 
#    0.000    0.000    0.000    0.000    0.000    0.000 
#
# Total GULP energy -223043.889297 kJ/mol
# GULP energy per Si atom -12391.327183 kJ/mol
# Density = 2.374003 g / cm^3
# Si number density = 23.794182 Si / 1000 Ang^3
#
#
#
# Elastic Constant Matrix: (Units=GPa)
#
#
# Indices 1 2 3 4 5 6 
#
# 1 94.0900 38.5010 34.4401 0.0000 15.0066 0.0000
# 2 38.5010 90.3284 24.8094 0.0000 -8.8116 0.0000
# 3 34.4401 24.8094 76.4913 0.0000 -14.8965 0.0000
# 4 0.0000 0.0000 0.0000 29.5535 0.0000 -16.9617
# 5 15.0066 -8.8116 -14.8965 0.0000 41.6086 0.0000
# 6 0.0000 0.0000 0.0000 -16.9617 0.0000 34.2104
#
#
#
# Elastic Compliance Matrix: (Units=1/GPa)
#
#
# Indices 1 2 3 4 5 6 
#
# 1 0.017944 -0.006480 -0.008068 0.000000 -0.010732 0.000000
# 2 -0.006480 0.014554 -0.000804 0.000000 0.005131 0.000000
# 3 -0.008068 -0.000804 0.018812 0.000000 0.009474 0.000000
# 4 0.000000 0.000000 0.000000 0.047295 0.000000 0.023449
# 5 -0.010732 0.005131 0.009474 0.000000 0.032383 0.000000
# 6 0.000000 0.000000 0.000000 0.023449 0.000000 0.040857
#
#
# Mechanical properties :
#
#
# Convention : Reuss Voigt Hill
#
# Bulk Modulus (GPa) = 48.52589 50.71229 49.61909
# Shear Modulus (GPa) = 23.87583 31.95179 27.91381
#
# Velocity S-wave (km/s) = 3.17114 3.66845 3.42882
# Velocity P-wave (km/s) = 5.81777 6.26918 6.04769
#
# Compressibility (1/GPa) = 0.02060756
#
# Stress axis : x y z
#
# Youngs Moduli (GPa) = 55.72772 68.71048 53.15818
#
# Poissons Ratio (x) = 0.44521 0.42888
# Poissons Ratio (y) = 0.36109 0.04272
# Poissons Ratio (z) = 0.44961 0.05522
#
# Static dielectric constant tensor:
#      x y z
#    x 4.384890 0.000000 -0.017210 
#    y 0.000000 3.861380 0.000000 
#    z -0.017210 0.000000 4.233210 
# 
# 
# High freq. dielectric constant tensor:
#      x y z
#    x 1.959080 0.000000 0.001130 
#    y 0.000000 1.918770 0.000000 
#    z 0.001130 0.000000 1.935250 
# 
# From -- ./inp_files/64995.got.cif
#   From: 2010.06.25/outbox.cif.g09.slc.cpg/sg15_33_cif.got.tgz:64995.got - 2010.06.28 07:06:18.
