data_PCOD8147661
_publ_section_title
;
Structure prediction by ZEFSAII (Michael W. Deem and Ramdas Pophale) SiO2 
 PCOD8147661
Probable space group: C 2/C
;
_chemical_formula_sum "Si O2"
_cell_formula_units_Z 56
_cell_length_a 10.941881
_cell_length_b 15.672453
_cell_length_c 15.132138
_cell_angle_alpha 90.000000
_cell_angle_beta 90.148263
_cell_angle_gamma 90.000000
_cell_volume 2594.942880
_symmetry_space_group_name_H-M "C 2/C"
_symmetry_group_IT_number 15
_symmetry_cell_setting 'monoclinic'
loop_
_space_group_symop_operation_xyz
x,y,z
-x,y,1/2-z
-x,-y,-z
x,-y,1/2+z
1/2+x,1/2+y,z
1/2-x,1/2+y,1/2-z
1/2-x,1/2-y,-z
1/2+x,1/2-y,1/2+z
loop_
_atom_site_type_symbol
_atom_site_label
_atom_site_fract_x
_atom_site_fract_y
_atom_site_fract_z
Si Si1 0.239441 0.986206 0.372140
Si Si2 0.887613 0.138257 0.183384
Si Si3 0.583243 0.288271 0.995412
Si Si4 0.863880 0.670946 0.216045
Si Si5 0.620626 0.982889 0.303216
Si Si6 0.177250 0.610450 0.984168
Si Si7 0.826137 0.196905 0.569492
O O1 0.276618 0.969936 0.270717
O O2 0.228958 0.896123 0.418771
O O3 0.116383 0.043938 0.362520
O O4 0.329817 0.039690 0.437846
O O5 0.920981 0.208318 0.110732
O O6 0.748512 0.158889 0.215013
O O7 0.000000 0.141038 0.250000
O O8 0.593614 0.188066 0.019321
O O9 0.689641 0.348711 0.033462
O O10 0.461307 0.322685 0.037821
O O11 0.878067 0.581407 0.164015
O O12 0.821140 0.750169 0.158788
O O13 0.000000 0.694517 0.250000
O O14 0.500000 0.957319 0.250000
O O15 0.633854 0.925636 0.389968
O O16 0.750000 0.250000 0.500000
#
# Coordination Sequence:
#
# PCOD8147661 Si02
#       7
#     8   8   8   8   8   8   8
#     4  10  25  43  65 103 135 181 232 280 354 408
#     4  10  22  44  69  96 136 175 233 283 340 418
#     4  10  25  40  69  96 130 187 221 278 361 407
#     4  10  24  41  65  96 139 169 222 288 346 407
#     4  10  23  40  68  99 129 185 229 277 345 414
#     4  10  23  44  68  93 140 174 234 277 339 423
#     4  12  26  41  64  99 134 174 224 289 344 404
#
# _framework density 21.580438000000001
#
# number of rings (size 3 to 8) (size 9 to 14) (size 15 to 20)
#    0.000    1.714    0.000    1.714   14.000    7.429 
#    0.000    0.000    0.000    0.000    0.000    0.000 
#    0.000    0.000    0.000    0.000    0.000    0.000 
#
# Total GULP energy -346905.318462 kJ/mol
# GULP energy per Si atom -12389.475659 kJ/mol
# Density = 2.153132 g / cm^3
# Si number density = 21.580438 Si / 1000 Ang^3
#
#
#
# Elastic Constant Matrix: (Units=GPa)
#
#
# Indices 1 2 3 4 5 6 
#
# 1 54.3316 31.1321 15.8776 0.0000 10.8646 0.0000
# 2 31.1321 129.2153 36.3815 0.0000 13.2213 0.0000
# 3 15.8776 36.3815 84.2154 0.0000 17.4155 0.0000
# 4 0.0000 0.0000 0.0000 41.0586 0.0000 7.3979
# 5 10.8646 13.2213 17.4155 0.0000 34.1878 0.0000
# 6 0.0000 0.0000 0.0000 7.3979 0.0000 24.4453
#
#
#
# Elastic Compliance Matrix: (Units=1/GPa)
#
#
# Indices 1 2 3 4 5 6 
#
# 1 0.022316 -0.004537 -0.001278 0.000000 -0.004686 0.000000
# 2 -0.004537 0.009816 -0.003240 0.000000 -0.000704 0.000000
# 3 -0.001278 -0.003240 0.014723 0.000000 -0.005841 0.000000
# 4 0.000000 0.000000 0.000000 0.025760 0.000000 -0.007796
# 5 -0.004686 -0.000704 -0.005841 0.000000 0.033987 0.000000
# 6 0.000000 0.000000 0.000000 -0.007796 0.000000 0.043267
#
#
# Mechanical properties :
#
#
# Convention : Reuss Voigt Hill
#
# Bulk Modulus (GPa) = 34.78895 48.28273 41.53584
# Shear Modulus (GPa) = 28.15934 32.22973 30.19453
#
# Velocity S-wave (km/s) = 3.61620 3.86874 3.74460
# Velocity P-wave (km/s) = 5.79581 6.50985 6.16318
#
# Compressibility (1/GPa) = 0.02874476
#
# Stress axis : x y z
#
# Youngs Moduli (GPa) = 44.81099 101.87041 67.92219
#
# Poissons Ratio (x) = 0.46221 0.08682
# Poissons Ratio (y) = 0.20332 0.22005
# Poissons Ratio (z) = 0.05728 0.33003
#
# Static dielectric constant tensor:
#      x y z
#    x 3.676770 0.000000 -0.099670 
#    y 0.000000 4.086840 0.000000 
#    z -0.099670 0.000000 3.809050 
# 
# 
# High freq. dielectric constant tensor:
#      x y z
#    x 1.842700 0.000000 0.005080 
#    y 0.000000 1.857980 0.000000 
#    z 0.005080 0.000000 1.850420 
# 
# From -- ./inp_files/144243.got.cif
#   From: 2010.06.25/outbox.cif.g09.slc.cpg/sg15_73_cif.got.tgz:144243.got - 2010.06.28 07:06:18.
