data_PCOD8147212
_publ_section_title
;
Structure prediction by ZEFSAII (Michael W. Deem and Ramdas Pophale) SiO2 
 PCOD8147212
Probable space group: C 2/C
;
_chemical_formula_sum "Si O2"
_cell_formula_units_Z 48
_cell_length_a 13.082723
_cell_length_b 12.440257
_cell_length_c 21.150253
_cell_angle_alpha 90.000000
_cell_angle_beta 136.794251
_cell_angle_gamma 90.000000
_cell_volume 2356.637607
_symmetry_space_group_name_H-M "C 2/C"
_symmetry_group_IT_number 15
_symmetry_cell_setting 'monoclinic'
loop_
_space_group_symop_operation_xyz
x,y,z
-x,y,1/2-z
-x,-y,-z
x,-y,1/2+z
1/2+x,1/2+y,z
1/2-x,1/2+y,1/2-z
1/2-x,1/2-y,-z
1/2+x,1/2-y,1/2+z
loop_
_atom_site_type_symbol
_atom_site_label
_atom_site_fract_x
_atom_site_fract_y
_atom_site_fract_z
Si Si1 0.431542 0.281680 0.870701
Si Si2 0.206626 0.424730 0.984376
Si Si3 0.474361 0.473588 0.669190
Si Si4 0.514192 0.085700 0.681984
Si Si5 0.680516 0.353163 0.218056
Si Si6 0.936474 0.222816 0.518190
O O1 0.454861 0.398788 0.852313
O O2 0.531289 0.196434 0.875098
O O3 0.256919 0.246253 0.789917
O O4 0.479024 0.284131 0.964391
O O5 0.087023 0.489806 0.889508
O O6 0.120236 0.341346 0.989921
O O7 0.301761 0.502502 0.073804
O O8 0.313846 0.365459 0.982696
O O9 0.500000 0.421411 0.750000
O O10 0.565371 0.585686 0.711569
O O11 0.500000 0.100927 0.750000
O O12 0.690071 0.064266 0.747226
O O13 0.594255 0.301544 0.120780
#
# Coordination Sequence:
#
# PCOD8147212 Si02
#       6
#     8   8   8   8   8   8
#     4  10  24  38  64  91 122 168 200 259 306 366
#     4  10  24  40  66  91 124 166 205 264 303 366
#     4  11  23  41  63  92 128 163 208 256 311 367
#     4  10  24  41  61  95 125 164 208 254 308 367
#     4   9  24  40  62  91 125 166 207 250 313 363
#     4  10  22  43  64  92 124 163 212 253 310 367
#
# _framework density 20.368002000000001
#
# number of rings (size 3 to 8) (size 9 to 14) (size 15 to 20)
#    1.000    1.000    0.000    1.500    7.000    4.000 
#    0.000    1.667    0.000    0.000    0.000    0.000 
#    0.000    0.000    0.000    0.000    0.000    0.000 
#
# Total GULP energy -297501.357267 kJ/mol
# GULP energy per Si atom -12395.889886 kJ/mol
# Density = 2.032164 g / cm^3
# Si number density = 20.368002 Si / 1000 Ang^3
#
#
#
# Elastic Constant Matrix: (Units=GPa)
#
#
# Indices 1 2 3 4 5 6 
#
# 1 46.5111 7.7900 17.7214 0.0000 -12.3170 0.0000
# 2 7.7900 77.7824 29.7974 0.0000 -0.2417 0.0000
# 3 17.7214 29.7974 87.3997 0.0000 -3.4828 0.0000
# 4 0.0000 0.0000 0.0000 26.5050 0.0000 -4.5484
# 5 -12.3170 -0.2417 -3.4828 0.0000 48.3439 0.0000
# 6 0.0000 0.0000 0.0000 -4.5484 0.0000 24.3073
#
#
#
# Elastic Compliance Matrix: (Units=1/GPa)
#
#
# Indices 1 2 3 4 5 6 
#
# 1 0.024960 -0.000730 -0.004572 0.000000 0.006026 0.000000
# 2 -0.000730 0.014813 -0.004921 0.000000 -0.000466 0.000000
# 3 -0.004572 -0.004921 0.014039 0.000000 -0.000178 0.000000
# 4 0.000000 0.000000 0.000000 0.038980 0.000000 0.007294
# 5 0.006026 -0.000466 -0.000178 0.000000 0.022205 0.000000
# 6 0.000000 0.000000 0.000000 0.007294 0.000000 0.042505
#
#
# Mechanical properties :
#
#
# Convention : Reuss Voigt Hill
#
# Bulk Modulus (GPa) = 29.96923 35.81231 32.89077
# Shear Modulus (GPa) = 26.44508 30.25688 28.35098
#
# Velocity S-wave (km/s) = 3.60719 3.85841 3.73491
# Velocity P-wave (km/s) = 5.66524 6.12132 5.89769
#
# Compressibility (1/GPa) = 0.03336756
#
# Stress axis : x y z
#
# Youngs Moduli (GPa) = 40.06350 67.50764 71.22830
#
# Poissons Ratio (x) = 0.04925 0.32567
# Poissons Ratio (y) = 0.02923 0.35051
# Poissons Ratio (z) = 0.18318 0.33220
#
# Static dielectric constant tensor:
#      x y z
#    x 3.445890 0.000000 0.077500 
#    y 0.000000 3.590600 0.000000 
#    z 0.077500 0.000000 3.710210 
# 
# 
# High freq. dielectric constant tensor:
#      x y z
#    x 1.785760 0.000000 -0.000500 
#    y 0.000000 1.791170 0.000000 
#    z -0.000500 0.000000 1.807110 
# 
# From -- ./inp_files/237731.got.cif
#   From: 2010.06.25/outbox.cif.g09.slc.cpg/sg15_119_cif.got.tgz:237731.got - 2010.06.28 07:06:18.
