data_PCOD8147741
_publ_section_title
;
Structure prediction by ZEFSAII (Michael W. Deem and Ramdas Pophale) SiO2 
 PCOD8147741
Probable space group: C 2/C
;
_chemical_formula_sum "Si O2"
_cell_formula_units_Z 56
_cell_length_a 11.887164
_cell_length_b 19.622608
_cell_length_c 11.921676
_cell_angle_alpha 90.000000
_cell_angle_beta 70.064602
_cell_angle_gamma 90.000000
_cell_volume 2614.183253
_symmetry_space_group_name_H-M "C 2/C"
_symmetry_group_IT_number 15
_symmetry_cell_setting 'monoclinic'
loop_
_space_group_symop_operation_xyz
x,y,z
-x,y,1/2-z
-x,-y,-z
x,-y,1/2+z
1/2+x,1/2+y,z
1/2-x,1/2+y,1/2-z
1/2-x,1/2-y,-z
1/2+x,1/2-y,1/2+z
loop_
_atom_site_type_symbol
_atom_site_label
_atom_site_fract_x
_atom_site_fract_y
_atom_site_fract_z
Si Si1 0.179359 0.212155 0.924961
Si Si2 0.956164 0.832050 0.640212
Si Si3 0.873924 0.037229 0.057618
Si Si4 0.976201 0.567169 0.575914
Si Si5 0.184944 0.579530 0.659276
Si Si6 0.223668 0.261280 0.680547
Si Si7 0.719538 0.140376 0.988731
O O1 0.256247 0.152567 0.840511
O O2 0.153794 0.260370 0.824722
O O3 0.250000 0.250000 0.000000
O O4 0.059787 0.178841 0.013856
O O5 0.000000 0.827936 0.750000
O O6 0.893805 0.905665 0.646341
O O7 0.864827 0.770069 0.656166
O O8 0.812790 0.077112 0.972680
O O9 0.782601 0.978909 0.120597
O O10 0.000000 0.000000 0.000000
O O11 0.894962 0.554393 0.711359
O O12 0.908173 0.620368 0.519778
O O13 0.000000 0.500000 0.500000
O O14 0.106869 0.591424 0.572854
O O15 0.206749 0.192302 0.614974
O O16 0.181596 0.325626 0.620353
#
# Coordination Sequence:
#
# PCOD8147741 Si02
#       7
#     8   8   8   8   8   8   8
#     4  12  24  42  71 103 139 184 240 287 354 420
#     4  11  24  42  69 104 139 186 227 289 354 419
#     4  11  23  44  68 103 141 176 230 288 354 419
#     4  11  23  44  71 100 141 183 232 288 352 418
#     4  11  25  42  70 106 137 185 237 290 352 424
#     4  10  23  45  67 101 142 182 235 288 351 423
#     4  10  22  44  72  97 141 185 227 290 350 415
#
# _framework density 21.421603999999999
#
# number of rings (size 3 to 8) (size 9 to 14) (size 15 to 20)
#    0.000    1.143    5.714    0.000    2.000    2.286 
#    0.000   10.714    0.000    0.000    0.000    0.000 
#    0.000    0.000    0.000    0.000    0.000    0.000 
#
# Total GULP energy -347007.326433 kJ/mol
# GULP energy per Si atom -12393.118801 kJ/mol
# Density = 2.137285 g / cm^3
# Si number density = 21.421604 Si / 1000 Ang^3
#
#
#
# Elastic Constant Matrix: (Units=GPa)
#
#
# Indices 1 2 3 4 5 6 
#
# 1 117.6069 40.5173 45.0635 0.0000 9.5269 0.0000
# 2 40.5173 102.1534 38.5197 0.0000 2.1647 0.0000
# 3 45.0635 38.5197 128.2299 0.0000 14.3275 0.0000
# 4 0.0000 0.0000 0.0000 18.5223 0.0000 -3.5692
# 5 9.5269 2.1647 14.3275 0.0000 38.1341 0.0000
# 6 0.0000 0.0000 0.0000 -3.5692 0.0000 35.4503
#
#
#
# Elastic Compliance Matrix: (Units=1/GPa)
#
#
# Indices 1 2 3 4 5 6 
#
# 1 0.010751 -0.003238 -0.002637 0.000000 -0.001511 0.000000
# 2 -0.003238 0.012030 -0.002599 0.000000 0.001103 0.000000
# 3 -0.002637 -0.002599 0.009828 0.000000 -0.002886 0.000000
# 4 0.000000 0.000000 0.000000 0.055057 0.000000 0.005543
# 5 -0.001511 0.001103 -0.002886 0.000000 0.027623 0.000000
# 6 0.000000 0.000000 0.000000 0.005543 0.000000 0.028767
#
#
# Mechanical properties :
#
#
# Convention : Reuss Voigt Hill
#
# Bulk Modulus (GPa) = 63.84811 66.24346 65.04579
# Shear Modulus (GPa) = 30.07983 33.34732 31.71357
#
# Velocity S-wave (km/s) = 3.75131 3.94980 3.85183
# Velocity P-wave (km/s) = 6.97375 7.19667 7.08609
#
# Compressibility (1/GPa) = 0.01566217
#
# Stress axis : x y z
#
# Youngs Moduli (GPa) = 93.01302 83.12425 101.74642
#
# Poissons Ratio (x) = 0.26916 0.26827
# Poissons Ratio (y) = 0.30118 0.26445
# Poissons Ratio (z) = 0.24525 0.21605
#
# Static dielectric constant tensor:
#      x y z
#    x 5.671350 0.000000 -0.125240 
#    y 0.000000 4.057670 0.000000 
#    z -0.125240 0.000000 3.899930 
# 
# 
# High freq. dielectric constant tensor:
#      x y z
#    x 1.853380 0.000000 0.018260 
#    y 0.000000 1.849540 0.000000 
#    z 0.018260 0.000000 1.831560 
# 
# From -- ./inp_files/89569.got.cif
#   From: 2010.06.25/outbox.cif.g09.slc.cpg/sg15_45_cif.got.tgz:89569.got - 2010.06.28 07:06:18.
