data_PCOD8147322
_publ_section_title
;
Structure prediction by ZEFSAII (Michael W. Deem and Ramdas Pophale) SiO2 
 PCOD8147322
Probable space group: C 2/C
;
_chemical_formula_sum "Si O2"
_cell_formula_units_Z 48
_cell_length_a 15.979434
_cell_length_b 24.958350
_cell_length_c 5.152849
_cell_angle_alpha 90.000000
_cell_angle_beta 83.169267
_cell_angle_gamma 90.000000
_cell_volume 2040.473697
_symmetry_space_group_name_H-M "C 2/C"
_symmetry_group_IT_number 15
_symmetry_cell_setting 'monoclinic'
loop_
_space_group_symop_operation_xyz
x,y,z
-x,y,1/2-z
-x,-y,-z
x,-y,1/2+z
1/2+x,1/2+y,z
1/2-x,1/2+y,1/2-z
1/2-x,1/2-y,-z
1/2+x,1/2-y,1/2+z
loop_
_atom_site_type_symbol
_atom_site_label
_atom_site_fract_x
_atom_site_fract_y
_atom_site_fract_z
Si Si1 0.234804 0.689950 0.913385
Si Si2 0.500000 0.377610 0.750000
Si Si3 0.107507 0.965856 0.523130
Si Si4 0.082963 0.190566 0.584537
Si Si5 0.644791 0.149713 0.449654
Si Si6 0.302842 0.034182 0.949284
Si Si7 0.500000 0.793983 0.750000
O O1 0.330471 0.670432 0.817859
O O2 0.183420 0.686133 0.665051
O O3 0.250000 0.750000 0.000000
O O4 0.194970 0.654857 0.159336
O O5 0.547445 0.414309 0.518678
O O6 0.423744 0.337975 0.690865
O O7 0.205300 0.948694 0.484203
O O8 0.086017 0.007047 0.305594
O O9 0.000000 0.165615 0.750000
O O10 0.071404 0.256072 0.582835
O O11 0.642696 0.088078 0.538344
O O12 0.548467 0.169247 0.440704
O O13 0.326427 0.992899 0.168037
#
# Coordination Sequence:
#
# PCOD8147322 Si02
#       7
#     8   4   8   8   8   8   4
#     4  12  25  44  71 101 139 187 235 270 337 418
#     4  12  24  36  63  90 137 178 226 264 344 388
#     4  10  23  39  63  88 127 172 223 277 329 398
#     4  10  26  40  61  97 143 177 223 280 325 403
#     4  12  26  46  75 101 139 184 229 286 351 412
#     4  10  22  43  67  97 129 171 230 286 342 406
#     4  10  26  46  67 102 139 178 226 284 360 398
#
# _framework density 23.523949999999999
#
# number of rings (size 3 to 8) (size 9 to 14) (size 15 to 20)
#    0.500    0.667    1.667    3.000    9.333    2.000 
#    0.000    0.833    0.000    0.000    0.000    0.000 
#    0.000    0.000    0.000    0.000    0.000    0.000 
#
# Total GULP energy -297441.395222 kJ/mol
# GULP energy per Si atom -12393.391468 kJ/mol
# Density = 2.347041 g / cm^3
# Si number density = 23.523950 Si / 1000 Ang^3
#
#
#
# Elastic Constant Matrix: (Units=GPa)
#
#
# Indices 1 2 3 4 5 6 
#
# 1 97.3517 27.9419 47.4205 0.0000 39.3374 0.0000
# 2 27.9419 117.9135 26.6806 0.0000 29.1447 0.0000
# 3 47.4205 26.6806 116.2552 0.0000 28.1468 0.0000
# 4 0.0000 0.0000 0.0000 29.0351 0.0000 10.0818
# 5 39.3374 29.1447 28.1468 0.0000 44.6801 0.0000
# 6 0.0000 0.0000 0.0000 10.0818 0.0000 29.1334
#
#
#
# Elastic Compliance Matrix: (Units=1/GPa)
#
#
# Indices 1 2 3 4 5 6 
#
# 1 0.017387 -0.000066 -0.003990 0.000000 -0.012752 0.000000
# 2 -0.000066 0.010184 -0.000845 0.000000 -0.006053 0.000000
# 3 -0.003990 -0.000845 0.011138 0.000000 -0.002953 0.000000
# 4 0.000000 0.000000 0.000000 0.039145 0.000000 -0.013546
# 5 -0.012752 -0.006053 -0.002953 0.000000 0.039416 0.000000
# 6 0.000000 0.000000 0.000000 -0.013546 0.000000 0.039013
#
#
# Mechanical properties :
#
#
# Convention : Reuss Voigt Hill
#
# Bulk Modulus (GPa) = 34.59258 59.51182 47.05220
# Shear Modulus (GPa) = 28.45456 35.86821 32.16138
#
# Velocity S-wave (km/s) = 3.48170 3.90904 3.70155
# Velocity P-wave (km/s) = 5.55879 6.76221 6.18982
#
# Compressibility (1/GPa) = 0.02890793
#
# Stress axis : x y z
#
# Youngs Moduli (GPa) = 57.51453 98.19741 89.78291
#
# Poissons Ratio (x) = 0.00644 0.35821
# Poissons Ratio (y) = 0.00377 0.07586
# Poissons Ratio (z) = 0.22947 0.08297
#
# Static dielectric constant tensor:
#      x y z
#    x 4.496500 0.000000 0.225510 
#    y 0.000000 4.053310 0.000000 
#    z 0.225510 0.000000 4.268830 
# 
# 
# High freq. dielectric constant tensor:
#      x y z
#    x 1.928000 0.000000 0.011580 
#    y 0.000000 1.932020 0.000000 
#    z 0.011580 0.000000 1.926550 
# 
# From -- ./inp_files/10786.got.cif
#   From: 2010.06.25/outbox.cif.g09.slc.cpg/sg15_6_cif.got.tgz:10786.got - 2010.06.28 07:06:18.
