data_PCOD8147673
_publ_section_title
;
Structure prediction by ZEFSAII (Michael W. Deem and Ramdas Pophale) SiO2 
 PCOD8147673
Probable space group: C 2/C
;
_chemical_formula_sum "Si O2"
_cell_formula_units_Z 60
_cell_length_a 16.006212
_cell_length_b 10.559514
_cell_length_c 16.924425
_cell_angle_alpha 90.000000
_cell_angle_beta 98.137159
_cell_angle_gamma 90.000000
_cell_volume 2831.729799
_symmetry_space_group_name_H-M "C 2/C"
_symmetry_group_IT_number 15
_symmetry_cell_setting 'monoclinic'
loop_
_space_group_symop_operation_xyz
x,y,z
-x,y,1/2-z
-x,-y,-z
x,-y,1/2+z
1/2+x,1/2+y,z
1/2-x,1/2+y,1/2-z
1/2-x,1/2-y,-z
1/2+x,1/2-y,1/2+z
loop_
_atom_site_type_symbol
_atom_site_label
_atom_site_fract_x
_atom_site_fract_y
_atom_site_fract_z
Si Si1 0.377839 0.149070 0.313314
Si Si2 0.654218 0.418791 0.248519
Si Si3 0.763847 0.049976 0.101344
Si Si4 0.317732 0.020206 0.675202
Si Si5 0.313461 0.139168 0.026658
Si Si6 0.001316 0.642515 0.027872
Si Si7 0.404325 0.742394 0.103962
Si Si8 0.500000 0.402170 0.750000
O O1 0.378771 0.276123 0.261654
O O2 0.292965 0.143465 0.353774
O O3 0.377350 0.026883 0.255418
O O4 0.459788 0.148169 0.379381
O O5 0.693361 0.439746 0.340536
O O6 0.724721 0.442249 0.191592
O O7 0.576200 0.513960 0.225695
O O8 0.834580 0.138177 0.071502
O O9 0.706098 0.985821 0.027639
O O10 0.305882 0.900800 0.616269
O O11 0.363320 0.134232 0.637156
O O12 0.250000 0.250000 0.000000
O O13 0.405999 0.192816 0.019666
O O14 0.000000 0.500000 0.000000
O O15 0.051368 0.728359 0.972821
O O16 0.471068 0.686280 0.174402
#
# Coordination Sequence:
#
# PCOD8147673 Si02
#       8
#     8   8   8   8   8   8   8   4
#     4  11  23  42  72  95 141 170 227 285 321 410
#     4  10  23  43  65 102 129 181 220 275 339 393
#     4  10  22  44  69  99 137 177 224 274 331 406
#     4  11  24  40  71 101 127 182 226 259 356 392
#     4  12  27  45  67  99 138 177 223 283 332 404
#     4  12  26  44  64 104 134 173 225 279 339 389
#     4  11  24  43  71  99 135 182 222 276 338 403
#     4  10  26  44  68  98 142 170 228 282 326 408
#
# _framework density 21.188462999999999
#
# number of rings (size 3 to 8) (size 9 to 14) (size 15 to 20)
#    0.000    1.067    4.000    0.800    5.600    4.800 
#    0.000    1.333    0.000    0.000    0.000    0.000 
#    0.000    0.000    0.000    0.000    0.000    0.000 
#
# Total GULP energy -372133.205660 kJ/mol
# GULP energy per Si atom -12404.440189 kJ/mol
# Density = 2.114024 g / cm^3
# Si number density = 21.188463 Si / 1000 Ang^3
#
#
#
# Elastic Constant Matrix: (Units=GPa)
#
#
# Indices 1 2 3 4 5 6 
#
# 1 127.7369 40.4869 50.5630 0.0000 13.0176 0.0000
# 2 40.4869 96.3462 39.9081 0.0000 9.4422 0.0000
# 3 50.5630 39.9081 104.2014 0.0000 13.5622 0.0000
# 4 0.0000 0.0000 0.0000 32.7187 0.0000 4.2631
# 5 13.0176 9.4422 13.5622 0.0000 36.4379 0.0000
# 6 0.0000 0.0000 0.0000 4.2631 0.0000 38.6285
#
#
#
# Elastic Compliance Matrix: (Units=1/GPa)
#
#
# Indices 1 2 3 4 5 6 
#
# 1 0.010323 -0.002606 -0.003803 0.000000 -0.001597 0.000000
# 2 -0.002606 0.013074 -0.003597 0.000000 -0.001118 0.000000
# 3 -0.003803 -0.003597 0.013159 0.000000 -0.002607 0.000000
# 4 0.000000 0.000000 0.000000 0.031009 0.000000 -0.003422
# 5 -0.001597 -0.001118 -0.002607 0.000000 0.029275 0.000000
# 6 0.000000 0.000000 0.000000 -0.003422 0.000000 0.026265
#
#
# Mechanical properties :
#
#
# Convention : Reuss Voigt Hill
#
# Bulk Modulus (GPa) = 60.44717 65.57784 63.01251
# Shear Modulus (GPa) = 33.64012 34.71214 34.17613
#
# Velocity S-wave (km/s) = 3.98887 4.05193 4.02052
# Velocity P-wave (km/s) = 7.05727 7.27378 7.16634
#
# Compressibility (1/GPa) = 0.01654337
#
# Stress axis : x y z
#
# Youngs Moduli (GPa) = 96.87340 76.48835 75.99249
#
# Poissons Ratio (x) = 0.19933 0.28901
# Poissons Ratio (y) = 0.25246 0.27335
# Poissons Ratio (z) = 0.36842 0.27514
#
# Static dielectric constant tensor:
#      x y z
#    x 4.125390 0.000000 0.079740 
#    y 0.000000 3.776980 0.000000 
#    z 0.079740 0.000000 3.989370 
# 
# 
# High freq. dielectric constant tensor:
#      x y z
#    x 1.841060 0.000000 0.005560 
#    y 0.000000 1.832780 0.000000 
#    z 0.005560 0.000000 1.837450 
# 
# From -- ./inp_files/204088.got.cif
#   From: 2010.06.25/outbox.cif.g09.slc.cpg/sg15_103_cif.got.tgz:204088.got - 2010.06.28 07:06:18.
