data_PCOD8147839
_publ_section_title
;
Structure prediction by ZEFSAII (Michael W. Deem and Ramdas Pophale) SiO2 
 PCOD8147839
Probable space group: C 2/C
;
_chemical_formula_sum "Si O2"
_cell_formula_units_Z 60
_cell_length_a 12.170600
_cell_length_b 8.655841
_cell_length_c 27.405017
_cell_angle_alpha 90.000000
_cell_angle_beta 95.970313
_cell_angle_gamma 90.000000
_cell_volume 2871.370777
_symmetry_space_group_name_H-M "C 2/C"
_symmetry_group_IT_number 15
_symmetry_cell_setting 'monoclinic'
loop_
_space_group_symop_operation_xyz
x,y,z
-x,y,1/2-z
-x,-y,-z
x,-y,1/2+z
1/2+x,1/2+y,z
1/2-x,1/2+y,1/2-z
1/2-x,1/2-y,-z
1/2+x,1/2-y,1/2+z
loop_
_atom_site_type_symbol
_atom_site_label
_atom_site_fract_x
_atom_site_fract_y
_atom_site_fract_z
Si Si1 0.313364 0.439195 0.912746
Si Si2 0.968292 0.771130 0.851227
Si Si3 0.342947 0.533767 0.167218
Si Si4 0.604429 0.243242 0.391616
Si Si5 0.440758 0.660867 0.505271
Si Si6 0.839212 0.266112 0.962403
Si Si7 0.000000 0.856739 0.750000
Si Si8 0.888940 0.555225 0.377299
O O1 0.386398 0.401430 0.868599
O O2 0.185465 0.404832 0.895375
O O3 0.349837 0.323169 0.958655
O O4 0.331062 0.617289 0.926776
O O5 0.948663 0.610251 0.877681
O O6 0.093554 0.838503 0.864232
O O7 0.948682 0.752663 0.791633
O O8 0.355141 0.361347 0.147366
O O9 0.400570 0.537995 0.223331
O O10 0.211987 0.570182 0.165922
O O11 0.613585 0.328155 0.444097
O O12 0.480718 0.186825 0.373219
O O13 0.500000 0.500000 0.500000
O O14 0.540677 0.784632 0.506213
O O15 0.829691 0.418179 0.927665
O O16 0.750000 0.250000 0.000000
#
# Coordination Sequence:
#
# PCOD8147839 Si02
#       8
#     8   8   8   8   8   8   4   8
#     4  11  22  38  69  92 141 183 223 279 321 414
#     4  10  22  45  70  97 128 177 226 278 355 388
#     4  10  22  47  68  92 138 170 217 287 340 405
#     4  11  23  41  64 104 133 179 229 262 347 394
#     4   9  20  36  57  91 132 180 220 260 317 393
#     4  10  24  38  60 101 139 182 231 271 326 395
#     4   8  24  44  74  96 128 168 226 286 348 416
#     4  11  24  41  69 100 133 177 221 280 332 409
#
# _framework density 20.895942999999999
#
# number of rings (size 3 to 8) (size 9 to 14) (size 15 to 20)
#    0.800    1.067    1.333    2.800    7.467    1.067 
#    2.400    4.667    0.000    0.000    0.000    0.000 
#    0.000    0.000    0.000    0.000    0.000    0.000 
#
# Total GULP energy -371665.437248 kJ/mol
# GULP energy per Si atom -12388.847908 kJ/mol
# Density = 2.084838 g / cm^3
# Si number density = 20.895943 Si / 1000 Ang^3
#
#
#
# Elastic Constant Matrix: (Units=GPa)
#
#
# Indices 1 2 3 4 5 6 
#
# 1 114.7144 36.5817 33.3788 0.0000 20.0280 0.0000
# 2 36.5817 88.7073 37.1288 0.0000 -7.9593 0.0000
# 3 33.3788 37.1288 91.9268 0.0000 -7.0984 0.0000
# 4 0.0000 0.0000 0.0000 20.6247 0.0000 0.0549
# 5 20.0280 -7.9593 -7.0984 0.0000 40.7730 0.0000
# 6 0.0000 0.0000 0.0000 0.0549 0.0000 26.8975
#
#
#
# Elastic Compliance Matrix: (Units=1/GPa)
#
#
# Indices 1 2 3 4 5 6 
#
# 1 0.012397 -0.004405 -0.003303 0.000000 -0.007524 0.000000
# 2 -0.004405 0.015251 -0.004220 0.000000 0.004406 0.000000
# 3 -0.003303 -0.004220 0.014033 0.000000 0.003242 0.000000
# 4 0.000000 0.000000 0.000000 0.048486 0.000000 -0.000099
# 5 -0.007524 0.004406 0.003242 0.000000 0.029647 0.000000
# 6 0.000000 0.000000 0.000000 -0.000099 0.000000 0.037178
#
#
# Mechanical properties :
#
#
# Convention : Reuss Voigt Hill
#
# Bulk Modulus (GPa) = 56.10443 56.61413 56.35928
# Shear Modulus (GPa) = 26.76810 30.20963 28.48887
#
# Velocity S-wave (km/s) = 3.58302 3.80638 3.69639
# Velocity P-wave (km/s) = 6.63514 6.81691 6.72664
#
# Compressibility (1/GPa) = 0.01782391
#
# Stress axis : x y z
#
# Youngs Moduli (GPa) = 80.66602 65.56821 71.26303
#
# Poissons Ratio (x) = 0.28882 0.23540
# Poissons Ratio (y) = 0.35532 0.30075
# Poissons Ratio (z) = 0.26646 0.27672
#
# Static dielectric constant tensor:
#      x y z
#    x 4.352090 0.000000 0.360110 
#    y 0.000000 3.583470 0.000000 
#    z 0.360110 0.000000 3.835700 
# 
# 
# High freq. dielectric constant tensor:
#      x y z
#    x 1.833200 0.000000 0.004050 
#    y 0.000000 1.800960 0.000000 
#    z 0.004050 0.000000 1.792820 
# 
# From -- ./inp_files/310023.got.cif
#   From: 2010.06.25/outbox.cif.g09.slc.cpg/sg15_156_cif.got.tgz:310023.got - 2010.06.28 07:06:18.
