data_PCOD8147155
_publ_section_title
;
Structure prediction by ZEFSAII (Michael W. Deem and Ramdas Pophale) SiO2 
 PCOD8147155
Probable space group: C 2/C
;
_chemical_formula_sum "Si O2"
_cell_formula_units_Z 48
_cell_length_a 28.775773
_cell_length_b 13.875063
_cell_length_c 14.063475
_cell_angle_alpha 90.000000
_cell_angle_beta 155.930644
_cell_angle_gamma 90.000000
_cell_volume 2290.059418
_symmetry_space_group_name_H-M "C 2/C"
_symmetry_group_IT_number 15
_symmetry_cell_setting 'monoclinic'
loop_
_space_group_symop_operation_xyz
x,y,z
-x,y,1/2-z
-x,-y,-z
x,-y,1/2+z
1/2+x,1/2+y,z
1/2-x,1/2+y,1/2-z
1/2-x,1/2-y,-z
1/2+x,1/2-y,1/2+z
loop_
_atom_site_type_symbol
_atom_site_label
_atom_site_fract_x
_atom_site_fract_y
_atom_site_fract_z
Si Si1 0.269674 0.496691 0.194663
Si Si2 0.642633 0.199724 0.253693
Si Si3 0.042389 0.612063 0.231360
Si Si4 0.829668 0.503364 0.291784
Si Si5 0.468518 0.350207 0.581643
Si Si6 0.707514 0.641639 0.431304
O O1 0.241095 0.532546 0.247150
O O2 0.391062 0.443884 0.422546
O O3 0.275641 0.588824 0.137722
O O4 0.172468 0.422565 0.980902
O O5 0.750000 0.250000 0.500000
O O6 0.541765 0.190456 0.144894
O O7 0.679729 0.092167 0.296314
O O8 0.597789 0.255071 0.077524
O O9 0.000000 0.662665 0.250000
O O10 0.961585 0.519753 0.061591
O O11 0.779263 0.408356 0.148756
O O12 0.500000 0.333528 0.750000
O O13 0.576825 0.364273 0.717408
O O14 0.750000 0.750000 0.500000
#
# Coordination Sequence:
#
# PCOD8147155 Si02
#       6
#     8   8   8   8   8   8
#     4  11  24  46  69  98 138 186 226 285 350 412
#     4  12  24  44  71 104 139 180 233 286 349 415
#     4  10  22  42  72  96 135 176 230 283 342 404
#     4  11  24  43  72  99 136 179 229 289 346 411
#     4  12  26  45  72 101 145 181 232 288 353 422
#     4  12  26  44  71 104 138 179 235 289 349 419
#
# _framework density 20.960155
#
# number of rings (size 3 to 8) (size 9 to 14) (size 15 to 20)
#    0.000    0.667    5.000    2.000    4.667    0.667 
#    3.000    0.000    0.000    0.000    0.000    0.000 
#    0.000    0.000    0.000    0.000    0.000    0.000 
#
# Total GULP energy -297675.342005 kJ/mol
# GULP energy per Si atom -12403.139250 kJ/mol
# Density = 2.091245 g / cm^3
# Si number density = 20.960155 Si / 1000 Ang^3
#
#
#
# Elastic Constant Matrix: (Units=GPa)
#
#
# Indices 1 2 3 4 5 6 
#
# 1 179.1174 65.6275 52.4906 0.0000 -2.0767 0.0000
# 2 65.6275 94.2615 38.7525 0.0000 -8.6636 0.0000
# 3 52.4906 38.7525 116.5547 0.0000 3.4231 0.0000
# 4 0.0000 0.0000 0.0000 33.5255 0.0000 -9.8539
# 5 -2.0767 -8.6636 3.4231 0.0000 41.6785 0.0000
# 6 0.0000 0.0000 0.0000 -9.8539 0.0000 24.4776
#
#
#
# Elastic Compliance Matrix: (Units=1/GPa)
#
#
# Indices 1 2 3 4 5 6 
#
# 1 0.007884 -0.004719 -0.001969 0.000000 -0.000426 0.000000
# 2 -0.004719 0.015472 -0.003114 0.000000 0.003237 0.000000
# 3 -0.001969 -0.003114 0.010549 0.000000 -0.001612 0.000000
# 4 0.000000 0.000000 0.000000 0.033831 0.000000 0.013619
# 5 -0.000426 0.003237 -0.001612 0.000000 0.024777 0.000000
# 6 0.000000 0.000000 0.000000 0.013619 0.000000 0.046336
#
#
# Mechanical properties :
#
#
# Convention : Reuss Voigt Hill
#
# Bulk Modulus (GPa) = 69.92469 78.18607 74.05538
# Shear Modulus (GPa) = 30.63344 35.47386 33.05365
#
# Velocity S-wave (km/s) = 3.82712 4.11839 3.97542
# Velocity P-wave (km/s) = 7.27752 7.74584 7.51533
#
# Compressibility (1/GPa) = 0.01430110
#
# Stress axis : x y z
#
# Youngs Moduli (GPa) = 126.84019 64.63374 94.79383
#
# Poissons Ratio (x) = 0.30498 0.18666
# Poissons Ratio (y) = 0.59851 0.29520
# Poissons Ratio (z) = 0.24977 0.20128
#
# Static dielectric constant tensor:
#      x y z
#    x 4.267460 0.000000 -0.034380 
#    y 0.000000 3.583960 0.000000 
#    z -0.034380 0.000000 3.937710 
# 
# 
# High freq. dielectric constant tensor:
#      x y z
#    x 1.847530 0.000000 -0.002550 
#    y 0.000000 1.803600 0.000000 
#    z -0.002550 0.000000 1.832300 
# 
# From -- ./inp_files/182422.got.cif
#   From: 2010.06.25/outbox.cif.g09.slc.cpg/sg15_92_cif.got.tgz:182422.got - 2010.06.28 07:06:18.
