data_PCOD8147830
_publ_section_title
;
Structure prediction by ZEFSAII (Michael W. Deem and Ramdas Pophale) SiO2 
 PCOD8147830
Probable space group: C 2/C
;
_chemical_formula_sum "Si O2"
_cell_formula_units_Z 44
_cell_length_a 14.402836
_cell_length_b 11.502285
_cell_length_c 12.970112
_cell_angle_alpha 90.000000
_cell_angle_beta 79.493479
_cell_angle_gamma 90.000000
_cell_volume 2112.675641
_symmetry_space_group_name_H-M "C 2/C"
_symmetry_group_IT_number 15
_symmetry_cell_setting 'monoclinic'
loop_
_space_group_symop_operation_xyz
x,y,z
-x,y,1/2-z
-x,-y,-z
x,-y,1/2+z
1/2+x,1/2+y,z
1/2-x,1/2+y,1/2-z
1/2-x,1/2-y,-z
1/2+x,1/2-y,1/2+z
loop_
_atom_site_type_symbol
_atom_site_label
_atom_site_fract_x
_atom_site_fract_y
_atom_site_fract_z
Si Si1 0.327192 0.693713 0.712851
Si Si2 0.897876 0.049748 0.508165
Si Si3 0.085506 0.502919 0.559893
Si Si4 0.829636 0.252870 0.399792
Si Si5 0.500000 0.153781 0.250000
Si Si6 0.737649 0.625859 0.552723
O O1 0.355927 0.599988 0.622099
O O2 0.229135 0.757662 0.695943
O O3 0.420465 0.773214 0.705273
O O4 0.299782 0.630722 0.823501
O O5 0.895276 0.141102 0.411944
O O6 0.840025 0.934884 0.499558
O O7 0.000000 0.000000 0.500000
O O8 0.108421 0.630187 0.601430
O O9 0.062070 0.422258 0.660736
O O10 0.169024 0.451684 0.473484
O O11 0.000000 0.500000 0.500000
O O12 0.750000 0.250000 0.500000
O O13 0.750000 0.750000 0.500000
#
# Coordination Sequence:
#
# PCOD8147830 Si02
#       6
#     8   8   8   8   4   8
#     4  11  24  46  71  98 144 188 232 289 363 416
#     4  11  25  46  74 101 142 184 239 292 351 424
#     4  12  26  43  71 101 143 178 236 292 348 422
#     4  10  22  45  69  98 134 188 226 287 348 415
#     4  12  26  44  72 104 140 188 232 290 364 420
#     4  12  26  45  70 105 139 189 235 292 354 427
#
# _framework density 20.82667
#
# number of rings (size 3 to 8) (size 9 to 14) (size 15 to 20)
#    0.000    0.727    5.455    3.273    5.091    1.455 
#    0.000    1.818    0.000    0.000    0.000    0.000 
#    0.000    0.000    0.000    0.000    0.000    0.000 
#
# Total GULP energy -272673.880287 kJ/mol
# GULP energy per Si atom -12394.267286 kJ/mol
# Density = 2.077927 g / cm^3
# Si number density = 20.826670 Si / 1000 Ang^3
#
#
#
# Elastic Constant Matrix: (Units=GPa)
#
#
# Indices 1 2 3 4 5 6 
#
# 1 179.5075 78.7181 43.2512 0.0000 23.5782 0.0000
# 2 78.7181 149.0428 50.0811 0.0000 16.8791 0.0000
# 3 43.2512 50.0811 118.6863 0.0000 2.4004 0.0000
# 4 0.0000 0.0000 0.0000 35.5783 0.0000 9.4443
# 5 23.5782 16.8791 2.4004 0.0000 40.0914 0.0000
# 6 0.0000 0.0000 0.0000 9.4443 0.0000 50.5994
#
#
#
# Elastic Compliance Matrix: (Units=1/GPa)
#
#
# Indices 1 2 3 4 5 6 
#
# 1 0.007747 -0.003278 -0.001377 0.000000 -0.003093 0.000000
# 2 -0.003278 0.009610 -0.002821 0.000000 -0.001949 0.000000
# 3 -0.001377 -0.002821 0.010089 0.000000 0.001393 0.000000
# 4 0.000000 0.000000 0.000000 0.029572 0.000000 -0.005520
# 5 -0.003093 -0.001949 0.001393 0.000000 0.027499 0.000000
# 6 0.000000 0.000000 0.000000 -0.005520 0.000000 0.020793
#
#
# Mechanical properties :
#
#
# Convention : Reuss Voigt Hill
#
# Bulk Modulus (GPa) = 80.04386 87.92638 83.98512
# Shear Modulus (GPa) = 40.18426 43.59957 41.89191
#
# Velocity S-wave (km/s) = 4.39733 4.58039 4.48979
# Velocity P-wave (km/s) = 8.01865 8.38350 8.20310
#
# Compressibility (1/GPa) = 0.01249315
#
# Stress axis : x y z
#
# Youngs Moduli (GPa) = 129.09044 104.06360 99.11338
#
# Poissons Ratio (x) = 0.34116 0.13648
# Poissons Ratio (y) = 0.42321 0.27957
# Poissons Ratio (z) = 0.17776 0.29354
#
# Static dielectric constant tensor:
#      x y z
#    x 5.046420 0.000000 0.877260 
#    y 0.000000 3.792310 0.000000 
#    z 0.877260 0.000000 4.675600 
# 
# 
# High freq. dielectric constant tensor:
#      x y z
#    x 1.837110 0.000000 0.012260 
#    y 0.000000 1.824990 0.000000 
#    z 0.012260 0.000000 1.813680 
# 
# From -- ./inp_files/94955.got.cif
#   From: 2010.06.25/outbox.cif.g09.slc.cpg/sg15_48_cif.got.tgz:94955.got - 2010.06.28 07:06:18.
