data_PCOD8147015
_publ_section_title
;
Structure prediction by ZEFSAII (Michael W. Deem and Ramdas Pophale) SiO2 
 PCOD8147015
Probable space group: C 2/C
;
_chemical_formula_sum "Si O2"
_cell_formula_units_Z 44
_cell_length_a 9.138907
_cell_length_b 8.497790
_cell_length_c 27.261300
_cell_angle_alpha 90.000000
_cell_angle_beta 114.494749
_cell_angle_gamma 90.000000
_cell_volume 1926.583602
_symmetry_space_group_name_H-M "C 2/C"
_symmetry_group_IT_number 15
_symmetry_cell_setting 'monoclinic'
loop_
_space_group_symop_operation_xyz
x,y,z
-x,y,1/2-z
-x,-y,-z
x,-y,1/2+z
1/2+x,1/2+y,z
1/2-x,1/2+y,1/2-z
1/2-x,1/2-y,-z
1/2+x,1/2-y,1/2+z
loop_
_atom_site_type_symbol
_atom_site_label
_atom_site_fract_x
_atom_site_fract_y
_atom_site_fract_z
Si Si1 0.752642 0.636510 0.073681
Si Si2 0.057496 0.245278 0.664257
Si Si3 0.687755 0.026870 0.519791
Si Si4 0.095283 0.713979 0.808778
Si Si5 0.500000 0.090634 0.250000
Si Si6 0.478757 0.411283 0.614817
O O1 0.719809 0.802825 0.045408
O O2 0.614545 0.587869 0.092242
O O3 0.925295 0.637480 0.123942
O O4 0.762916 0.511349 0.030703
O O5 0.224536 0.278513 0.659924
O O6 0.092509 0.292272 0.725947
O O7 0.998311 0.065705 0.651463
O O8 0.500000 0.000000 0.500000
O O9 0.802721 0.905698 0.564848
O O10 0.005937 0.758642 0.847374
O O11 0.000000 0.794511 0.750000
O O12 0.110465 0.525674 0.799148
#
# Coordination Sequence:
#
# PCOD8147015 Si02
#       6
#     8   8   8   8   4   8
#     4  10  23  41  65  99 130 166 221 265 328 388
#     4  11  24  42  65  90 129 173 216 272 324 387
#     4  10  22  42  68  97 133 173 210 268 329 393
#     4  10  26  40  62  95 130 168 221 268 326 386
#     4  10  26  40  66  90 130 174 220 270 324 382
#     4  11  24  42  68  99 131 173 220 271 325 392
#
# _framework density 22.838356000000001
#
# number of rings (size 3 to 8) (size 9 to 14) (size 15 to 20)
#    0.545    1.091    0.000    2.727    6.364    6.545 
#    0.000    0.000    0.000    0.000    0.000    0.000 
#    0.000    0.000    0.000    0.000    0.000    0.000 
#
# Total GULP energy -272608.657432 kJ/mol
# GULP energy per Si atom -12391.302611 kJ/mol
# Density = 2.278638 g / cm^3
# Si number density = 22.838356 Si / 1000 Ang^3
#
#
#
# Elastic Constant Matrix: (Units=GPa)
#
#
# Indices 1 2 3 4 5 6 
#
# 1 155.4640 20.7928 74.9194 0.0000 -0.9582 0.0000
# 2 20.7928 47.2345 48.8375 0.0000 -15.5838 0.0000
# 3 74.9194 48.8375 126.1607 0.0000 -13.5161 0.0000
# 4 0.0000 0.0000 0.0000 35.1936 0.0000 -5.1889
# 5 -0.9582 -15.5838 -13.5161 0.0000 57.4663 0.0000
# 6 0.0000 0.0000 0.0000 -5.1889 0.0000 24.6706
#
#
#
# Elastic Compliance Matrix: (Units=1/GPa)
#
#
# Indices 1 2 3 4 5 6 
#
# 1 0.009235 0.002413 -0.006496 0.000000 -0.000719 0.000000
# 2 0.002413 0.038486 -0.015602 0.000000 0.006807 0.000000
# 3 -0.006496 -0.015602 0.017807 0.000000 -0.000151 0.000000
# 4 0.000000 0.000000 0.000000 0.029324 0.000000 0.006168
# 5 -0.000719 0.006807 -0.000151 0.000000 0.019200 0.000000
# 6 0.000000 0.000000 0.000000 0.006168 0.000000 0.041831
#
#
# Mechanical properties :
#
#
# Convention : Reuss Voigt Hill
#
# Bulk Modulus (GPa) = 38.22626 68.66207 53.44417
# Shear Modulus (GPa) = 24.51316 35.75341 30.13328
#
# Velocity S-wave (km/s) = 3.27973 3.96093 3.63632
# Velocity P-wave (km/s) = 5.57819 7.14481 6.40954
#
# Compressibility (1/GPa) = 0.02616003
#
# Stress axis : x y z
#
# Youngs Moduli (GPa) = 108.27824 25.98349 56.15705
#
# Poissons Ratio (x) = -0.06271 0.36478
# Poissons Ratio (y) = -0.26131 0.87616
# Poissons Ratio (z) = 0.70334 0.40539
#
# Static dielectric constant tensor:
#      x y z
#    x 4.119610 0.000000 0.090340 
#    y 0.000000 3.837220 0.000000 
#    z 0.090340 0.000000 4.573760 
# 
# 
# High freq. dielectric constant tensor:
#      x y z
#    x 1.899370 0.000000 0.000230 
#    y 0.000000 1.879350 0.000000 
#    z 0.000230 0.000000 1.922370 
# 
# From -- ./inp_files/306547.got.cif
#   From: 2010.06.25/outbox.cif.g09.slc.cpg/sg15_154_cif.got.tgz:306547.got - 2010.06.28 07:06:18.
