data_PCOD8147920
_publ_section_title
;
Structure prediction by ZEFSAII (Michael W. Deem and Ramdas Pophale) SiO2 
 PCOD8147920
Probable space group: C 2/C
;
_chemical_formula_sum "Si O2"
_cell_formula_units_Z 52
_cell_length_a 16.165392
_cell_length_b 13.983344
_cell_length_c 11.295233
_cell_angle_alpha 90.000000
_cell_angle_beta 71.449367
_cell_angle_gamma 90.000000
_cell_volume 2420.585663
_symmetry_space_group_name_H-M "C 2/C"
_symmetry_group_IT_number 15
_symmetry_cell_setting 'monoclinic'
loop_
_space_group_symop_operation_xyz
x,y,z
-x,y,1/2-z
-x,-y,-z
x,-y,1/2+z
1/2+x,1/2+y,z
1/2-x,1/2+y,1/2-z
1/2-x,1/2-y,-z
1/2+x,1/2-y,1/2+z
loop_
_atom_site_type_symbol
_atom_site_label
_atom_site_fract_x
_atom_site_fract_y
_atom_site_fract_z
Si Si1 0.496133 0.174316 0.023367
Si Si2 0.500000 0.044287 0.250000
Si Si3 0.621056 0.887090 0.266232
Si Si4 0.646508 0.744590 0.059638
Si Si5 0.690466 0.454819 0.294953
Si Si6 0.864932 0.975001 0.933491
Si Si7 0.007049 0.132797 0.876084
O O1 0.492740 0.111472 0.140863
O O2 0.532409 0.282863 0.024838
O O3 0.558711 0.118724 0.906838
O O4 0.397364 0.187942 0.020279
O O5 0.586483 0.977089 0.204570
O O6 0.615439 0.788035 0.198354
O O7 0.720026 0.899214 0.263533
O O8 0.611503 0.636662 0.069739
O O9 0.750000 0.750000 0.000000
O O10 0.694394 0.507687 0.424194
O O11 0.678027 0.512516 0.177478
O O12 0.609500 0.383706 0.353218
O O13 0.954779 0.033149 0.907379
O O14 0.000000 0.177059 0.750000
#
# Coordination Sequence:
#
# PCOD8147920 Si02
#       7
#     8   4   8   8   8   8   8
#     4  12  25  45  74  98 140 185 238 293 358 427
#     4  12  28  46  72  94 142 194 232 298 354 416
#     4  12  27  45  68 105 138 186 250 279 356 430
#     4  12  25  46  72 103 141 188 237 293 352 424
#     4  11  25  44  70 104 144 181 233 298 354 419
#     4  11  25  43  76 102 146 184 232 291 366 417
#     4  10  22  46  69 105 140 180 231 293 366 425
#
# _framework density 21.482406000000001
#
# number of rings (size 3 to 8) (size 9 to 14) (size 15 to 20)
#    0.000    0.615    5.385    0.923    6.462    2.462 
#    0.000    3.077    0.000    0.000    0.000    0.000 
#    0.000    0.000    0.000    0.000    0.000    0.000 
#
# Total GULP energy -322103.591125 kJ/mol
# GULP energy per Si atom -12388.599659 kJ/mol
# Density = 2.143351 g / cm^3
# Si number density = 21.482406 Si / 1000 Ang^3
#
#
#
# Elastic Constant Matrix: (Units=GPa)
#
#
# Indices 1 2 3 4 5 6 
#
# 1 142.6220 67.2611 56.6126 0.0000 -2.6453 0.0000
# 2 67.2611 114.8489 39.7371 0.0000 0.5490 0.0000
# 3 56.6126 39.7371 150.4068 0.0000 23.5753 0.0000
# 4 0.0000 0.0000 0.0000 30.4654 0.0000 -3.7009
# 5 -2.6453 0.5490 23.5753 0.0000 36.9791 0.0000
# 6 0.0000 0.0000 0.0000 -3.7009 0.0000 24.1939
#
#
#
# Elastic Compliance Matrix: (Units=1/GPa)
#
#
# Indices 1 2 3 4 5 6 
#
# 1 0.010774 -0.005246 -0.003113 0.000000 0.002834 0.000000
# 2 -0.005246 0.012227 -0.001298 0.000000 0.000271 0.000000
# 3 -0.003113 -0.001298 0.009105 0.000000 -0.006008 0.000000
# 4 0.000000 0.000000 0.000000 0.033446 0.000000 0.005116
# 5 0.002834 0.000271 -0.006008 0.000000 0.031071 0.000000
# 6 0.000000 0.000000 0.000000 0.005116 0.000000 0.042115
#
#
# Mechanical properties :
#
#
# Convention : Reuss Voigt Hill
#
# Bulk Modulus (GPa) = 78.17968 81.67770 79.92869
# Shear Modulus (GPa) = 30.80364 34.61214 32.70789
#
# Velocity S-wave (km/s) = 3.79080 4.01831 3.90621
# Velocity P-wave (km/s) = 7.45866 7.72220 7.59157
#
# Compressibility (1/GPa) = 0.01279105
#
# Stress axis : x y z
#
# Youngs Moduli (GPa) = 92.81575 81.78363 109.82621
#
# Poissons Ratio (x) = 0.42905 0.34194
# Poissons Ratio (y) = 0.48692 0.14259
# Poissons Ratio (z) = 0.28898 0.10618
#
# Static dielectric constant tensor:
#      x y z
#    x 4.048570 0.000000 0.493980 
#    y 0.000000 3.911270 0.000000 
#    z 0.493980 0.000000 4.698600 
# 
# 
# High freq. dielectric constant tensor:
#      x y z
#    x 1.848100 0.000000 0.024840 
#    y 0.000000 1.836530 0.000000 
#    z 0.024840 0.000000 1.858140 
# 
# From -- ./inp_files/96971.got.cif
#   From: 2010.06.25/outbox.cif.g09.slc.cpg/sg15_49_cif.got.tgz:96971.got - 2010.06.28 07:06:18.
