data_PCOD8147111
_publ_section_title
;
Structure prediction by ZEFSAII (Michael W. Deem and Ramdas Pophale) SiO2 
 PCOD8147111
Probable space group: C 2/C
;
_chemical_formula_sum "Si O2"
_cell_formula_units_Z 56
_cell_length_a 15.668093
_cell_length_b 8.715037
_cell_length_c 25.087248
_cell_angle_alpha 90.000000
_cell_angle_beta 132.766818
_cell_angle_gamma 90.000000
_cell_volume 2514.822664
_symmetry_space_group_name_H-M "C 2/C"
_symmetry_group_IT_number 15
_symmetry_cell_setting 'monoclinic'
loop_
_space_group_symop_operation_xyz
x,y,z
-x,y,1/2-z
-x,-y,-z
x,-y,1/2+z
1/2+x,1/2+y,z
1/2-x,1/2+y,1/2-z
1/2-x,1/2-y,-z
1/2+x,1/2-y,1/2+z
loop_
_atom_site_type_symbol
_atom_site_label
_atom_site_fract_x
_atom_site_fract_y
_atom_site_fract_z
Si Si1 0.383051 0.736323 0.169415
Si Si2 0.740369 0.335838 0.204077
Si Si3 0.891003 0.995603 0.592481
Si Si4 0.998175 0.677340 0.515653
Si Si5 0.140946 0.413214 0.450612
Si Si6 0.498761 0.781715 0.600745
Si Si7 0.373012 0.658422 0.345300
O O1 0.500000 0.779701 0.250000
O O2 0.272857 0.776295 0.158899
O O3 0.379852 0.556482 0.150068
O O4 0.377787 0.823572 0.111409
O O5 0.627863 0.244275 0.178229
O O6 0.721226 0.520063 0.193058
O O7 0.841857 0.286144 0.287703
O O8 0.002089 0.913903 0.613683
O O9 0.773716 0.961975 0.510337
O O10 0.909008 0.177411 0.596022
O O11 0.889621 0.694837 0.510995
O O12 0.990570 0.771125 0.457072
O O13 0.000000 0.500000 0.500000
O O14 0.114443 0.745015 0.594196
O O15 0.046021 0.547647 0.410561
#
# Coordination Sequence:
#
# PCOD8147111 Si02
#       7
#     8   8   8   8   8   8   8
#     4  12  24  43  67  96 131 179 223 272 344 404
#     4  11  26  43  71  94 138 180 229 281 344 414
#     4  11  23  43  66 100 135 171 225 282 332 408
#     4  10  22  42  70  99 132 178 227 276 340 400
#     4  11  23  43  69  96 137 171 221 281 338 404
#     4  10  25  43  67  99 134 177 224 283 340 397
#     4  11  25  45  67 101 134 180 231 282 335 413
#
# _framework density 22.267973000000001
#
# number of rings (size 3 to 8) (size 9 to 14) (size 15 to 20)
#    0.000    1.143    2.857    1.714   10.000    1.143 
#    0.000    0.714    0.000    0.000    0.000    0.000 
#    0.000    0.000    0.000    0.000    0.000    0.000 
#
# Total GULP energy -346950.425802 kJ/mol
# GULP energy per Si atom -12391.086636 kJ/mol
# Density = 2.221729 g / cm^3
# Si number density = 22.267973 Si / 1000 Ang^3
#
#
#
# Elastic Constant Matrix: (Units=GPa)
#
#
# Indices 1 2 3 4 5 6 
#
# 1 89.3123 32.9802 15.6100 0.0000 -2.0879 0.0000
# 2 32.9802 89.0906 9.5745 0.0000 4.6474 0.0000
# 3 15.6100 9.5745 50.1774 0.0000 6.8815 0.0000
# 4 0.0000 0.0000 0.0000 38.0813 0.0000 -0.3115
# 5 -2.0879 4.6474 6.8815 0.0000 31.9817 0.0000
# 6 0.0000 0.0000 0.0000 -0.3115 0.0000 38.4811
#
#
#
# Elastic Compliance Matrix: (Units=1/GPa)
#
#
# Indices 1 2 3 4 5 6 
#
# 1 0.013660 -0.004787 -0.003662 0.000000 0.002375 0.000000
# 2 -0.004787 0.013184 -0.000743 0.000000 -0.002069 0.000000
# 3 -0.003662 -0.000743 0.021874 0.000000 -0.004838 0.000000
# 4 0.000000 0.000000 0.000000 0.026261 0.000000 0.000213
# 5 0.002375 -0.002069 -0.004838 0.000000 0.032764 0.000000
# 6 0.000000 0.000000 0.000000 0.000213 0.000000 0.025989
#
#
# Mechanical properties :
#
#
# Convention : Reuss Voigt Hill
#
# Bulk Modulus (GPa) = 32.96583 38.32329 35.64456
# Shear Modulus (GPa) = 30.82095 33.06987 31.94541
#
# Velocity S-wave (km/s) = 3.72438 3.85786 3.79171
# Velocity P-wave (km/s) = 5.77329 6.09028 5.93391
#
# Compressibility (1/GPa) = 0.03033444
#
# Stress axis : x y z
#
# Youngs Moduli (GPa) = 73.20675 75.84732 45.71703
#
# Poissons Ratio (x) = 0.36309 0.16741
# Poissons Ratio (y) = 0.35045 0.03396
# Poissons Ratio (z) = 0.26807 0.05634
#
# Static dielectric constant tensor:
#      x y z
#    x 4.329880 0.000000 -0.107800 
#    y 0.000000 4.408350 0.000000 
#    z -0.107800 0.000000 4.141910 
# 
# 
# High freq. dielectric constant tensor:
#      x y z
#    x 1.874060 0.000000 0.005650 
#    y 0.000000 1.874070 0.000000 
#    z 0.005650 0.000000 1.884730 
# 
# From -- ./inp_files/298575.got.cif
#   From: 2010.06.25/outbox.cif.g09.slc.cpg/sg15_150_cif.got.tgz:298575.got - 2010.06.28 07:06:18.
