data_PCOD8147738
_publ_section_title
;
Structure prediction by ZEFSAII (Michael W. Deem and Ramdas Pophale) SiO2 
 PCOD8147738
Probable space group: C 2/C
;
_chemical_formula_sum "Si O2"
_cell_formula_units_Z 44
_cell_length_a 16.036809
_cell_length_b 7.177853
_cell_length_c 18.521766
_cell_angle_alpha 90.000000
_cell_angle_beta 117.196693
_cell_angle_gamma 90.000000
_cell_volume 1896.325615
_symmetry_space_group_name_H-M "C 2/C"
_symmetry_group_IT_number 15
_symmetry_cell_setting 'monoclinic'
loop_
_space_group_symop_operation_xyz
x,y,z
-x,y,1/2-z
-x,-y,-z
x,-y,1/2+z
1/2+x,1/2+y,z
1/2-x,1/2+y,1/2-z
1/2-x,1/2-y,-z
1/2+x,1/2-y,1/2+z
loop_
_atom_site_type_symbol
_atom_site_label
_atom_site_fract_x
_atom_site_fract_y
_atom_site_fract_z
Si Si1 0.000000 0.581836 0.250000
Si Si2 0.136405 0.647754 0.494048
Si Si3 0.544166 0.162811 0.888997
Si Si4 0.841031 0.025999 0.592213
Si Si5 0.651644 0.344690 0.248408
Si Si6 0.148304 0.182590 0.153598
O O1 0.067781 0.451510 0.325579
O O2 0.066331 0.702347 0.223572
O O3 0.063776 0.474648 0.465174
O O4 0.235193 0.541575 0.521260
O O5 0.136979 0.780453 0.564086
O O6 0.109689 0.783918 0.416553
O O7 0.607702 0.346529 0.920301
O O8 0.433991 0.203988 0.840326
O O9 0.845437 0.019225 0.680737
O O10 0.750429 0.241782 0.277306
O O11 0.634112 0.465774 0.169068
#
# Coordination Sequence:
#
# PCOD8147738 Si02
#       6
#     4   8   8   8   8   8
#     4  12  24  42  74  92 138 180 236 272 326 408
#     4  10  23  45  67 102 138 175 224 280 332 401
#     4  12  23  42  68 105 130 184 221 279 335 403
#     4  10  22  44  72  96 134 181 228 270 331 409
#     4  11  23  47  65 100 133 182 225 282 332 406
#     4  11  25  42  69 100 141 170 224 281 346 386
#
# _framework density 23.202766
#
# number of rings (size 3 to 8) (size 9 to 14) (size 15 to 20)
#    0.000    1.091    1.818    4.364    0.000    0.727 
#    9.818    0.000    0.000    0.000    0.000    0.000 
#    0.000    0.000    0.000    0.000    0.000    0.000 
#
# Total GULP energy -272736.460453 kJ/mol
# GULP energy per Si atom -12397.111839 kJ/mol
# Density = 2.314996 g / cm^3
# Si number density = 23.202766 Si / 1000 Ang^3
#
#
#
# Elastic Constant Matrix: (Units=GPa)
#
#
# Indices 1 2 3 4 5 6 
#
# 1 118.1893 78.2593 36.2909 0.0000 4.4682 0.0000
# 2 78.2593 144.0428 51.5321 0.0000 11.2296 0.0000
# 3 36.2909 51.5321 68.8944 0.0000 4.5602 0.0000
# 4 0.0000 0.0000 0.0000 46.0099 0.0000 -4.3813
# 5 4.4682 11.2296 4.5602 0.0000 28.4861 0.0000
# 6 0.0000 0.0000 0.0000 -4.3813 0.0000 33.3212
#
#
#
# Elastic Compliance Matrix: (Units=1/GPa)
#
#
# Indices 1 2 3 4 5 6 
#
# 1 0.013477 -0.006592 -0.002224 0.000000 0.000841 0.000000
# 2 -0.006592 0.012902 -0.005973 0.000000 -0.003096 0.000000
# 3 -0.002224 -0.005973 0.020190 0.000000 -0.000528 0.000000
# 4 0.000000 0.000000 0.000000 0.022010 0.000000 0.002894
# 5 0.000841 -0.003096 -0.000528 0.000000 0.036278 0.000000
# 6 0.000000 0.000000 0.000000 0.002894 0.000000 0.030391
#
#
# Mechanical properties :
#
#
# Convention : Reuss Voigt Hill
#
# Bulk Modulus (GPa) = 58.85866 73.69901 66.27883
# Shear Modulus (GPa) = 29.32714 32.56639 30.94676
#
# Velocity S-wave (km/s) = 3.55906 3.75047 3.65602
# Velocity P-wave (km/s) = 6.50472 7.11243 6.81535
#
# Compressibility (1/GPa) = 0.01698985
#
# Stress axis : x y z
#
# Youngs Moduli (GPa) = 74.20013 77.50601 49.53066
#
# Poissons Ratio (x) = 0.51092 0.11016
# Poissons Ratio (y) = 0.48913 0.29586
# Poissons Ratio (z) = 0.16503 0.46297
#
# Static dielectric constant tensor:
#      x y z
#    x 4.171030 0.000000 0.077020 
#    y 0.000000 4.109610 0.000000 
#    z 0.077020 0.000000 3.949810 
# 
# 
# High freq. dielectric constant tensor:
#      x y z
#    x 1.916880 0.000000 0.011630 
#    y 0.000000 1.922190 0.000000 
#    z 0.011630 0.000000 1.912170 
# 
# From -- ./inp_files/246421.got.cif
#   From: 2010.06.25/outbox.cif.g09.slc.cpg/sg15_124_cif.got.tgz:246421.got - 2010.06.28 07:06:18.
