data_PCOD8147703
_publ_section_title
;
Structure prediction by ZEFSAII (Michael W. Deem and Ramdas Pophale) SiO2 
 PCOD8147703
Probable space group: C 2/C
;
_chemical_formula_sum "Si O2"
_cell_formula_units_Z 32
_cell_length_a 18.150441
_cell_length_b 9.352138
_cell_length_c 10.989050
_cell_angle_alpha 90.000000
_cell_angle_beta 51.406300
_cell_angle_gamma 90.000000
_cell_volume 1457.930137
_symmetry_space_group_name_H-M "C 2/C"
_symmetry_group_IT_number 15
_symmetry_cell_setting 'monoclinic'
loop_
_space_group_symop_operation_xyz
x,y,z
-x,y,1/2-z
-x,-y,-z
x,-y,1/2+z
1/2+x,1/2+y,z
1/2-x,1/2+y,1/2-z
1/2-x,1/2-y,-z
1/2+x,1/2-y,1/2+z
loop_
_atom_site_type_symbol
_atom_site_label
_atom_site_fract_x
_atom_site_fract_y
_atom_site_fract_z
Si Si1 0.287111 0.731654 0.327826
Si Si2 0.611094 0.200876 0.148758
Si Si3 0.231495 0.099168 0.672950
Si Si4 0.945478 0.554926 0.675297
O O1 0.250000 0.750000 0.500000
O O2 0.214705 0.821266 0.318230
O O3 0.286084 0.567431 0.289528
O O4 0.393317 0.794853 0.206936
O O5 0.500000 0.231906 0.250000
O O6 0.659472 0.346298 0.144220
O O7 0.629897 0.073418 0.226966
O O8 0.660802 0.143683 0.973972
O O9 0.000000 0.562756 0.750000
O O10 0.000000 0.500000 0.500000
#
# Coordination Sequence:
#
# PCOD8147703 Si02
#       4
#     8   8   8   8
#     4  12  25  44  70 104 141 187 238 300 364 434
#     4  10  22  44  70  99 143 185 230 297 364 429
#     4  11  25  43  70 104 141 185 242 295 365 434
#     4  11  24  44  72 104 140 189 240 295 366 441
#
# _framework density 21.948927000000001
#
# number of rings (size 3 to 8) (size 9 to 14) (size 15 to 20)
#    0.000    1.000    2.500    4.500    7.000    1.000 
#    0.000    5.000    0.000    0.000    0.000    0.000 
#    0.000    0.000    0.000    0.000    0.000    0.000 
#
# Total GULP energy -198213.418150 kJ/mol
# GULP energy per Si atom -12388.338634 kJ/mol
# Density = 2.189897 g / cm^3
# Si number density = 21.948927 Si / 1000 Ang^3
#
#
#
# Elastic Constant Matrix: (Units=GPa)
#
#
# Indices 1 2 3 4 5 6 
#
# 1 106.6150 67.9176 55.3117 0.0000 -2.8610 0.0000
# 2 67.9176 201.4700 56.3548 0.0000 10.7223 0.0000
# 3 55.3117 56.3548 135.1236 0.0000 11.1290 0.0000
# 4 0.0000 0.0000 0.0000 35.4338 0.0000 -0.9539
# 5 -2.8610 10.7223 11.1290 0.0000 42.0830 0.0000
# 6 0.0000 0.0000 0.0000 -0.9539 0.0000 37.0855
#
#
#
# Elastic Compliance Matrix: (Units=1/GPa)
#
#
# Indices 1 2 3 4 5 6 
#
# 1 0.014141 -0.003669 -0.004513 0.000000 0.003090 0.000000
# 2 -0.003669 0.006600 -0.001116 0.000000 -0.001636 0.000000
# 3 -0.004513 -0.001116 0.009931 0.000000 -0.002649 0.000000
# 4 0.000000 0.000000 0.000000 0.028241 0.000000 0.000726
# 5 0.003090 -0.001636 -0.002649 0.000000 0.025090 0.000000
# 6 0.000000 0.000000 0.000000 0.000726 0.000000 0.026983
#
#
# Mechanical properties :
#
#
# Convention : Reuss Voigt Hill
#
# Bulk Modulus (GPa) = 82.80408 89.15297 85.97853
# Shear Modulus (GPa) = 37.42305 40.49543 38.95924
#
# Velocity S-wave (km/s) = 4.13365 4.29999 4.21764
# Velocity P-wave (km/s) = 7.78399 8.08454 7.93569
#
# Compressibility (1/GPa) = 0.01207670
#
# Stress axis : x y z
#
# Youngs Moduli (GPa) = 70.71592 151.52397 100.69116
#
# Poissons Ratio (x) = 0.55598 0.45439
# Poissons Ratio (y) = 0.25947 0.11234
# Poissons Ratio (z) = 0.31912 0.16906
#
# Static dielectric constant tensor:
#      x y z
#    x 3.988390 0.000000 0.161670 
#    y 0.000000 4.311890 0.000000 
#    z 0.161670 0.000000 4.142730 
# 
# 
# High freq. dielectric constant tensor:
#      x y z
#    x 1.862500 0.000000 0.022270 
#    y 0.000000 1.866950 0.000000 
#    z 0.022270 0.000000 1.872620 
# 
# From -- ./inp_files/102376.got.cif
#   From: 2010.06.25/outbox.cif.g09.slc.cpg/sg15_52_cif.got.tgz:102376.got - 2010.06.28 07:06:18.
