data_PCOD8147443
_publ_section_title
;
Structure prediction by ZEFSAII (Michael W. Deem and Ramdas Pophale) SiO2 
 PCOD8147443
Probable space group: C 2/C
;
_chemical_formula_sum "Si O2"
_cell_formula_units_Z 40
_cell_length_a 16.378306
_cell_length_b 5.233494
_cell_length_c 21.699177
_cell_angle_alpha 90.000000
_cell_angle_beta 71.344361
_cell_angle_gamma 90.000000
_cell_volume 1762.235903
_symmetry_space_group_name_H-M "C 2/C"
_symmetry_group_IT_number 15
_symmetry_cell_setting 'monoclinic'
loop_
_space_group_symop_operation_xyz
x,y,z
-x,y,1/2-z
-x,-y,-z
x,-y,1/2+z
1/2+x,1/2+y,z
1/2-x,1/2+y,1/2-z
1/2-x,1/2-y,-z
1/2+x,1/2-y,1/2+z
loop_
_atom_site_type_symbol
_atom_site_label
_atom_site_fract_x
_atom_site_fract_y
_atom_site_fract_z
Si Si1 0.747130 0.106368 0.652052
Si Si2 0.647487 0.278112 0.791442
Si Si3 0.463564 0.218340 0.192300
Si Si4 0.635989 0.833126 0.586034
Si Si5 0.216243 0.559771 0.457676
O O1 0.715796 0.258967 0.719540
O O2 0.813352 0.285430 0.596418
O O3 0.799132 0.851050 0.659608
O O4 0.664603 0.051570 0.628210
O O5 0.583962 0.511718 0.791438
O O6 0.598964 0.011004 0.813977
O O7 0.500000 0.142924 0.250000
O O8 0.539067 0.250225 0.123905
O O9 0.704290 0.613032 0.582345
O O10 0.639783 0.908504 0.511970
O O11 0.250000 0.750000 0.500000
#
# Coordination Sequence:
#
# PCOD8147443 Si02
#       5
#     8   8   8   8   8
#     4  11  24  43  66 100 136 183 230 281 339 422
#     4  12  27  41  68 103 141 176 222 287 355 400
#     4  12  25  43  65 103 139 179 224 290 347 407
#     4  10  22  43  72  95 135 180 239 280 337 407
#     4   9  21  41  72  97 126 185 239 277 325 414
#
# _framework density 22.698436999999998
#
# number of rings (size 3 to 8) (size 9 to 14) (size 15 to 20)
#    0.000    1.200    2.000    3.000   11.200    0.000 
#    0.000    2.000    0.000    0.000    0.000    0.000 
#    0.000    0.000    0.000    0.000    0.000    0.000 
#
# Total GULP energy -247891.220429 kJ/mol
# GULP energy per Si atom -12394.561021 kJ/mol
# Density = 2.264677 g / cm^3
# Si number density = 22.698437 Si / 1000 Ang^3
#
#
#
# Elastic Constant Matrix: (Units=GPa)
#
#
# Indices 1 2 3 4 5 6 
#
# 1 63.0965 4.4538 34.1033 -0.0035 -15.3197 -0.0026
# 2 4.4538 74.7381 25.0274 -0.0070 -8.6867 -0.0046
# 3 34.1033 25.0274 119.6117 -0.0041 -21.8083 -0.0031
# 4 -0.0035 -0.0070 -0.0041 43.1425 -0.0015 1.9176
# 5 -15.3197 -8.6867 -21.8083 -0.0015 33.1008 -0.0014
# 6 -0.0026 -0.0046 -0.0031 1.9176 -0.0014 30.6054
#
#
#
# Elastic Compliance Matrix: (Units=1/GPa)
#
#
# Indices 1 2 3 4 5 6 
#
# 1 0.019881 0.001145 -0.004746 0.000002 0.006375 0.000002
# 2 0.001145 0.014576 -0.002935 0.000002 0.002422 0.000002
# 3 -0.004746 -0.002935 0.011123 0.000000 0.004362 0.000000
# 4 0.000002 0.000002 0.000000 0.023244 0.000003 -0.001456
# 5 0.006375 0.002422 0.004362 0.000003 0.036670 0.000003
# 6 0.000002 0.000002 0.000000 -0.001456 0.000003 0.032765
#
#
# Mechanical properties :
#
#
# Convention : Reuss Voigt Hill
#
# Bulk Modulus (GPa) = 30.76042 42.73502 36.74772
# Shear Modulus (GPa) = 30.83266 34.29387 32.56326
#
# Velocity S-wave (km/s) = 3.68959 3.89118 3.79173
# Velocity P-wave (km/s) = 5.63312 6.24952 5.94931
#
# Compressibility (1/GPa) = 0.03250931
#
# Stress axis : x y z
#
# Youngs Moduli (GPa) = 50.29992 68.60558 89.90557
#
# Poissons Ratio (x) = -0.07858 0.42666
# Poissons Ratio (y) = -0.05761 0.26386
# Poissons Ratio (z) = 0.23871 0.20135
#
# Static dielectric constant tensor:
#      x y z
#    x 3.771880 0.000010 -0.040850 
#    y 0.000010 4.101680 0.000000 
#    z -0.040850 0.000000 4.973800 
# 
# 
# High freq. dielectric constant tensor:
#      x y z
#    x 1.857420 0.000000 -0.001190 
#    y 0.000000 1.912960 0.000000 
#    z -0.001190 0.000000 1.913230 
# 
# From -- ./inp_files/246192.got.cif
#   From: 2010.06.25/outbox.cif.g09.slc.cpg/sg15_124_cif.got.tgz:246192.got - 2010.06.28 07:06:18.
