data_PCOD8147292
_publ_section_title
;
Structure prediction by ZEFSAII (Michael W. Deem and Ramdas Pophale) SiO2 
 PCOD8147292
Probable space group: C 2/C
;
_chemical_formula_sum "Si O2"
_cell_formula_units_Z 64
_cell_length_a 23.473882
_cell_length_b 23.836320
_cell_length_c 17.760463
_cell_angle_alpha 90.000000
_cell_angle_beta 161.901457
_cell_angle_gamma 90.000000
_cell_volume 3087.115816
_symmetry_space_group_name_H-M "C 2/C"
_symmetry_group_IT_number 15
_symmetry_cell_setting 'monoclinic'
loop_
_space_group_symop_operation_xyz
x,y,z
-x,y,1/2-z
-x,-y,-z
x,-y,1/2+z
1/2+x,1/2+y,z
1/2-x,1/2+y,1/2-z
1/2-x,1/2-y,-z
1/2+x,1/2-y,1/2+z
loop_
_atom_site_type_symbol
_atom_site_label
_atom_site_fract_x
_atom_site_fract_y
_atom_site_fract_z
Si Si1 0.340915 0.859229 0.295256
Si Si2 0.164709 0.960145 0.680240
Si Si3 0.344760 0.299373 0.997393
Si Si4 0.045592 0.498796 0.225252
Si Si5 0.514845 0.739950 0.978282
Si Si6 0.465091 0.640766 0.388535
Si Si7 0.696679 0.918362 0.795485
Si Si8 0.807896 0.104477 0.041968
O O1 0.378710 0.796752 0.370197
O O2 0.168410 0.883116 0.125758
O O3 0.508344 0.901669 0.517111
O O4 0.294726 0.857435 0.148671
O O5 0.173503 0.951847 0.600577
O O6 0.134911 0.899070 0.677969
O O7 0.000000 0.000000 0.500000
O O8 0.357763 0.984989 0.947675
O O9 0.500000 0.279279 0.250000
O O10 0.392856 0.297310 0.969893
O O11 0.292136 0.363255 0.949250
O O12 0.182529 0.254877 0.803985
O O13 0.000000 0.524354 0.250000
O O14 0.158611 0.543619 0.319509
O O15 0.177006 0.445793 0.402879
O O16 0.513972 0.703334 0.052862
O O17 0.345806 0.643393 0.162221
O O18 0.000000 0.080714 0.250000
#
# Coordination Sequence:
#
# PCOD8147292 Si02
#       8
#     8   8   8   8   8   8   8   8
#     4  10  22  43  66  96 133 177 225 279 337 409
#     4  12  25  40  69  97 132 181 229 280 342 415
#     4  11  24  44  66  98 129 175 224 287 342 406
#     4  12  25  44  64 101 139 181 231 287 343 403
#     4  11  22  43  70  93 134 173 223 281 344 409
#     4  11  22  42  66  99 132 175 226 273 343 414
#     4  11  25  43  68  94 136 182 228 280 347 409
#     4  10  23  40  67  97 136 177 222 280 336 404
#
# _framework density 20.731324999999998
#
# number of rings (size 3 to 8) (size 9 to 14) (size 15 to 20)
#    0.000    1.000    5.000    1.500    3.500    2.000 
#    2.250    1.250    0.000    0.000    0.000    0.000 
#    0.000    0.000    0.000    0.000    0.000    0.000 
#
# Total GULP energy -396852.808261 kJ/mol
# GULP energy per Si atom -12401.650258 kJ/mol
# Density = 2.068414 g / cm^3
# Si number density = 20.731325 Si / 1000 Ang^3
#
#
#
# Elastic Constant Matrix: (Units=GPa)
#
#
# Indices 1 2 3 4 5 6 
#
# 1 131.0365 48.2431 21.1040 0.0003 -2.7163 0.0000
# 2 48.2431 89.2637 33.4424 0.0000 -4.8888 0.0000
# 3 21.1040 33.4424 84.2253 0.0007 -3.9082 -0.0003
# 4 0.0003 0.0000 0.0007 16.9575 0.0003 1.1061
# 5 -2.7163 -4.8888 -3.9082 0.0003 32.2343 -0.0001
# 6 0.0000 0.0000 -0.0003 1.1061 -0.0001 34.8947
#
#
#
# Elastic Compliance Matrix: (Units=1/GPa)
#
#
# Indices 1 2 3 4 5 6 
#
# 1 0.009539 -0.005004 -0.000403 0.000000 -0.000004 0.000000
# 2 -0.005004 0.015846 -0.004974 0.000000 0.001379 0.000000
# 3 -0.000403 -0.004974 0.013991 -0.000001 0.000908 0.000000
# 4 0.000000 0.000000 -0.000001 0.059093 -0.000001 -0.001873
# 5 -0.000004 0.001379 0.000908 -0.000001 0.031342 0.000000
# 6 0.000000 0.000000 0.000000 -0.001873 0.000000 0.028717
#
#
# Mechanical properties :
#
#
# Convention : Reuss Voigt Hill
#
# Bulk Modulus (GPa) = 53.72630 56.67826 55.20228
# Shear Modulus (GPa) = 26.95479 30.26637 28.61058
#
# Velocity S-wave (km/s) = 3.60974 3.82505 3.71895
# Velocity P-wave (km/s) = 6.58372 6.84886 6.71760
#
# Compressibility (1/GPa) = 0.01861286
#
# Stress axis : x y z
#
# Youngs Moduli (GPa) = 104.83518 63.10555 71.47409
#
# Poissons Ratio (x) = 0.31581 0.02882
# Poissons Ratio (y) = 0.52464 0.35552
# Poissons Ratio (z) = 0.04227 0.31389
#
# Static dielectric constant tensor:
#      x y z
#    x 3.914480 0.000000 0.188340 
#    y 0.000000 3.522160 0.000000 
#    z 0.188340 0.000000 3.931880 
# 
# 
# High freq. dielectric constant tensor:
#      x y z
#    x 1.825440 0.000000 0.007540 
#    y 0.000000 1.798930 0.000000 
#    z 0.007540 0.000000 1.820110 
# 
# From -- ./inp_files/220299.got.cif
#   From: 2010.06.25/outbox.cif.g09.slc.cpg/sg15_111_cif.got.tgz:220299.got - 2010.06.28 07:06:18.
