data_PCOD8147181
_publ_section_title
;
Structure prediction by ZEFSAII (Michael W. Deem and Ramdas Pophale) SiO2 
 PCOD8147181
Probable space group: C 2/C
;
_chemical_formula_sum "Si O2"
_cell_formula_units_Z 48
_cell_length_a 30.064089
_cell_length_b 8.865590
_cell_length_c 15.088836
_cell_angle_alpha 90.000000
_cell_angle_beta 150.705454
_cell_angle_gamma 90.000000
_cell_volume 1967.823514
_symmetry_space_group_name_H-M "C 2/C"
_symmetry_group_IT_number 15
_symmetry_cell_setting 'monoclinic'
loop_
_space_group_symop_operation_xyz
x,y,z
-x,y,1/2-z
-x,-y,-z
x,-y,1/2+z
1/2+x,1/2+y,z
1/2-x,1/2+y,1/2-z
1/2-x,1/2-y,-z
1/2+x,1/2-y,1/2+z
loop_
_atom_site_type_symbol
_atom_site_label
_atom_site_fract_x
_atom_site_fract_y
_atom_site_fract_z
Si Si1 0.897012 0.577834 0.540320
Si Si2 0.786735 0.061744 0.501048
Si Si3 0.450827 0.888389 0.481213
Si Si4 0.103840 0.082082 0.463952
Si Si5 0.857725 0.615693 0.127746
Si Si6 0.596115 0.562705 0.137943
O O1 0.881681 0.474864 0.426618
O O2 0.868321 0.746877 0.465491
O O3 0.838145 0.509787 0.518307
O O4 0.000000 0.582234 0.750000
O O5 0.801050 0.236713 0.504098
O O6 0.678648 0.045799 0.339946
O O7 0.822343 0.965338 0.481279
O O8 0.832211 0.009474 0.671720
O O9 0.537598 0.830102 0.689407
O O10 0.402603 0.745359 0.351496
O O11 0.500000 0.000000 0.500000
O O12 0.000000 0.064979 0.250000
O O13 0.118351 0.981098 0.575613
O O14 0.500000 0.500000 0.000000
#
# Coordination Sequence:
#
# PCOD8147181 Si02
#       6
#     8   8   8   8   8   8
#     4   9  21  38  62  88 123 168 213 263 322 386
#     4  11  24  41  66  94 134 171 214 272 331 389
#     4  11  22  39  66  92 126 165 219 269 322 393
#     4  11  21  39  64  93 126 169 219 268 320 391
#     4  10  22  43  61  91 131 169 209 267 337 379
#     4  12  22  39  66  97 124 170 226 266 319 397
#
# _framework density 24.392431999999999
#
# number of rings (size 3 to 8) (size 9 to 14) (size 15 to 20)
#    0.000    1.333    3.333    2.000    4.667    2.000 
#    3.000    0.000    0.000    0.000    0.000    0.000 
#    0.000    0.000    0.000    0.000    0.000    0.000 
#
# Total GULP energy -297540.460174 kJ/mol
# GULP energy per Si atom -12397.519174 kJ/mol
# Density = 2.433691 g / cm^3
# Si number density = 24.392432 Si / 1000 Ang^3
#
#
#
# Elastic Constant Matrix: (Units=GPa)
#
#
# Indices 1 2 3 4 5 6 
#
# 1 182.6095 62.7704 15.2002 0.0000 -9.5300 0.0000
# 2 62.7704 170.3675 1.4481 0.0000 -9.9291 0.0000
# 3 15.2002 1.4481 26.9644 0.0000 -10.3770 0.0000
# 4 0.0000 0.0000 0.0000 18.6475 0.0000 -11.4254
# 5 -9.5300 -9.9291 -10.3770 0.0000 37.3911 0.0000
# 6 0.0000 0.0000 0.0000 -11.4254 0.0000 50.2322
#
#
#
# Elastic Compliance Matrix: (Units=1/GPa)
#
#
# Indices 1 2 3 4 5 6 
#
# 1 0.006601 -0.002398 -0.003571 0.000000 0.000054 0.000000
# 2 -0.002398 0.006836 0.001621 0.000000 0.001654 0.000000
# 3 -0.003571 0.001621 0.043470 0.000000 0.011585 0.000000
# 4 0.000000 0.000000 0.000000 0.062310 0.000000 0.014173
# 5 0.000054 0.001654 0.011585 0.000000 0.030412 0.000000
# 6 0.000000 0.000000 0.000000 0.014173 0.000000 0.023131
#
#
# Mechanical properties :
#
#
# Convention : Reuss Voigt Hill
#
# Bulk Modulus (GPa) = 20.74238 59.86431 40.30334
# Shear Modulus (GPa) = 25.31300 41.28901 33.30101
#
# Velocity S-wave (km/s) = 3.22489 4.11870 3.69890
# Velocity P-wave (km/s) = 4.73166 6.87123 5.89925
#
# Compressibility (1/GPa) = 0.04821049
#
# Stress axis : x y z
#
# Youngs Moduli (GPa) = 151.49882 146.28509 23.00425
#
# Poissons Ratio (x) = 0.35086 0.08215
# Poissons Ratio (y) = 0.36336 -0.03730
# Poissons Ratio (z) = 0.54103 -0.23719
#
# Static dielectric constant tensor:
#      x y z
#    x 4.829160 0.000000 0.331470 
#    y 0.000000 4.593720 0.000000 
#    z 0.331470 0.000000 4.811450 
# 
# 
# High freq. dielectric constant tensor:
#      x y z
#    x 1.987980 0.000000 0.001590 
#    y 0.000000 1.975550 0.000000 
#    z 0.001590 0.000000 1.953860 
# 
# From -- ./inp_files/180910.got.cif
#   From: 2010.06.25/outbox.cif.g09.slc.cpg/sg15_91_cif.got.tgz:180910.got - 2010.06.28 07:06:18.
