data_PCOD8147295
_publ_section_title
;
Structure prediction by ZEFSAII (Michael W. Deem and Ramdas Pophale) SiO2 
 PCOD8147295
Probable space group: C 2/C
;
_chemical_formula_sum "Si O2"
_cell_formula_units_Z 52
_cell_length_a 13.848954
_cell_length_b 14.941497
_cell_length_c 11.476576
_cell_angle_alpha 90.000000
_cell_angle_beta 80.328065
_cell_angle_gamma 90.000000
_cell_volume 2341.024806
_symmetry_space_group_name_H-M "C 2/C"
_symmetry_group_IT_number 15
_symmetry_cell_setting 'monoclinic'
loop_
_space_group_symop_operation_xyz
x,y,z
-x,y,1/2-z
-x,-y,-z
x,-y,1/2+z
1/2+x,1/2+y,z
1/2-x,1/2+y,1/2-z
1/2-x,1/2-y,-z
1/2+x,1/2-y,1/2+z
loop_
_atom_site_type_symbol
_atom_site_label
_atom_site_fract_x
_atom_site_fract_y
_atom_site_fract_z
Si Si1 0.643435 0.259515 0.601300
Si Si2 0.385922 0.827832 0.789675
Si Si3 0.680935 0.881403 0.934314
Si Si4 0.601497 0.494483 0.907477
Si Si5 0.000000 0.878721 0.750000
Si Si6 0.280021 0.927496 0.009681
Si Si7 0.213912 0.152799 0.761169
O O1 0.607463 0.192773 0.504672
O O2 0.714882 0.339680 0.545147
O O3 0.545339 0.310835 0.649399
O O4 0.696806 0.202521 0.691811
O O5 0.500000 0.845399 0.750000
O O6 0.330299 0.887011 0.702660
O O7 0.348983 0.859919 0.923850
O O8 0.361739 0.723827 0.777848
O O9 0.665383 0.976861 0.997216
O O10 0.582452 0.439967 0.792544
O O11 0.674818 0.436537 0.970619
O O12 0.650673 0.588191 0.858645
O O13 0.500000 0.500000 0.000000
O O14 0.265451 0.898625 0.145274
#
# Coordination Sequence:
#
# PCOD8147295 Si02
#       7
#     8   8   8   8   4   8   8
#     4  10  22  43  66  97 139 181 221 285 354 415
#     4  11  27  43  66 100 138 187 232 287 352 421
#     4  10  22  43  68  90 134 183 226 284 344 417
#     4  12  25  41  72 109 138 179 231 297 359 416
#     4  12  26  40  68 112 132 176 242 286 344 438
#     4  12  24  45  72  99 138 185 236 290 351 420
#     4  11  24  45  69 100 144 182 230 293 364 419
#
# _framework density 22.212495000000001
#
# number of rings (size 3 to 8) (size 9 to 14) (size 15 to 20)
#    0.000    0.923    1.538    6.000    7.538    1.846 
#    1.385    0.000    0.000    0.000    0.000    0.000 
#    0.000    0.000    0.000    0.000    0.000    0.000 
#
# Total GULP energy -322303.108106 kJ/mol
# GULP energy per Si atom -12396.273389 kJ/mol
# Density = 2.216194 g / cm^3
# Si number density = 22.212495 Si / 1000 Ang^3
#
#
#
# Elastic Constant Matrix: (Units=GPa)
#
#
# Indices 1 2 3 4 5 6 
#
# 1 51.1048 23.7430 9.5227 0.0000 -9.5704 0.0000
# 2 23.7430 107.3024 37.6119 0.0000 -9.7265 0.0000
# 3 9.5227 37.6119 101.0693 0.0000 -7.5033 0.0000
# 4 0.0000 0.0000 0.0000 33.5299 0.0000 -8.8304
# 5 -9.5704 -9.7265 -7.5033 0.0000 30.2102 0.0000
# 6 0.0000 0.0000 0.0000 -8.8304 0.0000 21.7856
#
#
#
# Elastic Compliance Matrix: (Units=1/GPa)
#
#
# Indices 1 2 3 4 5 6 
#
# 1 0.022740 -0.004496 -0.000043 0.000000 0.005746 0.000000
# 2 -0.004496 0.011796 -0.003861 0.000000 0.001415 0.000000
# 3 -0.000043 -0.003861 0.011453 0.000000 0.001588 0.000000
# 4 0.000000 0.000000 0.000000 0.033388 0.000000 0.013533
# 5 0.005746 0.001415 0.001588 0.000000 0.035771 0.000000
# 6 0.000000 0.000000 0.000000 0.013533 0.000000 0.051387
#
#
# Mechanical properties :
#
#
# Convention : Reuss Voigt Hill
#
# Bulk Modulus (GPa) = 34.25899 44.58130 39.42015
# Shear Modulus (GPa) = 25.89786 29.67841 27.78813
#
# Velocity S-wave (km/s) = 3.41825 3.65925 3.54080
# Velocity P-wave (km/s) = 5.57100 6.16177 5.87382
#
# Compressibility (1/GPa) = 0.02918942
#
# Stress axis : x y z
#
# Youngs Moduli (GPa) = 43.97453 84.77513 87.31344
#
# Poissons Ratio (x) = 0.38115 0.00375
# Poissons Ratio (y) = 0.19771 0.33713
# Poissons Ratio (z) = 0.00189 0.32733
#
# Static dielectric constant tensor:
#      x y z
#    x 3.779730 0.000000 -0.238650 
#    y 0.000000 4.189760 0.000000 
#    z -0.238650 0.000000 5.398640 
# 
# 
# High freq. dielectric constant tensor:
#      x y z
#    x 1.851730 0.000000 0.007730 
#    y 0.000000 1.887070 0.000000 
#    z 0.007730 0.000000 1.891750 
# 
# From -- ./inp_files/96977.got.cif
#   From: 2010.06.25/outbox.cif.g09.slc.cpg/sg15_49_cif.got.tgz:96977.got - 2010.06.28 07:06:18.
