data_PCOD8147072
_publ_section_title
;
Structure prediction by ZEFSAII (Michael W. Deem and Ramdas Pophale) SiO2 
 PCOD8147072
Probable space group: C 2/C
;
_chemical_formula_sum "Si O2"
_cell_formula_units_Z 36
_cell_length_a 8.574452
_cell_length_b 16.857244
_cell_length_c 19.692227
_cell_angle_alpha 90.000000
_cell_angle_beta 148.484228
_cell_angle_gamma 90.000000
_cell_volume 1487.880010
_symmetry_space_group_name_H-M "C 2/C"
_symmetry_group_IT_number 15
_symmetry_cell_setting 'monoclinic'
loop_
_space_group_symop_operation_xyz
x,y,z
-x,y,1/2-z
-x,-y,-z
x,-y,1/2+z
1/2+x,1/2+y,z
1/2-x,1/2+y,1/2-z
1/2-x,1/2-y,-z
1/2+x,1/2-y,1/2+z
loop_
_atom_site_type_symbol
_atom_site_label
_atom_site_fract_x
_atom_site_fract_y
_atom_site_fract_z
Si Si1 0.729809 0.528403 0.946891
Si Si2 0.183533 0.896267 0.648249
Si Si3 0.000000 0.127354 0.750000
Si Si4 0.800509 0.641636 0.334766
Si Si5 0.974096 0.744636 0.521488
O O1 0.576302 0.460581 0.935754
O O2 0.473863 0.571358 0.807149
O O3 0.000000 0.500000 0.000000
O O4 0.899291 0.589469 0.059175
O O5 0.500000 0.939116 0.750000
O O6 0.223432 0.837348 0.728454
O O7 0.102987 0.833815 0.558407
O O8 0.708952 0.179582 0.632897
O O9 0.500000 0.594731 0.250000
O O10 0.839885 0.718263 0.398516
O O11 0.750000 0.750000 0.500000
#
# Coordination Sequence:
#
# PCOD8147072 Si02
#       5
#     8   8   4   8   8
#     4  11  21  41  73 101 135 189 240 283 355 439
#     4  12  25  43  69 108 152 176 238 312 361 409
#     4  10  22  42  70 102 134 186 242 280 344 444
#     4  11  22  42  73 102 137 191 242 284 354 435
#     4  11  22  42  71 104 137 186 239 295 351 432
#
# _framework density 24.195501
#
# number of rings (size 3 to 8) (size 9 to 14) (size 15 to 20)
#    0.000    0.889    5.556    2.667    0.000    1.778 
#    0.000    0.000    0.000    0.000    0.000    0.000 
#    0.000    0.000    0.000    0.000    0.000    0.000 
#
# Total GULP energy -222985.745769 kJ/mol
# GULP energy per Si atom -12388.096987 kJ/mol
# Density = 2.414043 g / cm^3
# Si number density = 24.195501 Si / 1000 Ang^3
#
#
#
# Elastic Constant Matrix: (Units=GPa)
#
#
# Indices 1 2 3 4 5 6 
#
# 1 74.5858 32.2903 28.1646 -0.0045 16.6361 -0.0001
# 2 32.2903 128.9129 49.1618 -0.0112 4.6245 -0.0027
# 3 28.1646 49.1618 115.5704 -0.0314 0.4408 -0.0140
# 4 -0.0045 -0.0112 -0.0314 16.8638 -0.0162 7.5576
# 5 16.6361 4.6245 0.4408 -0.0162 43.0954 -0.0074
# 6 -0.0001 -0.0027 -0.0140 7.5576 -0.0074 41.1520
#
#
#
# Elastic Compliance Matrix: (Units=1/GPa)
#
#
# Indices 1 2 3 4 5 6 
#
# 1 0.017193 -0.002975 -0.002901 -0.000009 -0.006288 -0.000001
# 2 -0.002975 0.009813 -0.003450 0.000000 0.000131 0.000000
# 3 -0.002901 -0.003450 0.010822 0.000018 0.001379 0.000000
# 4 -0.000009 0.000000 0.000018 0.064617 0.000025 -0.011867
# 5 -0.006288 0.000131 0.001379 0.000025 0.025604 0.000000
# 6 -0.000001 0.000000 0.000000 -0.011867 0.000000 0.026480
#
#
# Mechanical properties :
#
#
# Convention : Reuss Voigt Hill
#
# Bulk Modulus (GPa) = 52.14406 59.81137 55.97772
# Shear Modulus (GPa) = 27.84405 34.18573 31.01489
#
# Velocity S-wave (km/s) = 3.39602 3.76293 3.58417
# Velocity P-wave (km/s) = 6.08072 6.60706 6.34935
#
# Compressibility (1/GPa) = 0.01917764
#
# Stress axis : x y z
#
# Youngs Moduli (GPa) = 58.16289 101.90265 92.40530
#
# Poissons Ratio (x) = 0.30314 0.26802
# Poissons Ratio (y) = 0.17303 0.31879
# Poissons Ratio (z) = 0.16870 0.35156
#
# Static dielectric constant tensor:
#      x y z
#    x 4.226810 -0.000020 -0.025060 
#    y -0.000020 4.557370 -0.000060 
#    z -0.025060 -0.000060 4.929690 
# 
# 
# High freq. dielectric constant tensor:
#      x y z
#    x 1.952540 0.000000 0.005500 
#    y 0.000000 1.944300 0.000000 
#    z 0.005500 0.000000 1.981700 
# 
# From -- ./inp_files/233148.got.cif
#   From: 2010.06.25/outbox.cif.g09.slc.cpg/sg15_117_cif.got.tgz:233148.got - 2010.06.28 07:06:18.
