data_PCOD8147775
_publ_section_title
;
Structure prediction by ZEFSAII (Michael W. Deem and Ramdas Pophale) SiO2 
 PCOD8147775
Probable space group: C 2/C
;
_chemical_formula_sum "Si O2"
_cell_formula_units_Z 44
_cell_length_a 9.019883
_cell_length_b 27.034516
_cell_length_c 10.277852
_cell_angle_alpha 90.000000
_cell_angle_beta 120.276228
_cell_angle_gamma 90.000000
_cell_volume 2164.396946
_symmetry_space_group_name_H-M "C 2/C"
_symmetry_group_IT_number 15
_symmetry_cell_setting 'monoclinic'
loop_
_space_group_symop_operation_xyz
x,y,z
-x,y,1/2-z
-x,-y,-z
x,-y,1/2+z
1/2+x,1/2+y,z
1/2-x,1/2+y,1/2-z
1/2-x,1/2-y,-z
1/2+x,1/2-y,1/2+z
loop_
_atom_site_type_symbol
_atom_site_label
_atom_site_fract_x
_atom_site_fract_y
_atom_site_fract_z
Si Si1 0.327776 0.852238 0.102267
Si Si2 0.156510 0.209097 0.744528
Si Si3 0.500000 0.112461 0.250000
Si Si4 0.004323 0.303329 0.952737
Si Si5 0.218139 0.033901 0.203402
Si Si6 0.819371 0.044074 0.021430
O O1 0.500000 0.869201 0.250000
O O2 0.197067 0.824978 0.140031
O O3 0.369261 0.814116 0.006688
O O4 0.243083 0.900182 0.004405
O O5 0.088691 0.263278 0.677188
O O6 0.000000 0.181909 0.750000
O O7 0.319531 0.217597 0.909477
O O8 0.451793 0.146703 0.106177
O O9 0.336413 0.079445 0.214089
O O10 0.236923 0.019981 0.364752
O O11 0.022156 0.047964 0.089908
O O12 0.266977 0.987004 0.134127
#
# Coordination Sequence:
#
# PCOD8147775 Si02
#       6
#     8   8   4   8   8   8
#     4  10  23  42  64  93 127 167 216 267 324 391
#     4  11  24  41  65  93 130 172 219 274 321 391
#     4  12  24  40  68  98 130 168 222 268 330 392
#     4  11  24  43  63  96 133 173 220 265 335 388
#     4  10  24  41  67  94 129 169 217 271 328 395
#     4  10  22  45  63  94 128 172 216 268 332 395
#
# _framework density 20.328987000000001
#
# number of rings (size 3 to 8) (size 9 to 14) (size 15 to 20)
#    0.000    1.455    2.727    1.091    3.818    3.636 
#    3.273    0.000    0.000    0.000    0.000    0.000 
#    0.000    0.000    0.000    0.000    0.000    0.000 
#
# Total GULP energy -272841.370742 kJ/mol
# GULP energy per Si atom -12401.880488 kJ/mol
# Density = 2.028272 g / cm^3
# Si number density = 20.328987 Si / 1000 Ang^3
#
#
#
# Elastic Constant Matrix: (Units=GPa)
#
#
# Indices 1 2 3 4 5 6 
#
# 1 152.8410 57.9678 63.8003 0.0000 -17.2978 0.0000
# 2 57.9678 96.0430 66.0351 0.0000 1.4582 0.0000
# 3 63.8003 66.0351 100.8240 0.0000 -10.3214 0.0000
# 4 0.0000 0.0000 0.0000 6.1724 0.0000 8.2130
# 5 -17.2978 1.4582 -10.3214 0.0000 27.9096 0.0000
# 6 0.0000 0.0000 0.0000 8.2130 0.0000 26.3060
#
#
#
# Elastic Compliance Matrix: (Units=1/GPa)
#
#
# Indices 1 2 3 4 5 6 
#
# 1 0.009940 -0.003850 -0.003239 0.000000 0.005164 0.000000
# 2 -0.003850 0.021381 -0.012395 0.000000 -0.008087 0.000000
# 3 -0.003239 -0.012395 0.020732 0.000000 0.006307 0.000000
# 4 0.000000 0.000000 0.000000 0.277150 0.000000 -0.086529
# 5 0.005164 -0.008087 0.006307 0.000000 0.041785 0.000000
# 6 0.000000 0.000000 0.000000 -0.086529 0.000000 0.065030
#
#
# Mechanical properties :
#
#
# Convention : Reuss Voigt Hill
#
# Bulk Modulus (GPa) = 76.43402 80.59051 78.51226
# Shear Modulus (GPa) = 10.43084 22.87124 16.65104
#
# Velocity S-wave (km/s) = 2.26763 3.35782 2.86506
# Velocity P-wave (km/s) = 6.67356 7.40017 7.04624
#
# Compressibility (1/GPa) = 0.01308318
#
# Stress axis : x y z
#
# Youngs Moduli (GPa) = 100.60720 46.77040 48.23499
#
# Poissons Ratio (x) = 0.18009 0.15624
# Poissons Ratio (y) = 0.38738 0.59787
# Poissons Ratio (z) = 0.32589 0.57972
#
# Static dielectric constant tensor:
#      x y z
#    x 2.957140 0.000000 0.328870 
#    y 0.000000 3.505190 0.000000 
#    z 0.328870 0.000000 3.489100 
# 
# 
# High freq. dielectric constant tensor:
#      x y z
#    x 1.818960 0.000000 -0.011560 
#    y 0.000000 1.786120 0.000000 
#    z -0.011560 0.000000 1.798050 
# 
# From -- ./inp_files/81566.got.cif
#   From: 2010.06.25/outbox.cif.g09.slc.cpg/sg15_41_cif.got.tgz:81566.got - 2010.06.28 07:06:18.
