data_PCOD8147733
_publ_section_title
;
Structure prediction by ZEFSAII (Michael W. Deem and Ramdas Pophale) SiO2 
 PCOD8147733
Probable space group: C 2/C
;
_chemical_formula_sum "Si O2"
_cell_formula_units_Z 60
_cell_length_a 20.154216
_cell_length_b 17.063164
_cell_length_c 11.169336
_cell_angle_alpha 90.000000
_cell_angle_beta 137.637404
_cell_angle_gamma 90.000000
_cell_volume 2588.194036
_symmetry_space_group_name_H-M "C 2/C"
_symmetry_group_IT_number 15
_symmetry_cell_setting 'monoclinic'
loop_
_space_group_symop_operation_xyz
x,y,z
-x,y,1/2-z
-x,-y,-z
x,-y,1/2+z
1/2+x,1/2+y,z
1/2-x,1/2+y,1/2-z
1/2-x,1/2-y,-z
1/2+x,1/2-y,1/2+z
loop_
_atom_site_type_symbol
_atom_site_label
_atom_site_fract_x
_atom_site_fract_y
_atom_site_fract_z
Si Si1 0.395193 0.769379 0.401202
Si Si2 0.587536 0.073687 0.707418
Si Si3 0.000000 0.194567 0.750000
Si Si4 0.124650 0.582053 0.120772
Si Si5 0.763679 0.957484 0.612400
Si Si6 0.214765 0.736773 0.316915
Si Si7 0.542849 0.634919 0.174460
Si Si8 0.117685 0.111186 0.721146
O O1 0.383569 0.861151 0.355053
O O2 0.474522 0.754247 0.610267
O O3 0.297631 0.729065 0.325516
O O4 0.431780 0.723349 0.331877
O O5 0.473458 0.090687 0.594785
O O6 0.595490 0.985197 0.673249
O O7 0.666459 0.075260 0.917658
O O8 0.084657 0.136356 0.811866
O O9 0.229399 0.558450 0.201972
O O10 0.141893 0.662788 0.215080
O O11 0.855019 0.910197 0.685196
O O12 0.795120 0.048382 0.644904
O O13 0.250000 0.750000 0.500000
O O14 0.157751 0.814560 0.201592
O O15 0.500000 0.635391 0.250000
O O16 0.474395 0.586966 0.987324
#
# Coordination Sequence:
#
# PCOD8147733 Si02
#       8
#     8   8   4   8   8   8   8   8
#     4  11  24  47  72 109 145 189 247 302 378 429
#     4  11  27  44  74 103 144 197 236 302 364 452
#     4  10  22  44  72 110 144 186 242 324 362 428
#     4  11  25  49  68 107 147 187 247 299 368 431
#     4  12  26  47  71 105 148 190 244 299 370 448
#     4  12  23  44  75 105 141 190 240 306 364 432
#     4  11  27  46  72 107 146 193 239 307 375 447
#     4  11  25  44  74 109 144 189 245 305 371 439
#
# _framework density 23.182186999999999
#
# number of rings (size 3 to 8) (size 9 to 14) (size 15 to 20)
#    0.000    0.800    2.667    4.000    4.667    2.667 
#    2.400    0.000    0.000    0.000    0.000    0.000 
#    0.000    0.000    0.000    0.000    0.000    0.000 
#
# Total GULP energy -371716.293812 kJ/mol
# GULP energy per Si atom -12390.543127 kJ/mol
# Density = 2.312942 g / cm^3
# Si number density = 23.182187 Si / 1000 Ang^3
#
#
#
# Elastic Constant Matrix: (Units=GPa)
#
#
# Indices 1 2 3 4 5 6 
#
# 1 133.1098 43.5072 31.1528 0.0000 19.8455 0.0000
# 2 43.5072 162.8165 54.9364 0.0000 10.5416 0.0000
# 3 31.1528 54.9364 100.7649 0.0000 16.8393 0.0000
# 4 0.0000 0.0000 0.0000 38.6993 0.0000 8.1749
# 5 19.8455 10.5416 16.8393 0.0000 30.3612 0.0000
# 6 0.0000 0.0000 0.0000 8.1749 0.0000 34.1124
#
#
#
# Elastic Compliance Matrix: (Units=1/GPa)
#
#
# Indices 1 2 3 4 5 6 
#
# 1 0.009035 -0.001755 -0.001048 0.000000 -0.004715 0.000000
# 2 -0.001755 0.007871 -0.003840 0.000000 0.000544 0.000000
# 3 -0.001048 -0.003840 0.013231 0.000000 -0.005320 0.000000
# 4 0.000000 0.000000 0.000000 0.027218 0.000000 -0.006523
# 5 -0.004715 0.000544 -0.005320 0.000000 0.038780 0.000000
# 6 0.000000 0.000000 0.000000 -0.006523 0.000000 0.030878
#
#
# Mechanical properties :
#
#
# Convention : Reuss Voigt Hill
#
# Bulk Modulus (GPa) = 59.34724 72.87599 66.11161
# Shear Modulus (GPa) = 34.26645 38.44091 36.35368
#
# Velocity S-wave (km/s) = 3.84883 4.07653 3.96431
# Velocity P-wave (km/s) = 6.73849 7.32543 7.03808
#
# Compressibility (1/GPa) = 0.01684998
#
# Stress axis : x y z
#
# Youngs Moduli (GPa) = 110.68635 127.04529 75.58283
#
# Poissons Ratio (x) = 0.22299 0.07924
# Poissons Ratio (y) = 0.19428 0.29021
# Poissons Ratio (z) = 0.11604 0.48780
#
# Static dielectric constant tensor:
#      x y z
#    x 4.312970 0.000000 0.437990 
#    y 0.000000 4.171960 0.000000 
#    z 0.437990 0.000000 4.438600 
# 
# 
# High freq. dielectric constant tensor:
#      x y z
#    x 1.925090 0.000000 0.020950 
#    y 0.000000 1.917940 0.000000 
#    z 0.020950 0.000000 1.917270 
# 
# From -- ./inp_files/113826.got.cif
#   From: 2010.06.25/outbox.cif.g09.slc.cpg/sg15_57_cif.got.tgz:113826.got - 2010.06.28 07:06:18.
