data_PCOD8147971
_publ_section_title
;
Structure prediction by ZEFSAII (Michael W. Deem and Ramdas Pophale) SiO2 
 PCOD8147971
Probable space group: C 2/C
;
_chemical_formula_sum "Si O2"
_cell_formula_units_Z 44
_cell_length_a 23.271722
_cell_length_b 5.162066
_cell_length_c 15.598012
_cell_angle_alpha 90.000000
_cell_angle_beta 103.445014
_cell_angle_gamma 90.000000
_cell_volume 1822.437693
_symmetry_space_group_name_H-M "C 2/C"
_symmetry_group_IT_number 15
_symmetry_cell_setting 'monoclinic'
loop_
_space_group_symop_operation_xyz
x,y,z
-x,y,1/2-z
-x,-y,-z
x,-y,1/2+z
1/2+x,1/2+y,z
1/2-x,1/2+y,1/2-z
1/2-x,1/2-y,-z
1/2+x,1/2-y,1/2+z
loop_
_atom_site_type_symbol
_atom_site_label
_atom_site_fract_x
_atom_site_fract_y
_atom_site_fract_z
Si Si1 0.311356 0.759952 0.689520
Si Si2 0.398644 0.567866 0.327645
Si Si3 0.090640 0.711164 0.403632
Si Si4 0.690884 0.960643 0.140912
Si Si5 0.000000 0.039643 0.750000
Si Si6 0.107623 0.773573 0.015995
O O1 0.347654 0.526998 0.745701
O O2 0.352508 0.887333 0.631059
O O3 0.249728 0.672869 0.624711
O O4 0.294135 0.964338 0.756441
O O5 0.369657 0.791125 0.375954
O O6 0.455635 0.644753 0.289591
O O7 0.423000 0.350501 0.403431
O O8 0.035483 0.766088 0.323717
O O9 0.074258 0.469529 0.459907
O O10 0.109660 0.977390 0.456099
O O11 0.674467 0.190366 0.068560
#
# Coordination Sequence:
#
# PCOD8147971 Si02
#       6
#     8   8   8   8   4   8
#     4  10  23  38  73  99 142 181 239 271 342 407
#     4  10  22  47  67 106 135 185 231 283 342 409
#     4  11  26  47  67 106 133 187 228 289 341 415
#     4  11  21  43  69 105 137 190 223 288 337 418
#     4  10  26  48  74  98 134 184 240 290 334 416
#     4  11  25  46  69 101 148 174 231 281 359 400
#
# _framework density 24.143485999999999
#
# number of rings (size 3 to 8) (size 9 to 14) (size 15 to 20)
#    0.000    1.455    3.636    0.000    5.091    3.636 
#    6.545    0.000    0.000    0.000    0.000    0.000 
#    0.000    0.000    0.000    0.000    0.000    0.000 
#
# Total GULP energy -272603.266020 kJ/mol
# GULP energy per Si atom -12391.057546 kJ/mol
# Density = 2.408853 g / cm^3
# Si number density = 24.143486 Si / 1000 Ang^3
#
#
#
# Elastic Constant Matrix: (Units=GPa)
#
#
# Indices 1 2 3 4 5 6 
#
# 1 141.6544 20.9116 38.5765 0.0000 -3.5651 0.0000
# 2 20.9116 92.5750 34.3988 0.0000 6.2655 0.0000
# 3 38.5765 34.3988 114.1438 0.0000 20.4550 0.0000
# 4 0.0000 0.0000 0.0000 35.8861 0.0000 3.9722
# 5 -3.5651 6.2655 20.4550 0.0000 21.1242 0.0000
# 6 0.0000 0.0000 0.0000 3.9722 0.0000 16.2671
#
#
#
# Elastic Compliance Matrix: (Units=1/GPa)
#
#
# Indices 1 2 3 4 5 6 
#
# 1 0.008246 -0.000938 -0.003392 0.000000 0.004955 0.000000
# 2 -0.000938 0.012271 -0.003268 0.000000 -0.000634 0.000000
# 3 -0.003392 -0.003268 0.013093 0.000000 -0.012282 0.000000
# 4 0.000000 0.000000 0.000000 0.028640 0.000000 -0.006994
# 5 0.004955 -0.000634 -0.012282 0.000000 0.060256 0.000000
# 6 0.000000 0.000000 0.000000 -0.006994 0.000000 0.063182
#
#
# Mechanical properties :
#
#
# Convention : Reuss Voigt Hill
#
# Bulk Modulus (GPa) = 54.30261 59.57191 56.93726
# Shear Modulus (GPa) = 24.15217 31.62123 27.88670
#
# Velocity S-wave (km/s) = 3.16628 3.62293 3.40228
# Velocity P-wave (km/s) = 5.99229 6.49835 6.25044
#
# Compressibility (1/GPa) = 0.01841532
#
# Stress axis : x y z
#
# Youngs Moduli (GPa) = 121.26559 81.49364 76.37689
#
# Poissons Ratio (x) = 0.07641 0.25909
# Poissons Ratio (y) = 0.11370 0.24957
# Poissons Ratio (z) = 0.41137 0.26628
#
# Static dielectric constant tensor:
#      x y z
#    x 4.184490 0.000000 -0.033320 
#    y 0.000000 4.168690 0.000000 
#    z -0.033320 0.000000 4.638030 
# 
# 
# High freq. dielectric constant tensor:
#      x y z
#    x 1.940040 0.000000 0.006250 
#    y 0.000000 1.941520 0.000000 
#    z 0.006250 0.000000 1.974390 
# 
# From -- ./inp_files/170868.got.cif
#   From: 2010.06.25/outbox.cif.g09.slc.cpg/sg15_86_cif.got.tgz:170868.got - 2010.06.28 07:06:18.
