data_PCOD8147089
_publ_section_title
;
Structure prediction by ZEFSAII (Michael W. Deem and Ramdas Pophale) SiO2 
 PCOD8147089
Probable space group: C 2/C
;
_chemical_formula_sum "Si O2"
_cell_formula_units_Z 52
_cell_length_a 15.773330
_cell_length_b 9.285890
_cell_length_c 17.716301
_cell_angle_alpha 90.000000
_cell_angle_beta 116.587183
_cell_angle_gamma 90.000000
_cell_volume 2320.497203
_symmetry_space_group_name_H-M "C 2/C"
_symmetry_group_IT_number 15
_symmetry_cell_setting 'monoclinic'
loop_
_space_group_symop_operation_xyz
x,y,z
-x,y,1/2-z
-x,-y,-z
x,-y,1/2+z
1/2+x,1/2+y,z
1/2-x,1/2+y,1/2-z
1/2-x,1/2-y,-z
1/2+x,1/2-y,1/2+z
loop_
_atom_site_type_symbol
_atom_site_label
_atom_site_fract_x
_atom_site_fract_y
_atom_site_fract_z
Si Si1 0.000000 0.409816 0.250000
Si Si2 0.645149 0.961288 0.701168
Si Si3 0.348221 0.802563 0.506441
Si Si4 0.758449 0.282828 0.325957
Si Si5 0.618847 0.691384 0.391770
Si Si6 0.664077 0.121381 0.041287
Si Si7 0.078506 0.880652 0.341258
O O1 0.048046 0.515596 0.207856
O O2 0.079051 0.310177 0.319224
O O3 0.716092 0.859801 0.774815
O O4 0.622099 0.896257 0.609060
O O5 0.700189 0.113179 0.721427
O O6 0.250000 0.750000 0.500000
O O7 0.346709 0.749201 0.418272
O O8 0.429619 0.727238 0.589801
O O9 0.355763 0.975418 0.513909
O O10 0.680727 0.373136 0.342104
O O11 0.611393 0.750754 0.474861
O O12 0.725912 0.659965 0.410106
O O13 0.559506 0.543345 0.362415
O O14 0.000000 0.832548 0.250000
#
# Coordination Sequence:
#
# PCOD8147089 Si02
#       7
#     4   8   8   8   8   8   8
#     4  12  28  38  70  98 144 178 234 284 350 380
#     4  11  24  44  66 105 133 185 228 289 332 413
#     4   9  18  37  62  98 122 178 216 277 323 411
#     4  10  23  41  70  94 139 177 231 274 336 415
#     4  11  22  41  68  99 130 190 219 287 332 416
#     4  10  22  42  70  94 135 177 240 267 342 410
#     4  11  22  39  65 104 139 171 223 278 347 403
#
# _framework density 22.408988999999998
#
# number of rings (size 3 to 8) (size 9 to 14) (size 15 to 20)
#    0.000    1.538    5.385    0.923    5.385    1.846 
#    0.000    1.538    0.000    5.538    0.000    0.000 
#    0.000    0.000    0.000    0.000    0.000    0.000 
#
# Total GULP energy -322310.488697 kJ/mol
# GULP energy per Si atom -12396.557258 kJ/mol
# Density = 2.235799 g / cm^3
# Si number density = 22.408989 Si / 1000 Ang^3
#
#
#
# Elastic Constant Matrix: (Units=GPa)
#
#
# Indices 1 2 3 4 5 6 
#
# 1 80.1713 43.7565 43.8635 0.0000 -23.5068 0.0000
# 2 43.7565 127.0893 98.6387 0.0000 -13.0346 0.0000
# 3 43.8635 98.6387 169.9475 0.0000 -1.0133 0.0000
# 4 0.0000 0.0000 0.0000 50.7276 0.0000 -4.5155
# 5 -23.5068 -13.0346 -1.0133 0.0000 27.3886 0.0000
# 6 0.0000 0.0000 0.0000 -4.5155 0.0000 17.6072
#
#
#
# Elastic Compliance Matrix: (Units=1/GPa)
#
#
# Indices 1 2 3 4 5 6 
#
# 1 0.020753 -0.002500 -0.003807 0.000000 0.016481 0.000000
# 2 -0.002500 0.015882 -0.008542 0.000000 0.005097 0.000000
# 3 -0.003807 -0.008542 0.011784 0.000000 -0.006897 0.000000
# 4 0.000000 0.000000 0.000000 0.020174 0.000000 0.005174
# 5 0.016481 0.005097 -0.006897 0.000000 0.052827 0.000000
# 6 0.000000 0.000000 0.000000 0.005174 0.000000 0.058122
#
#
# Mechanical properties :
#
#
# Convention : Reuss Voigt Hill
#
# Bulk Modulus (GPa) = 53.41941 83.30282 68.36111
# Shear Modulus (GPa) = 23.20398 31.87464 27.53931
#
# Velocity S-wave (km/s) = 3.22137 3.77557 3.50943
# Velocity P-wave (km/s) = 6.14219 7.50074 6.85520
#
# Compressibility (1/GPa) = 0.01871979
#
# Stress axis : x y z
#
# Youngs Moduli (GPa) = 48.18559 62.96424 84.86302
#
# Poissons Ratio (x) = 0.15742 0.32308
# Poissons Ratio (y) = 0.12047 0.72493
# Poissons Ratio (z) = 0.18344 0.53786
#
# Static dielectric constant tensor:
#      x y z
#    x 3.689540 0.000000 -0.138310 
#    y 0.000000 4.210790 0.000000 
#    z -0.138310 0.000000 4.882070 
# 
# 
# High freq. dielectric constant tensor:
#      x y z
#    x 1.847210 0.000000 -0.000210 
#    y 0.000000 1.891420 0.000000 
#    z -0.000210 0.000000 1.902030 
# 
# From -- ./inp_files/209705.got.cif
#   From: 2010.06.25/outbox.cif.g09.slc.cpg/sg15_105_cif.got.tgz:209705.got - 2010.06.28 07:06:18.
