data_PCOD8147087
_publ_section_title
;
Structure prediction by ZEFSAII (Michael W. Deem and Ramdas Pophale) SiO2 
 PCOD8147087
Probable space group: C 2/C
;
_chemical_formula_sum "Si O2"
_cell_formula_units_Z 60
_cell_length_a 11.255404
_cell_length_b 8.587576
_cell_length_c 29.241840
_cell_angle_alpha 90.000000
_cell_angle_beta 74.163448
_cell_angle_gamma 90.000000
_cell_volume 2719.138674
_symmetry_space_group_name_H-M "C 2/C"
_symmetry_group_IT_number 15
_symmetry_cell_setting 'monoclinic'
loop_
_space_group_symop_operation_xyz
x,y,z
-x,y,1/2-z
-x,-y,-z
x,-y,1/2+z
1/2+x,1/2+y,z
1/2-x,1/2+y,1/2-z
1/2-x,1/2-y,-z
1/2+x,1/2-y,1/2+z
loop_
_atom_site_type_symbol
_atom_site_label
_atom_site_fract_x
_atom_site_fract_y
_atom_site_fract_z
Si Si1 0.374252 0.692059 0.509430
Si Si2 0.000000 0.657152 0.750000
Si Si3 0.248331 0.376081 0.539620
Si Si4 0.831179 0.623134 0.270535
Si Si5 0.031275 0.613920 0.415430
Si Si6 0.419030 0.232719 0.585623
Si Si7 0.511097 0.267475 0.320170
Si Si8 0.953142 0.120768 0.178001
O O1 0.250000 0.750000 0.500000
O O2 0.351015 0.508827 0.519598
O O3 0.402174 0.778420 0.554195
O O4 0.487669 0.726509 0.464732
O O5 0.120214 0.550441 0.745403
O O6 0.971859 0.763579 0.797024
O O7 0.250000 0.250000 0.500000
O O8 0.285222 0.296238 0.583932
O O9 0.108709 0.436842 0.557588
O O10 0.870914 0.735275 0.224665
O O11 0.686239 0.618448 0.289887
O O12 0.890544 0.684867 0.311653
O O13 0.101642 0.450428 0.404125
O O14 0.039943 0.704318 0.367193
O O15 0.466947 0.317343 0.625540
O O16 0.486359 0.451341 0.325435
#
# Coordination Sequence:
#
# PCOD8147087 Si02
#       8
#     8   4   8   8   8   8   8   8
#     4  12  25  47  67  96 136 177 220 277 330 387
#     4  10  22  42  70  94 130 172 212 268 322 390
#     4  12  25  43  72  92 132 176 217 274 329 384
#     4  10  22  46  66  93 136 167 212 270 332 381
#     4  12  25  47  66  98 136 173 224 272 328 394
#     4  12  25  44  68 100 132 175 225 272 330 393
#     4  10  23  42  69  97 131 172 215 270 325 395
#     4  12  24  42  67  99 130 168 221 265 327 393
#
# _framework density 22.065811
#
# number of rings (size 3 to 8) (size 9 to 14) (size 15 to 20)
#    0.000    0.800    2.667    6.400    1.867    0.000 
#    7.200    0.000    0.000    0.000    0.000    0.000 
#    0.000    0.000    0.000    0.000    0.000    0.000 
#
# Total GULP energy -372098.489374 kJ/mol
# GULP energy per Si atom -12403.282979 kJ/mol
# Density = 2.201559 g / cm^3
# Si number density = 22.065811 Si / 1000 Ang^3
#
#
#
# Elastic Constant Matrix: (Units=GPa)
#
#
# Indices 1 2 3 4 5 6 
#
# 1 58.7796 11.7946 10.2360 0.0000 16.3068 0.0000
# 2 11.7946 171.8442 41.4431 0.0000 24.8898 0.0000
# 3 10.2360 41.4431 113.3991 0.0000 37.6133 0.0000
# 4 0.0000 0.0000 0.0000 41.5732 0.0000 10.9758
# 5 16.3068 24.8898 37.6133 0.0000 40.9000 0.0000
# 6 0.0000 0.0000 0.0000 10.9758 0.0000 32.6434
#
#
#
# Elastic Compliance Matrix: (Units=1/GPa)
#
#
# Indices 1 2 3 4 5 6 
#
# 1 0.019256 -0.000378 0.001252 0.000000 -0.008599 0.000000
# 2 -0.000378 0.006572 -0.001570 0.000000 -0.002405 0.000000
# 3 0.001252 -0.001570 0.013134 0.000000 -0.011623 0.000000
# 4 0.000000 0.000000 0.000000 0.026397 0.000000 -0.008876
# 5 -0.008599 -0.002405 -0.011623 0.000000 0.040030 0.000000
# 6 0.000000 0.000000 0.000000 -0.008876 0.000000 0.033618
#
#
# Mechanical properties :
#
#
# Convention : Reuss Voigt Hill
#
# Bulk Modulus (GPa) = 26.61674 52.33001 39.47338
# Shear Modulus (GPa) = 32.69598 41.72659 37.21129
#
# Velocity S-wave (km/s) = 3.85352 4.35329 4.11101
# Velocity P-wave (km/s) = 5.64696 7.00250 6.36094
#
# Compressibility (1/GPa) = 0.03757033
#
# Stress axis : x y z
#
# Youngs Moduli (GPa) = 51.93173 152.15734 76.13661
#
# Poissons Ratio (x) = 0.05754 -0.09534
# Poissons Ratio (y) = 0.01964 0.11954
# Poissons Ratio (z) = -0.06503 0.23890
#
# Static dielectric constant tensor:
#      x y z
#    x 4.482500 0.000000 0.110690 
#    y 0.000000 4.409870 0.000000 
#    z 0.110690 0.000000 3.977730 
# 
# 
# High freq. dielectric constant tensor:
#      x y z
#    x 1.869270 0.000000 0.014730 
#    y 0.000000 1.887310 0.000000 
#    z 0.014730 0.000000 1.871990 
# 
# From -- ./inp_files/310290.got.cif
#   From: 2010.06.25/outbox.cif.g09.slc.cpg/sg15_156_cif.got.tgz:310290.got - 2010.06.28 07:06:18.
