data_PCOD8147395
_publ_section_title
;
Structure prediction by ZEFSAII (Michael W. Deem and Ramdas Pophale) SiO2 
 PCOD8147395
Probable space group: C 2/C
;
_chemical_formula_sum "Si O2"
_cell_formula_units_Z 40
_cell_length_a 13.881659
_cell_length_b 9.306024
_cell_length_c 21.220901
_cell_angle_alpha 90.000000
_cell_angle_beta 38.815541
_cell_angle_gamma 90.000000
_cell_volume 1718.339063
_symmetry_space_group_name_H-M "C 2/C"
_symmetry_group_IT_number 15
_symmetry_cell_setting 'monoclinic'
loop_
_space_group_symop_operation_xyz
x,y,z
-x,y,1/2-z
-x,-y,-z
x,-y,1/2+z
1/2+x,1/2+y,z
1/2-x,1/2+y,1/2-z
1/2-x,1/2-y,-z
1/2+x,1/2-y,1/2+z
loop_
_atom_site_type_symbol
_atom_site_label
_atom_site_fract_x
_atom_site_fract_y
_atom_site_fract_z
Si Si1 0.061098 0.022061 0.284184
Si Si2 0.392789 0.039411 0.162359
Si Si3 0.403234 0.813083 0.392412
Si Si4 0.745653 0.003651 0.133974
Si Si5 0.488438 0.662444 0.939023
O O1 0.245841 0.013501 0.192745
O O2 0.000000 0.955362 0.250000
O O3 0.013136 0.188300 0.311670
O O4 0.981313 0.935011 0.380533
O O5 0.338832 0.067262 0.261812
O O6 0.494718 0.171776 0.087010
O O7 0.500516 0.898597 0.103196
O O8 0.250000 0.750000 0.500000
O O9 0.372711 0.925352 0.351918
O O10 0.869893 0.883276 0.089429
O O11 0.828615 0.137815 0.057323
#
# Coordination Sequence:
#
# PCOD8147395 Si02
#       5
#     8   8   8   8   8
#     4  11  22  43  69  99 141 185 238 291 353 428
#     4  11  24  43  71 103 140 189 236 290 360 424
#     4  12  24  45  71 101 138 190 234 290 363 425
#     4  10  22  45  73  95 147 187 229 295 361 420
#     4  10  22  43  70 104 137 183 238 292 350 419
#
# _framework density 23.278293000000001
#
# number of rings (size 3 to 8) (size 9 to 14) (size 15 to 20)
#    0.000    1.200    2.000    5.400    0.000    2.400 
#    3.600    2.000    0.000    0.000    0.000    0.000 
#    0.000    0.000    0.000    0.000    0.000    0.000 
#
# Total GULP energy -248096.691918 kJ/mol
# GULP energy per Si atom -12404.834596 kJ/mol
# Density = 2.322531 g / cm^3
# Si number density = 23.278293 Si / 1000 Ang^3
#
#
#
# Elastic Constant Matrix: (Units=GPa)
#
#
# Indices 1 2 3 4 5 6 
#
# 1 148.3879 34.1590 38.4547 0.0000 -14.0840 0.0000
# 2 34.1590 56.6336 46.0702 0.0000 -8.3747 0.0000
# 3 38.4547 46.0702 114.2543 0.0000 -14.5217 0.0000
# 4 0.0000 0.0000 0.0000 47.4296 0.0000 -7.4290
# 5 -14.0840 -8.3747 -14.5217 0.0000 29.8713 0.0000
# 6 0.0000 0.0000 0.0000 -7.4290 0.0000 31.1754
#
#
#
# Elastic Compliance Matrix: (Units=1/GPa)
#
#
# Indices 1 2 3 4 5 6 
#
# 1 0.008063 -0.003799 -0.000889 0.000000 0.002304 0.000000
# 2 -0.003799 0.028224 -0.009938 0.000000 0.001290 0.000000
# 3 -0.000889 -0.009938 0.013485 0.000000 0.003350 0.000000
# 4 0.000000 0.000000 0.000000 0.021901 0.000000 0.005219
# 5 0.002304 0.001290 0.003350 0.000000 0.036554 0.000000
# 6 0.000000 0.000000 0.000000 0.005219 0.000000 0.033320
#
#
# Mechanical properties :
#
#
# Convention : Reuss Voigt Hill
#
# Bulk Modulus (GPa) = 48.73476 61.84929 55.29202
# Shear Modulus (GPa) = 28.14706 35.06807 31.60756
#
# Velocity S-wave (km/s) = 3.48106 3.88554 3.68885
# Velocity P-wave (km/s) = 6.09411 6.83791 6.47670
#
# Compressibility (1/GPa) = 0.02051924
#
# Stress axis : x y z
#
# Youngs Moduli (GPa) = 124.02727 35.43084 74.15884
#
# Poissons Ratio (x) = 0.13461 0.06592
# Poissons Ratio (y) = 0.47122 0.73698
# Poissons Ratio (z) = 0.11024 0.35211
#
# Static dielectric constant tensor:
#      x y z
#    x 4.462490 0.000000 -0.001620 
#    y 0.000000 4.047670 0.000000 
#    z -0.001620 0.000000 4.169080 
# 
# 
# High freq. dielectric constant tensor:
#      x y z
#    x 1.932180 0.000000 -0.005020 
#    y 0.000000 1.909730 0.000000 
#    z -0.005020 0.000000 1.922120 
# 
# From -- ./inp_files/272508.got.cif
#   From: 2010.06.25/outbox.cif.g09.slc.cpg/sg15_137_cif.got.tgz:272508.got - 2010.06.28 07:06:18.
