data_PCOD8147146
_publ_section_title
;
Structure prediction by ZEFSAII (Michael W. Deem and Ramdas Pophale) SiO2 
 PCOD8147146
Probable space group: C 2/C
;
_chemical_formula_sum "Si O2"
_cell_formula_units_Z 60
_cell_length_a 16.405611
_cell_length_b 9.590789
_cell_length_c 19.618552
_cell_angle_alpha 90.000000
_cell_angle_beta 115.136472
_cell_angle_gamma 90.000000
_cell_volume 2794.509172
_symmetry_space_group_name_H-M "C 2/C"
_symmetry_group_IT_number 15
_symmetry_cell_setting 'monoclinic'
loop_
_space_group_symop_operation_xyz
x,y,z
-x,y,1/2-z
-x,-y,-z
x,-y,1/2+z
1/2+x,1/2+y,z
1/2-x,1/2+y,1/2-z
1/2-x,1/2-y,-z
1/2+x,1/2-y,1/2+z
loop_
_atom_site_type_symbol
_atom_site_label
_atom_site_fract_x
_atom_site_fract_y
_atom_site_fract_z
Si Si1 0.706468 0.752080 0.158927
Si Si2 0.397801 0.920192 0.547655
Si Si3 0.000000 0.208064 0.750000
Si Si4 0.914247 0.517512 0.896498
Si Si5 0.226866 0.907757 0.009649
Si Si6 0.595433 0.484767 0.075607
Si Si7 0.127724 0.743168 0.184518
Si Si8 0.151483 0.856496 0.394065
O O1 0.644562 0.874849 0.168160
O O2 0.637739 0.629529 0.115059
O O3 0.775942 0.728723 0.244882
O O4 0.757360 0.796617 0.107092
O O5 0.407683 0.921153 0.469899
O O6 0.388078 0.758532 0.566969
O O7 0.487657 0.001614 0.602640
O O8 0.318158 0.006917 0.553478
O O9 0.948728 0.303718 0.787488
O O10 0.923161 0.110997 0.689491
O O11 0.868884 0.364725 0.877031
O O12 0.168085 0.903180 0.056364
O O13 0.250000 0.750000 0.000000
O O14 0.169562 0.993309 0.933373
O O15 0.591793 0.391591 0.143061
O O16 0.500000 0.500000 0.000000
#
# Coordination Sequence:
#
# PCOD8147146 Si02
#       8
#     8   8   4   8   8   8   8   8
#     4  11  24  43  70  95 140 182 223 283 344 421
#     4  11  22  40  67  99 134 172 226 282 330 401
#     4  10  22  42  72  92 130 178 222 274 328 434
#     4  11  23  39  69 100 132 173 230 279 330 403
#     4  12  25  41  65 100 139 171 224 286 345 397
#     4  12  27  42  69 103 140 177 234 289 341 415
#     4  11  24  44  68 100 134 179 229 275 351 409
#     4  11  21  44  69  99 126 182 227 269 348 410
#
# _framework density 21.470675
#
# number of rings (size 3 to 8) (size 9 to 14) (size 15 to 20)
#    0.000    0.800    4.000    3.600    5.600    0.000 
#    0.000    0.000    0.000    1.600    0.000    0.000 
#    0.000    0.000    0.000    0.000    0.000    0.000 
#
# Total GULP energy -371641.848176 kJ/mol
# GULP energy per Si atom -12388.061606 kJ/mol
# Density = 2.142181 g / cm^3
# Si number density = 21.470675 Si / 1000 Ang^3
#
#
#
# Elastic Constant Matrix: (Units=GPa)
#
#
# Indices 1 2 3 4 5 6 
#
# 1 118.3106 49.3709 47.2612 0.0000 22.6653 0.0000
# 2 49.3709 138.1880 50.6544 0.0000 10.3501 0.0000
# 3 47.2612 50.6544 107.3801 0.0000 21.6493 0.0000
# 4 0.0000 0.0000 0.0000 24.9249 0.0000 4.3350
# 5 22.6653 10.3501 21.6493 0.0000 39.2630 0.0000
# 6 0.0000 0.0000 0.0000 4.3350 0.0000 34.8234
#
#
#
# Elastic Compliance Matrix: (Units=1/GPa)
#
#
# Indices 1 2 3 4 5 6 
#
# 1 0.011604 -0.002744 -0.002935 0.000000 -0.004357 0.000000
# 2 -0.002744 0.009398 -0.003427 0.000000 0.000996 0.000000
# 3 -0.002935 -0.003427 0.013160 0.000000 -0.004659 0.000000
# 4 0.000000 0.000000 0.000000 0.041008 0.000000 -0.005105
# 5 -0.004357 0.000996 -0.004659 0.000000 0.030291 0.000000
# 6 0.000000 0.000000 0.000000 -0.005105 0.000000 0.029352
#
#
# Mechanical properties :
#
#
# Convention : Reuss Voigt Hill
#
# Bulk Modulus (GPa) = 62.68527 73.16133 67.92330
# Shear Modulus (GPa) = 31.57731 34.24174 32.90953
#
# Velocity S-wave (km/s) = 3.83915 3.99785 3.91930
# Velocity P-wave (km/s) = 6.99366 7.44710 7.22394
#
# Compressibility (1/GPa) = 0.01595271
#
# Stress axis : x y z
#
# Youngs Moduli (GPa) = 86.17433 106.40227 75.98768
#
# Poissons Ratio (x) = 0.29196 0.22299
# Poissons Ratio (y) = 0.23645 0.26038
# Poissons Ratio (z) = 0.25288 0.36460
#
# Static dielectric constant tensor:
#      x y z
#    x 4.384300 0.000000 0.225460 
#    y 0.000000 3.879150 0.000000 
#    z 0.225460 0.000000 4.185670 
# 
# 
# High freq. dielectric constant tensor:
#      x y z
#    x 1.857370 0.000000 0.019740 
#    y 0.000000 1.830120 0.000000 
#    z 0.019740 0.000000 1.848860 
# 
# From -- ./inp_files/276590.got.cif
#   From: 2010.06.25/outbox.cif.g09.slc.cpg/sg15_139_cif.got.tgz:276590.got - 2010.06.28 07:06:18.
