data_PCOD8147122
_publ_section_title
;
Structure prediction by ZEFSAII (Michael W. Deem and Ramdas Pophale) SiO2 
 PCOD8147122
Probable space group: C 2/C
;
_chemical_formula_sum "Si O2"
_cell_formula_units_Z 56
_cell_length_a 11.244686
_cell_length_b 15.271402
_cell_length_c 16.332280
_cell_angle_alpha 90.000000
_cell_angle_beta 118.156825
_cell_angle_gamma 90.000000
_cell_volume 2472.713769
_symmetry_space_group_name_H-M "C 2/C"
_symmetry_group_IT_number 15
_symmetry_cell_setting 'monoclinic'
loop_
_space_group_symop_operation_xyz
x,y,z
-x,y,1/2-z
-x,-y,-z
x,-y,1/2+z
1/2+x,1/2+y,z
1/2-x,1/2+y,1/2-z
1/2-x,1/2-y,-z
1/2+x,1/2-y,1/2+z
loop_
_atom_site_type_symbol
_atom_site_label
_atom_site_fract_x
_atom_site_fract_y
_atom_site_fract_z
Si Si1 0.740414 0.200360 0.580931
Si Si2 0.789193 0.123685 0.981824
Si Si3 0.645370 0.872538 0.269203
Si Si4 0.311880 0.485374 0.751837
Si Si5 0.224603 0.293204 0.743760
Si Si6 0.900890 0.023329 0.611817
Si Si7 0.574344 0.207156 0.025325
O O1 0.750000 0.250000 0.500000
O O2 0.813873 0.253290 0.679395
O O3 0.829490 0.115599 0.594665
O O4 0.580697 0.180559 0.543246
O O5 0.737822 0.110370 0.875409
O O6 0.899318 0.201490 0.013782
O O7 0.672345 0.138354 0.011770
O O8 0.860142 0.031097 0.019381
O O9 0.500000 0.899410 0.250000
O O10 0.653261 0.770765 0.245086
O O11 0.692739 0.941621 0.214876
O O12 0.271125 0.392129 0.777141
O O13 0.352475 0.464036 0.672379
O O14 0.437715 0.532287 0.837698
O O15 0.107979 0.290432 0.634828
#
# Coordination Sequence:
#
# PCOD8147122 Si02
#       7
#     8   8   8   8   8   8   8
#     4  12  28  43  68 103 144 189 224 285 355 428
#     4  10  22  42  71  97 131 174 237 291 330 409
#     4  11  25  43  70 100 137 179 233 291 343 412
#     4  11  25  45  70 100 136 187 230 289 349 419
#     4  11  24  47  71 100 141 184 235 290 348 414
#     4  11  25  44  68  98 138 180 235 283 348 419
#     4  10  23  44  70 102 131 180 236 289 347 402
#
# _framework density 22.647182000000001
#
# number of rings (size 3 to 8) (size 9 to 14) (size 15 to 20)
#    0.000    1.143    2.857    1.714    8.000    2.857 
#    0.000    0.000    0.000    0.000    0.000    0.000 
#    0.000    0.000    0.000    0.000    0.000    0.000 
#
# Total GULP energy -346979.478116 kJ/mol
# GULP energy per Si atom -12392.124218 kJ/mol
# Density = 2.259564 g / cm^3
# Si number density = 22.647182 Si / 1000 Ang^3
#
#
#
# Elastic Constant Matrix: (Units=GPa)
#
#
# Indices 1 2 3 4 5 6 
#
# 1 62.0695 31.0218 2.2716 0.0000 19.7964 0.0000
# 2 31.0218 135.6247 19.6964 0.0000 22.4057 0.0000
# 3 2.2716 19.6964 74.7987 0.0000 -10.4253 0.0000
# 4 0.0000 0.0000 0.0000 39.7045 0.0000 -3.6690
# 5 19.7964 22.4057 -10.4253 0.0000 32.6801 0.0000
# 6 0.0000 0.0000 0.0000 -3.6690 0.0000 21.4009
#
#
#
# Elastic Compliance Matrix: (Units=1/GPa)
#
#
# Indices 1 2 3 4 5 6 
#
# 1 0.021182 -0.002735 -0.001518 0.000000 -0.011441 0.000000
# 2 -0.002735 0.009429 -0.003213 0.000000 -0.005833 0.000000
# 3 -0.001518 -0.003213 0.015380 0.000000 0.008029 0.000000
# 4 0.000000 0.000000 0.000000 0.025591 0.000000 0.004387
# 5 -0.011441 -0.005833 0.008029 0.000000 0.044090 0.000000
# 6 0.000000 0.000000 0.000000 0.004387 0.000000 0.047479
#
#
# Mechanical properties :
#
#
# Convention : Reuss Voigt Hill
#
# Bulk Modulus (GPa) = 32.19463 42.05249 37.12356
# Shear Modulus (GPa) = 26.53410 33.39065 29.96238
#
# Velocity S-wave (km/s) = 3.42662 3.84394 3.64126
# Velocity P-wave (km/s) = 5.46829 6.18951 5.84004
#
# Compressibility (1/GPa) = 0.03106108
#
# Stress axis : x y z
#
# Youngs Moduli (GPa) = 47.20960 106.05572 65.01797
#
# Poissons Ratio (x) = 0.29002 0.09868
# Poissons Ratio (y) = 0.12910 0.20889
# Poissons Ratio (z) = 0.07165 0.34074
#
# Static dielectric constant tensor:
#      x y z
#    x 3.916930 0.000000 -0.117640 
#    y 0.000000 4.028400 0.000000 
#    z -0.117640 0.000000 4.013760 
# 
# 
# High freq. dielectric constant tensor:
#      x y z
#    x 1.886520 0.000000 -0.010880 
#    y 0.000000 1.891210 0.000000 
#    z -0.010880 0.000000 1.905500 
# 
# From -- ./inp_files/198440.got.cif
#   From: 2010.06.25/outbox.cif.g09.slc.cpg/sg15_100_cif.got.tgz:198440.got - 2010.06.28 07:06:18.
