data_PCOD8147580
_publ_section_title
;
Structure prediction by ZEFSAII (Michael W. Deem and Ramdas Pophale) SiO2 
 PCOD8147580
Probable space group: C 2/C
;
_chemical_formula_sum "Si O2"
_cell_formula_units_Z 40
_cell_length_a 7.241868
_cell_length_b 22.570986
_cell_length_c 12.629255
_cell_angle_alpha 90.000000
_cell_angle_beta 126.525245
_cell_angle_gamma 90.000000
_cell_volume 1658.883667
_symmetry_space_group_name_H-M "C 2/C"
_symmetry_group_IT_number 15
_symmetry_cell_setting 'monoclinic'
loop_
_space_group_symop_operation_xyz
x,y,z
-x,y,1/2-z
-x,-y,-z
x,-y,1/2+z
1/2+x,1/2+y,z
1/2-x,1/2+y,1/2-z
1/2-x,1/2-y,-z
1/2+x,1/2-y,1/2+z
loop_
_atom_site_type_symbol
_atom_site_label
_atom_site_fract_x
_atom_site_fract_y
_atom_site_fract_z
Si Si1 0.029878 0.266343 0.489452
Si Si2 0.284066 0.312861 0.755847
Si Si3 0.695466 0.994465 0.481784
Si Si4 0.546668 0.882659 0.151633
Si Si5 0.000000 0.416382 0.750000
Si Si6 0.500000 0.453431 0.250000
O O1 0.250000 0.250000 0.500000
O O2 0.096219 0.268366 0.636480
O O3 0.841874 0.217419 0.389719
O O4 0.953362 0.332898 0.437097
O O5 0.500000 0.321451 0.750000
O O6 0.171988 0.376519 0.738752
O O7 0.659895 0.042807 0.377973
O O8 0.934404 0.006209 0.625184
O O9 0.500000 0.000000 0.500000
O O10 0.671705 0.927657 0.430449
O O11 0.500000 0.852398 0.250000
O O12 0.789546 0.914860 0.220949
#
# Coordination Sequence:
#
# PCOD8147580 Si02
#       6
#     8   8   8   8   4   4
#     4  10  22  44  67 100 136 180 230 289 352 404
#     4  10  23  42  67  99 135 178 230 287 343 421
#     4  10  23  46  64 102 141 175 238 287 343 423
#     4  11  22  43  67  95 138 179 232 288 340 427
#     4  12  24  45  70 102 141 182 230 290 356 408
#     4  10  24  41  66  98 131 182 222 288 354 404
#
# _framework density 24.112598999999999
#
# number of rings (size 3 to 8) (size 9 to 14) (size 15 to 20)
#    0.000    1.600    1.000    4.200    0.000    7.200 
#   27.000    0.000    0.000    0.000    0.000    0.000 
#    0.000    0.000    0.000    0.000    0.000    0.000 
#
# Total GULP energy -247833.547590 kJ/mol
# GULP energy per Si atom -12391.677380 kJ/mol
# Density = 2.405772 g / cm^3
# Si number density = 24.112599 Si / 1000 Ang^3
#
#
#
# Elastic Constant Matrix: (Units=GPa)
#
#
# Indices 1 2 3 4 5 6 
#
# 1 68.8954 0.6660 3.4717 0.0000 6.5237 0.0000
# 2 0.6660 80.0766 15.2273 0.0000 15.0660 0.0000
# 3 3.4717 15.2273 141.7079 0.0000 3.4528 0.0000
# 4 0.0000 0.0000 0.0000 -19.2317 0.0000 -26.5504
# 5 6.5237 15.0660 3.4528 0.0000 27.3768 0.0000
# 6 0.0000 0.0000 0.0000 -26.5504 0.0000 26.6913
#
#
#
# Elastic Compliance Matrix: (Units=1/GPa)
#
#
# Indices 1 2 3 4 5 6 
#
# 1 0.014892 0.000670 -0.000342 0.000000 -0.003874 0.000000
# 2 0.000670 0.014209 -0.001353 0.000000 -0.007808 0.000000
# 3 -0.000342 -0.001353 0.007213 0.000000 -0.000083 0.000000
# 4 0.000000 0.000000 0.000000 -0.021910 0.000000 -0.021794
# 5 -0.003874 -0.007808 -0.000083 0.000000 0.041758 0.000000
# 6 0.000000 0.000000 0.000000 -0.021794 0.000000 0.015786
#
#
# Mechanical properties :
#
#
# Convention : Reuss Voigt Hill
#
# Bulk Modulus (GPa) = 29.18566 36.60109 32.89338
# Shear Modulus (GPa) = 58.53400 25.05494 41.79447
#
# Velocity S-wave (km/s) = 4.93234 3.22697 4.16781
# Velocity P-wave (km/s) = 6.67589 5.39413 6.06894
#
# Compressibility (1/GPa) = 0.03426340
#
# Stress axis : x y z
#
# Youngs Moduli (GPa) = 67.14836 70.37855 138.64666
#
# Poissons Ratio (x) = -0.04717 0.04748
# Poissons Ratio (y) = -0.04500 0.18759
# Poissons Ratio (z) = 0.02300 0.09522
#
# Static dielectric constant tensor:
#      x y z
#    x 3.846940 0.000000 -0.636910 
#    y 0.000000 4.141800 0.000000 
#    z -0.636910 0.000000 3.606480 
# 
# 
# High freq. dielectric constant tensor:
#      x y z
#    x 1.944300 0.000000 -0.005060 
#    y 0.000000 1.953900 0.000000 
#    z -0.005060 0.000000 1.977180 
# 
# From -- ./inp_files/137644.got.cif
#   From: 2010.06.25/outbox.cif.g09.slc.cpg/sg15_69_cif.got.tgz:137644.got - 2010.06.28 07:06:18.
