data_PCOD8147925
_publ_section_title
;
Structure prediction by ZEFSAII (Michael W. Deem and Ramdas Pophale) SiO2 
 PCOD8147925
Probable space group: C 2/C
;
_chemical_formula_sum "Si O2"
_cell_formula_units_Z 48
_cell_length_a 25.521348
_cell_length_b 8.743890
_cell_length_c 13.983830
_cell_angle_alpha 90.000000
_cell_angle_beta 136.804099
_cell_angle_gamma 90.000000
_cell_volume 2136.016882
_symmetry_space_group_name_H-M "C 2/C"
_symmetry_group_IT_number 15
_symmetry_cell_setting 'monoclinic'
loop_
_space_group_symop_operation_xyz
x,y,z
-x,y,1/2-z
-x,-y,-z
x,-y,1/2+z
1/2+x,1/2+y,z
1/2-x,1/2+y,1/2-z
1/2-x,1/2-y,-z
1/2+x,1/2-y,1/2+z
loop_
_atom_site_type_symbol
_atom_site_label
_atom_site_fract_x
_atom_site_fract_y
_atom_site_fract_z
Si Si1 0.168116 0.295888 0.936232
Si Si2 0.206237 0.877836 0.669968
Si Si3 0.847820 0.205648 0.913039
Si Si4 0.444174 0.354998 0.357696
Si Si5 0.584078 0.313006 0.651728
Si Si6 0.584606 0.894764 0.330932
O O1 0.098604 0.235433 0.780775
O O2 0.151033 0.476337 0.922741
O O3 0.250000 0.250000 0.000000
O O4 0.164098 0.225656 0.035574
O O5 0.295429 0.838622 0.798442
O O6 0.169058 0.842200 0.724003
O O7 0.202378 0.054432 0.632697
O O8 0.909843 0.163214 0.917487
O O9 0.889607 0.258751 0.064742
O O10 0.529797 0.287990 0.485668
O O11 0.444230 0.534307 0.330120
O O12 0.581795 0.169170 0.719296
O O13 0.500000 0.954294 0.250000
#
# Coordination Sequence:
#
# PCOD8147925 Si02
#       6
#     8   8   8   8   8   8
#     4  12  27  44  66  98 141 182 227 284 338 406
#     4  11  25  43  71 101 134 185 228 286 344 409
#     4  11  23  45  72  98 139 177 232 282 344 411
#     4  10  22  46  69  96 136 179 224 286 343 409
#     4  10  24  44  72  99 132 179 232 282 347 405
#     4  12  27  45  71 105 139 181 229 284 345 411
#
# _framework density 22.471733
#
# number of rings (size 3 to 8) (size 9 to 14) (size 15 to 20)
#    0.000    1.000    3.333    2.000    7.000    2.667 
#    0.000    0.000    0.000    0.000    0.000    0.000 
#    0.000    0.000    0.000    0.000    0.000    0.000 
#
# Total GULP energy -297620.061208 kJ/mol
# GULP energy per Si atom -12400.835884 kJ/mol
# Density = 2.242059 g / cm^3
# Si number density = 22.471733 Si / 1000 Ang^3
#
#
#
# Elastic Constant Matrix: (Units=GPa)
#
#
# Indices 1 2 3 4 5 6 
#
# 1 65.6182 29.3592 5.7294 0.0000 5.4619 0.0000
# 2 29.3592 97.9778 31.8513 0.0000 8.3475 0.0000
# 3 5.7294 31.8513 88.5340 0.0000 -7.2435 0.0000
# 4 0.0000 0.0000 0.0000 49.6255 0.0000 0.9938
# 5 5.4619 8.3475 -7.2435 0.0000 35.2598 0.0000
# 6 0.0000 0.0000 0.0000 0.9938 0.0000 27.1739
#
#
#
# Elastic Compliance Matrix: (Units=1/GPa)
#
#
# Indices 1 2 3 4 5 6 
#
# 1 0.017715 -0.005422 0.000697 0.000000 -0.001317 0.000000
# 2 -0.005422 0.013700 -0.004856 0.000000 -0.003401 0.000000
# 3 0.000697 -0.004856 0.013306 0.000000 0.003775 0.000000
# 4 0.000000 0.000000 0.000000 0.020166 0.000000 -0.000738
# 5 -0.001317 -0.003401 0.003775 0.000000 0.030146 0.000000
# 6 0.000000 0.000000 0.000000 -0.000738 0.000000 0.036827
#
#
# Mechanical properties :
#
#
# Convention : Reuss Voigt Hill
#
# Bulk Modulus (GPa) = 39.12889 42.88998 41.00943
# Shear Modulus (GPa) = 31.33993 34.75785 33.04889
#
# Velocity S-wave (km/s) = 3.73854 3.93712 3.83911
# Velocity P-wave (km/s) = 6.00715 6.30837 6.15960
#
# Compressibility (1/GPa) = 0.02555657
#
# Stress axis : x y z
#
# Youngs Moduli (GPa) = 56.45052 72.99478 75.15472
#
# Poissons Ratio (x) = 0.39581 -0.05236
# Poissons Ratio (y) = 0.30610 0.36495
# Poissons Ratio (z) = -0.03933 0.35446
#
# Static dielectric constant tensor:
#      x y z
#    x 3.910710 0.000000 0.089200 
#    y 0.000000 4.129900 0.000000 
#    z 0.089200 0.000000 4.075670 
# 
# 
# High freq. dielectric constant tensor:
#      x y z
#    x 1.878850 0.000000 0.006280 
#    y 0.000000 1.884510 0.000000 
#    z 0.006280 0.000000 1.899100 
# 
# From -- ./inp_files/176971.got.cif
#   From: 2010.06.25/outbox.cif.g09.slc.cpg/sg15_89_cif.got.tgz:176971.got - 2010.06.28 07:06:18.
