data_PCOD8147814
_publ_section_title
;
Structure prediction by ZEFSAII (Michael W. Deem and Ramdas Pophale) SiO2 
 PCOD8147814
Probable space group: C 2/C
;
_chemical_formula_sum "Si O2"
_cell_formula_units_Z 32
_cell_length_a 9.045594
_cell_length_b 10.706138
_cell_length_c 14.503150
_cell_angle_alpha 90.000000
_cell_angle_beta 66.367591
_cell_angle_gamma 90.000000
_cell_volume 1286.744370
_symmetry_space_group_name_H-M "C 2/C"
_symmetry_group_IT_number 15
_symmetry_cell_setting 'monoclinic'
loop_
_space_group_symop_operation_xyz
x,y,z
-x,y,1/2-z
-x,-y,-z
x,-y,1/2+z
1/2+x,1/2+y,z
1/2-x,1/2+y,1/2-z
1/2-x,1/2-y,-z
1/2+x,1/2-y,1/2+z
loop_
_atom_site_type_symbol
_atom_site_label
_atom_site_fract_x
_atom_site_fract_y
_atom_site_fract_z
Si Si1 0.523681 0.798120 0.058869
Si Si2 0.337050 0.959943 0.235081
Si Si3 0.980676 0.098440 0.584507
Si Si4 0.701761 0.415112 0.611551
O O1 0.371381 0.866354 0.141060
O O2 0.584145 0.702181 0.123166
O O3 0.478480 0.731976 0.972414
O O4 0.658474 0.902900 0.000947
O O5 0.500000 0.991979 0.250000
O O6 0.203940 0.898632 0.334372
O O7 0.269232 0.085029 0.200432
O O8 0.000000 0.000000 0.500000
O O9 0.107572 0.049462 0.628787
#
# Coordination Sequence:
#
# PCOD8147814 Si02
#       4
#     8   8   8   8
#     4  10  23  44  69  94 129 174 217 266 324 382
#     4  12  24  40  67 100 130 172 220 262 324 389
#     4  10  23  42  66  96 129 168 215 268 324 380
#     4  10  22  45  68  93 134 170 213 273 322 379
#
# _framework density 24.868966
#
# number of rings (size 3 to 8) (size 9 to 14) (size 15 to 20)
#    0.000    1.500    0.000    6.000    0.000   11.000 
#    0.000    7.500    0.000    4.500    0.000    0.000 
#    0.000    0.000    0.000    0.000    0.000    0.000 
#
# Total GULP energy -198254.791181 kJ/mol
# GULP energy per Si atom -12390.924449 kJ/mol
# Density = 2.481236 g / cm^3
# Si number density = 24.868966 Si / 1000 Ang^3
#
#
#
# Elastic Constant Matrix: (Units=GPa)
#
#
# Indices 1 2 3 4 5 6 
#
# 1 124.7239 41.1311 40.3304 0.0000 6.4541 0.0000
# 2 41.1311 52.1420 25.8077 0.0000 -3.8710 0.0000
# 3 40.3304 25.8077 111.0542 0.0000 -18.8186 0.0000
# 4 0.0000 0.0000 0.0000 29.4848 0.0000 6.1671
# 5 6.4541 -3.8710 -18.8186 0.0000 53.5190 0.0000
# 6 0.0000 0.0000 0.0000 6.1671 0.0000 27.5324
#
#
#
# Elastic Compliance Matrix: (Units=1/GPa)
#
#
# Indices 1 2 3 4 5 6 
#
# 1 0.011780 -0.008074 -0.002915 0.000000 -0.003030 0.000000
# 2 -0.008074 0.027208 -0.003075 0.000000 0.001860 0.000000
# 3 -0.002915 -0.003075 0.011484 0.000000 0.004167 0.000000
# 4 0.000000 0.000000 0.000000 0.035583 0.000000 -0.007970
# 5 -0.003030 0.001860 0.004167 0.000000 0.020650 0.000000
# 6 0.000000 0.000000 0.000000 -0.007970 0.000000 0.038106
#
#
# Mechanical properties :
#
#
# Convention : Reuss Voigt Hill
#
# Bulk Modulus (GPa) = 44.75770 55.82873 50.29321
# Shear Modulus (GPa) = 27.71810 34.15064 30.93437
#
# Velocity S-wave (km/s) = 3.34213 3.70972 3.53071
# Velocity P-wave (km/s) = 5.73843 6.39119 6.07359
#
# Compressibility (1/GPa) = 0.02234252
#
# Stress axis : x y z
#
# Youngs Moduli (GPa) = 84.89110 36.75399 87.07779
#
# Poissons Ratio (x) = 0.29677 0.25382
# Poissons Ratio (y) = 0.68545 0.26779
# Poissons Ratio (z) = 0.24745 0.11303
#
# Static dielectric constant tensor:
#      x y z
#    x 6.341580 0.000000 0.573150 
#    y 0.000000 8.767380 0.000000 
#    z 0.573150 0.000000 4.619680 
# 
# 
# High freq. dielectric constant tensor:
#      x y z
#    x 1.990850 0.000000 -0.000990 
#    y 0.000000 1.965290 0.000000 
#    z -0.000990 0.000000 2.000000 
# 
# From -- ./inp_files/131919.got.cif
#   From: 2010.06.25/outbox.cif.g09.slc.cpg/sg15_66_cif.got.tgz:131919.got - 2010.06.28 07:06:18.
