data_PCOD8147432
_publ_section_title
;
Structure prediction by ZEFSAII (Michael W. Deem and Ramdas Pophale) SiO2 
 PCOD8147432
Probable space group: C 2/C
;
_chemical_formula_sum "Si O2"
_cell_formula_units_Z 56
_cell_length_a 23.079423
_cell_length_b 11.283116
_cell_length_c 23.202067
_cell_angle_alpha 90.000000
_cell_angle_beta 23.713164
_cell_angle_gamma 90.000000
_cell_volume 2429.839260
_symmetry_space_group_name_H-M "C 2/C"
_symmetry_group_IT_number 15
_symmetry_cell_setting 'monoclinic'
loop_
_space_group_symop_operation_xyz
x,y,z
-x,y,1/2-z
-x,-y,-z
x,-y,1/2+z
1/2+x,1/2+y,z
1/2-x,1/2+y,1/2-z
1/2-x,1/2-y,-z
1/2+x,1/2-y,1/2+z
loop_
_atom_site_type_symbol
_atom_site_label
_atom_site_fract_x
_atom_site_fract_y
_atom_site_fract_z
Si Si1 0.999605 0.669759 0.686136
Si Si2 0.822471 0.863993 0.022956
Si Si3 0.455289 0.366601 0.025305
Si Si4 0.422434 0.833927 0.879365
Si Si5 0.638134 0.576316 0.591121
Si Si6 0.472315 0.989707 0.931259
Si Si7 0.156093 0.638546 0.848838
O O1 0.092279 0.789300 0.603105
O O2 0.085565 0.588430 0.561309
O O3 0.000000 0.614074 0.750000
O O4 0.833833 0.688629 0.818040
O O5 0.920474 0.865267 0.989881
O O6 0.801978 0.992171 0.013526
O O7 0.320777 0.329336 0.187347
O O8 0.500000 0.500000 0.000000
O O9 0.572648 0.263597 0.929569
O O10 0.500000 0.869455 0.750000
O O11 0.412321 0.693836 0.896438
O O12 0.515973 0.881691 0.848721
O O13 0.262577 0.892065 0.024029
O O14 0.500000 0.521388 0.750000
O O15 0.604193 0.049382 0.845390
O O16 0.354184 0.938936 0.083201
#
# Coordination Sequence:
#
# PCOD8147432 Si02
#       7
#     8   8   8   8   8   8   8
#     4  12  25  43  74 104 143 191 234 295 369 440
#     4  12  24  45  68 103 145 184 237 301 356 437
#     4  12  28  49  76 109 144 197 253 305 367 439
#     4  10  22  43  71  98 139 183 230 291 366 430
#     4  10  23  42  63 104 138 177 234 291 353 432
#     4  11  23  45  73  99 139 189 240 298 365 438
#     4  11  28  49  73 105 144 191 249 303 368 434
#
# _framework density 23.046790999999999
#
# number of rings (size 3 to 8) (size 9 to 14) (size 15 to 20)
#    0.000    0.857    2.857    3.000    6.000    3.429 
#    5.143    0.000    0.000    0.000    0.000    0.000 
#    0.000    0.000    0.000    0.000    0.000    0.000 
#
# Total GULP energy -347062.064937 kJ/mol
# GULP energy per Si atom -12395.073748 kJ/mol
# Density = 2.299434 g / cm^3
# Si number density = 23.046791 Si / 1000 Ang^3
#
#
#
# Elastic Constant Matrix: (Units=GPa)
#
#
# Indices 1 2 3 4 5 6 
#
# 1 109.3239 51.3778 30.7788 0.0005 26.0960 -0.0001
# 2 51.3778 134.2343 64.1273 -0.0051 3.1039 0.0007
# 3 30.7788 64.1273 145.1087 -0.0006 3.7634 -0.0004
# 4 0.0005 -0.0051 -0.0006 35.6029 0.0002 5.9032
# 5 26.0960 3.1039 3.7634 0.0002 32.3142 0.0002
# 6 -0.0001 0.0007 -0.0004 5.9032 0.0002 37.6006
#
#
#
# Elastic Compliance Matrix: (Units=1/GPa)
#
#
# Indices 1 2 3 4 5 6 
#
# 1 0.014236 -0.004929 -0.000557 -0.000001 -0.010959 0.000000
# 2 -0.004929 0.011156 -0.003972 0.000002 0.003372 -0.000001
# 3 -0.000557 -0.003972 0.008770 0.000000 -0.000190 0.000000
# 4 -0.000001 0.000002 0.000000 0.028838 0.000000 -0.004528
# 5 -0.010959 0.003372 -0.000190 0.000000 0.039494 0.000000
# 6 0.000000 -0.000001 0.000000 -0.004528 0.000000 0.027306
#
#
# Mechanical properties :
#
#
# Convention : Reuss Voigt Hill
#
# Bulk Modulus (GPa) = 65.59400 75.69273 70.64336
# Shear Modulus (GPa) = 32.50988 37.26242 34.88615
#
# Velocity S-wave (km/s) = 3.75987 4.02533 3.89486
# Velocity P-wave (km/s) = 6.88272 7.38368 7.13760
#
# Compressibility (1/GPa) = 0.01524530
#
# Stress axis : x y z
#
# Youngs Moduli (GPa) = 70.24224 89.63823 114.02798
#
# Poissons Ratio (x) = 0.44187 0.06351
# Poissons Ratio (y) = 0.34626 0.45292
# Poissons Ratio (z) = 0.03912 0.35604
#
# Static dielectric constant tensor:
#      x y z
#    x 4.187960 0.000000 0.132910 
#    y 0.000000 4.348700 0.000000 
#    z 0.132910 0.000000 4.121760 
# 
# 
# High freq. dielectric constant tensor:
#      x y z
#    x 1.907000 0.000000 0.014860 
#    y 0.000000 1.922400 0.000000 
#    z 0.014860 0.000000 1.906490 
# 
# From -- ./inp_files/303247.got.cif
#   From: 2010.06.25/outbox.cif.g09.slc.cpg/sg15_152_cif.got.tgz:303247.got - 2010.06.28 07:06:18.
