data_PCOD8147341
_publ_section_title
;
Structure prediction by ZEFSAII (Michael W. Deem and Ramdas Pophale) SiO2 
 PCOD8147341
Probable space group: C 2/C
;
_chemical_formula_sum "Si O2"
_cell_formula_units_Z 40
_cell_length_a 13.937440
_cell_length_b 12.223556
_cell_length_c 10.789660
_cell_angle_alpha 90.000000
_cell_angle_beta 90.880980
_cell_angle_gamma 90.000000
_cell_volume 1837.963983
_symmetry_space_group_name_H-M "C 2/C"
_symmetry_group_IT_number 15
_symmetry_cell_setting 'monoclinic'
loop_
_space_group_symop_operation_xyz
x,y,z
-x,y,1/2-z
-x,-y,-z
x,-y,1/2+z
1/2+x,1/2+y,z
1/2-x,1/2+y,1/2-z
1/2-x,1/2-y,-z
1/2+x,1/2-y,1/2+z
loop_
_atom_site_type_symbol
_atom_site_label
_atom_site_fract_x
_atom_site_fract_y
_atom_site_fract_z
Si Si1 0.217724 0.340004 0.168415
Si Si2 0.553284 0.552324 0.618205
Si Si3 0.329737 0.250988 0.397479
Si Si4 0.112275 0.546983 0.236873
Si Si5 0.219813 0.105465 0.087126
O O1 0.291488 0.314788 0.277511
O O2 0.132051 0.419640 0.209434
O O3 0.175508 0.224353 0.120612
O O4 0.276435 0.401936 0.061291
O O5 0.500000 0.551617 0.750000
O O6 0.500000 0.500000 0.500000
O O7 0.576355 0.675941 0.570403
O O8 0.651691 0.486142 0.643016
O O9 0.250000 0.250000 0.500000
O O10 0.356966 0.124890 0.376563
O O11 0.172462 0.587204 0.357715
O O12 0.000000 0.563190 0.250000
#
# Coordination Sequence:
#
# PCOD8147341 Si02
#       5
#     8   8   8   8   8
#     4  10  22  43  68  94 138 176 223 277 348 397
#     4  12  26  43  73 103 140 181 237 281 341 411
#     4  11  24  44  71  96 138 180 222 278 347 405
#     4  11  24  42  70  97 132 176 224 275 343 405
#     4  10  23  44  67  96 138 179 222 284 340 404
#
# _framework density 21.763210999999998
#
# number of rings (size 3 to 8) (size 9 to 14) (size 15 to 20)
#    0.000    1.200    2.000    3.000    5.600    4.800 
#    0.000    0.000    0.000    0.000    0.000    0.000 
#    0.000    0.000    0.000    0.000    0.000    0.000 
#
# Total GULP energy -247925.832835 kJ/mol
# GULP energy per Si atom -12396.291642 kJ/mol
# Density = 2.171368 g / cm^3
# Si number density = 21.763211 Si / 1000 Ang^3
#
#
#
# Elastic Constant Matrix: (Units=GPa)
#
#
# Indices 1 2 3 4 5 6 
#
# 1 113.9183 33.3105 42.3724 0.0000 -6.1866 0.0000
# 2 33.3105 107.0920 21.2271 0.0000 -3.1368 0.0000
# 3 42.3724 21.2271 123.2179 0.0000 -10.8795 0.0000
# 4 0.0000 0.0000 0.0000 30.1461 0.0000 -10.7009
# 5 -6.1866 -3.1368 -10.8795 0.0000 32.9725 0.0000
# 6 0.0000 0.0000 0.0000 -10.7009 0.0000 37.3876
#
#
#
# Elastic Compliance Matrix: (Units=1/GPa)
#
#
# Indices 1 2 3 4 5 6 
#
# 1 0.010792 -0.002705 -0.003182 0.000000 0.000718 0.000000
# 2 -0.002705 0.010351 -0.000835 0.000000 0.000202 0.000000
# 3 -0.003182 -0.000835 0.009573 0.000000 0.002482 0.000000
# 4 0.000000 0.000000 0.000000 0.036923 0.000000 0.010568
# 5 0.000718 0.000202 0.002482 0.000000 0.031301 0.000000
# 6 0.000000 0.000000 0.000000 0.010568 0.000000 0.029772
#
#
# Mechanical properties :
#
#
# Convention : Reuss Voigt Hill
#
# Bulk Modulus (GPa) = 57.89903 59.78312 58.84107
# Shear Modulus (GPa) = 33.80400 36.58912 35.19656
#
# Velocity S-wave (km/s) = 3.94542 4.10474 4.02587
# Velocity P-wave (km/s) = 6.88600 7.07069 6.97895
#
# Compressibility (1/GPa) = 0.01727145
#
# Stress axis : x y z
#
# Youngs Moduli (GPa) = 92.66479 96.61289 104.46207
#
# Poissons Ratio (x) = 0.26134 0.33236
# Poissons Ratio (y) = 0.25066 0.08724
# Poissons Ratio (z) = 0.29483 0.08068
#
# Static dielectric constant tensor:
#      x y z
#    x 3.711970 0.000000 0.017610 
#    y 0.000000 4.359770 0.000000 
#    z 0.017610 0.000000 4.115930 
# 
# 
# High freq. dielectric constant tensor:
#      x y z
#    x 1.836350 0.000000 0.002360 
#    y 0.000000 1.880230 0.000000 
#    z 0.002360 0.000000 1.859610 
# 
# From -- ./inp_files/94516.got.cif
#   From: 2010.06.25/outbox.cif.g09.slc.cpg/sg15_48_cif.got.tgz:94516.got - 2010.06.28 07:06:18.
