data_PCOD8147858
_publ_section_title
;
Structure prediction by ZEFSAII (Michael W. Deem and Ramdas Pophale) SiO2 
 PCOD8147858
Probable space group: C 2/C
;
_chemical_formula_sum "Si O2"
_cell_formula_units_Z 40
_cell_length_a 20.347441
_cell_length_b 14.800660
_cell_length_c 8.106025
_cell_angle_alpha 90.000000
_cell_angle_beta 135.700521
_cell_angle_gamma 90.000000
_cell_volume 1704.937675
_symmetry_space_group_name_H-M "C 2/C"
_symmetry_group_IT_number 15
_symmetry_cell_setting 'monoclinic'
loop_
_space_group_symop_operation_xyz
x,y,z
-x,y,1/2-z
-x,-y,-z
x,-y,1/2+z
1/2+x,1/2+y,z
1/2-x,1/2+y,1/2-z
1/2-x,1/2-y,-z
1/2+x,1/2-y,1/2+z
loop_
_atom_site_type_symbol
_atom_site_label
_atom_site_fract_x
_atom_site_fract_y
_atom_site_fract_z
Si Si1 0.806791 0.259166 0.434153
Si Si2 0.769127 0.569431 0.667075
Si Si3 0.500000 0.208109 0.750000
Si Si4 0.940193 0.119079 0.295375
Si Si5 0.500000 0.662431 0.750000
Si Si6 0.319733 0.113876 0.418624
O O1 0.750000 0.250000 0.500000
O O2 0.797955 0.363432 0.365350
O O3 0.756047 0.194799 0.210571
O O4 0.913865 0.227738 0.643742
O O5 0.664346 0.582847 0.410176
O O6 0.840032 0.584215 0.642581
O O7 0.777013 0.466735 0.736290
O O8 0.552614 0.271122 0.708232
O O9 0.419341 0.146493 0.520729
O O10 0.000000 0.075827 0.250000
O O11 0.979038 0.098255 0.551131
#
# Coordination Sequence:
#
# PCOD8147858 Si02
#       6
#     8   8   4   8   4   8
#     4  12  24  45  72 105 144 193 244 304 373 450
#     4  12  25  46  71 104 153 187 242 307 371 428
#     4  10  22  45  75 102 142 192 246 297 369 440
#     4  10  22  45  72 103 140 195 242 300 361 444
#     4  12  22  39  75 102 134 196 244 289 371 440
#     4  12  25  44  72 104 145 192 240 308 361 438
#
# _framework density 23.461266999999999
#
# number of rings (size 3 to 8) (size 9 to 14) (size 15 to 20)
#    0.600    0.000    4.000    5.400    0.000    1.600 
#    1.800    2.000    0.000    0.000    0.000    0.000 
#    0.000    0.000    0.000    0.000    0.000    0.000 
#
# Total GULP energy -247974.953465 kJ/mol
# GULP energy per Si atom -12398.747673 kJ/mol
# Density = 2.340787 g / cm^3
# Si number density = 23.461267 Si / 1000 Ang^3
#
#
#
# Elastic Constant Matrix: (Units=GPa)
#
#
# Indices 1 2 3 4 5 6 
#
# 1 103.5201 23.9080 43.8902 0.0000 -0.7821 0.0000
# 2 23.9080 90.5987 37.9339 0.0000 9.7650 0.0000
# 3 43.8902 37.9339 129.0164 0.0000 11.9261 0.0000
# 4 0.0000 0.0000 0.0000 40.4908 0.0000 -0.4122
# 5 -0.7821 9.7650 11.9261 0.0000 58.5515 0.0000
# 6 0.0000 0.0000 0.0000 -0.4122 0.0000 24.5821
#
#
#
# Elastic Compliance Matrix: (Units=1/GPa)
#
#
# Indices 1 2 3 4 5 6 
#
# 1 0.011562 -0.001693 -0.003543 0.000000 0.001158 0.000000
# 2 -0.001693 0.012944 -0.003087 0.000000 -0.001553 0.000000
# 3 -0.003543 -0.003087 0.010009 0.000000 -0.001571 0.000000
# 4 0.000000 0.000000 0.000000 0.024701 0.000000 0.000414
# 5 0.001158 -0.001553 -0.001571 0.000000 0.017673 0.000000
# 6 0.000000 0.000000 0.000000 0.000414 0.000000 0.040687
#
#
# Mechanical properties :
#
#
# Convention : Reuss Voigt Hill
#
# Bulk Modulus (GPa) = 55.95604 59.39994 57.67799
# Shear Modulus (GPa) = 35.66935 39.21840 37.44388
#
# Velocity S-wave (km/s) = 3.90340 4.09298 3.99931
# Velocity P-wave (km/s) = 6.64963 6.90724 6.77966
#
# Compressibility (1/GPa) = 0.01787117
#
# Stress axis : x y z
#
# Youngs Moduli (GPa) = 86.49340 77.25576 99.91153
#
# Poissons Ratio (x) = 0.13076 0.35394
# Poissons Ratio (y) = 0.14639 0.30838
# Poissons Ratio (z) = 0.30641 0.23845
#
# Static dielectric constant tensor:
#      x y z
#    x 4.269650 0.000000 -0.096950 
#    y 0.000000 4.193630 0.000000 
#    z -0.096950 0.000000 4.233250 
# 
# 
# High freq. dielectric constant tensor:
#      x y z
#    x 1.936750 0.000000 -0.002540 
#    y 0.000000 1.920260 0.000000 
#    z -0.002540 0.000000 1.928470 
# 
# From -- ./inp_files/61770.got.cif
#   From: 2010.06.25/outbox.cif.g09.slc.cpg/sg15_31_cif.got.tgz:61770.got - 2010.06.28 07:06:18.
