data_PCOD8147785
_publ_section_title
;
Structure prediction by ZEFSAII (Michael W. Deem and Ramdas Pophale) SiO2 
 PCOD8147785
Probable space group: C 2/C
;
_chemical_formula_sum "Si O2"
_cell_formula_units_Z 52
_cell_length_a 10.914035
_cell_length_b 14.220742
_cell_length_c 17.521442
_cell_angle_alpha 90.000000
_cell_angle_beta 67.006142
_cell_angle_gamma 90.000000
_cell_volume 2503.359872
_symmetry_space_group_name_H-M "C 2/C"
_symmetry_group_IT_number 15
_symmetry_cell_setting 'monoclinic'
loop_
_space_group_symop_operation_xyz
x,y,z
-x,y,1/2-z
-x,-y,-z
x,-y,1/2+z
1/2+x,1/2+y,z
1/2-x,1/2+y,1/2-z
1/2-x,1/2-y,-z
1/2+x,1/2-y,1/2+z
loop_
_atom_site_type_symbol
_atom_site_label
_atom_site_fract_x
_atom_site_fract_y
_atom_site_fract_z
Si Si1 0.113967 0.696549 0.527703
Si Si2 0.272038 0.544632 0.211950
Si Si3 0.138489 0.814342 0.932625
Si Si4 0.357076 0.193760 0.148619
Si Si5 0.859412 0.357931 0.318087
Si Si6 0.000000 0.958404 0.250000
Si Si7 0.609267 0.310782 0.112364
O O1 0.250000 0.750000 0.500000
O O2 0.105575 0.651811 0.444653
O O3 0.117396 0.621965 0.596712
O O4 0.993883 0.769609 0.571198
O O5 0.313832 0.594828 0.124070
O O6 0.180169 0.608577 0.287613
O O7 0.192590 0.450892 0.210386
O O8 0.407330 0.524477 0.222837
O O9 0.251478 0.735587 0.900699
O O10 0.109838 0.848211 0.025574
O O11 0.242496 0.272492 0.171807
O O12 0.488093 0.238755 0.154064
O O13 0.000000 0.326477 0.250000
O O14 0.906301 0.897833 0.327711
#
# Coordination Sequence:
#
# PCOD8147785 Si02
#       7
#     8   8   8   8   8   4   8
#     4   9  21  41  69  89 123 168 211 262 315 370
#     4  12  27  39  66  98 127 170 213 261 324 377
#     4  10  23  42  70  93 122 177 214 258 323 380
#     4  10  22  45  65  92 128 172 213 260 319 381
#     4  11  24  42  64  96 129 168 210 267 316 379
#     4  12  26  40  62  98 130 166 212 272 312 378
#     4  10  22  46  66  89 132 172 214 264 316 377
#
# _framework density 20.772084
#
# number of rings (size 3 to 8) (size 9 to 14) (size 15 to 20)
#    0.000    1.538    1.538    1.846    9.692    1.846 
#    0.000    0.769    0.000    0.000    0.000    0.000 
#    0.000    0.000    0.000    0.000    0.000    0.000 
#
# Total GULP energy -322416.304452 kJ/mol
# GULP energy per Si atom -12400.627094 kJ/mol
# Density = 2.072481 g / cm^3
# Si number density = 20.772084 Si / 1000 Ang^3
#
#
#
# Elastic Constant Matrix: (Units=GPa)
#
#
# Indices 1 2 3 4 5 6 
#
# 1 87.7716 3.0773 21.6190 0.0000 -4.9458 0.0000
# 2 3.0773 59.9876 47.8417 0.0000 11.8374 0.0000
# 3 21.6190 47.8417 122.9460 0.0000 1.6976 0.0000
# 4 0.0000 0.0000 0.0000 22.3805 0.0000 8.1398
# 5 -4.9458 11.8374 1.6976 0.0000 35.0602 0.0000
# 6 0.0000 0.0000 0.0000 8.1398 0.0000 7.2766
#
#
#
# Elastic Compliance Matrix: (Units=1/GPa)
#
#
# Indices 1 2 3 4 5 6 
#
# 1 0.012073 0.001170 -0.002598 0.000000 0.001434 0.000000
# 2 0.001170 0.026564 -0.010428 0.000000 -0.008299 0.000000
# 3 -0.002598 -0.010428 0.012613 0.000000 0.002544 0.000000
# 4 0.000000 0.000000 0.000000 0.075329 0.000000 -0.084265
# 5 0.001434 -0.008299 0.002544 0.000000 0.031404 0.000000
# 6 0.000000 0.000000 0.000000 -0.084265 0.000000 0.231688
#
#
# Mechanical properties :
#
#
# Convention : Reuss Voigt Hill
#
# Bulk Modulus (GPa) = 36.31367 46.19793 41.25580
# Shear Modulus (GPa) = 11.83255 26.15459 18.99357
#
# Velocity S-wave (km/s) = 2.38930 3.55226 3.02715
# Velocity P-wave (km/s) = 5.01314 6.25407 5.66767
#
# Compressibility (1/GPa) = 0.02753784
#
# Stress axis : x y z
#
# Youngs Moduli (GPa) = 82.83037 37.64438 79.28229
#
# Poissons Ratio (x) = -0.04403 0.20596
# Poissons Ratio (y) = -0.09687 0.82676
# Poissons Ratio (z) = 0.21518 0.39256
#
# Static dielectric constant tensor:
#      x y z
#    x 4.065180 0.000000 0.215540 
#    y 0.000000 3.414750 0.000000 
#    z 0.215540 0.000000 4.546080 
# 
# 
# High freq. dielectric constant tensor:
#      x y z
#    x 1.835330 0.000000 0.000970 
#    y 0.000000 1.781050 0.000000 
#    z 0.000970 0.000000 1.839360 
# 
# From -- ./inp_files/197702.got.cif
#   From: 2010.06.25/outbox.cif.g09.slc.cpg/sg15_99_cif.got.tgz:197702.got - 2010.06.28 07:06:18.
