data_PCOD8147301
_publ_section_title
;
Structure prediction by ZEFSAII (Michael W. Deem and Ramdas Pophale) SiO2 
 PCOD8147301
Probable space group: C 2/C
;
_chemical_formula_sum "Si O2"
_cell_formula_units_Z 64
_cell_length_a 16.509875
_cell_length_b 27.289886
_cell_length_c 9.441790
_cell_angle_alpha 90.000000
_cell_angle_beta 45.367396
_cell_angle_gamma 90.000000
_cell_volume 3027.275024
_symmetry_space_group_name_H-M "C 2/C"
_symmetry_group_IT_number 15
_symmetry_cell_setting 'monoclinic'
loop_
_space_group_symop_operation_xyz
x,y,z
-x,y,1/2-z
-x,-y,-z
x,-y,1/2+z
1/2+x,1/2+y,z
1/2-x,1/2+y,1/2-z
1/2-x,1/2-y,-z
1/2+x,1/2-y,1/2+z
loop_
_atom_site_type_symbol
_atom_site_label
_atom_site_fract_x
_atom_site_fract_y
_atom_site_fract_z
Si Si1 0.124522 0.955669 0.546975
Si Si2 0.917445 0.153831 0.469979
Si Si3 0.794094 0.030503 0.264476
Si Si4 0.434959 0.385809 0.470571
Si Si5 0.281296 0.208671 0.664088
Si Si6 0.242417 0.685818 0.128234
Si Si7 0.999212 0.355760 0.915767
Si Si8 0.962420 0.547792 0.960291
O O1 0.132718 0.897589 0.521742
O O2 0.213063 0.974589 0.557395
O O3 0.000000 0.973322 0.750000
O O4 0.170327 0.978479 0.345064
O O5 0.814641 0.191555 0.608988
O O6 0.983168 0.148299 0.537375
O O7 0.000000 0.176237 0.250000
O O8 0.673984 0.050706 0.357024
O O9 0.900178 0.066361 0.100880
O O10 0.500000 0.402357 0.250000
O O11 0.318146 0.359507 0.578628
O O12 0.287858 0.267520 0.661359
O O13 0.241306 0.193493 0.557725
O O14 0.398927 0.183317 0.564906
O O15 0.111879 0.673501 0.323357
O O16 0.983373 0.404058 0.031962
O O17 0.000000 0.372201 0.750000
O O18 0.000000 0.544933 0.750000
O O19 0.000000 0.500000 0.000000
#
# Coordination Sequence:
#
# PCOD8147301 Si02
#       8
#     8   8   8   8   8   8   8   8
#     4  11  24  41  63  95 131 169 211 265 324 392
#     4  11  24  42  64  96 139 169 212 267 333 391
#     4  12  25  42  65  93 132 172 217 269 322 388
#     4  12  23  40  68  99 130 171 217 268 325 392
#     4  10  23  40  72  96 133 172 215 279 325 390
#     4  10  22  43  67 102 127 169 223 273 326 388
#     4  10  23  43  69 100 132 171 228 272 329 393
#     4  12  27  46  66  94 132 179 225 273 327 393
#
# _framework density 21.141124999999999
#
# number of rings (size 3 to 8) (size 9 to 14) (size 15 to 20)
#    0.000    1.000    5.000    1.875    7.000    0.500 
#    0.000    1.250    0.000    0.000    0.000    0.000 
#    0.000    0.000    0.000    0.000    0.000    0.000 
#
# Total GULP energy -396887.954523 kJ/mol
# GULP energy per Si atom -12402.748579 kJ/mol
# Density = 2.109301 g / cm^3
# Si number density = 21.141125 Si / 1000 Ang^3
#
#
#
# Elastic Constant Matrix: (Units=GPa)
#
#
# Indices 1 2 3 4 5 6 
#
# 1 91.1553 30.2304 27.1911 0.0000 -5.4148 0.0000
# 2 30.2304 101.1294 44.2028 0.0000 -2.9138 0.0000
# 3 27.1911 44.2028 111.4072 0.0000 -6.3013 0.0000
# 4 0.0000 0.0000 0.0000 34.9451 0.0000 0.0495
# 5 -5.4148 -2.9138 -6.3013 0.0000 35.7481 0.0000
# 6 0.0000 0.0000 0.0000 0.0495 0.0000 33.2443
#
#
#
# Elastic Compliance Matrix: (Units=1/GPa)
#
#
# Indices 1 2 3 4 5 6 
#
# 1 0.012564 -0.002915 -0.001834 0.000000 0.001342 0.000000
# 2 -0.002915 0.012640 -0.004313 0.000000 -0.000172 0.000000
# 3 -0.001834 -0.004313 0.011211 0.000000 0.001347 0.000000
# 4 0.000000 0.000000 0.000000 0.028616 0.000000 -0.000043
# 5 0.001342 -0.000172 0.001347 0.000000 0.028400 0.000000
# 6 0.000000 0.000000 0.000000 -0.000043 0.000000 0.030080
#
#
# Mechanical properties :
#
#
# Convention : Reuss Voigt Hill
#
# Bulk Modulus (GPa) = 54.67438 56.32671 55.50055
# Shear Modulus (GPa) = 33.84453 34.25868 34.05160
#
# Velocity S-wave (km/s) = 4.00545 4.02988 4.01768
# Velocity P-wave (km/s) = 6.87817 6.95372 6.91605
#
# Compressibility (1/GPa) = 0.01829010
#
# Stress axis : x y z
#
# Youngs Moduli (GPa) = 79.59307 79.11245 89.19628
#
# Poissons Ratio (x) = 0.23065 0.16357
# Poissons Ratio (y) = 0.23205 0.38474
# Poissons Ratio (z) = 0.14596 0.34124
#
# Static dielectric constant tensor:
#      x y z
#    x 3.931310 0.000000 -0.033720 
#    y 0.000000 3.652630 0.000000 
#    z -0.033720 0.000000 3.869060 
# 
# 
# High freq. dielectric constant tensor:
#      x y z
#    x 1.835910 0.000000 -0.006050 
#    y 0.000000 1.821150 0.000000 
#    z -0.006050 0.000000 1.830450 
# 
# From -- ./inp_files/52801.got.cif
#   From: 2010.06.25/outbox.cif.g09.slc.cpg/sg15_27_cif.got.tgz:52801.got - 2010.06.28 07:06:18.
