data_PCOD8147518
_publ_section_title
;
Structure prediction by ZEFSAII (Michael W. Deem and Ramdas Pophale) SiO2 
 PCOD8147518
Probable space group: C 2/C
;
_chemical_formula_sum "Si O2"
_cell_formula_units_Z 48
_cell_length_a 5.097758
_cell_length_b 17.874196
_cell_length_c 21.635049
_cell_angle_alpha 90.000000
_cell_angle_beta 83.363960
_cell_angle_gamma 90.000000
_cell_volume 1958.141935
_symmetry_space_group_name_H-M "C 2/C"
_symmetry_group_IT_number 15
_symmetry_cell_setting 'monoclinic'
loop_
_space_group_symop_operation_xyz
x,y,z
-x,y,1/2-z
-x,-y,-z
x,-y,1/2+z
1/2+x,1/2+y,z
1/2-x,1/2+y,1/2-z
1/2-x,1/2-y,-z
1/2+x,1/2-y,1/2+z
loop_
_atom_site_type_symbol
_atom_site_label
_atom_site_fract_x
_atom_site_fract_y
_atom_site_fract_z
Si Si1 0.291136 0.431409 0.580543
Si Si2 0.447066 0.558359 0.871860
Si Si3 0.645368 0.315013 0.634509
Si Si4 0.952644 0.682303 0.487207
Si Si5 0.643525 0.052073 0.309649
Si Si6 0.568582 0.155244 0.615288
O O1 0.506530 0.499224 0.571732
O O2 0.399678 0.358989 0.613300
O O3 0.200132 0.398561 0.516599
O O4 0.046538 0.464262 0.626781
O O5 0.387146 0.506281 0.813173
O O6 0.719542 0.603705 0.856034
O O7 0.216724 0.618128 0.885896
O O8 0.751163 0.362076 0.690963
O O9 0.549078 0.231797 0.655914
O O10 0.877750 0.305851 0.578487
O O11 0.750000 0.750000 0.500000
O O12 0.144743 0.676368 0.541909
O O13 0.500000 0.035071 0.250000
#
# Coordination Sequence:
#
# PCOD8147518 Si02
#       6
#     8   8   8   8   8   8
#     4  10  22  44  65 100 129 174 238 262 323 424
#     4  11  25  43  64 100 136 174 218 275 334 402
#     4  10  23  40  68 101 131 172 239 269 321 412
#     4  11  22  39  67  99 139 191 221 269 330 398
#     4  10  23  49  74  91 126 177 227 286 344 399
#     4  12  24  41  67  99 145 177 212 275 337 385
#
# _framework density 24.513036
#
# number of rings (size 3 to 8) (size 9 to 14) (size 15 to 20)
#    0.000    1.333    3.333    1.500    4.667    4.000 
#    0.000    1.667    0.000    0.000    0.000    0.000 
#    0.000    0.000    0.000    0.000    0.000    0.000 
#
# Total GULP energy -297374.630637 kJ/mol
# GULP energy per Si atom -12390.609610 kJ/mol
# Density = 2.445724 g / cm^3
# Si number density = 24.513036 Si / 1000 Ang^3
#
#
#
# Elastic Constant Matrix: (Units=GPa)
#
#
# Indices 1 2 3 4 5 6 
#
# 1 110.0534 49.5822 5.6912 0.0000 23.0552 0.0000
# 2 49.5822 181.3249 12.4229 0.0000 23.0337 0.0000
# 3 5.6912 12.4229 43.8513 0.0000 25.9796 0.0000
# 4 0.0000 0.0000 0.0000 15.6088 0.0000 14.2488
# 5 23.0552 23.0337 25.9796 0.0000 35.1025 0.0000
# 6 0.0000 0.0000 0.0000 14.2488 0.0000 49.8803
#
#
#
# Elastic Compliance Matrix: (Units=1/GPa)
#
#
# Indices 1 2 3 4 5 6 
#
# 1 0.011999 -0.002345 0.005101 0.000000 -0.010117 0.000000
# 2 -0.002345 0.006506 0.000139 0.000000 -0.002832 0.000000
# 3 0.005101 0.000139 0.042993 0.000000 -0.035261 0.000000
# 4 0.000000 0.000000 0.000000 0.086667 0.000000 -0.024757
# 5 -0.010117 -0.002832 -0.035261 0.000000 0.063088 0.000000
# 6 0.000000 0.000000 0.000000 -0.024757 0.000000 0.027120
#
#
# Mechanical properties :
#
#
# Convention : Reuss Voigt Hill
#
# Bulk Modulus (GPa) = 14.86157 52.29134 33.57645
# Shear Modulus (GPa) = 19.60679 37.95387 28.78033
#
# Velocity S-wave (km/s) = 2.83123 3.93913 3.43021
# Velocity P-wave (km/s) = 4.09435 6.48594 5.42361
#
# Compressibility (1/GPa) = 0.06728766
#
# Stress axis : x y z
#
# Youngs Moduli (GPa) = 83.34189 153.69291 23.25944
#
# Poissons Ratio (x) = 0.36046 -0.11865
# Poissons Ratio (y) = 0.19546 -0.00323
# Poissons Ratio (z) = -0.42513 -0.02134
#
# Static dielectric constant tensor:
#      x y z
#    x 4.640090 0.000000 0.364400 
#    y 0.000000 4.952650 0.000000 
#    z 0.364400 0.000000 3.881980 
# 
# 
# High freq. dielectric constant tensor:
#      x y z
#    x 1.990260 0.000000 0.030200 
#    y 0.000000 1.999880 0.000000 
#    z 0.030200 0.000000 1.912210 
# 
# From -- ./inp_files/260708.got.cif
#   From: 2010.06.25/outbox.cif.g09.slc.cpg/sg15_131_cif.got.tgz:260708.got - 2010.06.28 07:06:18.
