data_PCOD8147057
_publ_section_title
;
Structure prediction by ZEFSAII (Michael W. Deem and Ramdas Pophale) SiO2 
 PCOD8147057
Probable space group: C 2/C
;
_chemical_formula_sum "Si O2"
_cell_formula_units_Z 44
_cell_length_a 24.859240
_cell_length_b 4.797137
_cell_length_c 15.281357
_cell_angle_alpha 90.000000
_cell_angle_beta 58.865860
_cell_angle_gamma 90.000000
_cell_volume 1559.857520
_symmetry_space_group_name_H-M "C 2/C"
_symmetry_group_IT_number 15
_symmetry_cell_setting 'monoclinic'
loop_
_space_group_symop_operation_xyz
x,y,z
-x,y,1/2-z
-x,-y,-z
x,-y,1/2+z
1/2+x,1/2+y,z
1/2-x,1/2+y,1/2-z
1/2-x,1/2-y,-z
1/2+x,1/2-y,1/2+z
loop_
_atom_site_type_symbol
_atom_site_label
_atom_site_fract_x
_atom_site_fract_y
_atom_site_fract_z
Si Si1 0.685543 0.673607 0.511805
Si Si2 0.263952 0.097823 0.294838
Si Si3 0.592338 0.126100 0.532344
Si Si4 0.000000 0.457406 0.750000
Si Si5 0.614180 0.363417 0.233115
Si Si6 0.069062 0.123160 0.440378
O O1 0.750000 0.750000 0.500000
O O2 0.709882 0.494680 0.407996
O O3 0.652558 0.971126 0.520106
O O4 0.642120 0.499477 0.618726
O O5 0.233117 0.385434 0.287028
O O6 0.333727 0.143175 0.275997
O O7 0.537041 0.152132 0.650695
O O8 0.568656 0.945762 0.467954
O O9 0.606525 0.441525 0.484743
O O10 0.047783 0.275642 0.767395
O O11 0.602125 0.596071 0.317766
O O12 0.000000 0.000000 0.500000
#
# Coordination Sequence:
#
# PCOD8147057 Si02
#       6
#     8   8   8   4   8   8
#     4   9  21  44  68 101 138 178 226 285 349 415
#     4  11  23  45  72  98 132 176 232 282 341 405
#     4  11  24  44  67  97 135 178 229 283 343 412
#     4  10  22  44  62 100 136 176 220 278 346 410
#     4  10  22  42  69  98 137 178 224 283 342 412
#     4  12  24  43  68  96 134 177 233 278 340 406
#
# _framework density 28.207705000000001
#
# number of rings (size 3 to 8) (size 9 to 14) (size 15 to 20)
#    0.000    1.455    1.818    2.727    0.000    0.727 
#    0.000   23.636    0.000    0.000    0.000    0.000 
#    0.000    0.000    0.000    0.000    0.000    0.000 
#
# Total GULP energy -272682.595204 kJ/mol
# GULP energy per Si atom -12394.663418 kJ/mol
# Density = 2.814350 g / cm^3
# Si number density = 28.207705 Si / 1000 Ang^3
#
#
#
# Elastic Constant Matrix: (Units=GPa)
#
#
# Indices 1 2 3 4 5 6 
#
# 1 160.7028 3.5360 16.7376 -0.0134 -9.2876 0.0890
# 2 3.5360 76.3986 9.1559 -0.0080 -2.4453 0.1008
# 3 16.7376 9.1559 213.4619 0.0047 -3.6826 -0.0657
# 4 -0.0134 -0.0080 0.0047 7.4477 -0.0036 -16.4643
# 5 -9.2876 -2.4453 -3.6826 -0.0036 35.8467 -0.0925
# 6 0.0890 0.1008 -0.0657 -16.4643 -0.0925 21.4966
#
#
#
# Elastic Compliance Matrix: (Units=1/GPa)
#
#
# Indices 1 2 3 4 5 6 
#
# 1 0.006367 -0.000188 -0.000464 0.000046 0.001589 0.000015
# 2 -0.000188 0.013188 -0.000537 0.000168 0.000796 0.000069
# 3 -0.000464 -0.000537 0.004750 -0.000059 0.000331 -0.000025
# 4 0.000046 0.000168 -0.000059 -0.193701 -0.000385 -0.148359
# 5 0.001589 0.000796 0.000331 -0.000385 0.028396 -0.000182
# 6 0.000015 0.000069 -0.000025 -0.148359 -0.000182 -0.067111
#
#
# Mechanical properties :
#
#
# Convention : Reuss Voigt Hill
#
# Bulk Modulus (GPa) = 45.60758 56.60246 51.10502
# Shear Modulus (GPa) = -25.19844 41.03380 7.91768
#
# Velocity S-wave (km/s) = -2.99208 3.81819 1.67720
# Velocity P-wave (km/s) = 2.06563 6.28872 4.68054
#
# Compressibility (1/GPa) = 0.02192618
#
# Stress axis : x y z
#
# Youngs Moduli (GPa) = 157.06115 75.82804 210.53587
#
# Poissons Ratio (x) = 0.01428 0.09763
# Poissons Ratio (y) = 0.02957 0.11309
# Poissons Ratio (z) = 0.07284 0.04073
#
# Static dielectric constant tensor:
#      x y z
#    x 5.851410 0.001340 0.388260 
#    y 0.001340 4.655040 -0.008550 
#    z 0.388260 -0.008550 6.111560 
# 
# 
# High freq. dielectric constant tensor:
#      x y z
#    x 2.185830 -0.000010 -0.002990 
#    y -0.000010 2.099810 0.000000 
#    z -0.002990 0.000000 2.172400 
# 
# From -- ./inp_files/175628.got.cif
#   From: 2010.06.25/outbox.cif.g09.slc.cpg/sg15_88_cif.got.tgz:175628.got - 2010.06.28 07:06:18.
