data_PCOD8147131
_publ_section_title
;
Structure prediction by ZEFSAII (Michael W. Deem and Ramdas Pophale) SiO2 
 PCOD8147131
Probable space group: C 2/C
;
_chemical_formula_sum "Si O2"
_cell_formula_units_Z 60
_cell_length_a 17.973059
_cell_length_b 9.172918
_cell_length_c 20.599661
_cell_angle_alpha 90.000000
_cell_angle_beta 125.270805
_cell_angle_gamma 90.000000
_cell_volume 2772.742673
_symmetry_space_group_name_H-M "C 2/C"
_symmetry_group_IT_number 15
_symmetry_cell_setting 'monoclinic'
loop_
_space_group_symop_operation_xyz
x,y,z
-x,y,1/2-z
-x,-y,-z
x,-y,1/2+z
1/2+x,1/2+y,z
1/2-x,1/2+y,1/2-z
1/2-x,1/2-y,-z
1/2+x,1/2-y,1/2+z
loop_
_atom_site_type_symbol
_atom_site_label
_atom_site_fract_x
_atom_site_fract_y
_atom_site_fract_z
Si Si1 0.374004 0.136047 0.138608
Si Si2 0.076224 0.388323 0.691695
Si Si3 0.261364 0.621096 0.955941
Si Si4 0.300125 0.304394 0.333030
Si Si5 0.898787 0.063434 0.603069
Si Si6 0.949654 0.015442 0.407350
Si Si7 0.000000 0.870861 0.750000
Si Si8 0.600475 0.212830 0.689075
O O1 0.365391 0.127114 0.212349
O O2 0.474796 0.153891 0.160518
O O3 0.338876 0.294418 0.094435
O O4 0.323756 0.992129 0.086796
O O5 0.122050 0.303203 0.654863
O O6 0.069922 0.550140 0.660662
O O7 0.276596 0.710328 0.897172
O O8 0.250000 0.750000 0.000000
O O9 0.347241 0.525807 0.020962
O O10 0.344250 0.465468 0.351681
O O11 0.210295 0.283494 0.244989
O O12 0.998462 0.084684 0.620229
O O13 0.920776 0.968659 0.677856
O O14 0.943564 0.187110 0.388819
O O15 0.000000 0.000000 0.500000
O O16 0.057910 0.763847 0.734921
#
# Coordination Sequence:
#
# PCOD8147131 Si02
#       8
#     8   8   8   8   8   8   4   8
#     4  11  24  45  70 104 142 181 243 290 361 432
#     4  11  24  43  72 103 140 183 237 300 351 425
#     4  12  27  46  69 102 144 183 234 296 366 433
#     4  12  24  46  68 105 142 183 240 300 357 441
#     4  11  23  43  71  98 136 187 229 296 354 432
#     4  11  24  45  70  99 144 186 236 293 371 429
#     4  10  22  42  72 102 130 186 244 284 364 434
#     4  11  24  41  70 101 140 186 236 294 361 425
#
# _framework density 21.639223999999999
#
# number of rings (size 3 to 8) (size 9 to 14) (size 15 to 20)
#    0.000    0.800    4.000    3.600    5.600    0.000 
#    4.800    1.333    0.000    0.000    0.000    0.000 
#    0.000    0.000    0.000    0.000    0.000    0.000 
#
# Total GULP energy -371697.947015 kJ/mol
# GULP energy per Si atom -12389.931567 kJ/mol
# Density = 2.158997 g / cm^3
# Si number density = 21.639224 Si / 1000 Ang^3
#
#
#
# Elastic Constant Matrix: (Units=GPa)
#
#
# Indices 1 2 3 4 5 6 
#
# 1 81.4203 30.8820 19.4570 0.0000 -8.1642 0.0000
# 2 30.8820 115.9908 29.2164 0.0000 -17.5407 0.0000
# 3 19.4570 29.2164 91.5525 0.0000 -2.9140 0.0000
# 4 0.0000 0.0000 0.0000 37.5151 0.0000 3.5743
# 5 -8.1642 -17.5407 -2.9140 0.0000 30.2477 0.0000
# 6 0.0000 0.0000 0.0000 3.5743 0.0000 36.0071
#
#
#
# Elastic Compliance Matrix: (Units=1/GPa)
#
#
# Indices 1 2 3 4 5 6 
#
# 1 0.014068 -0.002960 -0.001985 0.000000 0.001890 0.000000
# 2 -0.002960 0.010877 -0.002675 0.000000 0.005251 0.000000
# 3 -0.001985 -0.002675 0.012169 0.000000 -0.000915 0.000000
# 4 0.000000 0.000000 0.000000 0.026910 0.000000 -0.002671
# 5 0.001890 0.005251 -0.000915 0.000000 0.036527 0.000000
# 6 0.000000 0.000000 0.000000 -0.002671 0.000000 0.028037
#
#
# Mechanical properties :
#
#
# Convention : Reuss Voigt Hill
#
# Bulk Modulus (GPa) = 45.71469 49.78604 47.75037
# Shear Modulus (GPa) = 33.08584 34.71452 33.90018
#
# Velocity S-wave (km/s) = 3.91445 4.00964 3.96233
# Velocity P-wave (km/s) = 6.44998 6.67035 6.56109
#
# Compressibility (1/GPa) = 0.02187481
#
# Stress axis : x y z
#
# Youngs Moduli (GPa) = 71.08095 91.93430 82.17514
#
# Poissons Ratio (x) = 0.27211 0.16313
# Poissons Ratio (y) = 0.21039 0.21982
# Poissons Ratio (z) = 0.14111 0.24593
#
# Static dielectric constant tensor:
#      x y z
#    x 4.169970 0.000000 -0.130700 
#    y 0.000000 4.012010 0.000000 
#    z -0.130700 0.000000 4.050750 
# 
# 
# High freq. dielectric constant tensor:
#      x y z
#    x 1.859060 0.000000 0.000450 
#    y 0.000000 1.858840 0.000000 
#    z 0.000450 0.000000 1.839760 
# 
# From -- ./inp_files/247841.got.cif
#   From: 2010.06.25/outbox.cif.g09.slc.cpg/sg15_124_cif.got.tgz:247841.got - 2010.06.28 07:06:18.
