data_PCOD8147231
_publ_section_title
;
Structure prediction by ZEFSAII (Michael W. Deem and Ramdas Pophale) SiO2 
 PCOD8147231
Probable space group: C 2/C
;
_chemical_formula_sum "Si O2"
_cell_formula_units_Z 32
_cell_length_a 17.251309
_cell_length_b 7.188433
_cell_length_c 13.145349
_cell_angle_alpha 90.000000
_cell_angle_beta 67.640446
_cell_angle_gamma 90.000000
_cell_volume 1507.589759
_symmetry_space_group_name_H-M "C 2/C"
_symmetry_group_IT_number 15
_symmetry_cell_setting 'monoclinic'
loop_
_space_group_symop_operation_xyz
x,y,z
-x,y,1/2-z
-x,-y,-z
x,-y,1/2+z
1/2+x,1/2+y,z
1/2-x,1/2+y,1/2-z
1/2-x,1/2-y,-z
1/2+x,1/2-y,1/2+z
loop_
_atom_site_type_symbol
_atom_site_label
_atom_site_fract_x
_atom_site_fract_y
_atom_site_fract_z
Si Si1 0.799375 0.980240 0.266011
Si Si2 0.923241 0.139611 0.549282
Si Si3 0.632733 0.107059 0.264921
Si Si4 0.589560 0.755359 0.169878
O O1 0.843908 0.977845 0.131852
O O2 0.819680 0.782854 0.312079
O O3 0.700129 0.999652 0.302128
O O4 0.834342 0.148245 0.315577
O O5 0.939527 0.307732 0.623333
O O6 0.900399 0.236934 0.455038
O O7 0.000000 0.000000 0.500000
O O8 0.592965 0.972092 0.201074
O O9 0.500000 0.671003 0.250000
#
# Coordination Sequence:
#
# PCOD8147231 Si02
#       4
#     8   8   8   8
#     4  10  22  43  64  97 138 172 223 281 332 403
#     4  10  23  44  68  99 141 174 225 288 337 395
#     4  10  23  41  67  97 136 176 226 277 334 407
#     4  12  22  42  69  96 135 180 227 280 341 395
#
# _framework density 21.225933000000001
#
# number of rings (size 3 to 8) (size 9 to 14) (size 15 to 20)
#    1.500    0.000    5.000    0.000    0.000    8.000 
#    4.500    2.500    0.000    0.000    0.000    0.000 
#    0.000    0.000    0.000    0.000    0.000    0.000 
#
# Total GULP energy -198216.341788 kJ/mol
# GULP energy per Si atom -12388.521362 kJ/mol
# Density = 2.117762 g / cm^3
# Si number density = 21.225933 Si / 1000 Ang^3
#
#
#
# Elastic Constant Matrix: (Units=GPa)
#
#
# Indices 1 2 3 4 5 6 
#
# 1 67.1965 25.2293 20.3938 0.0000 6.8406 0.0000
# 2 25.2293 128.7602 65.8234 0.0000 15.7976 -0.0001
# 3 20.3938 65.8234 115.8084 0.0000 4.3746 0.0000
# 4 0.0000 0.0000 0.0000 37.6135 0.0000 -1.7201
# 5 6.8406 15.7976 4.3746 0.0000 13.8227 0.0000
# 6 0.0000 -0.0001 0.0000 -1.7201 0.0000 38.1587
#
#
#
# Elastic Compliance Matrix: (Units=1/GPa)
#
#
# Indices 1 2 3 4 5 6 
#
# 1 0.016626 -0.001638 -0.001778 0.000000 -0.005793 0.000000
# 2 -0.001638 0.012921 -0.006607 0.000000 -0.011865 0.000000
# 3 -0.001778 -0.006607 0.012535 0.000000 0.004464 0.000000
# 4 0.000000 0.000000 0.000000 0.026641 0.000000 0.001201
# 5 -0.005793 -0.011865 0.004464 0.000000 0.087359 0.000000
# 6 0.000000 0.000000 0.000000 0.001201 0.000000 0.026261
#
#
# Mechanical properties :
#
#
# Convention : Reuss Voigt Hill
#
# Bulk Modulus (GPa) = 45.38203 59.40644 52.39424
# Shear Modulus (GPa) = 23.83971 31.27354 27.55662
#
# Velocity S-wave (km/s) = 3.35496 3.84261 3.60704
# Velocity P-wave (km/s) = 6.03611 6.90912 6.48732
#
# Compressibility (1/GPa) = 0.02203515
#
# Stress axis : x y z
#
# Youngs Moduli (GPa) = 60.14645 77.39492 79.77747
#
# Poissons Ratio (x) = 0.12678 0.14184
# Poissons Ratio (y) = 0.09852 0.52711
# Poissons Ratio (z) = 0.10694 0.51137
#
# Static dielectric constant tensor:
#      x y z
#    x 3.591240 0.000000 -0.063260 
#    y 0.000000 3.971810 0.000000 
#    z -0.063260 0.000000 3.623950 
# 
# 
# High freq. dielectric constant tensor:
#      x y z
#    x 1.822670 0.000000 -0.001780 
#    y 0.000000 1.842710 0.000000 
#    z -0.001780 0.000000 1.804710 
# 
# From -- ./inp_files/53410.got.cif
#   From: 2010.06.25/outbox.cif.g09.slc.cpg/sg15_27_cif.got.tgz:53410.got - 2010.06.28 07:06:18.
