data_PCOD8147740
_publ_section_title
;
Structure prediction by ZEFSAII (Michael W. Deem and Ramdas Pophale) SiO2 
 PCOD8147740
Probable space group: C 2/C
;
_chemical_formula_sum "Si O2"
_cell_formula_units_Z 44
_cell_length_a 17.750928
_cell_length_b 5.251222
_cell_length_c 22.791656
_cell_angle_alpha 90.000000
_cell_angle_beta 122.025473
_cell_angle_gamma 90.000000
_cell_volume 1801.179915
_symmetry_space_group_name_H-M "C 2/C"
_symmetry_group_IT_number 15
_symmetry_cell_setting 'monoclinic'
loop_
_space_group_symop_operation_xyz
x,y,z
-x,y,1/2-z
-x,-y,-z
x,-y,1/2+z
1/2+x,1/2+y,z
1/2-x,1/2+y,1/2-z
1/2-x,1/2-y,-z
1/2+x,1/2-y,1/2+z
loop_
_atom_site_type_symbol
_atom_site_label
_atom_site_fract_x
_atom_site_fract_y
_atom_site_fract_z
Si Si1 0.962770 0.998744 0.611137
Si Si2 0.000000 0.169775 0.250000
Si Si3 0.151971 0.511918 0.445895
Si Si4 0.744058 0.829206 0.094247
Si Si5 0.683826 0.724619 0.293792
Si Si6 0.151574 0.074393 0.148798
O O1 0.991547 0.017830 0.690628
O O2 0.910179 0.732881 0.582604
O O3 0.050841 0.021220 0.607459
O O4 0.904484 0.232827 0.566054
O O5 0.088310 0.346594 0.274978
O O6 0.209773 0.566455 0.410882
O O7 0.218611 0.487107 0.529091
O O8 0.657219 0.781277 0.098794
O O9 0.814392 0.967885 0.166169
O O10 0.680834 0.684162 0.223045
O O11 0.773933 0.875944 0.342533
#
# Coordination Sequence:
#
# PCOD8147740 Si02
#       6
#     8   4   8   8   8   8
#     4  11  26  46  69 108 137 188 235 292 355 420
#     4  10  22  44  72  96 144 178 242 292 344 430
#     4  11  27  47  71 102 144 191 238 283 354 428
#     4  11  25  44  71  99 145 188 235 293 349 429
#     4  11  22  44  65 107 134 187 235 298 358 418
#     4  11  25  41  72 101 146 179 236 299 359 415
#
# _framework density 24.428431
#
# number of rings (size 3 to 8) (size 9 to 14) (size 15 to 20)
#    0.000    1.091    3.636    1.091    5.091    3.636 
#    0.000    0.000    0.000    0.000    0.000    0.000 
#    0.000    0.000    0.000    0.000    0.000    0.000 
#
# Total GULP energy -272570.955161 kJ/mol
# GULP energy per Si atom -12389.588871 kJ/mol
# Density = 2.437283 g / cm^3
# Si number density = 24.428431 Si / 1000 Ang^3
#
#
#
# Elastic Constant Matrix: (Units=GPa)
#
#
# Indices 1 2 3 4 5 6 
#
# 1 218.2557 40.9459 44.6249 0.0001 1.6200 0.0001
# 2 40.9459 75.5388 8.4599 -0.0008 2.7021 0.0003
# 3 44.6249 8.4599 77.5290 -0.0005 -20.9297 0.0004
# 4 0.0001 -0.0008 -0.0005 21.7426 0.0000 4.3881
# 5 1.6200 2.7021 -20.9297 0.0000 39.2539 -0.0001
# 6 0.0001 0.0003 0.0004 4.3881 -0.0001 30.0524
#
#
#
# Elastic Compliance Matrix: (Units=1/GPa)
#
#
# Indices 1 2 3 4 5 6 
#
# 1 0.005837 -0.002690 -0.003599 0.000000 -0.001975 0.000000
# 2 -0.002690 0.014776 -0.000360 0.000001 -0.001098 0.000000
# 3 -0.003599 -0.000360 0.017588 0.000000 0.009551 0.000000
# 4 0.000000 0.000001 0.000000 0.047389 0.000000 -0.006920
# 5 -0.001975 -0.001098 0.009551 0.000000 0.030725 0.000000
# 6 0.000000 0.000000 0.000000 -0.006920 0.000000 0.034286
#
#
# Mechanical properties :
#
#
# Convention : Reuss Voigt Hill
#
# Bulk Modulus (GPa) = 40.15875 62.15388 51.15632
# Shear Modulus (GPa) = 29.03586 36.69595 32.86590
#
# Velocity S-wave (km/s) = 3.45136 3.88000 3.67194
# Velocity P-wave (km/s) = 5.68837 6.75063 6.24214
#
# Compressibility (1/GPa) = 0.02490117
#
# Stress axis : x y z
#
# Youngs Moduli (GPa) = 171.31882 67.67676 56.85749
#
# Poissons Ratio (x) = 0.18207 0.20465
# Poissons Ratio (y) = 0.46089 0.02049
# Poissons Ratio (z) = 0.61663 0.02439
#
# Static dielectric constant tensor:
#      x y z
#    x 4.946420 0.000000 -0.019150 
#    y 0.000000 3.988340 0.000000 
#    z -0.019150 0.000000 4.493720 
# 
# 
# High freq. dielectric constant tensor:
#      x y z
#    x 2.002500 0.000000 -0.007620 
#    y 0.000000 1.932420 0.000000 
#    z -0.007620 0.000000 1.982480 
# 
# From -- ./inp_files/246410.got.cif
#   From: 2010.06.25/outbox.cif.g09.slc.cpg/sg15_124_cif.got.tgz:246410.got - 2010.06.28 07:06:18.
