data_PCOD8147604
_publ_section_title
;
Structure prediction by ZEFSAII (Michael W. Deem and Ramdas Pophale) SiO2 
 PCOD8147604
Probable space group: C 2/C
;
_chemical_formula_sum "Si O2"
_cell_formula_units_Z 52
_cell_length_a 10.985710
_cell_length_b 9.761262
_cell_length_c 24.670715
_cell_angle_alpha 90.000000
_cell_angle_beta 118.080319
_cell_angle_gamma 90.000000
_cell_volume 2334.137881
_symmetry_space_group_name_H-M "C 2/C"
_symmetry_group_IT_number 15
_symmetry_cell_setting 'monoclinic'
loop_
_space_group_symop_operation_xyz
x,y,z
-x,y,1/2-z
-x,-y,-z
x,-y,1/2+z
1/2+x,1/2+y,z
1/2-x,1/2+y,1/2-z
1/2-x,1/2-y,-z
1/2+x,1/2-y,1/2+z
loop_
_atom_site_type_symbol
_atom_site_label
_atom_site_fract_x
_atom_site_fract_y
_atom_site_fract_z
Si Si1 0.576726 0.903660 0.975452
Si Si2 0.000000 0.409716 0.250000
Si Si3 0.155970 0.043760 0.779691
Si Si4 0.756668 0.764639 0.728903
Si Si5 0.090126 0.157905 0.600231
Si Si6 0.820342 0.140879 0.603146
Si Si7 0.323401 0.956442 0.618975
O O1 0.491880 0.760810 0.956684
O O2 0.594749 0.977221 0.920777
O O3 0.728369 0.879399 0.030976
O O4 0.500000 0.000000 0.000000
O O5 0.902855 0.310884 0.265108
O O6 0.917187 0.501143 0.189450
O O7 0.158641 0.193661 0.752691
O O8 0.220048 0.047458 0.853793
O O9 0.000000 0.993873 0.750000
O O10 0.235507 0.929017 0.760010
O O11 0.701549 0.745851 0.656572
O O12 0.976686 0.099708 0.618822
O O13 0.175552 0.037510 0.587433
O O14 0.799293 0.295392 0.619390
#
# Coordination Sequence:
#
# PCOD8147604 Si02
#       7
#     8   4   8   8   8   8   8
#     4  11  25  44  65  98 137 186 237 289 345 419
#     4  10  24  42  70 102 140 178 232 286 358 418
#     4  12  26  44  68 103 140 186 232 291 356 417
#     4  11  25  43  68 100 141 180 228 291 347 420
#     4  10  22  44  67  97 133 177 231 288 348 410
#     4  11  25  41  69  98 133 182 239 285 351 421
#     4  10  24  43  69 101 136 184 230 295 353 415
#
# _framework density 22.278033000000001
#
# number of rings (size 3 to 8) (size 9 to 14) (size 15 to 20)
#    0.000    1.231    2.308    2.769   11.846    3.077 
#    0.000    0.000    0.000    0.000    0.000    0.000 
#    0.000    0.000    0.000    0.000    0.000    0.000 
#
# Total GULP energy -322274.590830 kJ/mol
# GULP energy per Si atom -12395.176570 kJ/mol
# Density = 2.222733 g / cm^3
# Si number density = 22.278033 Si / 1000 Ang^3
#
#
#
# Elastic Constant Matrix: (Units=GPa)
#
#
# Indices 1 2 3 4 5 6 
#
# 1 96.6556 69.2537 32.9442 0.0000 0.7143 0.0000
# 2 69.2537 113.2713 39.6762 0.0000 -14.9211 0.0000
# 3 32.9442 39.6762 110.8908 0.0000 -5.9935 0.0000
# 4 0.0000 0.0000 0.0000 28.5700 0.0000 -6.8562
# 5 0.7143 -14.9211 -5.9935 0.0000 37.7989 0.0000
# 6 0.0000 0.0000 0.0000 -6.8562 0.0000 41.6763
#
#
#
# Elastic Compliance Matrix: (Units=1/GPa)
#
#
# Indices 1 2 3 4 5 6 
#
# 1 0.019686 -0.012120 -0.001806 0.000000 -0.005443 0.000000
# 2 -0.012120 0.018020 -0.002471 0.000000 0.006951 0.000000
# 3 -0.001806 -0.002471 0.010477 0.000000 0.000720 0.000000
# 4 0.000000 0.000000 0.000000 0.036440 0.000000 0.005995
# 5 -0.005443 0.006951 0.000720 0.000000 0.029417 0.000000
# 6 0.000000 0.000000 0.000000 0.005995 0.000000 0.024981
#
#
# Mechanical properties :
#
#
# Convention : Reuss Voigt Hill
#
# Bulk Modulus (GPa) = 64.98306 67.17399 66.07853
# Shear Modulus (GPa) = 28.25736 33.53862 30.89799
#
# Velocity S-wave (km/s) = 3.56532 3.88423 3.72819
# Velocity P-wave (km/s) = 6.79567 7.09467 6.94678
#
# Compressibility (1/GPa) = 0.01538862
#
# Stress axis : x y z
#
# Youngs Moduli (GPa) = 50.79746 55.49449 95.44314
#
# Poissons Ratio (x) = 0.67261 0.17237
# Poissons Ratio (y) = 0.61568 0.23583
# Poissons Ratio (z) = 0.09174 0.13712
#
# Static dielectric constant tensor:
#      x y z
#    x 4.036300 0.000000 -0.510030 
#    y 0.000000 4.048900 0.000000 
#    z -0.510030 0.000000 -4.852790 
# 
# 
# High freq. dielectric constant tensor:
#      x y z
#    x 1.881980 0.000000 0.006410 
#    y 0.000000 1.870470 0.000000 
#    z 0.006410 0.000000 1.882710 
# 
# From -- ./inp_files/291695.got.cif
#   From: 2010.06.25/outbox.cif.g09.slc.cpg/sg15_146_cif.got.tgz:291695.got - 2010.06.28 07:06:18.
