data_PCOD8147483
_publ_section_title
;
Structure prediction by ZEFSAII (Michael W. Deem and Ramdas Pophale) SiO2 
 PCOD8147483
Probable space group: C 2/C
;
_chemical_formula_sum "Si O2"
_cell_formula_units_Z 60
_cell_length_a 12.694693
_cell_length_b 24.259260
_cell_length_c 9.548892
_cell_angle_alpha 90.000000
_cell_angle_beta 99.279069
_cell_angle_gamma 90.000000
_cell_volume 2902.233462
_symmetry_space_group_name_H-M "C 2/C"
_symmetry_group_IT_number 15
_symmetry_cell_setting 'monoclinic'
loop_
_space_group_symop_operation_xyz
x,y,z
-x,y,1/2-z
-x,-y,-z
x,-y,1/2+z
1/2+x,1/2+y,z
1/2-x,1/2+y,1/2-z
1/2-x,1/2-y,-z
1/2+x,1/2-y,1/2+z
loop_
_atom_site_type_symbol
_atom_site_label
_atom_site_fract_x
_atom_site_fract_y
_atom_site_fract_z
Si Si1 0.290003 0.670253 0.793871
Si Si2 0.500000 0.606349 0.750000
Si Si3 0.980623 0.444402 0.913206
Si Si4 0.670786 0.131555 0.510965
Si Si5 0.708675 0.872211 0.574232
Si Si6 0.376198 0.212846 0.243710
Si Si7 0.621364 0.557604 0.274778
Si Si8 0.647296 0.458577 0.474852
O O1 0.403083 0.642207 0.787070
O O2 0.195044 0.654429 0.669270
O O3 0.306619 0.735007 0.775613
O O4 0.248047 0.651068 0.934991
O O5 0.458785 0.568996 0.613089
O O6 0.861410 0.428114 0.936151
O O7 0.000000 0.451917 0.750000
O O8 0.000000 0.500000 0.000000
O O9 0.055161 0.395472 0.984306
O O10 0.675218 0.182488 0.402468
O O11 0.754856 0.083325 0.500674
O O12 0.631824 0.827550 0.627133
O O13 0.811994 0.885909 0.692439
O O14 0.500000 0.228854 0.250000
O O15 0.500000 0.576786 0.250000
O O16 0.666202 0.516041 0.401494
O O17 0.632619 0.525045 0.132111
#
# Coordination Sequence:
#
# PCOD8147483 Si02
#       8
#     8   4   8   8   8   8   8   8
#     4  11  26  41  74  98 128 181 234 284 345 411
#     4  10  22  44  62  98 134 172 224 284 344 400
#     4  12  25  45  71 103 145 188 228 276 350 417
#     4  11  23  44  68  96 135 177 223 289 336 411
#     4  12  25  44  68 101 141 173 230 291 341 406
#     4  12  22  50  72  93 135 182 229 290 354 404
#     4  12  24  39  64  95 135 177 220 274 338 405
#     4  11  23  39  63  93 133 173 224 265 339 409
#
# _framework density 20.673734
#
# number of rings (size 3 to 8) (size 9 to 14) (size 15 to 20)
#    0.000    0.533    5.333    2.800    5.600    0.000 
#    0.000    0.000    0.000    0.000    0.000    0.000 
#    0.000    0.000    0.000    0.000    0.000    0.000 
#
# Total GULP energy -371861.932546 kJ/mol
# GULP energy per Si atom -12395.397752 kJ/mol
# Density = 2.062668 g / cm^3
# Si number density = 20.673734 Si / 1000 Ang^3
#
#
#
# Elastic Constant Matrix: (Units=GPa)
#
#
# Indices 1 2 3 4 5 6 
#
# 1 105.4317 44.5460 61.0599 0.0000 6.2601 0.0000
# 2 44.5460 94.0732 34.9589 0.0000 -5.6468 0.0000
# 3 61.0599 34.9589 144.2344 0.0000 -11.6419 0.0000
# 4 0.0000 0.0000 0.0000 25.5350 0.0000 -2.7826
# 5 6.2601 -5.6468 -11.6419 0.0000 28.7683 0.0000
# 6 0.0000 0.0000 0.0000 -2.7826 0.0000 32.6795
#
#
#
# Elastic Compliance Matrix: (Units=1/GPa)
#
#
# Indices 1 2 3 4 5 6 
#
# 1 0.015648 -0.005664 -0.005806 0.000000 -0.006866 0.000000
# 2 -0.005664 0.013772 -0.000643 0.000000 0.003675 0.000000
# 3 -0.005806 -0.000643 0.009964 0.000000 0.005169 0.000000
# 4 0.000000 0.000000 0.000000 0.039529 0.000000 0.003366
# 5 -0.006866 0.003675 0.005169 0.000000 0.039068 0.000000
# 6 0.000000 0.000000 0.000000 0.003366 0.000000 0.030887
#
#
# Mechanical properties :
#
#
# Convention : Reuss Voigt Hill
#
# Bulk Modulus (GPa) = 65.97544 69.42989 67.70267
# Shear Modulus (GPa) = 28.06668 30.94153 29.50411
#
# Velocity S-wave (km/s) = 3.68856 3.87286 3.78184
# Velocity P-wave (km/s) = 7.07973 7.32498 7.20340
#
# Compressibility (1/GPa) = 0.01515715
#
# Stress axis : x y z
#
# Youngs Moduli (GPa) = 63.90532 72.61117 100.36009
#
# Poissons Ratio (x) = 0.41130 0.58266
# Poissons Ratio (y) = 0.36199 0.06457
# Poissons Ratio (z) = 0.37102 0.04671
#
# Static dielectric constant tensor:
#      x y z
#    x 3.343430 0.000000 -0.184040 
#    y 0.000000 3.799870 0.000000 
#    z -0.184040 0.000000 3.843740 
# 
# 
# High freq. dielectric constant tensor:
#      x y z
#    x 1.821330 0.000000 0.006800 
#    y 0.000000 1.812310 0.000000 
#    z 0.006800 0.000000 1.815340 
# 
# From -- ./inp_files/34283.got.cif
#   From: 2010.06.25/outbox.cif.g09.slc.cpg/sg15_18_cif.got.tgz:34283.got - 2010.06.28 07:06:18.
