data_PCOD8147013
_publ_section_title
;
Structure prediction by ZEFSAII (Michael W. Deem and Ramdas Pophale) SiO2 
 PCOD8147013
Probable space group: C 2/C
;
_chemical_formula_sum "Si O2"
_cell_formula_units_Z 48
_cell_length_a 30.006902
_cell_length_b 5.098375
_cell_length_c 14.322387
_cell_angle_alpha 90.000000
_cell_angle_beta 71.383689
_cell_angle_gamma 90.000000
_cell_volume 2076.485687
_symmetry_space_group_name_H-M "C 2/C"
_symmetry_group_IT_number 15
_symmetry_cell_setting 'monoclinic'
loop_
_space_group_symop_operation_xyz
x,y,z
-x,y,1/2-z
-x,-y,-z
x,-y,1/2+z
1/2+x,1/2+y,z
1/2-x,1/2+y,1/2-z
1/2-x,1/2-y,-z
1/2+x,1/2-y,1/2+z
loop_
_atom_site_type_symbol
_atom_site_label
_atom_site_fract_x
_atom_site_fract_y
_atom_site_fract_z
Si Si1 0.959009 0.690022 0.004204
Si Si2 0.479313 0.479731 0.170600
Si Si3 0.610869 0.568841 0.171081
Si Si4 0.692313 0.627420 0.746707
Si Si5 0.622838 0.068732 0.048704
Si Si6 0.796970 0.630103 0.641720
O O1 0.912318 0.536197 0.007899
O O2 0.951095 0.827754 0.108867
O O3 0.976750 0.867033 0.905251
O O4 0.000000 0.500000 0.000000
O O5 0.500000 0.326210 0.250000
O O6 0.436632 0.650249 0.241687
O O7 0.649989 0.426808 0.206176
O O8 0.629160 0.847024 0.122685
O O9 0.601734 0.347469 0.097141
O O10 0.741540 0.600303 0.657727
O O11 0.691094 0.419809 0.830941
O O12 0.686551 0.917184 0.792933
O O13 0.674862 0.100774 0.972992
#
# Coordination Sequence:
#
# PCOD8147013 Si02
#       6
#     8   8   8   8   8   8
#     4  11  26  41  70  94 132 183 223 284 344 398
#     4  11  24  45  65  97 133 175 229 281 337 407
#     4  12  26  42  68  98 138 176 226 285 339 406
#     4  10  22  42  68  98 131 184 221 282 342 395
#     4  12  26  43  66 102 135 177 228 282 342 407
#     4  10  22  42  68  96 137 174 232 276 337 414
#
# _framework density 23.11598
#
# number of rings (size 3 to 8) (size 9 to 14) (size 15 to 20)
#    0.000    1.000    1.667    4.000    7.000    2.000 
#    0.000    0.000    0.000    0.000    0.000    0.000 
#    0.000    0.000    0.000    0.000    0.000    0.000 
#
# Total GULP energy -297419.139374 kJ/mol
# GULP energy per Si atom -12392.464141 kJ/mol
# Density = 2.306337 g / cm^3
# Si number density = 23.115980 Si / 1000 Ang^3
#
#
#
# Elastic Constant Matrix: (Units=GPa)
#
#
# Indices 1 2 3 4 5 6 
#
# 1 77.2799 -17.3622 28.3175 0.0000 0.8494 0.0000
# 2 -17.3622 65.3425 18.8947 0.0000 -9.0980 0.0000
# 3 28.3175 18.8947 142.5120 0.0000 -15.2016 0.0000
# 4 0.0000 0.0000 0.0000 17.7054 0.0000 -0.6007
# 5 0.8494 -9.0980 -15.2016 0.0000 40.3243 0.0000
# 6 0.0000 0.0000 0.0000 -0.6007 0.0000 35.9033
#
#
#
# Elastic Compliance Matrix: (Units=1/GPa)
#
#
# Indices 1 2 3 4 5 6 
#
# 1 0.015504 0.005142 -0.003827 0.000000 -0.000609 0.000000
# 2 0.005142 0.017954 -0.003106 0.000000 0.002771 0.000000
# 3 -0.003827 -0.003106 0.008464 0.000000 0.002570 0.000000
# 4 0.000000 0.000000 0.000000 0.056512 0.000000 0.000946
# 5 -0.000609 0.002771 0.002570 0.000000 0.026406 0.000000
# 6 0.000000 0.000000 0.000000 0.000946 0.000000 0.027868
#
#
# Mechanical properties :
#
#
# Convention : Reuss Voigt Hill
#
# Bulk Modulus (GPa) = 26.08415 38.31495 32.19955
# Shear Modulus (GPa) = 29.57311 35.80556 32.68933
#
# Velocity S-wave (km/s) = 3.58066 3.93994 3.76459
# Velocity P-wave (km/s) = 5.32948 6.10808 5.73201
#
# Compressibility (1/GPa) = 0.03833746
#
# Stress axis : x y z
#
# Youngs Moduli (GPa) = 64.49826 55.69692 118.15419
#
# Poissons Ratio (x) = -0.28637 0.45223
# Poissons Ratio (y) = -0.33162 0.36704
# Poissons Ratio (z) = 0.24686 0.17302
#
# Static dielectric constant tensor:
#      x y z
#    x 4.143910 0.000000 -0.090430 
#    y 0.000000 4.188630 0.000000 
#    z -0.090430 0.000000 3.828870 
# 
# 
# High freq. dielectric constant tensor:
#      x y z
#    x 1.924980 0.000000 -0.008030 
#    y 0.000000 1.907700 0.000000 
#    z -0.008030 0.000000 1.920690 
# 
# From -- ./inp_files/179795.got.cif
#   From: 2010.06.25/outbox.cif.g09.slc.cpg/sg15_90_cif.got.tgz:179795.got - 2010.06.28 07:06:18.
