data_PCOD8147253
_publ_section_title
;
Structure prediction by ZEFSAII (Michael W. Deem and Ramdas Pophale) SiO2 
 PCOD8147253
Probable space group: C 2/C
;
_chemical_formula_sum "Si O2"
_cell_formula_units_Z 48
_cell_length_a 10.053029
_cell_length_b 13.371310
_cell_length_c 17.603126
_cell_angle_alpha 90.000000
_cell_angle_beta 99.962355
_cell_angle_gamma 90.000000
_cell_volume 2330.571154
_symmetry_space_group_name_H-M "C 2/C"
_symmetry_group_IT_number 15
_symmetry_cell_setting 'monoclinic'
loop_
_space_group_symop_operation_xyz
x,y,z
-x,y,1/2-z
-x,-y,-z
x,-y,1/2+z
1/2+x,1/2+y,z
1/2-x,1/2+y,1/2-z
1/2-x,1/2-y,-z
1/2+x,1/2-y,1/2+z
loop_
_atom_site_type_symbol
_atom_site_label
_atom_site_fract_x
_atom_site_fract_y
_atom_site_fract_z
Si Si1 0.368848 0.057338 0.194706
Si Si2 0.520403 0.774357 0.073059
Si Si3 0.628755 0.057724 0.483957
Si Si4 0.641315 0.310338 0.731133
Si Si5 0.118172 0.076724 0.507375
Si Si6 0.702633 0.146500 0.851348
O O1 0.500000 0.101105 0.250000
O O2 0.371584 0.081304 0.105667
O O3 0.235910 0.098366 0.221415
O O4 0.357532 0.939135 0.208901
O O5 0.618005 0.754453 0.153697
O O6 0.399083 0.846249 0.086997
O O7 0.617079 0.831300 0.021773
O O8 0.441476 0.672878 0.041815
O O9 0.500000 0.000000 0.500000
O O10 0.758608 0.987996 0.518965
O O11 0.500000 0.351473 0.750000
O O12 0.716711 0.245783 0.803376
O O13 0.156478 0.113942 0.596220
O O14 0.000000 0.000000 0.500000
#
# Coordination Sequence:
#
# PCOD8147253 Si02
#       6
#     8   8   8   8   8   8
#     4  11  23  41  66  95 131 167 222 274 329 408
#     4  11  21  43  71  93 131 179 221 274 339 412
#     4  11  24  41  69 101 128 179 227 277 341 410
#     4  10  24  43  64  92 129 178 217 268 343 402
#     4  11  24  40  66 101 134 169 227 285 338 401
#     4  10  22  43  65  94 129 175 221 266 335 414
#
# _framework density 20.595808999999999
#
# number of rings (size 3 to 8) (size 9 to 14) (size 15 to 20)
#    0.000    1.333    3.333    4.000    2.333    4.000 
#    0.000    0.833    0.000    0.000    0.000    0.000 
#    0.000    0.000    0.000    0.000    0.000    0.000 
#
# Total GULP energy -297352.573799 kJ/mol
# GULP energy per Si atom -12389.690575 kJ/mol
# Density = 2.054893 g / cm^3
# Si number density = 20.595809 Si / 1000 Ang^3
#
#
#
# Elastic Constant Matrix: (Units=GPa)
#
#
# Indices 1 2 3 4 5 6 
#
# 1 129.3318 73.5289 44.5236 0.0000 -6.5085 0.0000
# 2 73.5289 121.3744 48.7753 0.0000 -17.0501 0.0000
# 3 44.5236 48.7753 95.4539 0.0000 -6.3629 0.0000
# 4 0.0000 0.0000 0.0000 33.6783 0.0000 -7.8063
# 5 -6.5085 -17.0501 -6.3629 0.0000 33.6858 0.0000
# 6 0.0000 0.0000 0.0000 -7.8063 0.0000 45.4138
#
#
#
# Elastic Compliance Matrix: (Units=1/GPa)
#
#
# Indices 1 2 3 4 5 6 
#
# 1 0.012287 -0.006678 -0.002416 0.000000 -0.001462 0.000000
# 2 -0.006678 0.014651 -0.004014 0.000000 0.005367 0.000000
# 3 -0.002416 -0.004014 0.013660 0.000000 0.000082 0.000000
# 4 0.000000 0.000000 0.000000 0.030925 0.000000 0.005316
# 5 -0.001462 0.005367 0.000082 0.000000 0.032136 0.000000
# 6 0.000000 0.000000 0.000000 0.005316 0.000000 0.022933
#
#
# Mechanical properties :
#
#
# Convention : Reuss Voigt Hill
#
# Bulk Modulus (GPa) = 69.53229 75.53510 72.53370
# Shear Modulus (GPa) = 31.72540 34.51108 33.11824
#
# Velocity S-wave (km/s) = 3.92903 4.09789 4.01435
# Velocity P-wave (km/s) = 7.37677 7.69057 7.53530
#
# Compressibility (1/GPa) = 0.01438181
#
# Stress axis : x y z
#
# Youngs Moduli (GPa) = 81.38803 68.25255 73.20708
#
# Poissons Ratio (x) = 0.45578 0.17689
# Poissons Ratio (y) = 0.54349 0.29386
# Poissons Ratio (z) = 0.19666 0.27397
#
# Static dielectric constant tensor:
#      x y z
#    x 3.757700 0.000000 -0.114960 
#    y 0.000000 3.528190 0.000000 
#    z -0.114960 0.000000 3.792110 
# 
# 
# High freq. dielectric constant tensor:
#      x y z
#    x 1.803100 0.000000 0.008380 
#    y 0.000000 1.814620 0.000000 
#    z 0.008380 0.000000 1.804050 
# 
# From -- ./inp_files/189191.got.cif
#   From: 2010.06.25/outbox.cif.g09.slc.cpg/sg15_95_cif.got.tgz:189191.got - 2010.06.28 07:06:18.
