data_PCOD8147283
_publ_section_title
;
Structure prediction by ZEFSAII (Michael W. Deem and Ramdas Pophale) SiO2 
 PCOD8147283
Probable space group: C 2/C
;
_chemical_formula_sum "Si O2"
_cell_formula_units_Z 44
_cell_length_a 14.607756
_cell_length_b 11.981939
_cell_length_c 11.752515
_cell_angle_alpha 90.000000
_cell_angle_beta 69.538023
_cell_angle_gamma 90.000000
_cell_volume 1927.243982
_symmetry_space_group_name_H-M "C 2/C"
_symmetry_group_IT_number 15
_symmetry_cell_setting 'monoclinic'
loop_
_space_group_symop_operation_xyz
x,y,z
-x,y,1/2-z
-x,-y,-z
x,-y,1/2+z
1/2+x,1/2+y,z
1/2-x,1/2+y,1/2-z
1/2-x,1/2-y,-z
1/2+x,1/2-y,1/2+z
loop_
_atom_site_type_symbol
_atom_site_label
_atom_site_fract_x
_atom_site_fract_y
_atom_site_fract_z
Si Si1 0.731473 0.893540 0.731848
Si Si2 0.592137 0.942346 0.407896
Si Si3 0.168577 0.814263 0.604833
Si Si4 0.500000 0.176839 0.750000
Si Si5 0.396819 0.533790 0.987849
Si Si6 0.359176 0.231696 0.423015
O O1 0.795417 0.808607 0.779683
O O2 0.809735 0.954146 0.617272
O O3 0.643437 0.829086 0.700585
O O4 0.683778 0.975654 0.847442
O O5 0.572123 0.898918 0.290759
O O6 0.605936 0.845454 0.491501
O O7 0.500000 0.000000 0.500000
O O8 0.250000 0.750000 0.500000
O O9 0.066069 0.750271 0.636995
O O10 0.144713 0.939641 0.577267
O O11 0.500000 0.500000 0.000000
O O12 0.414089 0.648063 0.906178
O O13 0.250000 0.250000 0.500000
#
# Coordination Sequence:
#
# PCOD8147283 Si02
#       6
#     8   8   8   4   8   8
#     4  11  23  43  67  93 128 173 213 269 331 389
#     4  12  24  43  66  95 128 170 223 271 324 396
#     4  12  25  43  67  97 129 173 222 269 331 406
#     4  12  24  42  64  94 132 166 208 276 328 376
#     4  11  24  43  67  98 133 171 219 275 338 407
#     4  10  22  43  66  94 133 171 217 276 332 398
#
# _framework density 22.83053
#
# number of rings (size 3 to 8) (size 9 to 14) (size 15 to 20)
#    0.000    0.727    0.000    9.818    0.000    1.455 
#    0.000    5.455    0.000    0.000    0.000    0.000 
#    0.000    0.000    0.000    0.000    0.000    0.000 
#
# Total GULP energy -272630.702828 kJ/mol
# GULP energy per Si atom -12392.304674 kJ/mol
# Density = 2.277857 g / cm^3
# Si number density = 22.830530 Si / 1000 Ang^3
#
#
#
# Elastic Constant Matrix: (Units=GPa)
#
#
# Indices 1 2 3 4 5 6 
#
# 1 116.2750 51.5393 33.5334 0.0000 7.6675 0.0000
# 2 51.5393 134.3302 33.5318 0.0000 9.0549 0.0000
# 3 33.5334 33.5318 87.5940 0.0000 4.4542 0.0000
# 4 0.0000 0.0000 0.0000 42.1608 0.0000 6.2615
# 5 7.6675 9.0549 4.4542 0.0000 60.5632 0.0000
# 6 0.0000 0.0000 0.0000 6.2615 0.0000 47.7155
#
#
#
# Elastic Compliance Matrix: (Units=1/GPa)
#
#
# Indices 1 2 3 4 5 6 
#
# 1 0.011002 -0.003465 -0.002852 0.000000 -0.000665 0.000000
# 2 -0.003465 0.009383 -0.002225 0.000000 -0.000801 0.000000
# 3 -0.002852 -0.002225 0.013375 0.000000 -0.000290 0.000000
# 4 0.000000 0.000000 0.000000 0.024190 0.000000 -0.003174
# 5 -0.000665 -0.000801 -0.000290 0.000000 0.016737 0.000000
# 6 0.000000 0.000000 0.000000 -0.003174 0.000000 0.021374
#
#
# Mechanical properties :
#
#
# Convention : Reuss Voigt Hill
#
# Bulk Modulus (GPa) = 59.96219 63.93424 61.94822
# Shear Modulus (GPa) = 42.12205 44.72755 43.42480
#
# Velocity S-wave (km/s) = 4.29999 4.43099 4.36598
# Velocity P-wave (km/s) = 7.13963 7.36497 7.25318
#
# Compressibility (1/GPa) = 0.01667718
#
# Stress axis : x y z
#
# Youngs Moduli (GPa) = 90.88977 106.57618 74.76906
#
# Poissons Ratio (x) = 0.36924 0.21323
# Poissons Ratio (y) = 0.31490 0.16635
# Poissons Ratio (z) = 0.25921 0.23711
#
# Static dielectric constant tensor:
#      x y z
#    x 4.048760 0.000000 -0.005430 
#    y 0.000000 0.908400 0.000000 
#    z -0.005430 0.000000 3.963760 
# 
# 
# High freq. dielectric constant tensor:
#      x y z
#    x 1.918040 0.000000 0.010930 
#    y 0.000000 1.914970 0.000000 
#    z 0.010930 0.000000 1.900350 
# 
# From -- ./inp_files/94981.got.cif
#   From: 2010.06.25/outbox.cif.g09.slc.cpg/sg15_48_cif.got.tgz:94981.got - 2010.06.28 07:06:18.
