data_PCOD8147128
_publ_section_title
;
Structure prediction by ZEFSAII (Michael W. Deem and Ramdas Pophale) SiO2 
 PCOD8147128
Probable space group: C 2/C
;
_chemical_formula_sum "Si O2"
_cell_formula_units_Z 56
_cell_length_a 16.734242
_cell_length_b 9.443850
_cell_length_c 17.249790
_cell_angle_alpha 90.000000
_cell_angle_beta 112.773827
_cell_angle_gamma 90.000000
_cell_volume 2513.556982
_symmetry_space_group_name_H-M "C 2/C"
_symmetry_group_IT_number 15
_symmetry_cell_setting 'monoclinic'
loop_
_space_group_symop_operation_xyz
x,y,z
-x,y,1/2-z
-x,-y,-z
x,-y,1/2+z
1/2+x,1/2+y,z
1/2-x,1/2+y,1/2-z
1/2-x,1/2-y,-z
1/2+x,1/2-y,1/2+z
loop_
_atom_site_type_symbol
_atom_site_label
_atom_site_fract_x
_atom_site_fract_y
_atom_site_fract_z
Si Si1 0.896253 0.572592 0.550322
Si Si2 0.416377 0.014385 0.883610
Si Si3 0.956596 0.939799 0.813255
Si Si4 0.611174 0.618568 0.484540
Si Si5 0.883203 0.792235 0.340416
Si Si6 0.796245 0.243796 0.298310
Si Si7 0.248972 0.614514 0.445147
O O1 0.902475 0.495730 0.470086
O O2 0.853194 0.728981 0.532652
O O3 0.842568 0.469443 0.586826
O O4 0.996823 0.595394 0.612319
O O5 0.426720 0.860368 0.849714
O O6 0.332646 0.099005 0.824517
O O7 0.869235 0.851088 0.787326
O O8 0.000000 0.891821 0.750000
O O9 0.020496 0.918729 0.909805
O O10 0.926983 0.104178 0.794142
O O11 0.596419 0.632701 0.570414
O O12 0.678765 0.492855 0.494165
O O13 0.780978 0.768636 0.290778
O O14 0.764264 0.165172 0.363746
O O15 0.250000 0.750000 0.500000
#
# Coordination Sequence:
#
# PCOD8147128 Si02
#       7
#     8   8   8   8   8   8   8
#     4  10  22  43  69 105 136 190 230 301 353 437
#     4  10  22  42  71  99 143 179 244 288 363 426
#     4  12  28  48  75 107 146 194 250 304 371 447
#     4  11  25  48  75 103 144 194 245 293 373 435
#     4  11  26  45  76  99 147 191 242 303 362 427
#     4  12  25  49  68 111 144 196 240 307 364 434
#     4  12  26  40  75 107 147 182 248 301 366 435
#
# _framework density 22.279184999999998
#
# number of rings (size 3 to 8) (size 9 to 14) (size 15 to 20)
#    0.000    0.857    4.286    1.714    4.000    3.429 
#    0.000    0.714    0.000    0.000    0.000    0.000 
#    0.000    0.000    0.000    0.000    0.000    0.000 
#
# Total GULP energy -347196.356753 kJ/mol
# GULP energy per Si atom -12399.869884 kJ/mol
# Density = 2.222848 g / cm^3
# Si number density = 22.279185 Si / 1000 Ang^3
#
#
#
# Elastic Constant Matrix: (Units=GPa)
#
#
# Indices 1 2 3 4 5 6 
#
# 1 112.3460 52.5497 51.3491 0.0000 -4.4664 0.0000
# 2 52.5497 133.0354 29.4736 0.0000 -12.3645 0.0000
# 3 51.3491 29.4736 102.5120 0.0000 12.3583 0.0000
# 4 0.0000 0.0000 0.0000 19.0219 0.0000 9.3158
# 5 -4.4664 -12.3645 12.3583 0.0000 37.2689 0.0000
# 6 0.0000 0.0000 0.0000 9.3158 0.0000 44.5829
#
#
#
# Elastic Compliance Matrix: (Units=1/GPa)
#
#
# Indices 1 2 3 4 5 6 
#
# 1 0.013485 -0.003793 -0.005945 0.000000 0.002329 0.000000
# 2 -0.003793 0.009579 -0.001232 0.000000 0.003132 0.000000
# 3 -0.005945 -0.001232 0.013773 0.000000 -0.005688 0.000000
# 4 0.000000 0.000000 0.000000 0.058564 0.000000 -0.012237
# 5 0.002329 0.003132 -0.005688 0.000000 0.030036 0.000000
# 6 0.000000 0.000000 0.000000 -0.012237 0.000000 0.024987
#
#
# Mechanical properties :
#
#
# Convention : Reuss Voigt Hill
#
# Bulk Modulus (GPa) = 67.12631 68.29315 67.70973
# Shear Modulus (GPa) = 28.19603 34.47613 31.33608
#
# Velocity S-wave (km/s) = 3.56135 3.93804 3.75443
# Velocity P-wave (km/s) = 6.86338 7.16920 7.01796
#
# Compressibility (1/GPa) = 0.01489729
#
# Stress axis : x y z
#
# Youngs Moduli (GPa) = 74.15565 104.39440 72.60737
#
# Poissons Ratio (x) = 0.39598 0.43165
# Poissons Ratio (y) = 0.28128 0.08943
# Poissons Ratio (z) = 0.44086 0.12858
#
# Static dielectric constant tensor:
#      x y z
#    x 4.034040 0.000000 0.139280 
#    y 0.000000 4.351250 0.000000 
#    z 0.139280 0.000000 3.819440 
# 
# 
# High freq. dielectric constant tensor:
#      x y z
#    x 1.877560 0.000000 0.012560 
#    y 0.000000 1.904690 0.000000 
#    z 0.012560 0.000000 1.860450 
# 
# From -- ./inp_files/209635.got.cif
#   From: 2010.06.25/outbox.cif.g09.slc.cpg/sg15_105_cif.got.tgz:209635.got - 2010.06.28 07:06:18.
