data_PCOD8147945
_publ_section_title
;
Structure prediction by ZEFSAII (Michael W. Deem and Ramdas Pophale) SiO2 
 PCOD8147945
Probable space group: C 2/C
;
_chemical_formula_sum "Si O2"
_cell_formula_units_Z 36
_cell_length_a 7.294755
_cell_length_b 9.595071
_cell_length_c 21.800531
_cell_angle_alpha 90.000000
_cell_angle_beta 109.886774
_cell_angle_gamma 90.000000
_cell_volume 1434.905184
_symmetry_space_group_name_H-M "C 2/C"
_symmetry_group_IT_number 15
_symmetry_cell_setting 'monoclinic'
loop_
_space_group_symop_operation_xyz
x,y,z
-x,y,1/2-z
-x,-y,-z
x,-y,1/2+z
1/2+x,1/2+y,z
1/2-x,1/2+y,1/2-z
1/2-x,1/2-y,-z
1/2+x,1/2-y,1/2+z
loop_
_atom_site_type_symbol
_atom_site_label
_atom_site_fract_x
_atom_site_fract_y
_atom_site_fract_z
Si Si1 0.616298 0.329847 0.908861
Si Si2 0.076955 0.953105 0.190415
Si Si3 0.000000 0.503889 0.250000
Si Si4 0.494891 0.827250 0.868970
Si Si5 0.651092 0.041543 0.966129
O O1 0.445826 0.402433 0.849852
O O2 0.814077 0.340853 0.893400
O O3 0.562155 0.169250 0.915498
O O4 0.648245 0.409565 0.978280
O O5 0.307216 0.911186 0.214868
O O6 0.000000 0.970221 0.250000
O O7 0.955841 0.834022 0.139995
O O8 0.938152 0.601704 0.298899
O O9 0.676893 0.908379 0.922817
O O10 0.500000 0.000000 0.000000
#
# Coordination Sequence:
#
# PCOD8147945 Si02
#       5
#     8   8   4   8   8
#     4  10  22  46  72 103 149 187 240 303 361 428
#     4  12  26  45  71 107 142 192 238 294 362 429
#     4  12  26  42  68 106 146 186 244 294 356 436
#     4  11  23  44  69 105 144 186 243 294 362 431
#     4   9  21  43  74 106 143 190 239 303 360 430
#
# _framework density 25.088768999999999
#
# number of rings (size 3 to 8) (size 9 to 14) (size 15 to 20)
#    0.000    1.333    3.333    1.333    0.000    8.000 
#    2.000   15.556    0.000    1.333    0.000    0.000 
#    0.000    0.000    0.000    0.000    0.000    0.000 
#
# Total GULP energy -223133.135727 kJ/mol
# GULP energy per Si atom -12396.285318 kJ/mol
# Density = 2.503167 g / cm^3
# Si number density = 25.088769 Si / 1000 Ang^3
#
#
#
# Elastic Constant Matrix: (Units=GPa)
#
#
# Indices 1 2 3 4 5 6 
#
# 1 72.6021 30.5418 38.7752 0.0000 4.1834 0.0000
# 2 30.5418 149.9531 81.1022 0.0000 -4.8993 0.0000
# 3 38.7752 81.1022 139.9743 0.0000 -10.4792 0.0000
# 4 0.0000 0.0000 0.0000 50.2909 0.0000 1.1910
# 5 4.1834 -4.8993 -10.4792 0.0000 36.1323 0.0000
# 6 0.0000 0.0000 0.0000 1.1910 0.0000 22.0497
#
#
#
# Elastic Compliance Matrix: (Units=1/GPa)
#
#
# Indices 1 2 3 4 5 6 
#
# 1 0.016710 -0.001273 -0.004139 0.000000 -0.003308 0.000000
# 2 -0.001273 0.009813 -0.005338 0.000000 -0.000070 0.000000
# 3 -0.004139 -0.005338 0.011618 0.000000 0.003125 0.000000
# 4 0.000000 0.000000 0.000000 0.019910 0.000000 -0.001075
# 5 -0.003308 -0.000070 0.003125 0.000000 0.028956 0.000000
# 6 0.000000 0.000000 0.000000 -0.001075 0.000000 0.045410
#
#
# Mechanical properties :
#
#
# Convention : Reuss Voigt Hill
#
# Bulk Modulus (GPa) = 60.09493 73.70753 66.90123
# Shear Modulus (GPa) = 31.35495 35.83528 33.59512
#
# Velocity S-wave (km/s) = 3.53903 3.78344 3.66327
# Velocity P-wave (km/s) = 6.38001 6.96623 6.67956
#
# Compressibility (1/GPa) = 0.01664034
#
# Stress axis : x y z
#
# Youngs Moduli (GPa) = 59.84292 101.90596 86.07477
#
# Poissons Ratio (x) = 0.12972 0.35628
# Poissons Ratio (y) = 0.07617 0.45950
# Poissons Ratio (z) = 0.24770 0.54401
#
# Static dielectric constant tensor:
#      x y z
#    x 4.121740 0.000000 -0.118710 
#    y 0.000000 4.726740 0.000000 
#    z -0.118710 0.000000 5.233740 
# 
# 
# High freq. dielectric constant tensor:
#      x y z
#    x 1.975170 0.000000 -0.024380 
#    y 0.000000 1.995270 0.000000 
#    z -0.024380 0.000000 2.023870 
# 
# From -- ./inp_files/262584.got.cif
#   From: 2010.06.25/outbox.cif.g09.slc.cpg/sg15_132_cif.got.tgz:262584.got - 2010.06.28 07:06:18.
