data_PCOD8147300
_publ_section_title
;
Structure prediction by ZEFSAII (Michael W. Deem and Ramdas Pophale) SiO2 
 PCOD8147300
Probable space group: C 2/C
;
_chemical_formula_sum "Si O2"
_cell_formula_units_Z 64
_cell_length_a 8.847256
_cell_length_b 17.113565
_cell_length_c 19.534146
_cell_angle_alpha 90.000000
_cell_angle_beta 91.019756
_cell_angle_gamma 90.000000
_cell_volume 2957.159313
_symmetry_space_group_name_H-M "C 2/C"
_symmetry_group_IT_number 15
_symmetry_cell_setting 'monoclinic'
loop_
_space_group_symop_operation_xyz
x,y,z
-x,y,1/2-z
-x,-y,-z
x,-y,1/2+z
1/2+x,1/2+y,z
1/2-x,1/2+y,1/2-z
1/2-x,1/2-y,-z
1/2+x,1/2-y,1/2+z
loop_
_atom_site_type_symbol
_atom_site_label
_atom_site_fract_x
_atom_site_fract_y
_atom_site_fract_z
Si Si1 0.646455 0.499916 0.854750
Si Si2 0.862750 0.736255 0.939031
Si Si3 0.326586 0.734717 0.817747
Si Si4 0.813884 0.682048 0.547034
Si Si5 0.644463 0.673341 0.827077
Si Si6 0.320055 0.485120 0.495158
Si Si7 0.645370 0.598290 0.118282
Si Si8 0.324737 0.100660 0.256903
O O1 0.586572 0.585800 0.837623
O O2 0.500045 0.445860 0.854647
O O3 0.755653 0.473953 0.794409
O O4 0.738459 0.499294 0.927917
O O5 0.781398 0.690195 0.878171
O O6 0.916308 0.821060 0.913675
O O7 0.005091 0.682673 0.962540
O O8 0.750000 0.750000 0.000000
O O9 0.217056 0.700969 0.874202
O O10 0.502850 0.730201 0.841550
O O11 0.298539 0.683536 0.749861
O O12 0.287964 0.824716 0.803626
O O13 0.750000 0.750000 0.500000
O O14 0.733706 0.600689 0.527691
O O15 0.500000 0.500000 0.500000
O O16 0.262549 0.548279 0.438840
O O17 0.758017 0.615037 0.181203
O O18 0.500000 0.085083 0.250000
#
# Coordination Sequence:
#
# PCOD8147300 Si02
#       8
#     8   8   8   8   8   8   8   8
#     4  11  25  43  71  97 133 177 234 275 342 417
#     4  12  25  45  69 104 143 182 232 293 353 412
#     4  11  22  44  69  97 138 179 236 276 348 414
#     4  12  25  41  72 105 140 184 235 290 348 423
#     4  11  24  44  69 101 134 187 225 291 346 412
#     4  10  22  43  67 101 133 174 231 287 343 415
#     4  11  23  44  71  98 134 183 231 284 344 421
#     4  12  24  42  64  99 137 179 222 284 347 411
#
# _framework density 21.642391
#
# number of rings (size 3 to 8) (size 9 to 14) (size 15 to 20)
#    0.000    0.750    2.500    6.375    5.250    2.500 
#    0.000    1.875    0.000    0.000    0.000    0.000 
#    0.000    0.000    0.000    0.000    0.000    0.000 
#
# Total GULP energy -396871.870090 kJ/mol
# GULP energy per Si atom -12402.245940 kJ/mol
# Density = 2.159313 g / cm^3
# Si number density = 21.642391 Si / 1000 Ang^3
#
#
#
# Elastic Constant Matrix: (Units=GPa)
#
#
# Indices 1 2 3 4 5 6 
#
# 1 115.9766 35.0971 44.9524 0.0000 8.8987 0.0000
# 2 35.0971 124.0023 21.5101 0.0000 10.0485 0.0000
# 3 44.9524 21.5101 108.5750 0.0000 0.3144 0.0000
# 4 0.0000 0.0000 0.0000 46.1563 0.0000 3.3252
# 5 8.8987 10.0485 0.3144 0.0000 35.0668 0.0000
# 6 0.0000 0.0000 0.0000 3.3252 0.0000 32.7774
#
#
#
# Elastic Compliance Matrix: (Units=1/GPa)
#
#
# Indices 1 2 3 4 5 6 
#
# 1 0.011066 -0.002243 -0.004131 0.000000 -0.002128 0.000000
# 2 -0.002243 0.009009 -0.000850 0.000000 -0.002005 0.000000
# 3 -0.004131 -0.000850 0.011086 0.000000 0.001193 0.000000
# 4 0.000000 0.000000 0.000000 0.021825 0.000000 -0.002214
# 5 -0.002128 -0.002005 0.001193 0.000000 0.029621 0.000000
# 6 0.000000 0.000000 0.000000 -0.002214 0.000000 0.030733
#
#
# Mechanical properties :
#
#
# Convention : Reuss Voigt Hill
#
# Bulk Modulus (GPa) = 59.83772 61.29699 60.56735
# Shear Modulus (GPa) = 37.49286 39.26639 38.37962
#
# Velocity S-wave (km/s) = 4.16670 4.26411 4.21569
# Velocity P-wave (km/s) = 7.13141 7.25449 7.19321
#
# Compressibility (1/GPa) = 0.01671187
#
# Stress axis : x y z
#
# Youngs Moduli (GPa) = 90.37006 110.99796 90.20772
#
# Poissons Ratio (x) = 0.24896 0.37264
# Poissons Ratio (y) = 0.20269 0.07671
# Poissons Ratio (z) = 0.37331 0.09439
#
# Static dielectric constant tensor:
#      x y z
#    x 3.731640 0.000000 0.059370 
#    y 0.000000 4.087210 0.000000 
#    z 0.059370 0.000000 4.400690 
# 
# 
# High freq. dielectric constant tensor:
#      x y z
#    x 1.833370 0.000000 0.004550 
#    y 0.000000 1.859380 0.000000 
#    z 0.004550 0.000000 1.872450 
# 
# From -- ./inp_files/232694.got.cif
#   From: 2010.06.25/outbox.cif.g09.slc.cpg/sg15_117_cif.got.tgz:232694.got - 2010.06.28 07:06:18.
