data_PCOD8147562
_publ_section_title
;
Structure prediction by ZEFSAII (Michael W. Deem and Ramdas Pophale) SiO2 
 PCOD8147562
Probable space group: C 2/C
;
_chemical_formula_sum "Si O2"
_cell_formula_units_Z 64
_cell_length_a 25.590077
_cell_length_b 10.874489
_cell_length_c 15.885821
_cell_angle_alpha 90.000000
_cell_angle_beta 137.029794
_cell_angle_gamma 90.000000
_cell_volume 3013.222084
_symmetry_space_group_name_H-M "C 2/C"
_symmetry_group_IT_number 15
_symmetry_cell_setting 'monoclinic'
loop_
_space_group_symop_operation_xyz
x,y,z
-x,y,1/2-z
-x,-y,-z
x,-y,1/2+z
1/2+x,1/2+y,z
1/2-x,1/2+y,1/2-z
1/2-x,1/2-y,-z
1/2+x,1/2-y,1/2+z
loop_
_atom_site_type_symbol
_atom_site_label
_atom_site_fract_x
_atom_site_fract_y
_atom_site_fract_z
Si Si1 0.422064 0.440879 0.373345
Si Si2 0.827545 0.469786 0.276898
Si Si3 0.167913 0.689604 0.882833
Si Si4 0.661217 0.460345 0.569398
Si Si5 0.057760 0.656144 0.129614
Si Si6 0.414079 0.963409 0.663211
Si Si7 0.414967 0.433587 0.684865
Si Si8 0.389310 0.186896 0.977267
O O1 0.500000 0.500000 0.500000
O O2 0.358842 0.462420 0.370891
O O3 0.421993 0.295629 0.364273
O O4 0.402177 0.493397 0.257233
O O5 0.838378 0.368760 0.216540
O O6 0.752723 0.552861 0.174954
O O7 0.898789 0.562525 0.382088
O O8 0.819516 0.382343 0.349148
O O9 0.145201 0.577180 0.918369
O O10 0.102715 0.792461 0.815079
O O11 0.250000 0.750000 0.000000
O O12 0.639783 0.520921 0.454790
O O13 0.618879 0.331996 0.530916
O O14 0.094318 0.606684 0.259131
O O15 0.966217 0.646469 0.017861
O O16 0.500000 0.013963 0.750000
O O17 0.392473 0.854288 0.576187
O O18 0.500000 0.449505 0.750000
#
# Coordination Sequence:
#
# PCOD8147562 Si02
#       8
#     8   8   8   8   8   8   8   8
#     4  12  24  43  69 103 132 175 230 276 338 403
#     4  11  26  43  63  98 136 176 222 283 340 397
#     4  11  23  43  64  93 136 173 222 270 335 407
#     4  12  26  44  65 104 137 174 228 278 343 407
#     4  10  22  44  66  95 130 171 226 276 326 406
#     4   9  21  41  66  96 124 170 225 271 329 397
#     4  12  24  44  72  97 137 182 220 284 338 398
#     4  11  22  42  69  92 129 174 222 275 331 403
#
# _framework density 21.239722
#
# number of rings (size 3 to 8) (size 9 to 14) (size 15 to 20)
#    0.000    1.000    3.750    2.250    1.750    4.000 
#    0.000    1.875    0.000    0.000    0.000    0.000 
#    0.000    0.000    0.000    0.000    0.000    0.000 
#
# Total GULP energy -396591.919977 kJ/mol
# GULP energy per Si atom -12393.497499 kJ/mol
# Density = 2.119138 g / cm^3
# Si number density = 21.239722 Si / 1000 Ang^3
#
#
#
# Elastic Constant Matrix: (Units=GPa)
#
#
# Indices 1 2 3 4 5 6 
#
# 1 78.4978 41.2419 32.8665 0.0000 -7.7335 0.0000
# 2 41.2419 160.9665 49.8646 0.0000 0.3421 0.0000
# 3 32.8665 49.8646 78.9866 0.0000 -1.0735 0.0000
# 4 0.0000 0.0000 0.0000 20.6486 0.0000 14.7748
# 5 -7.7335 0.3421 -1.0735 0.0000 29.9398 0.0000
# 6 0.0000 0.0000 0.0000 14.7748 0.0000 20.5654
#
#
#
# Elastic Compliance Matrix: (Units=1/GPa)
#
#
# Indices 1 2 3 4 5 6 
#
# 1 0.016744 -0.002683 -0.005217 0.000000 0.004168 0.000000
# 2 -0.002683 0.008155 -0.004044 0.000000 -0.000931 0.000000
# 3 -0.005217 -0.004044 0.017375 0.000000 -0.000678 0.000000
# 4 0.000000 0.000000 0.000000 0.099661 0.000000 -0.071600
# 5 0.004168 -0.000931 -0.000678 0.000000 0.034463 0.000000
# 6 0.000000 0.000000 0.000000 -0.071600 0.000000 0.100065
#
#
# Mechanical properties :
#
#
# Convention : Reuss Voigt Hill
#
# Bulk Modulus (GPa) = 54.39066 62.93300 58.66183
# Shear Modulus (GPa) = 16.31431 27.19596 21.75513
#
# Velocity S-wave (km/s) = 2.77448 3.58219 3.20389
# Velocity P-wave (km/s) = 5.99393 6.84132 6.43160
#
# Compressibility (1/GPa) = 0.01838551
#
# Stress axis : x y z
#
# Youngs Moduli (GPa) = 59.72438 122.62847 57.55341
#
# Poissons Ratio (x) = 0.32898 0.30024
# Poissons Ratio (y) = 0.16023 0.23277
# Poissons Ratio (z) = 0.31157 0.49597
#
# Static dielectric constant tensor:
#      x y z
#    x 4.079080 0.000000 -0.086910 
#    y 0.000000 3.993870 0.000000 
#    z -0.086910 0.000000 3.901360 
# 
# 
# High freq. dielectric constant tensor:
#      x y z
#    x 1.837630 0.000000 -0.004130 
#    y 0.000000 1.847620 0.000000 
#    z -0.004130 0.000000 1.831390 
# 
# From -- ./inp_files/224650.got.cif
#   From: 2010.06.25/outbox.cif.g09.slc.cpg/sg15_113_cif.got.tgz:224650.got - 2010.06.28 07:06:18.
