data_PCOD8147911
_publ_section_title
;
Structure prediction by ZEFSAII (Michael W. Deem and Ramdas Pophale) SiO2 
 PCOD8147911
Probable space group: C 2/C
;
_chemical_formula_sum "Si O2"
_cell_formula_units_Z 44
_cell_length_a 29.642184
_cell_length_b 8.929326
_cell_length_c 24.075091
_cell_angle_alpha 90.000000
_cell_angle_beta 161.384745
_cell_angle_gamma 90.000000
_cell_volume 2034.115158
_symmetry_space_group_name_H-M "C 2/C"
_symmetry_group_IT_number 15
_symmetry_cell_setting 'monoclinic'
loop_
_space_group_symop_operation_xyz
x,y,z
-x,y,1/2-z
-x,-y,-z
x,-y,1/2+z
1/2+x,1/2+y,z
1/2-x,1/2+y,1/2-z
1/2-x,1/2-y,-z
1/2+x,1/2-y,1/2+z
loop_
_atom_site_type_symbol
_atom_site_label
_atom_site_fract_x
_atom_site_fract_y
_atom_site_fract_z
Si Si1 0.596595 0.511982 0.761674
Si Si2 0.500000 0.638961 0.250000
Si Si3 0.218483 0.030951 0.641115
Si Si4 0.119952 0.272853 0.716871
Si Si5 0.322605 0.913244 0.379159
Si Si6 0.187737 0.672882 0.052038
O O1 0.597135 0.477217 0.828177
O O2 0.445965 0.502652 0.555816
O O3 0.652347 0.679773 0.811782
O O4 0.690116 0.382487 0.845036
O O5 0.572673 0.745986 0.379364
O O6 0.274738 0.996821 0.768488
O O7 0.253157 0.204298 0.669652
O O8 0.300411 0.931664 0.690558
O O9 0.185645 0.176675 0.742296
O O10 0.951435 0.300757 0.515285
O O11 0.376559 0.035684 0.487217
#
# Coordination Sequence:
#
# PCOD8147911 Si02
#       6
#     8   4   8   8   8   8
#     4  10  23  43  65  95 129 173 222 278 325 384
#     4  10  22  46  68  94 124 174 228 274 324 390
#     4  11  23  39  67  98 137 172 218 266 327 399
#     4  11  23  42  63  95 138 170 218 268 330 391
#     4  11  24  41  66 101 136 177 212 268 331 397
#     4  10  24  40  70  96 132 172 220 270 328 391
#
# _framework density 21.631025999999999
#
# number of rings (size 3 to 8) (size 9 to 14) (size 15 to 20)
#    0.000    1.455    1.818    2.182    7.636    1.455 
#    0.000    4.545    0.000    0.000    0.000    0.000 
#    0.000    0.000    0.000    0.000    0.000    0.000 
#
# Total GULP energy -272649.567304 kJ/mol
# GULP energy per Si atom -12393.162150 kJ/mol
# Density = 2.158179 g / cm^3
# Si number density = 21.631026 Si / 1000 Ang^3
#
#
#
# Elastic Constant Matrix: (Units=GPa)
#
#
# Indices 1 2 3 4 5 6 
#
# 1 134.1464 66.5475 47.9827 -0.0009 9.2622 -0.0007
# 2 66.5475 128.5459 28.1727 -0.0004 6.9364 0.0001
# 3 47.9827 28.1727 56.8627 -0.0010 -2.5282 -0.0011
# 4 -0.0009 -0.0004 -0.0010 25.3604 -0.0006 6.6203
# 5 9.2622 6.9364 -2.5282 -0.0006 36.2814 -0.0005
# 6 -0.0007 0.0001 -0.0011 6.6203 -0.0005 57.2857
#
#
#
# Elastic Compliance Matrix: (Units=1/GPa)
#
#
# Indices 1 2 3 4 5 6 
#
# 1 0.013204 -0.004708 -0.008947 0.000000 -0.003094 0.000000
# 2 -0.004708 0.010549 -0.001294 0.000000 -0.000905 0.000000
# 3 -0.008947 -0.001294 0.025970 0.000001 0.004341 0.000000
# 4 0.000000 0.000000 0.000001 0.040658 0.000001 -0.004699
# 5 -0.003094 -0.000905 0.004341 0.000001 0.028828 0.000000
# 6 0.000000 0.000000 0.000000 -0.004699 0.000000 0.017999
#
#
# Mechanical properties :
#
#
# Convention : Reuss Voigt Hill
#
# Bulk Modulus (GPa) = 50.44084 67.21785 58.82934
# Shear Modulus (GPa) = 28.78287 35.57565 32.17926
#
# Velocity S-wave (km/s) = 3.65174 4.05984 3.86118
# Velocity P-wave (km/s) = 6.41480 7.28825 6.86543
#
# Compressibility (1/GPa) = 0.01982521
#
# Stress axis : x y z
#
# Youngs Moduli (GPa) = 75.73576 94.79597 38.50569
#
# Poissons Ratio (x) = 0.44627 0.34451
# Poissons Ratio (y) = 0.35654 0.04984
# Poissons Ratio (z) = 0.67760 0.12269
#
# Static dielectric constant tensor:
#      x y z
#    x 4.245150 0.000000 0.147930 
#    y 0.000000 4.291460 0.000000 
#    z 0.147930 0.000000 3.630920 
# 
# 
# High freq. dielectric constant tensor:
#      x y z
#    x 1.859970 0.000000 0.018050 
#    y 0.000000 1.868250 0.000000 
#    z 0.018050 0.000000 1.820330 
# 
# From -- ./inp_files/110056.got.cif
#   From: 2010.06.25/outbox.cif.g09.slc.cpg/sg15_56_cif.got.tgz:110056.got - 2010.06.28 07:06:18.
