data_PCOD8147985
_publ_section_title
;
Structure prediction by ZEFSAII (Michael W. Deem and Ramdas Pophale) SiO2 
 PCOD8147985
Probable space group: C 2/C
;
_chemical_formula_sum "Si O2"
_cell_formula_units_Z 48
_cell_length_a 21.036538
_cell_length_b 12.034628
_cell_length_c 8.498949
_cell_angle_alpha 90.000000
_cell_angle_beta 101.549728
_cell_angle_gamma 90.000000
_cell_volume 2108.084483
_symmetry_space_group_name_H-M "C 2/C"
_symmetry_group_IT_number 15
_symmetry_cell_setting 'monoclinic'
loop_
_space_group_symop_operation_xyz
x,y,z
-x,y,1/2-z
-x,-y,-z
x,-y,1/2+z
1/2+x,1/2+y,z
1/2-x,1/2+y,1/2-z
1/2-x,1/2-y,-z
1/2+x,1/2-y,1/2+z
loop_
_atom_site_type_symbol
_atom_site_label
_atom_site_fract_x
_atom_site_fract_y
_atom_site_fract_z
Si Si1 0.500000 0.431977 0.750000
Si Si2 0.646213 0.733163 0.846029
Si Si3 0.591500 0.084400 0.531353
Si Si4 0.293644 0.069793 0.287595
Si Si5 0.500000 0.039595 0.750000
Si Si6 0.295646 0.502056 0.508517
Si Si7 0.421335 0.600604 0.922611
O O1 0.454045 0.503207 0.839474
O O2 0.458570 0.361365 0.601513
O O3 0.691227 0.803802 0.751486
O O4 0.584948 0.701381 0.703879
O O5 0.623746 0.801252 0.988604
O O6 0.682759 0.624109 0.924097
O O7 0.550934 0.037130 0.366163
O O8 0.644962 0.994490 0.610095
O O9 0.542213 0.113895 0.649831
O O10 0.272022 0.007624 0.118832
O O11 0.227690 0.073532 0.357858
O O12 0.350791 0.441750 0.437520
#
# Coordination Sequence:
#
# PCOD8147985 Si02
#       7
#     4   8   8   8   4   8   8
#     4  10  22  47  75  98 154 176 242 308 348 422
#     4  12  25  44  76 104 142 197 234 287 387 419
#     4  11  23  45  73 106 143 191 237 300 355 429
#     4  12  24  44  73 104 143 183 240 301 354 431
#     4  10  22  47  73  98 150 182 238 308 344 422
#     4  12  24  46  71 104 144 181 242 301 354 432
#     4  11  23  46  73 106 139 195 233 301 356 432
#
# _framework density 22.769485
#
# number of rings (size 3 to 8) (size 9 to 14) (size 15 to 20)
#    0.000    0.667    6.667    0.500    0.000    1.333 
#    0.000    6.667    0.000    0.000    0.000    0.000 
#    0.000    0.000    0.000    0.000    0.000    0.000 
#
# Total GULP energy -297406.583646 kJ/mol
# GULP energy per Si atom -12391.940985 kJ/mol
# Density = 2.271766 g / cm^3
# Si number density = 22.769485 Si / 1000 Ang^3
#
#
#
# Elastic Constant Matrix: (Units=GPa)
#
#
# Indices 1 2 3 4 5 6 
#
# 1 105.4226 28.7774 43.9917 0.0000 -8.7523 0.0000
# 2 28.7774 54.2551 21.4126 0.0000 -12.3423 0.0000
# 3 43.9917 21.4126 131.5064 0.0000 8.1996 0.0000
# 4 0.0000 0.0000 0.0000 9.8532 0.0000 -12.1447
# 5 -8.7523 -12.3423 8.1996 0.0000 57.2114 0.0000
# 6 0.0000 0.0000 0.0000 -12.1447 0.0000 7.0666
#
#
#
# Elastic Compliance Matrix: (Units=1/GPa)
#
#
# Indices 1 2 3 4 5 6 
#
# 1 0.012361 -0.004906 -0.003419 0.000000 0.001323 0.000000
# 2 -0.004906 0.023014 -0.002390 0.000000 0.004557 0.000000
# 3 -0.003419 -0.002390 0.009285 0.000000 -0.002369 0.000000
# 4 0.000000 0.000000 0.000000 -0.090753 0.000000 -0.155969
# 5 0.001323 0.004557 -0.002369 0.000000 0.019004 0.000000
# 6 0.000000 0.000000 0.000000 -0.155969 0.000000 -0.126540
#
#
# Mechanical properties :
#
#
# Convention : Reuss Voigt Hill
#
# Bulk Modulus (GPa) = 43.04887 53.28307 48.16597
# Shear Modulus (GPa) = -40.17503 27.95973 -6.10765
#
# Velocity S-wave (km/s) = -4.20506 3.50801 -1.63958
# Velocity P-wave (km/s) = 2.15158 6.31348 4.19707
#
# Compressibility (1/GPa) = 0.02322941
#
# Stress axis : x y z
#
# Youngs Moduli (GPa) = 80.89734 43.45226 107.70396
#
# Poissons Ratio (x) = 0.21320 0.36821
# Poissons Ratio (y) = 0.39692 0.25742
# Poissons Ratio (z) = 0.27656 0.10385
#
# Static dielectric constant tensor:
#      x y z
#    x 4.340110 0.000000 0.061620 
#    y 0.000000 3.666240 0.000000 
#    z 0.061620 0.000000 4.823440 
# 
# 
# High freq. dielectric constant tensor:
#      x y z
#    x 1.917310 0.000000 -0.001120 
#    y 0.000000 1.859920 0.000000 
#    z -0.001120 0.000000 1.932010 
# 
# From -- ./inp_files/60696.got.cif
#   From: 2010.06.25/outbox.cif.g09.slc.cpg/sg15_31_cif.got.tgz:60696.got - 2010.06.28 07:06:18.
