data_PCOD8147746
_publ_section_title
;
Structure prediction by ZEFSAII (Michael W. Deem and Ramdas Pophale) SiO2 
 PCOD8147746
Probable space group: C 2/C
;
_chemical_formula_sum "Si O2"
_cell_formula_units_Z 56
_cell_length_a 27.878194
_cell_length_b 8.605370
_cell_length_c 19.902277
_cell_angle_alpha 90.000000
_cell_angle_beta 148.316012
_cell_angle_gamma 90.000000
_cell_volume 2507.781344
_symmetry_space_group_name_H-M "C 2/C"
_symmetry_group_IT_number 15
_symmetry_cell_setting 'monoclinic'
loop_
_space_group_symop_operation_xyz
x,y,z
-x,y,1/2-z
-x,-y,-z
x,-y,1/2+z
1/2+x,1/2+y,z
1/2-x,1/2+y,1/2-z
1/2-x,1/2-y,-z
1/2+x,1/2-y,1/2+z
loop_
_atom_site_type_symbol
_atom_site_label
_atom_site_fract_x
_atom_site_fract_y
_atom_site_fract_z
Si Si1 0.901403 0.575556 0.401176
Si Si2 0.914507 0.945924 0.064913
Si Si3 0.731673 0.921533 0.361122
Si Si4 0.597125 0.443444 0.094040
Si Si5 0.771903 0.579583 0.368584
Si Si6 0.859196 0.564408 0.608520
Si Si7 0.000000 0.316374 0.750000
Si Si8 0.000000 0.182547 0.250000
O O1 0.832891 0.529670 0.260493
O O2 0.910194 0.759279 0.417941
O O3 0.855094 0.526461 0.417741
O O4 0.000000 0.500000 0.500000
O O5 0.951705 0.779603 0.132770
O O6 0.992887 0.072538 0.175893
O O7 0.820311 0.982324 0.991216
O O8 0.884932 0.962104 0.952888
O O9 0.757174 0.766434 0.349368
O O10 0.684672 0.879308 0.374957
O O11 0.678178 0.493308 0.239499
O O12 0.500000 0.500000 0.000000
O O13 0.791129 0.520047 0.467069
O O14 0.927181 0.421374 0.702941
O O15 0.909851 0.716371 0.642378
#
# Coordination Sequence:
#
# PCOD8147746 Si02
#       8
#     8   8   8   8   8   8   4   4
#     4  12  27  47  74 108 149 195 247 303 371 443
#     4  11  24  47  69 104 148 195 244 305 368 439
#     4  12  26  45  74 107 147 194 254 304 374 444
#     4  12  28  45  74 105 145 196 246 304 374 439
#     4  12  25  50  74 108 150 192 245 308 370 443
#     4  11  26  44  74 109 143 197 247 307 373 437
#     4  10  28  44  72 104 152 192 246 310 370 442
#     4  10  22  44  72  98 148 186 250 292 370 440
#
# _framework density 22.330497000000001
#
# number of rings (size 3 to 8) (size 9 to 14) (size 15 to 20)
#    0.000    0.571    4.286    1.286   12.000    2.857 
#    0.000    0.000    0.000    0.000    0.000    0.000 
#    0.000    0.000    0.000    0.000    0.000    0.000 
#
# Total GULP energy -347097.713589 kJ/mol
# GULP energy per Si atom -12396.346914 kJ/mol
# Density = 2.227967 g / cm^3
# Si number density = 22.330497 Si / 1000 Ang^3
#
#
#
# Elastic Constant Matrix: (Units=GPa)
#
#
# Indices 1 2 3 4 5 6 
#
# 1 118.0803 25.8172 33.1913 0.0000 0.3415 0.0000
# 2 25.8172 85.8709 35.7682 0.0000 12.6723 0.0000
# 3 33.1913 35.7682 120.6030 0.0000 4.2551 0.0000
# 4 0.0000 0.0000 0.0000 43.2757 0.0000 -1.1178
# 5 0.3415 12.6723 4.2551 0.0000 41.3060 0.0000
# 6 0.0000 0.0000 0.0000 -1.1178 0.0000 26.3730
#
#
#
# Elastic Compliance Matrix: (Units=1/GPa)
#
#
# Indices 1 2 3 4 5 6 
#
# 1 0.009498 -0.002135 -0.002008 0.000000 0.000783 0.000000
# 2 -0.002135 0.014349 -0.003526 0.000000 -0.004021 0.000000
# 3 -0.002008 -0.003526 0.009887 0.000000 0.000080 0.000000
# 4 0.000000 0.000000 0.000000 0.023133 0.000000 0.000980
# 5 0.000783 -0.004021 0.000080 0.000000 0.025429 0.000000
# 6 0.000000 0.000000 0.000000 0.000980 0.000000 0.037959
#
#
# Mechanical properties :
#
#
# Convention : Reuss Voigt Hill
#
# Bulk Modulus (GPa) = 54.35993 57.12309 55.74151
# Shear Modulus (GPa) = 35.27927 37.50942 36.39435
#
# Velocity S-wave (km/s) = 3.97907 4.10291 4.04146
# Velocity P-wave (km/s) = 6.74588 6.93408 6.84063
#
# Compressibility (1/GPa) = 0.01839590
#
# Stress axis : x y z
#
# Youngs Moduli (GPa) = 105.28749 69.68905 101.13812
#
# Poissons Ratio (x) = 0.14875 0.20313
# Poissons Ratio (y) = 0.22474 0.35666
# Poissons Ratio (z) = 0.21147 0.24575
#
# Static dielectric constant tensor:
#      x y z
#    x 4.103380 0.000000 0.147620 
#    y 0.000000 4.008570 0.000000 
#    z 0.147620 0.000000 4.214380 
# 
# 
# High freq. dielectric constant tensor:
#      x y z
#    x 1.874580 0.000000 0.003350 
#    y 0.000000 1.884100 0.000000 
#    z 0.003350 0.000000 1.901940 
# 
# From -- ./inp_files/258984.got.cif
#   From: 2010.06.25/outbox.cif.g09.slc.cpg/sg15_130_cif.got.tgz:258984.got - 2010.06.28 07:06:18.
