data_PCOD8147990
_publ_section_title
;
Structure prediction by ZEFSAII (Michael W. Deem and Ramdas Pophale) SiO2 
 PCOD8147990
Probable space group: C 2/C
;
_chemical_formula_sum "Si O2"
_cell_formula_units_Z 32
_cell_length_a 14.227536
_cell_length_b 5.289158
_cell_length_c 18.714027
_cell_angle_alpha 90.000000
_cell_angle_beta 66.654252
_cell_angle_gamma 90.000000
_cell_volume 1292.968036
_symmetry_space_group_name_H-M "C 2/C"
_symmetry_group_IT_number 15
_symmetry_cell_setting 'monoclinic'
loop_
_space_group_symop_operation_xyz
x,y,z
-x,y,1/2-z
-x,-y,-z
x,-y,1/2+z
1/2+x,1/2+y,z
1/2-x,1/2+y,1/2-z
1/2-x,1/2-y,-z
1/2+x,1/2-y,1/2+z
loop_
_atom_site_type_symbol
_atom_site_label
_atom_site_fract_x
_atom_site_fract_y
_atom_site_fract_z
Si Si1 0.241442 0.577651 0.120970
Si Si2 0.409273 0.363267 0.988122
Si Si3 0.662022 0.918297 0.867775
Si Si4 0.024645 0.584770 0.664575
O O1 0.306107 0.535760 0.027253
O O2 0.267848 0.334150 0.164699
O O3 0.121667 0.602946 0.140010
O O4 0.271905 0.827286 0.155167
O O5 0.390085 0.100996 0.037534
O O6 0.500000 0.500000 0.000000
O O7 0.440678 0.315933 0.896993
O O8 0.572935 0.930483 0.835011
O O9 0.000000 0.697883 0.750000
#
# Coordination Sequence:
#
# PCOD8147990 Si02
#       4
#     8   8   8   8
#     4  10  25  44  76  98 138 188 240 279 352 418
#     4  10  22  47  75 101 141 190 239 287 346 429
#     4  10  24  46  72  97 141 183 237 283 342 421
#     4  12  25  44  71 107 143 183 236 299 358 414
#
# _framework density 24.749257
#
# number of rings (size 3 to 8) (size 9 to 14) (size 15 to 20)
#    1.500    0.000    2.500    1.500    0.000    7.000 
#    0.000    6.250    0.000    0.000    0.000    0.000 
#    0.000    0.000    0.000    0.000    0.000    0.000 
#
# Total GULP energy -198228.764506 kJ/mol
# GULP energy per Si atom -12389.297782 kJ/mol
# Density = 2.469293 g / cm^3
# Si number density = 24.749257 Si / 1000 Ang^3
#
#
#
# Elastic Constant Matrix: (Units=GPa)
#
#
# Indices 1 2 3 4 5 6 
#
# 1 182.5275 62.3590 21.7241 0.0002 26.6664 0.0006
# 2 62.3590 154.0195 16.2439 -0.0002 20.4038 0.0017
# 3 21.7241 16.2439 133.0920 0.0002 12.7684 0.0006
# 4 0.0002 -0.0002 0.0002 -4.7034 -0.0002 1.3609
# 5 26.6664 20.4038 12.7684 -0.0002 21.9579 0.0001
# 6 0.0006 0.0017 0.0006 1.3609 0.0001 19.9397
#
#
#
# Elastic Compliance Matrix: (Units=1/GPa)
#
#
# Indices 1 2 3 4 5 6 
#
# 1 0.007169 -0.001986 -0.000286 0.000001 -0.006695 0.000000
# 2 -0.001986 0.007962 -0.000179 0.000000 -0.004883 -0.000001
# 3 -0.000286 -0.000179 0.007978 0.000000 -0.004126 0.000000
# 4 0.000001 0.000000 0.000000 -0.208494 -0.000002 0.014230
# 5 -0.006695 -0.004883 -0.004126 -0.000002 0.060609 0.000001
# 6 0.000000 -0.000001 0.000000 0.014230 0.000001 0.049180
#
#
# Mechanical properties :
#
#
# Convention : Reuss Voigt Hill
#
# Bulk Modulus (GPa) = 54.91836 74.47698 64.69767
# Shear Modulus (GPa) = -77.36973 32.05964 -22.65505
#
# Velocity S-wave (km/s) = -5.59726 3.60304 -3.02881
# Velocity P-wave (km/s) = 4.41977 6.88964 3.73717
#
# Compressibility (1/GPa) = 0.01820885
#
# Stress axis : x y z
#
# Youngs Moduli (GPa) = 139.48744 125.59018 125.34636
#
# Poissons Ratio (x) = 0.24936 0.03579
# Poissons Ratio (y) = 0.27696 0.02247
# Poissons Ratio (z) = 0.03983 0.02251
#
# Static dielectric constant tensor:
#      x y z
#    x 4.694280 0.000000 -0.067500 
#    y 0.000000 4.282160 0.000000 
#    z -0.067500 0.000000 5.020890 
# 
# 
# High freq. dielectric constant tensor:
#      x y z
#    x 2.003160 0.000000 -0.002080 
#    y 0.000000 1.962400 0.000000 
#    z -0.002080 0.000000 1.961800 
# 
# From -- ./inp_files/201854.got.cif
#   From: 2010.06.25/outbox.cif.g09.slc.cpg/sg15_101_cif.got.tgz:201854.got - 2010.06.28 07:06:18.
