data_PCOD8147313
_publ_section_title
;
Structure prediction by ZEFSAII (Michael W. Deem and Ramdas Pophale) SiO2 
 PCOD8147313
Probable space group: C 2/C
;
_chemical_formula_sum "Si O2"
_cell_formula_units_Z 56
_cell_length_a 27.622839
_cell_length_b 10.114435
_cell_length_c 9.667613
_cell_angle_alpha 90.000000
_cell_angle_beta 106.972554
_cell_angle_gamma 90.000000
_cell_volume 2583.384571
_symmetry_space_group_name_H-M "C 2/C"
_symmetry_group_IT_number 15
_symmetry_cell_setting 'monoclinic'
loop_
_space_group_symop_operation_xyz
x,y,z
-x,y,1/2-z
-x,-y,-z
x,-y,1/2+z
1/2+x,1/2+y,z
1/2-x,1/2+y,1/2-z
1/2-x,1/2-y,-z
1/2+x,1/2-y,1/2+z
loop_
_atom_site_type_symbol
_atom_site_label
_atom_site_fract_x
_atom_site_fract_y
_atom_site_fract_z
Si Si1 0.111608 0.775167 0.462135
Si Si2 0.505045 0.367898 0.415737
Si Si3 0.260476 0.957936 0.800011
Si Si4 0.696417 0.469887 0.485109
Si Si5 0.086907 0.675723 0.153517
Si Si6 0.832749 0.264422 0.995188
Si Si7 0.639623 0.914060 0.214194
O O1 0.143941 0.893580 0.423192
O O2 0.097360 0.681453 0.324419
O O3 0.143098 0.697686 0.601809
O O4 0.061333 0.822583 0.497562
O O5 0.500000 0.404442 0.250000
O O6 0.500000 0.500000 0.500000
O O7 0.466826 0.247036 0.425137
O O8 0.218981 0.922625 0.650077
O O9 0.280422 0.830765 0.900683
O O10 0.234921 0.059337 0.889647
O O11 0.306610 0.015568 0.751487
O O12 0.682963 0.623676 0.459929
O O13 0.128606 0.753494 0.099394
O O14 0.093142 0.515852 0.137757
O O15 0.862822 0.351163 0.135093
#
# Coordination Sequence:
#
# PCOD8147313 Si02
#       7
#     8   8   8   8   8   8   8
#     4  11  25  42  67  97 128 172 224 273 335 404
#     4  10  23  44  70 101 136 170 220 276 337 394
#     4  11  24  39  60  92 130 176 223 269 327 396
#     4  12  24  39  63  92 130 177 218 275 331 397
#     4  10  22  43  67  93 130 173 213 278 334 392
#     4  11  23  42  62  94 134 171 227 274 330 399
#     4  11  24  43  64  92 134 172 223 276 326 401
#
# _framework density 21.676988000000001
#
# number of rings (size 3 to 8) (size 9 to 14) (size 15 to 20)
#    0.000    1.143    1.429    4.714    4.000    5.714 
#    0.000    1.429    0.000    0.000    0.000    0.000 
#    0.000    0.000    0.000    0.000    0.000    0.000 
#
# Total GULP energy -347096.306636 kJ/mol
# GULP energy per Si atom -12396.296666 kJ/mol
# Density = 2.162765 g / cm^3
# Si number density = 21.676988 Si / 1000 Ang^3
#
#
#
# Elastic Constant Matrix: (Units=GPa)
#
#
# Indices 1 2 3 4 5 6 
#
# 1 110.9389 37.6533 4.3173 0.0000 -6.4254 0.0000
# 2 37.6533 97.5145 12.4531 0.0000 2.3393 0.0000
# 3 4.3173 12.4531 55.5396 0.0000 -9.0241 0.0000
# 4 0.0000 0.0000 0.0000 28.8179 0.0000 -1.6395
# 5 -6.4254 2.3393 -9.0241 0.0000 32.1416 0.0000
# 6 0.0000 0.0000 0.0000 -1.6395 0.0000 37.0016
#
#
#
# Elastic Compliance Matrix: (Units=1/GPa)
#
#
# Indices 1 2 3 4 5 6 
#
# 1 0.010572 -0.004213 0.000541 0.000000 0.002572 0.000000
# 2 -0.004213 0.012306 -0.002844 0.000000 -0.002536 0.000000
# 3 0.000541 -0.002844 0.019544 0.000000 0.005802 0.000000
# 4 0.000000 0.000000 0.000000 0.034788 0.000000 0.001541
# 5 0.002572 -0.002536 0.005802 0.000000 0.033440 0.000000
# 6 0.000000 0.000000 0.000000 0.001541 0.000000 0.027094
#
#
# Mechanical properties :
#
#
# Convention : Reuss Voigt Hill
#
# Bulk Modulus (GPa) = 34.02631 41.42672 37.72652
# Shear Modulus (GPa) = 31.13879 33.56352 32.35115
#
# Velocity S-wave (km/s) = 3.79422 3.93917 3.86738
# Velocity P-wave (km/s) = 5.90981 6.31204 6.11423
#
# Compressibility (1/GPa) = 0.02938902
#
# Stress axis : x y z
#
# Youngs Moduli (GPa) = 94.59187 81.26395 51.16787
#
# Poissons Ratio (x) = 0.34235 -0.02767
# Poissons Ratio (y) = 0.39850 0.14551
# Poissons Ratio (z) = -0.05114 0.23110
#
# Static dielectric constant tensor:
#      x y z
#    x 4.099010 0.000000 -0.017560 
#    y 0.000000 3.897120 0.000000 
#    z -0.017560 0.000000 3.851500 
# 
# 
# High freq. dielectric constant tensor:
#      x y z
#    x 1.856280 0.000000 -0.014220 
#    y 0.000000 1.845790 0.000000 
#    z -0.014220 0.000000 1.856310 
# 
# From -- ./inp_files/65553.got.cif
#   From: 2010.06.25/outbox.cif.g09.slc.cpg/sg15_33_cif.got.tgz:65553.got - 2010.06.28 07:06:18.
