data_PCOD8147453
_publ_section_title
;
Structure prediction by ZEFSAII (Michael W. Deem and Ramdas Pophale) SiO2 
 PCOD8147453
Probable space group: C 2/C
;
_chemical_formula_sum "Si O2"
_cell_formula_units_Z 64
_cell_length_a 30.579497
_cell_length_b 11.089834
_cell_length_c 9.010449
_cell_angle_alpha 90.000000
_cell_angle_beta 91.061952
_cell_angle_gamma 90.000000
_cell_volume 3055.112554
_symmetry_space_group_name_H-M "C 2/C"
_symmetry_group_IT_number 15
_symmetry_cell_setting 'monoclinic'
loop_
_space_group_symop_operation_xyz
x,y,z
-x,y,1/2-z
-x,-y,-z
x,-y,1/2+z
1/2+x,1/2+y,z
1/2-x,1/2+y,1/2-z
1/2-x,1/2-y,-z
1/2+x,1/2-y,1/2+z
loop_
_atom_site_type_symbol
_atom_site_label
_atom_site_fract_x
_atom_site_fract_y
_atom_site_fract_z
Si Si1 0.894672 0.343406 0.473380
Si Si2 0.459485 0.645987 0.548924
Si Si3 0.725903 0.057331 0.294349
Si Si4 0.134611 0.439099 0.335684
Si Si5 0.641950 0.713773 0.545025
Si Si6 0.555221 0.409422 0.120674
Si Si7 0.715165 0.465536 0.961025
Si Si8 0.821566 0.780453 0.127825
O O1 0.940642 0.275622 0.500188
O O2 0.892916 0.392047 0.305896
O O3 0.891128 0.449253 0.594165
O O4 0.855522 0.247119 0.497153
O O5 0.448092 0.550271 0.419850
O O6 0.438241 0.600618 0.702086
O O7 0.511589 0.660845 0.567217
O O8 0.743628 0.083761 0.130706
O O9 0.717686 0.182715 0.380694
O O10 0.682519 0.976868 0.281753
O O11 0.765825 0.987770 0.374990
O O12 0.139016 0.339759 0.462185
O O13 0.595388 0.648320 0.535386
O O14 0.677215 0.632363 0.462687
O O15 0.654594 0.740095 0.714269
O O16 0.696188 0.586419 0.888548
#
# Coordination Sequence:
#
# PCOD8147453 Si02
#       8
#     8   8   8   8   8   8   8   8
#     4  11  23  45  70  97 133 181 222 275 344 400
#     4  10  22  43  74 101 142 172 218 279 343 412
#     4  11  24  42  60  88 127 173 230 282 342 394
#     4  11  26  43  69  94 134 183 226 279 335 404
#     4  12  25  41  65  96 133 175 227 280 339 404
#     4  10  23  42  70 107 136 174 218 280 346 405
#     4  12  25  38  63  94 126 173 230 283 340 403
#     4  11  23  42  62  89 131 171 225 286 337 404
#
# _framework density 20.948492000000002
#
# number of rings (size 3 to 8) (size 9 to 14) (size 15 to 20)
#    0.000    1.000    2.500    4.875    5.250    1.000 
#    0.000    0.625    0.000    0.000    0.000    0.000 
#    0.000    0.000    0.000    0.000    0.000    0.000 
#
# Total GULP energy -396991.203332 kJ/mol
# GULP energy per Si atom -12405.975104 kJ/mol
# Density = 2.090081 g / cm^3
# Si number density = 20.948492 Si / 1000 Ang^3
#
#
#
# Elastic Constant Matrix: (Units=GPa)
#
#
# Indices 1 2 3 4 5 6 
#
# 1 106.3550 50.7752 31.2931 0.0000 -3.0690 0.0000
# 2 50.7752 96.1490 32.0253 0.0000 9.5930 0.0000
# 3 31.2931 32.0253 92.4908 0.0000 13.3630 0.0000
# 4 0.0000 0.0000 0.0000 30.3653 0.0000 9.6479
# 5 -3.0690 9.5930 13.3630 0.0000 23.8163 0.0000
# 6 0.0000 0.0000 0.0000 9.6479 0.0000 33.7697
#
#
#
# Elastic Compliance Matrix: (Units=1/GPa)
#
#
# Indices 1 2 3 4 5 6 
#
# 1 0.013802 -0.006851 -0.003214 0.000000 0.006341 0.000000
# 2 -0.006851 0.015315 -0.002140 0.000000 -0.005851 0.000000
# 3 -0.003214 -0.002140 0.013685 0.000000 -0.007231 0.000000
# 4 0.000000 0.000000 0.000000 0.036220 0.000000 -0.010348
# 5 0.006341 -0.005851 -0.007231 0.000000 0.049219 0.000000
# 6 0.000000 0.000000 0.000000 -0.010348 0.000000 0.032569
#
#
# Mechanical properties :
#
#
# Convention : Reuss Voigt Hill
#
# Bulk Modulus (GPa) = 54.36822 58.13133 56.24978
# Shear Modulus (GPa) = 26.13038 29.65032 27.89035
#
# Velocity S-wave (km/s) = 3.53563 3.76625 3.65276
# Velocity P-wave (km/s) = 6.53278 6.83540 6.68581
#
# Compressibility (1/GPa) = 0.01839310
#
# Stress axis : x y z
#
# Youngs Moduli (GPa) = 72.45513 65.29660 73.07418
#
# Poissons Ratio (x) = 0.44733 0.23484
# Poissons Ratio (y) = 0.49637 0.15635
# Poissons Ratio (z) = 0.23285 0.13971
#
# Static dielectric constant tensor:
#      x y z
#    x 3.771090 0.000000 -0.070960 
#    y 0.000000 3.797540 0.000000 
#    z -0.070960 0.000000 3.808490 
# 
# 
# High freq. dielectric constant tensor:
#      x y z
#    x 1.815920 0.000000 -0.003450 
#    y 0.000000 1.822350 0.000000 
#    z -0.003450 0.000000 1.829200 
# 
# From -- ./inp_files/69389.got.cif
#   From: 2010.06.25/outbox.cif.g09.slc.cpg/sg15_35_cif.got.tgz:69389.got - 2010.06.28 07:06:18.
