data_PCOD8147377
_publ_section_title
;
Structure prediction by ZEFSAII (Michael W. Deem and Ramdas Pophale) SiO2 
 PCOD8147377
Probable space group: C 2/C
;
_chemical_formula_sum "Si O2"
_cell_formula_units_Z 64
_cell_length_a 27.850024
_cell_length_b 11.362250
_cell_length_c 15.212972
_cell_angle_alpha 90.000000
_cell_angle_beta 139.411325
_cell_angle_gamma 90.000000
_cell_volume 3132.089368
_symmetry_space_group_name_H-M "C 2/C"
_symmetry_group_IT_number 15
_symmetry_cell_setting 'monoclinic'
loop_
_space_group_symop_operation_xyz
x,y,z
-x,y,1/2-z
-x,-y,-z
x,-y,1/2+z
1/2+x,1/2+y,z
1/2-x,1/2+y,1/2-z
1/2-x,1/2-y,-z
1/2+x,1/2-y,1/2+z
loop_
_atom_site_type_symbol
_atom_site_label
_atom_site_fract_x
_atom_site_fract_y
_atom_site_fract_z
Si Si1 0.311917 0.752708 0.968480
Si Si2 0.085842 0.199792 0.882632
Si Si3 0.177232 0.998167 0.587080
Si Si4 0.909744 0.286231 0.793932
Si Si5 0.925058 0.350159 0.463280
Si Si6 0.351683 0.294271 0.710832
Si Si7 0.836820 0.412702 0.845310
Si Si8 0.084132 0.975799 0.130874
O O1 0.299312 0.617701 0.926517
O O2 0.232669 0.808610 0.877297
O O3 0.353600 0.823513 0.949082
O O4 0.360572 0.757209 0.124797
O O5 0.110183 0.288078 0.837557
O O6 0.000000 0.163777 0.750000
O O7 0.137120 0.084281 0.959026
O O8 0.100711 0.267057 0.993679
O O9 0.251119 0.943183 0.729762
O O10 0.122296 0.023023 0.589879
O O11 0.848898 0.351334 0.767601
O O12 0.909532 0.149233 0.815208
O O13 0.986502 0.353603 0.918833
O O14 0.895073 0.297244 0.331527
O O15 0.892030 0.478655 0.433782
O O16 0.384798 0.424844 0.761045
O O17 0.000000 0.000000 0.000000
#
# Coordination Sequence:
#
# PCOD8147377 Si02
#       8
#     8   8   8   8   8   8   8   8
#     4  11  24  41  63  99 133 171 220 272 324 395
#     4  10  22  43  69  96 128 170 221 275 326 381
#     4  12  23  42  67  95 134 170 216 277 330 380
#     4  11  24  42  67  98 128 168 223 266 323 394
#     4  11  22  44  67  91 135 177 208 269 330 385
#     4  11  22  42  66  95 133 172 215 270 336 380
#     4  12  25  42  66  96 134 176 216 265 330 397
#     4  12  21  39  70  93 125 170 214 269 330 384
#
# _framework density 20.433644999999999
#
# number of rings (size 3 to 8) (size 9 to 14) (size 15 to 20)
#    0.000    0.750    6.250    1.875    0.000    1.500 
#    0.000    3.125    0.000    0.000    0.000    0.000 
#    0.000    0.000    0.000    0.000    0.000    0.000 
#
# Total GULP energy -396897.462642 kJ/mol
# GULP energy per Si atom -12403.045708 kJ/mol
# Density = 2.038714 g / cm^3
# Si number density = 20.433645 Si / 1000 Ang^3
#
#
#
# Elastic Constant Matrix: (Units=GPa)
#
#
# Indices 1 2 3 4 5 6 
#
# 1 106.2592 26.3640 46.7711 0.0000 -3.6533 0.0000
# 2 26.3640 109.9041 42.1263 0.0000 4.1019 0.0000
# 3 46.7711 42.1263 104.8734 0.0000 -16.2415 0.0000
# 4 0.0000 0.0000 0.0000 30.8835 0.0000 3.3062
# 5 -3.6533 4.1019 -16.2415 0.0000 31.2111 0.0000
# 6 0.0000 0.0000 0.0000 3.3062 0.0000 28.1603
#
#
#
# Elastic Compliance Matrix: (Units=1/GPa)
#
#
# Indices 1 2 3 4 5 6 
#
# 1 0.011832 -0.000830 -0.005125 0.000000 -0.001173 0.000000
# 2 -0.000830 0.011288 -0.004795 0.000000 -0.004076 0.000000
# 3 -0.005125 -0.004795 0.014957 0.000000 0.007814 0.000000
# 4 0.000000 0.000000 0.000000 0.032792 0.000000 -0.003850
# 5 -0.001173 -0.004076 0.007814 0.000000 0.036504 0.000000
# 6 0.000000 0.000000 0.000000 -0.003850 0.000000 0.035963
#
#
# Mechanical properties :
#
#
# Convention : Reuss Voigt Hill
#
# Bulk Modulus (GPa) = 60.32586 61.28440 60.80513
# Shear Modulus (GPa) = 29.34890 31.76935 30.55913
#
# Velocity S-wave (km/s) = 3.79397 3.94732 3.87140
# Velocity P-wave (km/s) = 6.98421 7.12966 7.05731
#
# Compressibility (1/GPa) = 0.01657664
#
# Stress axis : x y z
#
# Youngs Moduli (GPa) = 84.51301 88.58833 66.85675
#
# Poissons Ratio (x) = 0.07354 0.34265
# Poissons Ratio (y) = 0.07016 0.32060
# Poissons Ratio (z) = 0.43315 0.42481
#
# Static dielectric constant tensor:
#      x y z
#    x 3.957540 0.000000 -0.152320 
#    y 0.000000 3.753380 0.000000 
#    z -0.152320 0.000000 3.730600 
# 
# 
# High freq. dielectric constant tensor:
#      x y z
#    x 1.808520 0.000000 -0.008660 
#    y 0.000000 1.803130 0.000000 
#    z -0.008660 0.000000 1.799660 
# 
# From -- ./inp_files/167653.got.cif
#   From: 2010.06.25/outbox.cif.g09.slc.cpg/sg15_84_cif.got.tgz:167653.got - 2010.06.28 07:06:18.
