data_PCOD8147141
_publ_section_title
;
Structure prediction by ZEFSAII (Michael W. Deem and Ramdas Pophale) SiO2 
 PCOD8147141
Probable space group: C 2/C
;
_chemical_formula_sum "Si O2"
_cell_formula_units_Z 52
_cell_length_a 10.150232
_cell_length_b 21.087401
_cell_length_c 11.480836
_cell_angle_alpha 90.000000
_cell_angle_beta 66.160536
_cell_angle_gamma 90.000000
_cell_volume 2247.721156
_symmetry_space_group_name_H-M "C 2/C"
_symmetry_group_IT_number 15
_symmetry_cell_setting 'monoclinic'
loop_
_space_group_symop_operation_xyz
x,y,z
-x,y,1/2-z
-x,-y,-z
x,-y,1/2+z
1/2+x,1/2+y,z
1/2-x,1/2+y,1/2-z
1/2-x,1/2-y,-z
1/2+x,1/2-y,1/2+z
loop_
_atom_site_type_symbol
_atom_site_label
_atom_site_fract_x
_atom_site_fract_y
_atom_site_fract_z
Si Si1 0.500000 0.956123 0.250000
Si Si2 0.848195 0.288060 0.052431
Si Si3 0.058125 0.070304 0.980715
Si Si4 0.186151 0.475756 0.976564
Si Si5 0.424747 0.874562 0.655799
Si Si6 0.756403 0.092461 0.798533
Si Si7 0.394582 0.669496 0.179703
O O1 0.410890 0.997349 0.377311
O O2 0.390653 0.910600 0.221873
O O3 0.739075 0.338972 0.145622
O O4 0.911940 0.240854 0.126726
O O5 0.750000 0.250000 0.000000
O O6 0.981545 0.322209 0.943255
O O7 0.191832 0.072893 0.022840
O O8 0.936905 0.119385 0.064149
O O9 0.104334 0.087110 0.832957
O O10 0.000000 0.000000 0.000000
O O11 0.089048 0.438972 0.915828
O O12 0.259800 0.537644 0.895279
O O13 0.500000 0.893748 0.750000
O O14 0.269621 0.843666 0.729504
O O15 0.500000 0.660277 0.250000
#
# Coordination Sequence:
#
# PCOD8147141 Si02
#       7
#     4   8   8   8   8   8   8
#     4  10  22  42  72 114 146 184 246 312 394 448
#     4  12  29  49  71 112 150 207 255 313 393 469
#     4  11  27  48  77 111 150 202 258 324 396 459
#     4  11  24  47  76 115 149 194 254 318 398 458
#     4  12  26  48  78 110 157 200 255 323 389 462
#     4  11  26  45  74 108 154 191 248 317 387 463
#     4  12  28  50  76 107 154 202 264 317 383 465
#
# _framework density 23.134543000000001
#
# number of rings (size 3 to 8) (size 9 to 14) (size 15 to 20)
#    0.000    0.615    4.615    1.385    6.462    1.846 
#    0.000    0.000    0.000    0.000    0.000    0.000 
#    0.000    0.000    0.000    0.000    0.000    0.000 
#
# Total GULP energy -322509.680219 kJ/mol
# GULP energy per Si atom -12404.218470 kJ/mol
# Density = 2.308189 g / cm^3
# Si number density = 23.134543 Si / 1000 Ang^3
#
#
#
# Elastic Constant Matrix: (Units=GPa)
#
#
# Indices 1 2 3 4 5 6 
#
# 1 79.0366 23.5998 47.5746 0.0000 -4.0971 0.0000
# 2 23.5998 162.5952 92.1404 0.0000 -7.8467 0.0000
# 3 47.5746 92.1404 190.8784 0.0000 -15.2088 0.0000
# 4 0.0000 0.0000 0.0000 22.8357 0.0000 7.8179
# 5 -4.0971 -7.8467 -15.2088 0.0000 42.5103 0.0000
# 6 0.0000 0.0000 0.0000 7.8179 0.0000 26.5339
#
#
#
# Elastic Compliance Matrix: (Units=1/GPa)
#
#
# Indices 1 2 3 4 5 6 
#
# 1 0.014887 -0.000080 -0.003663 0.000000 0.000109 0.000000
# 2 -0.000080 0.008467 -0.004059 0.000000 0.000103 0.000000
# 3 -0.003663 -0.004059 0.008259 0.000000 0.001852 0.000000
# 4 0.000000 0.000000 0.000000 0.048704 0.000000 -0.014350
# 5 0.000109 0.000103 0.001852 0.000000 0.024216 0.000000
# 6 0.000000 0.000000 0.000000 -0.014350 0.000000 0.041916
#
#
# Mechanical properties :
#
#
# Convention : Reuss Voigt Hill
#
# Bulk Modulus (GPa) = 62.46513 84.34888 73.40700
# Shear Modulus (GPa) = 29.87058 36.32235 33.09646
#
# Velocity S-wave (km/s) = 3.59718 3.96668 3.78644
# Velocity P-wave (km/s) = 6.65675 7.58411 7.13551
#
# Compressibility (1/GPa) = 0.01600893
#
# Stress axis : x y z
#
# Youngs Moduli (GPa) = 67.17338 118.10531 121.07989
#
# Poissons Ratio (x) = 0.00939 0.44355
# Poissons Ratio (y) = 0.00534 0.49148
# Poissons Ratio (z) = 0.24608 0.47941
#
# Static dielectric constant tensor:
#      x y z
#    x 4.434330 0.000000 0.090760 
#    y 0.000000 4.326710 0.000000 
#    z 0.090760 0.000000 4.564690 
# 
# 
# High freq. dielectric constant tensor:
#      x y z
#    x 1.929990 0.000000 0.002700 
#    y 0.000000 1.909090 0.000000 
#    z 0.002700 0.000000 1.935110 
# 
# From -- ./inp_files/89502.got.cif
#   From: 2010.06.25/outbox.cif.g09.slc.cpg/sg15_45_cif.got.tgz:89502.got - 2010.06.28 07:06:18.
