data_PCOD8147860
_publ_section_title
;
Structure prediction by ZEFSAII (Michael W. Deem and Ramdas Pophale) SiO2 
 PCOD8147860
Probable space group: C 2/C
;
_chemical_formula_sum "Si O2"
_cell_formula_units_Z 40
_cell_length_a 10.107639
_cell_length_b 9.733502
_cell_length_c 23.971720
_cell_angle_alpha 90.000000
_cell_angle_beta 137.523305
_cell_angle_gamma 90.000000
_cell_volume 1592.606670
_symmetry_space_group_name_H-M "C 2/C"
_symmetry_group_IT_number 15
_symmetry_cell_setting 'monoclinic'
loop_
_space_group_symop_operation_xyz
x,y,z
-x,y,1/2-z
-x,-y,-z
x,-y,1/2+z
1/2+x,1/2+y,z
1/2-x,1/2+y,1/2-z
1/2-x,1/2-y,-z
1/2+x,1/2-y,1/2+z
loop_
_atom_site_type_symbol
_atom_site_label
_atom_site_fract_x
_atom_site_fract_y
_atom_site_fract_z
Si Si1 0.840596 0.915013 0.749254
Si Si2 0.947363 0.209467 0.888580
Si Si3 0.583602 0.842109 0.155099
Si Si4 0.703328 0.217155 0.572317
Si Si5 0.278287 0.513972 0.909279
O O1 0.646836 0.843969 0.665711
O O2 0.914533 0.816950 0.823111
O O3 0.000000 0.928472 0.750000
O O4 0.756982 0.068071 0.740136
O O5 0.113875 0.139490 0.900638
O O6 0.786371 0.092069 0.852148
O O7 0.035038 0.260958 0.974822
O O8 0.621975 0.859805 0.100957
O O9 0.365855 0.901111 0.095391
O O10 0.801079 0.360761 0.623218
O O11 0.500000 0.500000 0.000000
#
# Coordination Sequence:
#
# PCOD8147860 Si02
#       5
#     8   8   8   8   8
#     4  12  28  46  68 107 147 190 237 298 363 436
#     4  10  22  47  69 103 144 178 234 301 355 421
#     4  12  28  46  73 106 143 196 242 293 368 433
#     4  10  24  45  74 103 139 185 240 300 357 421
#     4  10  22  45  72 105 139 183 236 300 360 414
#
# _framework density 25.116057000000001
#
# number of rings (size 3 to 8) (size 9 to 14) (size 15 to 20)
#    0.000    1.200    4.000    0.000    5.600    4.000 
#    0.000    0.000    0.000    0.000    0.000    0.000 
#    0.000    0.000    0.000    0.000    0.000    0.000 
#
# Total GULP energy -247811.499531 kJ/mol
# GULP energy per Si atom -12390.574977 kJ/mol
# Density = 2.505889 g / cm^3
# Si number density = 25.116057 Si / 1000 Ang^3
#
#
#
# Elastic Constant Matrix: (Units=GPa)
#
#
# Indices 1 2 3 4 5 6 
#
# 1 199.5784 26.3737 42.2780 0.0000 7.6421 0.0000
# 2 26.3737 59.5107 -17.0455 0.0000 9.8545 0.0000
# 3 42.2780 -17.0455 50.4514 0.0000 4.8024 0.0000
# 4 0.0000 0.0000 0.0000 10.0608 0.0000 5.3301
# 5 7.6421 9.8545 4.8024 0.0000 36.0980 0.0000
# 6 0.0000 0.0000 0.0000 5.3301 0.0000 38.8367
#
#
#
# Elastic Compliance Matrix: (Units=1/GPa)
#
#
# Indices 1 2 3 4 5 6 
#
# 1 0.007540 -0.005949 -0.008438 0.000000 0.001150 0.000000
# 2 -0.005949 0.024671 0.014019 0.000000 -0.007341 0.000000
# 3 -0.008438 0.014019 0.032231 0.000000 -0.006329 0.000000
# 4 0.000000 0.000000 0.000000 0.107190 0.000000 -0.014711
# 5 0.001150 -0.007341 -0.006329 0.000000 0.030305 0.000000
# 6 0.000000 0.000000 0.000000 -0.014711 0.000000 0.027768
#
#
# Mechanical properties :
#
#
# Convention : Reuss Voigt Hill
#
# Bulk Modulus (GPa) = 15.69681 45.86144 30.77913
# Shear Modulus (GPa) = 19.86683 34.19470 27.03077
#
# Velocity S-wave (km/s) = 2.81553 3.69381 3.28416
# Velocity P-wave (km/s) = 4.10279 6.04084 5.16356
#
# Compressibility (1/GPa) = 0.06370720
#
# Stress axis : x y z
#
# Youngs Moduli (GPa) = 132.62377 40.53308 31.02597
#
# Poissons Ratio (x) = 0.24113 0.26180
# Poissons Ratio (y) = 0.78897 -0.43496
# Poissons Ratio (z) = 1.11908 -0.56825
#
# Static dielectric constant tensor:
#      x y z
#    x 5.233850 0.000000 0.005350 
#    y 0.000000 5.366600 0.000000 
#    z 0.005350 0.000000 4.142950 
# 
# 
# High freq. dielectric constant tensor:
#      x y z
#    x 2.025370 0.000000 0.008370 
#    y 0.000000 2.001970 0.000000 
#    z 0.008370 0.000000 1.982370 
# 
# From -- ./inp_files/230009.got.cif
#   From: 2010.06.25/outbox.cif.g09.slc.cpg/sg15_116_cif.got.tgz:230009.got - 2010.06.28 07:06:18.
