data_PCOD8147757
_publ_section_title
;
Structure prediction by ZEFSAII (Michael W. Deem and Ramdas Pophale) SiO2 
 PCOD8147757
Probable space group: C 2/C
;
_chemical_formula_sum "Si O2"
_cell_formula_units_Z 28
_cell_length_a 11.159720
_cell_length_b 14.840061
_cell_length_c 7.140011
_cell_angle_alpha 90.000000
_cell_angle_beta 101.243539
_cell_angle_gamma 90.000000
_cell_volume 1159.769125
_symmetry_space_group_name_H-M "C 2/C"
_symmetry_group_IT_number 15
_symmetry_cell_setting 'monoclinic'
loop_
_space_group_symop_operation_xyz
x,y,z
-x,y,1/2-z
-x,-y,-z
x,-y,1/2+z
1/2+x,1/2+y,z
1/2-x,1/2+y,1/2-z
1/2-x,1/2-y,-z
1/2+x,1/2-y,1/2+z
loop_
_atom_site_type_symbol
_atom_site_label
_atom_site_fract_x
_atom_site_fract_y
_atom_site_fract_z
Si Si1 0.586166 0.380928 0.994443
Si Si2 0.566014 0.909121 0.955526
Si Si3 0.838821 0.068706 0.588331
Si Si4 0.000000 0.726145 0.750000
O O1 0.666145 0.385238 0.207788
O O2 0.440888 0.382607 0.994878
O O3 0.623198 0.464150 0.871948
O O4 0.603277 0.288278 0.883981
O O5 0.500000 0.871348 0.750000
O O6 0.707415 0.926740 0.949062
O O7 0.565170 0.835445 0.117000
O O8 0.500000 0.000000 0.000000
#
# Coordination Sequence:
#
# PCOD8147757 Si02
#       4
#     8   8   8   4
#     4  10  22  44  74 109 135 180 244 299 342 407
#     4  12  27  50  70 100 148 196 226 282 367 432
#     4  10  22  46  75 102 145 187 230 291 363 413
#     4  12  28  46  68 114 140 180 248 288 346 418
#
# _framework density 24.142738000000001
#
# number of rings (size 3 to 8) (size 9 to 14) (size 15 to 20)
#    0.000    1.143    1.429    5.143    4.000    2.286 
#    0.000    0.000    0.000    0.000    0.000    0.000 
#    0.000    0.000    0.000    0.000    0.000    0.000 
#
# Total GULP energy -173599.078774 kJ/mol
# GULP energy per Si atom -12399.934198 kJ/mol
# Density = 2.408779 g / cm^3
# Si number density = 24.142738 Si / 1000 Ang^3
#
#
#
# Elastic Constant Matrix: (Units=GPa)
#
#
# Indices 1 2 3 4 5 6 
#
# 1 123.1570 31.7280 59.0941 0.0000 32.3144 0.0000
# 2 31.7280 142.3593 54.2880 0.0000 -8.1593 0.0000
# 3 59.0941 54.2880 157.5961 0.0000 14.4180 0.0000
# 4 0.0000 0.0000 0.0000 47.7268 0.0000 -9.9753
# 5 32.3144 -8.1593 14.4180 0.0000 38.7339 0.0000
# 6 0.0000 0.0000 0.0000 -9.9753 0.0000 7.3309
#
#
#
# Elastic Compliance Matrix: (Units=1/GPa)
#
#
# Indices 1 2 3 4 5 6 
#
# 1 0.012819 -0.002241 -0.003120 0.000000 -0.010005 0.000000
# 2 -0.002241 0.008791 -0.002618 0.000000 0.004696 0.000000
# 3 -0.003120 -0.002618 0.008519 0.000000 -0.001120 0.000000
# 4 0.000000 0.000000 0.000000 0.029280 0.000000 0.039842
# 5 -0.010005 0.004696 -0.001120 0.000000 0.035571 0.000000
# 6 0.000000 0.000000 0.000000 0.039842 0.000000 0.190623
#
#
# Mechanical properties :
#
#
# Convention : Reuss Voigt Hill
#
# Bulk Modulus (GPa) = 70.55441 79.25918 74.90680
# Shear Modulus (GPa) = 16.32474 37.29180 26.80827
#
# Velocity S-wave (km/s) = 2.60316 3.93445 3.33589
# Velocity P-wave (km/s) = 6.19052 7.31714 6.77728
#
# Compressibility (1/GPa) = 0.01417346
#
# Stress axis : x y z
#
# Youngs Moduli (GPa) = 78.00855 113.74874 117.38092
#
# Poissons Ratio (x) = 0.25490 0.36617
# Poissons Ratio (y) = 0.17481 0.30727
# Poissons Ratio (z) = 0.24335 0.29776
#
# Static dielectric constant tensor:
#      x y z
#    x 4.058860 0.000000 -0.028870 
#    y 0.000000 4.360460 0.000000 
#    z -0.028870 0.000000 4.564930 
# 
# 
# High freq. dielectric constant tensor:
#      x y z
#    x 1.938290 0.000000 -0.003030 
#    y 0.000000 1.949080 0.000000 
#    z -0.003030 0.000000 1.981650 
# 
# From -- ./inp_files/27742.got.cif
#   From: 2010.06.25/outbox.cif.g09.slc.cpg/sg15_14_cif.got.tgz:27742.got - 2010.06.28 07:06:18.
