data_PCOD8147593
_publ_section_title
;
Structure prediction by ZEFSAII (Michael W. Deem and Ramdas Pophale) SiO2 
 PCOD8147593
Probable space group: C 2/C
;
_chemical_formula_sum "Si O2"
_cell_formula_units_Z 64
_cell_length_a 11.650086
_cell_length_b 17.316391
_cell_length_c 14.365143
_cell_angle_alpha 90.000000
_cell_angle_beta 88.602850
_cell_angle_gamma 90.000000
_cell_volume 2897.125676
_symmetry_space_group_name_H-M "C 2/C"
_symmetry_group_IT_number 15
_symmetry_cell_setting 'monoclinic'
loop_
_space_group_symop_operation_xyz
x,y,z
-x,y,1/2-z
-x,-y,-z
x,-y,1/2+z
1/2+x,1/2+y,z
1/2-x,1/2+y,1/2-z
1/2-x,1/2-y,-z
1/2+x,1/2-y,1/2+z
loop_
_atom_site_type_symbol
_atom_site_label
_atom_site_fract_x
_atom_site_fract_y
_atom_site_fract_z
Si Si1 0.384415 0.238220 0.504109
Si Si2 0.103228 0.962178 0.556110
Si Si3 0.533737 0.346827 0.846590
Si Si4 0.185803 0.969893 0.751482
Si Si5 0.607038 0.870101 0.805458
Si Si6 0.947479 0.202097 0.659194
Si Si7 0.751749 0.911553 0.104532
Si Si8 0.531855 0.090028 0.505010
O O1 0.250000 0.250000 0.500000
O O2 0.400505 0.281275 0.600938
O O3 0.452743 0.278452 0.417738
O O4 0.421579 0.147721 0.512489
O O5 0.135700 0.003350 0.654133
O O6 0.212380 0.963052 0.485590
O O7 0.072737 0.873881 0.586651
O O8 0.000000 0.000000 0.500000
O O9 0.500000 0.307142 0.750000
O O10 0.593931 0.429710 0.821746
O O11 0.276043 0.901435 0.737649
O O12 0.245929 0.041476 0.799918
O O13 0.500000 0.905245 0.750000
O O14 0.609862 0.778100 0.795836
O O15 0.602804 0.893194 0.911892
O O16 0.844538 0.156823 0.611163
O O17 0.000000 0.157882 0.750000
O O18 0.618785 0.888306 0.088568
O O19 0.500000 0.000000 0.500000
#
# Coordination Sequence:
#
# PCOD8147593 Si02
#       8
#     8   8   8   8   8   8   8   8
#     4  11  26  47  76 104 139 189 237 300 360 432
#     4  11  22  40  63 102 141 182 231 289 347 423
#     4  10  23  40  66  99 139 178 232 291 353 420
#     4  11  24  40  69 100 135 188 227 287 363 415
#     4  10  22  44  67  93 134 182 231 279 350 429
#     4  10  25  44  71 106 140 182 234 291 353 426
#     4  12  24  42  73 100 143 183 233 301 345 425
#     4  11  26  48  70 102 138 186 240 291 362 428
#
# _framework density 22.090859999999999
#
# number of rings (size 3 to 8) (size 9 to 14) (size 15 to 20)
#    0.000    1.250    3.750    0.750    8.750    4.000 
#    2.250    0.625    0.000    0.000    0.000    0.000 
#    0.000    0.000    0.000    0.000    0.000    0.000 
#
# Total GULP energy -396492.220732 kJ/mol
# GULP energy per Si atom -12390.381898 kJ/mol
# Density = 2.204058 g / cm^3
# Si number density = 22.090860 Si / 1000 Ang^3
#
#
#
# Elastic Constant Matrix: (Units=GPa)
#
#
# Indices 1 2 3 4 5 6 
#
# 1 132.3976 49.6140 49.7355 0.0000 22.0677 0.0000
# 2 49.6140 83.4076 48.9368 0.0000 13.0775 0.0000
# 3 49.7355 48.9368 137.6837 0.0000 29.2088 0.0000
# 4 0.0000 0.0000 0.0000 36.6055 0.0000 6.3820
# 5 22.0677 13.0775 29.2088 0.0000 39.9183 0.0000
# 6 0.0000 0.0000 0.0000 6.3820 0.0000 35.7428
#
#
#
# Elastic Compliance Matrix: (Units=1/GPa)
#
#
# Indices 1 2 3 4 5 6 
#
# 1 0.010430 -0.004916 -0.001348 0.000000 -0.003169 0.000000
# 2 -0.004916 0.017515 -0.004509 0.000000 0.000279 0.000000
# 3 -0.001348 -0.004509 0.010513 0.000000 -0.005470 0.000000
# 4 0.000000 0.000000 0.000000 0.028196 0.000000 -0.005034
# 5 -0.003169 0.000279 -0.005470 0.000000 0.030714 0.000000
# 6 0.000000 0.000000 0.000000 -0.005034 0.000000 0.028877
#
#
# Mechanical properties :
#
#
# Convention : Reuss Voigt Hill
#
# Bulk Modulus (GPa) = 59.12863 72.22904 65.67884
# Shear Modulus (GPa) = 32.58849 36.13351 34.36100
#
# Velocity S-wave (km/s) = 3.84500 4.04874 3.94818
# Velocity P-wave (km/s) = 6.82175 7.39078 7.11196
#
# Compressibility (1/GPa) = 0.01691228
#
# Stress axis : x y z
#
# Youngs Moduli (GPa) = 95.87835 57.09267 95.12116
#
# Poissons Ratio (x) = 0.28069 0.12821
# Poissons Ratio (y) = 0.47138 0.42887
# Poissons Ratio (z) = 0.12923 0.25741
#
# Static dielectric constant tensor:
#      x y z
#    x 3.852510 0.000000 0.020930 
#    y 0.000000 3.898880 0.000000 
#    z 0.020930 0.000000 4.055030 
# 
# 
# High freq. dielectric constant tensor:
#      x y z
#    x 1.869780 0.000000 0.013430 
#    y 0.000000 1.845670 0.000000 
#    z 0.013430 0.000000 1.892230 
# 
# From -- ./inp_files/146090.got.cif
#   From: 2010.06.25/outbox.cif.g09.slc.cpg/sg15_74_cif.got.tgz:146090.got - 2010.06.28 07:06:18.
