data_PCOD8147836
_publ_section_title
;
Structure prediction by ZEFSAII (Michael W. Deem and Ramdas Pophale) SiO2 
 PCOD8147836
Probable space group: C 2/C
;
_chemical_formula_sum "Si O2"
_cell_formula_units_Z 48
_cell_length_a 16.129858
_cell_length_b 16.130758
_cell_length_c 16.274626
_cell_angle_alpha 90.000000
_cell_angle_beta 34.781541
_cell_angle_gamma 90.000000
_cell_volume 2415.533979
_symmetry_space_group_name_H-M "C 2/C"
_symmetry_group_IT_number 15
_symmetry_cell_setting 'monoclinic'
loop_
_space_group_symop_operation_xyz
x,y,z
-x,y,1/2-z
-x,-y,-z
x,-y,1/2+z
1/2+x,1/2+y,z
1/2-x,1/2+y,1/2-z
1/2-x,1/2-y,-z
1/2+x,1/2-y,1/2+z
loop_
_atom_site_type_symbol
_atom_site_label
_atom_site_fract_x
_atom_site_fract_y
_atom_site_fract_z
Si Si1 0.583945 0.687497 0.061045
Si Si2 0.091885 0.921612 0.399057
Si Si3 0.617806 0.864225 0.592132
Si Si4 0.655636 0.988532 0.413141
Si Si5 0.219451 0.840990 0.621102
Si Si6 0.427263 0.678836 0.894626
O O1 0.409980 0.694299 0.215682
O O2 0.658379 0.645059 0.079393
O O3 0.627484 0.630646 0.950139
O O4 0.645156 0.778683 0.993164
O O5 0.243970 0.949456 0.238072
O O6 0.004603 0.865849 0.406251
O O7 0.000000 0.000000 0.500000
O O8 0.500000 0.903164 0.750000
O O9 0.647251 0.927195 0.495979
O O10 0.558668 0.777547 0.603133
O O11 0.760422 0.848238 0.530153
O O12 0.500000 0.000000 0.500000
O O13 0.723758 0.073935 0.388213
O O14 0.500000 0.651150 0.750000
#
# Coordination Sequence:
#
# PCOD8147836 Si02
#       6
#     8   8   8   8   8   8
#     4  10  24  45  72  97 130 180 227 273 334 397
#     4  12  26  42  71  98 131 180 228 270 332 405
#     4  10  24  43  68  99 131 175 214 277 339 398
#     4  12  28  43  64 105 137 171 224 287 331 390
#     4  10  24  47  69  96 134 177 226 276 335 393
#     4  10  22  45  70  95 132 178 225 264 337 404
#
# _framework density 19.871382000000001
#
# number of rings (size 3 to 8) (size 9 to 14) (size 15 to 20)
#    0.000    1.333    3.333    0.000    9.333    0.000 
#    3.000    0.000    0.000    0.000    0.000    0.000 
#    0.000    0.000    0.000    0.000    0.000    0.000 
#
# Total GULP energy -297711.314240 kJ/mol
# GULP energy per Si atom -12404.638093 kJ/mol
# Density = 1.982615 g / cm^3
# Si number density = 19.871382 Si / 1000 Ang^3
#
#
#
# Elastic Constant Matrix: (Units=GPa)
#
#
# Indices 1 2 3 4 5 6 
#
# 1 96.7363 69.9255 63.7190 -0.0005 3.8879 0.0002
# 2 69.9255 113.0427 69.3351 -0.0015 7.2088 0.0006
# 3 63.7190 69.3351 178.6865 -0.0027 5.8534 0.0012
# 4 -0.0005 -0.0015 -0.0027 31.8673 0.0011 2.9907
# 5 3.8879 7.2088 5.8534 0.0011 34.5199 -0.0004
# 6 0.0002 0.0006 0.0012 2.9907 -0.0004 26.4769
#
#
#
# Elastic Compliance Matrix: (Units=1/GPa)
#
#
# Indices 1 2 3 4 5 6 
#
# 1 0.019890 -0.010464 -0.003048 0.000000 0.000462 0.000000
# 2 -0.010464 0.017210 -0.002884 0.000000 -0.001927 0.000000
# 3 -0.003048 -0.002884 0.007815 0.000001 -0.000380 0.000000
# 4 0.000000 0.000000 0.000001 0.031716 -0.000001 -0.003582
# 5 0.000462 -0.001927 -0.000380 -0.000001 0.029384 0.000001
# 6 0.000000 0.000000 0.000000 -0.003582 0.000001 0.038173
#
#
# Mechanical properties :
#
#
# Convention : Reuss Voigt Hill
#
# Bulk Modulus (GPa) = 82.47456 88.26941 85.37198
# Shear Modulus (GPa) = 27.62140 30.93856 29.27998
#
# Velocity S-wave (km/s) = 3.73233 3.95009 3.84275
# Velocity P-wave (km/s) = 7.75680 8.08215 7.92114
#
# Compressibility (1/GPa) = 0.01212495
#
# Stress axis : x y z
#
# Youngs Moduli (GPa) = 50.27711 58.10490 127.96650
#
# Poissons Ratio (x) = 0.60798 0.38999
# Poissons Ratio (y) = 0.52607 0.36901
# Poissons Ratio (z) = 0.15323 0.16756
#
# Static dielectric constant tensor:
#      x y z
#    x 4.549670 0.000000 -0.648030 
#    y 0.000000 3.525700 -0.000030 
#    z -0.648030 -0.000030 4.218850 
# 
# 
# High freq. dielectric constant tensor:
#      x y z
#    x 1.776500 0.000000 0.000750 
#    y 0.000000 1.779290 0.000000 
#    z 0.000750 0.000000 1.798600 
# 
# From -- ./inp_files/211318.got.cif
#   From: 2010.06.25/outbox.cif.g09.slc.cpg/sg15_106_cif.got.tgz:211318.got - 2010.06.28 07:06:18.
