data_PCOD8147143
_publ_section_title
;
Structure prediction by ZEFSAII (Michael W. Deem and Ramdas Pophale) SiO2 
 PCOD8147143
Probable space group: C 2/C
;
_chemical_formula_sum "Si O2"
_cell_formula_units_Z 60
_cell_length_a 25.666855
_cell_length_b 22.601722
_cell_length_c 14.551842
_cell_angle_alpha 90.000000
_cell_angle_beta 158.481661
_cell_angle_gamma 90.000000
_cell_volume 3096.423209
_symmetry_space_group_name_H-M "C 2/C"
_symmetry_group_IT_number 15
_symmetry_cell_setting 'monoclinic'
loop_
_space_group_symop_operation_xyz
x,y,z
-x,y,1/2-z
-x,-y,-z
x,-y,1/2+z
1/2+x,1/2+y,z
1/2-x,1/2+y,1/2-z
1/2-x,1/2-y,-z
1/2+x,1/2-y,1/2+z
loop_
_atom_site_type_symbol
_atom_site_label
_atom_site_fract_x
_atom_site_fract_y
_atom_site_fract_z
Si Si1 0.708640 0.729917 0.212576
Si Si2 0.362799 0.332339 0.578728
Si Si3 0.442939 0.980941 0.760257
Si Si4 0.390835 0.915714 0.309611
Si Si5 0.000000 0.695696 0.250000
Si Si6 0.228700 0.372301 0.012860
Si Si7 0.503458 0.306603 0.997336
Si Si8 0.121950 0.318852 0.666448
O O1 0.786106 0.778200 0.402270
O O2 0.610066 0.684851 0.107662
O O3 0.820211 0.688728 0.341927
O O4 0.617846 0.764248 0.989090
O O5 0.500000 0.355008 0.750000
O O6 0.266447 0.390504 0.432202
O O7 0.413962 0.306008 0.758448
O O8 0.500000 0.990278 0.750000
O O9 0.297448 0.942474 0.522716
O O10 0.397985 0.042758 0.731866
O O11 0.561392 0.949257 0.018959
O O12 0.484746 0.859450 0.438195
O O13 0.916959 0.654916 0.185537
O O14 0.240406 0.348948 0.926990
O O15 0.375246 0.357198 0.305069
O O16 0.580971 0.244397 0.141442
#
# Coordination Sequence:
#
# PCOD8147143 Si02
#       8
#     8   8   8   8   4   8   8   8
#     4  12  23  35  57  92 125 168 197 241 313 381
#     4  12  24  39  60  88 127 170 197 240 308 386
#     4  10  22  42  72  88 112 158 221 274 305 361
#     4  10  24  43  62  94 120 158 215 266 310 362
#     4  12  18  32  62  86 118 156 208 250 294 368
#     4  11  21  37  62  94 117 161 214 260 304 363
#     4  12  23  36  57  92 129 164 199 244 310 388
#     4  11  21  38  61  88 128 156 204 257 302 377
#
# _framework density 19.377196000000001
#
# number of rings (size 3 to 8) (size 9 to 14) (size 15 to 20)
#    0.000    0.800    6.000    2.400    1.867    1.067 
#    0.000    0.667    8.800    0.000    0.000    0.000 
#    0.000    0.000    0.000    0.000    0.000    0.000 
#
# Total GULP energy -372018.057963 kJ/mol
# GULP energy per Si atom -12400.601932 kJ/mol
# Density = 1.933309 g / cm^3
# Si number density = 19.377196 Si / 1000 Ang^3
#
#
#
# Elastic Constant Matrix: (Units=GPa)
#
#
# Indices 1 2 3 4 5 6 
#
# 1 132.2486 41.0649 33.2481 0.0000 7.2854 0.0000
# 2 41.0649 60.5040 37.8838 0.0000 -0.1125 0.0000
# 3 33.2481 37.8838 97.9174 0.0000 1.3958 0.0000
# 4 0.0000 0.0000 0.0000 16.2930 0.0000 -2.1771
# 5 7.2854 -0.1125 1.3958 0.0000 36.7496 0.0000
# 6 0.0000 0.0000 0.0000 -2.1771 0.0000 33.9958
#
#
#
# Elastic Compliance Matrix: (Units=1/GPa)
#
#
# Indices 1 2 3 4 5 6 
#
# 1 0.009785 -0.006046 -0.000956 0.000000 -0.001922 0.000000
# 2 -0.006046 0.025553 -0.007856 0.000000 0.001575 0.000000
# 3 -0.000956 -0.007856 0.013582 0.000000 -0.000350 0.000000
# 4 0.000000 0.000000 0.000000 0.061906 0.000000 0.003964
# 5 -0.001922 0.001575 -0.000350 0.000000 0.027610 0.000000
# 6 0.000000 0.000000 0.000000 0.003964 0.000000 0.029669
#
#
# Mechanical properties :
#
#
# Convention : Reuss Voigt Hill
#
# Bulk Modulus (GPa) = 52.07263 57.22929 54.65096
# Shear Modulus (GPa) = 24.48297 29.30586 26.89441
#
# Velocity S-wave (km/s) = 3.55842 3.89316 3.72955
# Velocity P-wave (km/s) = 6.61926 7.05744 6.84186
#
# Compressibility (1/GPa) = 0.01920395
#
# Stress axis : x y z
#
# Youngs Moduli (GPa) = 102.19507 39.13369 73.62871
#
# Poissons Ratio (x) = 0.23662 0.07038
# Poissons Ratio (y) = 0.61792 0.57842
# Poissons Ratio (z) = 0.09768 0.30743
#
# Static dielectric constant tensor:
#      x y z
#    x 3.043280 0.000000 0.327980 
#    y 0.000000 3.430910 0.000000 
#    z 0.327980 0.000000 3.495150 
# 
# 
# High freq. dielectric constant tensor:
#      x y z
#    x 1.769450 0.000000 -0.004970 
#    y 0.000000 1.732150 0.000000 
#    z -0.004970 0.000000 1.753490 
# 
# From -- ./inp_files/179263.got.cif
#   From: 2010.06.25/outbox.cif.g09.slc.cpg/sg15_90_cif.got.tgz:179263.got - 2010.06.28 07:06:18.
