data_PCOD8147792
_publ_section_title
;
Structure prediction by ZEFSAII (Michael W. Deem and Ramdas Pophale) SiO2 
 PCOD8147792
Probable space group: C 2/C
;
_chemical_formula_sum "Si O2"
_cell_formula_units_Z 32
_cell_length_a 14.043354
_cell_length_b 4.839711
_cell_length_c 19.787692
_cell_angle_alpha 90.000000
_cell_angle_beta 96.263800
_cell_angle_gamma 90.000000
_cell_volume 1336.856969
_symmetry_space_group_name_H-M "C 2/C"
_symmetry_group_IT_number 15
_symmetry_cell_setting 'monoclinic'
loop_
_space_group_symop_operation_xyz
x,y,z
-x,y,1/2-z
-x,-y,-z
x,-y,1/2+z
1/2+x,1/2+y,z
1/2-x,1/2+y,1/2-z
1/2-x,1/2-y,-z
1/2+x,1/2-y,1/2+z
loop_
_atom_site_type_symbol
_atom_site_label
_atom_site_fract_x
_atom_site_fract_y
_atom_site_fract_z
Si Si1 0.027134 0.392312 0.928992
Si Si2 0.763499 0.575735 0.568418
Si Si3 0.415896 0.615663 0.381013
Si Si4 0.723414 0.700844 0.707918
O O1 0.139841 0.401092 0.925281
O O2 0.999506 0.074827 0.918405
O O3 0.962897 0.583356 0.872803
O O4 0.000000 0.500000 0.000000
O O5 0.750000 0.750000 0.500000
O O6 0.672325 0.368241 0.570978
O O7 0.766589 0.766904 0.636615
O O8 0.376412 0.473210 0.308674
O O9 0.792176 0.493844 0.756495
#
# Coordination Sequence:
#
# PCOD8147792 Si02
#       4
#     8   8   8   8
#     4  12  22  41  64 101 132 169 216 273 330 391
#     4  10  24  42  71  97 132 175 219 273 337 382
#     4  10  25  40  65  94 135 166 222 266 326 387
#     4  10  22  45  66  91 134 176 216 273 332 392
#
# _framework density 23.936741000000001
#
# number of rings (size 3 to 8) (size 9 to 14) (size 15 to 20)
#    1.500    0.000    2.500    2.250    0.000    5.000 
#    0.000    7.500    0.000    0.000    0.000    0.000 
#    0.000    0.000    0.000    0.000    0.000    0.000 
#
# Total GULP energy -198231.052943 kJ/mol
# GULP energy per Si atom -12389.440809 kJ/mol
# Density = 2.388226 g / cm^3
# Si number density = 23.936741 Si / 1000 Ang^3
#
#
#
# Elastic Constant Matrix: (Units=GPa)
#
#
# Indices 1 2 3 4 5 6 
#
# 1 161.0095 19.9492 2.8691 0.0000 2.9208 0.0000
# 2 19.9492 78.8911 11.3394 0.0000 -8.6016 0.0000
# 3 2.8691 11.3394 116.6210 0.0000 -10.4053 0.0000
# 4 0.0000 0.0000 0.0000 34.3929 0.0000 0.8156
# 5 2.9208 -8.6016 -10.4053 0.0000 20.4791 0.0000
# 6 0.0000 0.0000 0.0000 0.8156 0.0000 18.8702
#
#
#
# Elastic Compliance Matrix: (Units=1/GPa)
#
#
# Indices 1 2 3 4 5 6 
#
# 1 0.006469 -0.001807 -0.000140 0.000000 -0.001753 0.000000
# 2 -0.001807 0.013866 -0.000797 0.000000 0.005677 0.000000
# 3 -0.000140 -0.000797 0.009037 0.000000 0.004277 0.000000
# 4 0.000000 0.000000 0.000000 0.029106 0.000000 -0.001258
# 5 -0.001753 0.005677 0.004277 0.000000 0.053638 0.000000
# 6 0.000000 0.000000 0.000000 -0.001258 0.000000 0.053048
#
#
# Mechanical properties :
#
#
# Convention : Reuss Voigt Hill
#
# Bulk Modulus (GPa) = 41.86807 47.20412 44.53610
# Shear Modulus (GPa) = 27.99348 36.23936 32.11642
#
# Velocity S-wave (km/s) = 3.42347 3.89519 3.66692
# Velocity P-wave (km/s) = 5.75812 6.32402 6.04769
#
# Compressibility (1/GPa) = 0.02388455
#
# Stress axis : x y z
#
# Youngs Moduli (GPa) = 154.58426 72.11822 110.65196
#
# Poissons Ratio (x) = 0.13030 0.01547
# Poissons Ratio (y) = 0.27930 0.08822
# Poissons Ratio (z) = 0.02162 0.05750
#
# Static dielectric constant tensor:
#      x y z
#    x 4.296930 0.000000 0.305970 
#    y 0.000000 4.288800 0.000000 
#    z 0.305970 0.000000 4.333450 
# 
# 
# High freq. dielectric constant tensor:
#      x y z
#    x 1.935000 0.000000 0.031410 
#    y 0.000000 1.942940 0.000000 
#    z 0.031410 0.000000 1.942870 
# 
# From -- ./inp_files/241279.got.cif
#   From: 2010.06.25/outbox.cif.g09.slc.cpg/sg15_121_cif.got.tgz:241279.got - 2010.06.28 07:06:18.
