data_PCOD8147570
_publ_section_title
;
Structure prediction by ZEFSAII (Michael W. Deem and Ramdas Pophale) SiO2 
 PCOD8147570
Probable space group: C 2/C
;
_chemical_formula_sum "Si O2"
_cell_formula_units_Z 52
_cell_length_a 17.050081
_cell_length_b 17.882024
_cell_length_c 8.825741
_cell_angle_alpha 90.000000
_cell_angle_beta 59.945657
_cell_angle_gamma 90.000000
_cell_volume 2329.093115
_symmetry_space_group_name_H-M "C 2/C"
_symmetry_group_IT_number 15
_symmetry_cell_setting 'monoclinic'
loop_
_space_group_symop_operation_xyz
x,y,z
-x,y,1/2-z
-x,-y,-z
x,-y,1/2+z
1/2+x,1/2+y,z
1/2-x,1/2+y,1/2-z
1/2-x,1/2-y,-z
1/2+x,1/2-y,1/2+z
loop_
_atom_site_type_symbol
_atom_site_label
_atom_site_fract_x
_atom_site_fract_y
_atom_site_fract_z
Si Si1 0.607009 0.974769 0.134996
Si Si2 0.500000 0.525792 0.250000
Si Si3 0.897060 0.917485 0.572020
Si Si4 0.840702 0.747429 0.096740
Si Si5 0.974983 0.237632 0.940821
Si Si6 0.688419 0.914079 0.761854
Si Si7 0.341052 0.176581 0.771468
O O1 0.500000 0.978241 0.250000
O O2 0.650338 0.910557 0.199921
O O3 0.652953 0.053974 0.135641
O O4 0.628456 0.957990 0.941376
O O5 0.435595 0.475848 0.415523
O O6 0.560191 0.577197 0.301618
O O7 0.911472 0.834869 0.492321
O O8 0.791951 0.934047 0.691081
O O9 0.825675 0.674639 0.215931
O O10 0.758179 0.805535 0.202256
O O11 0.933441 0.786176 0.059786
O O12 0.852097 0.726834 0.910334
O O13 0.000000 0.266920 0.750000
O O14 0.921381 0.303419 0.077800
#
# Coordination Sequence:
#
# PCOD8147570 Si02
#       7
#     8   4   8   8   8   8   8
#     4  11  24  43  70 100 130 171 219 276 337 402
#     4  10  24  40  66  92 136 174 222 262 338 390
#     4  11  23  43  63  98 130 176 217 275 325 404
#     4  10  23  41  69  92 130 178 223 272 329 397
#     4  12  25  41  64  96 137 170 222 277 336 399
#     4  11  23  43  67  98 132 169 223 270 331 398
#     4  10  22  44  66  97 128 171 230 270 326 403
#
# _framework density 22.326287000000001
#
# number of rings (size 3 to 8) (size 9 to 14) (size 15 to 20)
#    0.000    1.231    2.308    3.692    2.154    4.923 
#    2.769    0.000    0.000    0.000    0.000    0.000 
#    0.000    0.000    0.000    0.000    0.000    0.000 
#
# Total GULP energy -322548.500234 kJ/mol
# GULP energy per Si atom -12405.711547 kJ/mol
# Density = 2.227547 g / cm^3
# Si number density = 22.326287 Si / 1000 Ang^3
#
#
#
# Elastic Constant Matrix: (Units=GPa)
#
#
# Indices 1 2 3 4 5 6 
#
# 1 114.2149 8.5762 25.3715 0.0000 -29.9789 0.0000
# 2 8.5762 57.3177 -1.8613 0.0000 0.0247 0.0000
# 3 25.3715 -1.8613 63.5950 0.0000 -11.9931 0.0000
# 4 0.0000 0.0000 0.0000 29.1089 0.0000 -4.1371
# 5 -29.9789 0.0247 -11.9931 0.0000 35.0697 0.0000
# 6 0.0000 0.0000 0.0000 -4.1371 0.0000 43.2842
#
#
#
# Elastic Compliance Matrix: (Units=1/GPa)
#
#
# Indices 1 2 3 4 5 6 
#
# 1 0.012003 -0.001901 -0.003110 0.000000 0.009199 0.000000
# 2 -0.001901 0.017765 0.001036 0.000000 -0.001283 0.000000
# 3 -0.003110 0.001036 0.017631 0.000000 0.003370 0.000000
# 4 0.000000 0.000000 0.000000 0.034827 0.000000 0.003329
# 5 0.009199 -0.001283 0.003370 0.000000 0.037532 0.000000
# 6 0.000000 0.000000 0.000000 0.003329 0.000000 0.023421
#
#
# Mechanical properties :
#
#
# Convention : Reuss Voigt Hill
#
# Bulk Modulus (GPa) = 25.34774 33.25560 29.30167
# Shear Modulus (GPa) = 30.43609 35.02863 32.73236
#
# Velocity S-wave (km/s) = 3.69621 3.96528 3.83311
# Velocity P-wave (km/s) = 5.44003 5.99101 5.72216
#
# Compressibility (1/GPa) = 0.03945124
#
# Stress axis : x y z
#
# Youngs Moduli (GPa) = 83.30944 56.28960 56.71799
#
# Poissons Ratio (x) = 0.10701 0.17638
# Poissons Ratio (y) = 0.15837 -0.05878
# Poissons Ratio (z) = 0.25907 -0.05834
#
# Static dielectric constant tensor:
#      x y z
#    x 4.078000 0.000000 -0.072420 
#    y 0.000000 3.852040 0.000000 
#    z -0.072420 0.000000 4.174880 
# 
# 
# High freq. dielectric constant tensor:
#      x y z
#    x 1.886740 0.000000 -0.009890 
#    y 0.000000 1.871080 0.000000 
#    z -0.009890 0.000000 1.887800 
# 
# From -- ./inp_files/48960.got.cif
#   From: 2010.06.25/outbox.cif.g09.slc.cpg/sg15_25_cif.got.tgz:48960.got - 2010.06.28 07:06:18.
