data_PCOD8147681
_publ_section_title
;
Structure prediction by ZEFSAII (Michael W. Deem and Ramdas Pophale) SiO2 
 PCOD8147681
Probable space group: C 2/C
;
_chemical_formula_sum "Si O2"
_cell_formula_units_Z 48
_cell_length_a 26.375337
_cell_length_b 14.955014
_cell_length_c 13.210870
_cell_angle_alpha 90.000000
_cell_angle_beta 24.566028
_cell_angle_gamma 90.000000
_cell_volume 2166.405531
_symmetry_space_group_name_H-M "C 2/C"
_symmetry_group_IT_number 15
_symmetry_cell_setting 'monoclinic'
loop_
_space_group_symop_operation_xyz
x,y,z
-x,y,1/2-z
-x,-y,-z
x,-y,1/2+z
1/2+x,1/2+y,z
1/2-x,1/2+y,1/2-z
1/2-x,1/2-y,-z
1/2+x,1/2-y,1/2+z
loop_
_atom_site_type_symbol
_atom_site_label
_atom_site_fract_x
_atom_site_fract_y
_atom_site_fract_z
Si Si1 0.887962 0.498200 0.882617
Si Si2 0.333136 0.651504 0.413191
Si Si3 0.858053 0.312353 0.844248
Si Si4 0.500000 0.448561 0.750000
Si Si5 0.080288 0.337164 0.304770
Si Si6 0.500000 0.714845 0.750000
Si Si7 0.134697 0.921886 0.868487
O O1 0.831621 0.417285 0.916060
O O2 0.951833 0.574122 0.698899
O O3 0.000000 0.464320 0.750000
O O4 0.772216 0.545852 0.147211
O O5 0.387706 0.609670 0.415202
O O6 0.187538 0.639605 0.690206
O O7 0.367334 0.756172 0.357993
O O8 0.376717 0.603103 0.229479
O O9 0.959061 0.302768 0.575672
O O10 0.904779 0.274219 0.863702
O O11 0.750000 0.250000 0.000000
O O12 0.541056 0.501845 0.575071
O O13 0.593150 0.662380 0.508982
#
# Coordination Sequence:
#
# PCOD8147681 Si02
#       7
#     8   8   8   4   8   4   8
#     4  11  26  45  71 106 142 183 233 297 356 432
#     4  10  22  44  70 102 143 186 238 297 349 429
#     4  12  27  46  74 104 143 189 239 295 362 431
#     4  11  24  36  77 104 136 192 243 294 354 429
#     4  10  24  46  69 100 144 183 230 295 357 419
#     4  11  24  48  71 100 146 190 237 300 350 423
#     4  10  24  45  67 101 142 187 238 297 357 420
#
# _framework density 22.156514999999999
#
# number of rings (size 3 to 8) (size 9 to 14) (size 15 to 20)
#    0.000    1.333    2.500    1.000    8.167    5.333 
#    0.000    0.000    0.000    0.000    0.000    0.000 
#    0.000    0.000    0.000    0.000    0.000    0.000 
#
# Total GULP energy -297395.330127 kJ/mol
# GULP energy per Si atom -12391.472089 kJ/mol
# Density = 2.210609 g / cm^3
# Si number density = 22.156515 Si / 1000 Ang^3
#
#
#
# Elastic Constant Matrix: (Units=GPa)
#
#
# Indices 1 2 3 4 5 6 
#
# 1 93.8520 54.3328 31.7390 0.0000 -19.4426 0.0000
# 2 54.3328 123.2713 27.2209 0.0000 -13.6671 0.0000
# 3 31.7390 27.2209 116.6978 0.0000 -10.8676 0.0000
# 4 0.0000 0.0000 0.0000 26.1385 0.0000 -14.9093
# 5 -19.4426 -13.6671 -10.8676 0.0000 27.9207 0.0000
# 6 0.0000 0.0000 0.0000 -14.9093 0.0000 23.0580
#
#
#
# Elastic Compliance Matrix: (Units=1/GPa)
#
#
# Indices 1 2 3 4 5 6 
#
# 1 0.016449 -0.005874 -0.002391 0.000000 0.007648 0.000000
# 2 -0.005874 0.011001 -0.000880 0.000000 0.000952 0.000000
# 3 -0.002391 -0.000880 0.009577 0.000000 0.001632 0.000000
# 4 0.000000 0.000000 0.000000 0.060613 0.000000 0.039192
# 5 0.007648 0.000952 0.001632 0.000000 0.042243 0.000000
# 6 0.000000 0.000000 0.000000 0.039192 0.000000 0.068711
#
#
# Mechanical properties :
#
#
# Convention : Reuss Voigt Hill
#
# Bulk Modulus (GPa) = 53.37226 62.26739 57.81983
# Shear Modulus (GPa) = 21.44746 30.12532 25.78639
#
# Velocity S-wave (km/s) = 3.11464 3.69136 3.41519
# Velocity P-wave (km/s) = 6.08898 6.80680 6.45787
#
# Compressibility (1/GPa) = 0.01873632
#
# Stress axis : x y z
#
# Youngs Moduli (GPa) = 60.79522 90.90068 104.42012
#
# Poissons Ratio (x) = 0.53394 0.24970
# Poissons Ratio (y) = 0.35711 0.09188
# Poissons Ratio (z) = 0.14538 0.07998
#
# Static dielectric constant tensor:
#      x y z
#    x 3.793840 0.000000 -0.023830 
#    y 0.000000 4.274040 0.000000 
#    z -0.023830 0.000000 3.975510 
# 
# 
# High freq. dielectric constant tensor:
#      x y z
#    x 1.850890 0.000000 -0.004170 
#    y 0.000000 1.893120 0.000000 
#    z -0.004170 0.000000 1.878150 
# 
# From -- ./inp_files/182487.got.cif
#   From: 2010.06.25/outbox.cif.g09.slc.cpg/sg15_92_cif.got.tgz:182487.got - 2010.06.28 07:06:18.
