data_PCOD8147149
_publ_section_title
;
Structure prediction by ZEFSAII (Michael W. Deem and Ramdas Pophale) SiO2 
 PCOD8147149
Probable space group: C 2/C
;
_chemical_formula_sum "Si O2"
_cell_formula_units_Z 48
_cell_length_a 11.632051
_cell_length_b 16.512031
_cell_length_c 11.434462
_cell_angle_alpha 90.000000
_cell_angle_beta 79.188805
_cell_angle_gamma 90.000000
_cell_volume 2157.221996
_symmetry_space_group_name_H-M "C 2/C"
_symmetry_group_IT_number 15
_symmetry_cell_setting 'monoclinic'
loop_
_space_group_symop_operation_xyz
x,y,z
-x,y,1/2-z
-x,-y,-z
x,-y,1/2+z
1/2+x,1/2+y,z
1/2-x,1/2+y,1/2-z
1/2-x,1/2-y,-z
1/2+x,1/2-y,1/2+z
loop_
_atom_site_type_symbol
_atom_site_label
_atom_site_fract_x
_atom_site_fract_y
_atom_site_fract_z
Si Si1 0.240411 0.616362 0.044672
Si Si2 0.500000 0.061020 0.750000
Si Si3 0.490127 0.157943 0.523097
Si Si4 0.646763 0.916907 0.801600
Si Si5 0.154102 0.031127 0.082503
Si Si6 0.999092 0.162323 0.515174
Si Si7 0.000000 0.090672 0.750000
O O1 0.150761 0.647064 0.961005
O O2 0.180323 0.634467 0.180973
O O3 0.272628 0.520174 0.027594
O O4 0.360328 0.665697 0.012506
O O5 0.537058 0.115383 0.631624
O O6 0.610457 0.006934 0.768019
O O7 0.538739 0.119433 0.394002
O O8 0.538120 0.249858 0.524119
O O9 0.758530 0.912367 0.863801
O O10 0.102458 0.965230 0.180994
O O11 0.051497 0.087949 0.051453
O O12 0.951811 0.148301 0.655801
#
# Coordination Sequence:
#
# PCOD8147149 Si02
#       7
#     8   4   8   8   8   8   4
#     4  11  22  43  70  98 135 186 235 280 347 429
#     4  12  24  44  66  98 136 184 232 284 342 430
#     4  12  26  44  68 106 142 182 230 298 359 406
#     4  12  23  42  74  95 134 179 241 286 342 427
#     4  11  22  43  68 103 131 186 239 284 345 419
#     4  11  26  44  67 106 144 179 234 295 360 405
#     4  10  22  42  72  94 138 188 230 278 338 436
#
# _framework density 22.250841000000001
#
# number of rings (size 3 to 8) (size 9 to 14) (size 15 to 20)
#    0.000    0.667    3.333    6.000    2.333    2.667 
#    0.000    0.000    0.000    0.000    0.000    0.000 
#    0.000    0.000    0.000    0.000    0.000    0.000 
#
# Total GULP energy -297555.197781 kJ/mol
# GULP energy per Si atom -12398.133241 kJ/mol
# Density = 2.220020 g / cm^3
# Si number density = 22.250841 Si / 1000 Ang^3
#
#
#
# Elastic Constant Matrix: (Units=GPa)
#
#
# Indices 1 2 3 4 5 6 
#
# 1 87.5703 21.3047 25.5253 0.0000 3.9208 0.0000
# 2 21.3047 123.8206 42.2593 0.0000 1.8705 0.0000
# 3 25.5253 42.2593 135.0401 0.0000 -4.8217 0.0000
# 4 0.0000 0.0000 0.0000 27.6333 0.0000 4.2286
# 5 3.9208 1.8705 -4.8217 0.0000 25.5871 0.0000
# 6 0.0000 0.0000 0.0000 4.2286 0.0000 21.9686
#
#
#
# Elastic Compliance Matrix: (Units=1/GPa)
#
#
# Indices 1 2 3 4 5 6 
#
# 1 0.012443 -0.001432 -0.001982 0.000000 -0.002175 0.000000
# 2 -0.001432 0.009244 -0.002656 0.000000 -0.000957 0.000000
# 3 -0.001982 -0.002656 0.008687 0.000000 0.002135 0.000000
# 4 0.000000 0.000000 0.000000 0.037286 0.000000 -0.007177
# 5 -0.002175 -0.000957 0.002135 0.000000 0.039888 0.000000
# 6 0.000000 0.000000 0.000000 -0.007177 0.000000 0.046901
#
#
# Mechanical properties :
#
#
# Convention : Reuss Voigt Hill
#
# Bulk Modulus (GPa) = 54.84114 58.28994 56.56554
# Shear Modulus (GPa) = 28.95766 32.19392 30.57579
#
# Velocity S-wave (km/s) = 3.61143 3.80789 3.71096
# Velocity P-wave (km/s) = 6.48770 6.75181 6.62107
#
# Compressibility (1/GPa) = 0.01823448
#
# Stress axis : x y z
#
# Youngs Moduli (GPa) = 80.36836 108.18354 115.11166
#
# Poissons Ratio (x) = 0.15489 0.22810
# Poissons Ratio (y) = 0.11507 0.30576
# Poissons Ratio (z) = 0.15925 0.28736
#
# Static dielectric constant tensor:
#      x y z
#    x 3.879460 0.000000 -0.031790 
#    y 0.000000 3.815310 0.000000 
#    z -0.031790 0.000000 4.224850 
# 
# 
# High freq. dielectric constant tensor:
#      x y z
#    x 1.877060 0.000000 0.000620 
#    y 0.000000 1.860140 0.000000 
#    z 0.000620 0.000000 1.883250 
# 
# From -- ./inp_files/87813.got.cif
#   From: 2010.06.25/outbox.cif.g09.slc.cpg/sg15_44_cif.got.tgz:87813.got - 2010.06.28 07:06:18.
