data_PCOD8147289
_publ_section_title
;
Structure prediction by ZEFSAII (Michael W. Deem and Ramdas Pophale) SiO2 
 PCOD8147289
Probable space group: C 2/C
;
_chemical_formula_sum "Si O2"
_cell_formula_units_Z 36
_cell_length_a 20.166421
_cell_length_b 8.901098
_cell_length_c 16.089135
_cell_angle_alpha 90.000000
_cell_angle_beta 35.993629
_cell_angle_gamma 90.000000
_cell_volume 1697.294946
_symmetry_space_group_name_H-M "C 2/C"
_symmetry_group_IT_number 15
_symmetry_cell_setting 'monoclinic'
loop_
_space_group_symop_operation_xyz
x,y,z
-x,y,1/2-z
-x,-y,-z
x,-y,1/2+z
1/2+x,1/2+y,z
1/2-x,1/2+y,1/2-z
1/2-x,1/2-y,-z
1/2+x,1/2-y,1/2+z
loop_
_atom_site_type_symbol
_atom_site_label
_atom_site_fract_x
_atom_site_fract_y
_atom_site_fract_z
Si Si1 0.333722 0.235468 0.339816
Si Si2 0.500000 0.995990 0.750000
Si Si3 0.011039 0.669715 0.896260
Si Si4 0.593629 0.513232 0.333468
Si Si5 0.180793 0.565808 0.299206
O O1 0.250000 0.250000 0.500000
O O2 0.414294 0.107111 0.289386
O O3 0.404294 0.383878 0.240109
O O4 0.267618 0.166612 0.327598
O O5 0.454220 0.100794 0.870641
O O6 0.114300 0.578828 0.832860
O O7 0.063103 0.830866 0.819352
O O8 0.907526 0.677901 0.065734
O O9 0.500000 0.500000 0.500000
O O10 0.719021 0.512510 0.243823
#
# Coordination Sequence:
#
# PCOD8147289 Si02
#       5
#     8   4   8   8   8
#     4  11  24  42  66  97 137 176 213 283 340 410
#     4  10  24  44  62  90 134 180 210 270 358 396
#     4  10  22  43  68  93 136 178 221 279 343 415
#     4  12  24  40  69 106 127 172 240 286 329 412
#     4  10  22  43  66  95 135 179 219 274 352 406
#
# _framework density 21.210222000000002
#
# number of rings (size 3 to 8) (size 9 to 14) (size 15 to 20)
#    0.000    1.333    2.222    2.667    3.111    0.889 
#    0.000    3.333    0.000    0.000    0.000    0.000 
#    0.000    0.000    0.000    0.000    0.000    0.000 
#
# Total GULP energy -223038.342460 kJ/mol
# GULP energy per Si atom -12391.019026 kJ/mol
# Density = 2.116195 g / cm^3
# Si number density = 21.210222 Si / 1000 Ang^3
#
#
#
# Elastic Constant Matrix: (Units=GPa)
#
#
# Indices 1 2 3 4 5 6 
#
# 1 92.6665 49.6713 33.4222 -0.0001 9.6910 0.0001
# 2 49.6713 124.8464 56.7447 -0.0007 14.8570 0.0009
# 3 33.4222 56.7447 147.9198 -0.0001 20.5170 0.0002
# 4 -0.0001 -0.0007 -0.0001 28.4106 0.0001 -0.8325
# 5 9.6910 14.8570 20.5170 0.0001 35.7508 -0.0001
# 6 0.0001 0.0009 0.0002 -0.8325 -0.0001 12.2342
#
#
#
# Elastic Compliance Matrix: (Units=1/GPa)
#
#
# Indices 1 2 3 4 5 6 
#
# 1 0.013939 -0.004909 -0.001114 0.000000 -0.001099 0.000000
# 2 -0.004909 0.011572 -0.003094 0.000000 -0.001703 -0.000001
# 3 -0.001114 -0.003094 0.008669 0.000000 -0.003387 0.000000
# 4 0.000000 0.000000 0.000000 0.035268 0.000000 0.002400
# 5 -0.001099 -0.001703 -0.003387 0.000000 0.030921 0.000000
# 6 0.000000 -0.000001 0.000000 0.002400 0.000000 0.081901
#
#
# Mechanical properties :
#
#
# Convention : Reuss Voigt Hill
#
# Bulk Modulus (GPa) = 62.70899 71.67880 67.19389
# Shear Modulus (GPa) = 24.29318 30.31876 27.30597
#
# Velocity S-wave (km/s) = 3.38798 3.78490 3.59192
# Velocity P-wave (km/s) = 6.70329 7.27794 6.99652
#
# Compressibility (1/GPa) = 0.01594668
#
# Stress axis : x y z
#
# Youngs Moduli (GPa) = 71.73948 86.41817 115.35637
#
# Poissons Ratio (x) = 0.42420 0.12851
# Poissons Ratio (y) = 0.35215 0.35689
# Poissons Ratio (z) = 0.07992 0.26736
#
# Static dielectric constant tensor:
#      x y z
#    x 4.291270 0.000000 0.591510 
#    y 0.000000 3.975890 0.000000 
#    z 0.591510 0.000000 3.973540 
# 
# 
# High freq. dielectric constant tensor:
#      x y z
#    x 1.826100 0.000000 0.012290 
#    y 0.000000 1.849390 0.000000 
#    z 0.012290 0.000000 1.828640 
# 
# From -- ./inp_files/217905.got.cif
#   From: 2010.06.25/outbox.cif.g09.slc.cpg/sg15_109_cif.got.tgz:217905.got - 2010.06.28 07:06:18.
