data_PCOD8147025
_publ_section_title
;
Structure prediction by ZEFSAII (Michael W. Deem and Ramdas Pophale) SiO2 
 PCOD8147025
Probable space group: C 2/C
;
_chemical_formula_sum "Si O2"
_cell_formula_units_Z 36
_cell_length_a 17.901684
_cell_length_b 18.873308
_cell_length_c 8.741524
_cell_angle_alpha 90.000000
_cell_angle_beta 147.692164
_cell_angle_gamma 90.000000
_cell_volume 1578.522339
_symmetry_space_group_name_H-M "C 2/C"
_symmetry_group_IT_number 15
_symmetry_cell_setting 'monoclinic'
loop_
_space_group_symop_operation_xyz
x,y,z
-x,y,1/2-z
-x,-y,-z
x,-y,1/2+z
1/2+x,1/2+y,z
1/2-x,1/2+y,1/2-z
1/2-x,1/2-y,-z
1/2+x,1/2-y,1/2+z
loop_
_atom_site_type_symbol
_atom_site_label
_atom_site_fract_x
_atom_site_fract_y
_atom_site_fract_z
Si Si1 0.484195 0.159166 0.900835
Si Si2 0.000000 0.859350 0.750000
Si Si3 0.215754 0.934014 0.917837
Si Si4 0.227129 0.085286 0.081788
Si Si5 0.112744 0.209216 0.717362
O O1 0.500000 0.178438 0.750000
O O2 0.347757 0.112913 0.700787
O O3 0.619184 0.115093 0.183661
O O4 0.483282 0.233403 0.998929
O O5 0.923229 0.905277 0.744992
O O6 0.884206 0.814585 0.455811
O O7 0.196506 0.931565 0.703633
O O8 0.228596 0.015248 0.983444
O O9 0.106153 0.140415 0.816090
O O10 0.250000 0.250000 0.000000
#
# Coordination Sequence:
#
# PCOD8147025 Si02
#       5
#     8   4   8   8   8
#     4   9  19  42  69  98 133 175 227 283 340 404
#     4  12  26  44  68  94 140 180 228 280 338 408
#     4  11  24  42  69 100 136 183 229 283 342 407
#     4  10  22  42  69 100 134 175 230 285 342 407
#     4  10  22  44  66  98 137 175 225 279 341 410
#
# _framework density 22.806139000000002
#
# number of rings (size 3 to 8) (size 9 to 14) (size 15 to 20)
#    0.000    1.778    1.111    2.000    0.000    5.333 
#    4.000    7.778    0.000    0.000    0.000    0.000 
#    0.000    0.000    0.000    0.000    0.000    0.000 
#
# Total GULP energy -223011.701842 kJ/mol
# GULP energy per Si atom -12389.538991 kJ/mol
# Density = 2.275423 g / cm^3
# Si number density = 22.806139 Si / 1000 Ang^3
#
#
#
# Elastic Constant Matrix: (Units=GPa)
#
#
# Indices 1 2 3 4 5 6 
#
# 1 104.8900 62.7902 47.7207 0.0000 -7.4778 0.0000
# 2 62.7902 207.7633 94.2018 0.0000 -17.5232 0.0000
# 3 47.7207 94.2018 134.9600 0.0000 -26.5357 0.0000
# 4 0.0000 0.0000 0.0000 72.1160 0.0000 -41.6736
# 5 -7.4778 -17.5232 -26.5357 0.0000 33.9043 0.0000
# 6 0.0000 0.0000 0.0000 -41.6736 0.0000 43.7778
#
#
#
# Elastic Compliance Matrix: (Units=1/GPa)
#
#
# Indices 1 2 3 4 5 6 
#
# 1 0.012226 -0.002533 -0.002697 0.000000 -0.000724 0.000000
# 2 -0.002533 0.007568 -0.004406 0.000000 -0.000095 0.000000
# 3 -0.002697 -0.004406 0.012851 0.000000 0.007186 0.000000
# 4 0.000000 0.000000 0.000000 0.030821 0.000000 0.029339
# 5 -0.000724 -0.000095 0.007186 0.000000 0.034911 0.000000
# 6 0.000000 0.000000 0.000000 0.029339 0.000000 0.050772
#
#
# Mechanical properties :
#
#
# Convention : Reuss Voigt Hill
#
# Bulk Modulus (GPa) = 74.77385 95.22651 85.00018
# Shear Modulus (GPa) = 28.92211 46.15299 37.53755
#
# Velocity S-wave (km/s) = 3.56500 4.50345 4.06142
# Velocity P-wave (km/s) = 7.05716 8.29981 7.70358
#
# Compressibility (1/GPa) = 0.01337366
#
# Stress axis : x y z
#
# Youngs Moduli (GPa) = 81.79559 132.13133 77.81213
#
# Poissons Ratio (x) = 0.33468 0.20987
# Poissons Ratio (y) = 0.20718 0.34282
# Poissons Ratio (z) = 0.22062 0.58213
#
# Static dielectric constant tensor:
#      x y z
#    x 3.644320 0.000000 -0.227580 
#    y 0.000000 4.649790 0.000000 
#    z -0.227580 0.000000 4.718750 
# 
# 
# High freq. dielectric constant tensor:
#      x y z
#    x 1.859790 0.000000 -0.014520 
#    y 0.000000 1.926430 0.000000 
#    z -0.014520 0.000000 1.926130 
# 
# From -- ./inp_files/28717.got.cif
#   From: 2010.06.25/outbox.cif.g09.slc.cpg/sg15_15_cif.got.tgz:28717.got - 2010.06.28 07:06:18.
