data_PCOD8147690
_publ_section_title
;
Structure prediction by ZEFSAII (Michael W. Deem and Ramdas Pophale) SiO2 
 PCOD8147690
Probable space group: C 2/C
;
_chemical_formula_sum "Si O2"
_cell_formula_units_Z 52
_cell_length_a 5.200958
_cell_length_b 22.701012
_cell_length_c 23.987843
_cell_angle_alpha 90.000000
_cell_angle_beta 123.761621
_cell_angle_gamma 90.000000
_cell_volume 2354.546515
_symmetry_space_group_name_H-M "C 2/C"
_symmetry_group_IT_number 15
_symmetry_cell_setting 'monoclinic'
loop_
_space_group_symop_operation_xyz
x,y,z
-x,y,1/2-z
-x,-y,-z
x,-y,1/2+z
1/2+x,1/2+y,z
1/2-x,1/2+y,1/2-z
1/2-x,1/2-y,-z
1/2+x,1/2-y,1/2+z
loop_
_atom_site_type_symbol
_atom_site_label
_atom_site_fract_x
_atom_site_fract_y
_atom_site_fract_z
Si Si1 0.379223 0.675263 0.640332
Si Si2 0.000000 0.713681 0.750000
Si Si3 0.258403 0.943160 0.327519
Si Si4 0.081793 0.880665 0.933559
Si Si5 0.195509 0.786568 0.677430
Si Si6 0.314858 0.621941 0.517153
Si Si7 0.568440 0.487218 0.104839
O O1 0.702383 0.671364 0.713951
O O2 0.170079 0.623332 0.641880
O O3 0.243037 0.740163 0.632896
O O4 0.429059 0.664352 0.580796
O O5 0.042137 0.755738 0.808831
O O6 0.573901 0.970379 0.341762
O O7 0.000000 0.944795 0.250000
O O8 0.131612 0.981668 0.363391
O O9 0.934261 0.846308 0.863694
O O10 0.446141 0.876780 0.970011
O O11 0.952411 0.946418 0.918184
O O12 0.969472 0.853359 0.979047
O O13 0.500000 0.801061 0.750000
O O14 0.426079 0.555023 0.540327
#
# Coordination Sequence:
#
# PCOD8147690 Si02
#       7
#     8   4   8   8   8   8   8
#     4  10  24  41  69 101 131 175 220 286 342 404
#     4  10  22  44  70  94 142 178 222 276 352 410
#     4  11  23  39  69 102 133 170 228 285 337 393
#     4  12  26  46  68  98 136 185 223 277 329 411
#     4  10  25  44  68  97 134 180 226 272 345 406
#     4  11  25  42  72  99 136 173 231 278 337 394
#     4  11  24  44  66  97 139 180 223 275 340 398
#
# _framework density 22.08493
#
# number of rings (size 3 to 8) (size 9 to 14) (size 15 to 20)
#    0.000    1.231    0.000    5.538   15.077    2.462 
#    1.385    0.000    0.000    0.000    0.000    0.000 
#    0.000    0.000    0.000    0.000    0.000    0.000 
#
# Total GULP energy -322443.645351 kJ/mol
# GULP energy per Si atom -12401.678667 kJ/mol
# Density = 2.203466 g / cm^3
# Si number density = 22.084930 Si / 1000 Ang^3
#
#
#
# Elastic Constant Matrix: (Units=GPa)
#
#
# Indices 1 2 3 4 5 6 
#
# 1 99.6293 35.3186 29.3655 0.0000 12.3319 0.0000
# 2 35.3186 92.3083 51.9224 0.0000 -6.5591 0.0000
# 3 29.3655 51.9224 102.8376 0.0000 -8.5179 0.0000
# 4 0.0000 0.0000 0.0000 28.8918 0.0000 -2.3815
# 5 12.3319 -6.5591 -8.5179 0.0000 29.0318 0.0000
# 6 0.0000 0.0000 0.0000 -2.3815 0.0000 9.4951
#
#
#
# Elastic Compliance Matrix: (Units=1/GPa)
#
#
# Indices 1 2 3 4 5 6 
#
# 1 0.013085 -0.004302 -0.002158 0.000000 -0.007163 0.000000
# 2 -0.004302 0.016586 -0.006850 0.000000 0.003565 0.000000
# 3 -0.002158 -0.006850 0.014089 0.000000 0.003503 0.000000
# 4 0.000000 0.000000 0.000000 0.035343 0.000000 0.008864
# 5 -0.007163 0.003565 0.003503 0.000000 0.039321 0.000000
# 6 0.000000 0.000000 0.000000 0.008864 0.000000 0.107541
#
#
# Mechanical properties :
#
#
# Convention : Reuss Voigt Hill
#
# Bulk Modulus (GPa) = 58.34393 58.66534 58.50464
# Shear Modulus (GPa) = 19.35756 25.36165 22.35960
#
# Velocity S-wave (km/s) = 2.96380 3.39244 3.18533
# Velocity P-wave (km/s) = 6.17960 6.47812 6.33062
#
# Compressibility (1/GPa) = 0.01713974
#
# Stress axis : x y z
#
# Youngs Moduli (GPa) = 76.42466 60.29264 70.97667
#
# Poissons Ratio (x) = 0.25936 0.15315
# Poissons Ratio (y) = 0.32876 0.48623
# Poissons Ratio (z) = 0.16491 0.41303
#
# Static dielectric constant tensor:
#      x y z
#    x 4.162840 0.000000 -0.126620 
#    y 0.000000 3.800060 0.000000 
#    z -0.126620 0.000000 4.020120 
# 
# 
# High freq. dielectric constant tensor:
#      x y z
#    x 1.883180 0.000000 -0.003990 
#    y 0.000000 1.852870 0.000000 
#    z -0.003990 0.000000 1.873790 
# 
# From -- ./inp_files/261839.got.cif
#   From: 2010.06.25/outbox.cif.g09.slc.cpg/sg15_131_cif.got.tgz:261839.got - 2010.06.28 07:06:18.
