data_PCOD8147139
_publ_section_title
;
Structure prediction by ZEFSAII (Michael W. Deem and Ramdas Pophale) SiO2 
 PCOD8147139
Probable space group: C 2/C
;
_chemical_formula_sum "Si O2"
_cell_formula_units_Z 44
_cell_length_a 6.587056
_cell_length_b 24.642019
_cell_length_c 13.831986
_cell_angle_alpha 90.000000
_cell_angle_beta 119.299989
_cell_angle_gamma 90.000000
_cell_volume 1957.957296
_symmetry_space_group_name_H-M "C 2/C"
_symmetry_group_IT_number 15
_symmetry_cell_setting 'monoclinic'
loop_
_space_group_symop_operation_xyz
x,y,z
-x,y,1/2-z
-x,-y,-z
x,-y,1/2+z
1/2+x,1/2+y,z
1/2-x,1/2+y,1/2-z
1/2-x,1/2-y,-z
1/2+x,1/2-y,1/2+z
loop_
_atom_site_type_symbol
_atom_site_label
_atom_site_fract_x
_atom_site_fract_y
_atom_site_fract_z
Si Si1 0.030410 0.713613 0.468704
Si Si2 0.393674 0.402353 0.439908
Si Si3 0.347874 0.204634 0.627652
Si Si4 0.000000 0.933358 0.250000
Si Si5 0.984116 0.514118 0.858577
Si Si6 0.395937 0.899471 0.619152
O O1 0.250000 0.750000 0.500000
O O2 0.047818 0.652725 0.432802
O O3 0.795288 0.741840 0.372927
O O4 0.024551 0.716192 0.582744
O O5 0.323773 0.341616 0.449891
O O6 0.440138 0.400883 0.334286
O O7 0.194207 0.444029 0.429448
O O8 0.620066 0.412001 0.558363
O O9 0.500000 0.181521 0.750000
O O10 0.229980 0.966782 0.332092
O O11 0.008415 0.454176 0.912538
O O12 0.000000 0.501244 0.750000
O O13 0.500000 0.889388 0.750000
#
# Coordination Sequence:
#
# PCOD8147139 Si02
#       6
#     8   8   8   4   8   8
#     4  11  26  47  67  99 136 179 236 277 348 410
#     4  11  23  42  70 102 142 176 234 285 346 410
#     4  11  26  44  71 101 137 179 229 295 342 408
#     4  10  22  42  72 106 134 184 222 284 344 426
#     4   9  21  43  66 103 139 174 228 284 351 415
#     4  11  25  45  69  98 140 187 227 287 346 415
#
# _framework density 22.472401000000001
#
# number of rings (size 3 to 8) (size 9 to 14) (size 15 to 20)
#    0.000    1.455    1.818    2.182    7.636    0.727 
#   11.455    0.000    0.000    0.000    0.000    0.000 
#    0.000    0.000    0.000    0.000    0.000    0.000 
#
# Total GULP energy -272643.547825 kJ/mol
# GULP energy per Si atom -12392.888538 kJ/mol
# Density = 2.242125 g / cm^3
# Si number density = 22.472401 Si / 1000 Ang^3
#
#
#
# Elastic Constant Matrix: (Units=GPa)
#
#
# Indices 1 2 3 4 5 6 
#
# 1 147.3796 62.6853 44.8473 0.0000 19.0507 0.0000
# 2 62.6853 159.6155 24.6243 0.0000 17.5993 0.0000
# 3 44.8473 24.6243 108.8948 0.0000 29.6074 0.0000
# 4 0.0000 0.0000 0.0000 25.0456 0.0000 3.6761
# 5 19.0507 17.5993 29.6074 0.0000 32.2616 0.0000
# 6 0.0000 0.0000 0.0000 3.6761 0.0000 -1.1134
#
#
#
# Elastic Compliance Matrix: (Units=1/GPa)
#
#
# Indices 1 2 3 4 5 6 
#
# 1 0.009044 -0.002999 -0.002717 0.000000 -0.001211 0.000000
# 2 -0.002999 0.007700 0.000206 0.000000 -0.002618 0.000000
# 3 -0.002717 0.000206 0.013125 0.000000 -0.010553 0.000000
# 4 0.000000 0.000000 0.000000 0.026894 0.000000 0.088795
# 5 -0.001211 -0.002618 -0.010553 0.000000 0.042825 0.000000
# 6 0.000000 0.000000 0.000000 0.088795 0.000000 -0.604974
#
#
# Mechanical properties :
#
#
# Convention : Reuss Voigt Hill
#
# Bulk Modulus (GPa) = 53.05672 75.57817 64.31745
# Shear Modulus (GPa) = -10.24417 30.15429 9.95506
#
# Velocity S-wave (km/s) = -2.13739 3.66708 2.10702
# Velocity P-wave (km/s) = 4.19162 7.18572 5.88236
#
# Compressibility (1/GPa) = 0.01884775
#
# Stress axis : x y z
#
# Youngs Moduli (GPa) = 110.56733 129.87254 76.19074
#
# Poissons Ratio (x) = 0.38951 0.20704
# Poissons Ratio (y) = 0.33161 -0.01569
# Poissons Ratio (z) = 0.30045 -0.02675
#
# Static dielectric constant tensor:
#      x y z
#    x 4.187060 0.000000 0.153880 
#    y 0.000000 4.283300 0.000000 
#    z 0.153880 0.000000 4.011740 
# 
# 
# High freq. dielectric constant tensor:
#      x y z
#    x 1.894810 0.000000 0.009790 
#    y 0.000000 1.899350 0.000000 
#    z 0.009790 0.000000 1.882420 
# 
# From -- ./inp_files/130126.got.cif
#   From: 2010.06.25/outbox.cif.g09.slc.cpg/sg15_66_cif.got.tgz:130126.got - 2010.06.28 07:06:18.
