data_PCOD8147323
_publ_section_title
;
Structure prediction by ZEFSAII (Michael W. Deem and Ramdas Pophale) SiO2 
 PCOD8147323
Probable space group: C 2/C
;
_chemical_formula_sum "Si O2"
_cell_formula_units_Z 64
_cell_length_a 28.087822
_cell_length_b 6.887003
_cell_length_c 27.238953
_cell_angle_alpha 90.000000
_cell_angle_beta 145.382395
_cell_angle_gamma 90.000000
_cell_volume 2993.373895
_symmetry_space_group_name_H-M "C 2/C"
_symmetry_group_IT_number 15
_symmetry_cell_setting 'monoclinic'
loop_
_space_group_symop_operation_xyz
x,y,z
-x,y,1/2-z
-x,-y,-z
x,-y,1/2+z
1/2+x,1/2+y,z
1/2-x,1/2+y,1/2-z
1/2-x,1/2-y,-z
1/2+x,1/2-y,1/2+z
loop_
_atom_site_type_symbol
_atom_site_label
_atom_site_fract_x
_atom_site_fract_y
_atom_site_fract_z
Si Si1 0.596835 0.593668 0.745871
Si Si2 0.975211 0.766279 0.617845
Si Si3 0.940227 0.636761 0.130165
Si Si4 0.345939 0.441593 0.873731
Si Si5 0.335759 0.784291 0.794427
Si Si6 0.544760 0.121861 0.579380
Si Si7 0.810130 0.710485 0.096361
Si Si8 0.157839 0.071656 0.014489
O O1 0.559914 0.378494 0.706623
O O2 0.524433 0.740224 0.700471
O O3 0.640278 0.657852 0.732372
O O4 0.666167 0.604155 0.848599
O O5 0.963221 0.585541 0.642609
O O6 0.980771 0.691920 0.566752
O O7 0.894075 0.902366 0.556403
O O8 0.897142 0.634807 0.147403
O O9 0.877738 0.720456 0.034868
O O10 0.353426 0.657939 0.858143
O O11 0.261290 0.333922 0.787597
O O12 0.420726 0.315825 0.915560
O O13 0.356731 0.452742 0.940729
O O14 0.385438 0.986030 0.836462
O O15 0.500000 0.000000 0.500000
O O16 0.757378 0.558146 0.085634
O O17 0.750000 0.750000 0.000000
#
# Coordination Sequence:
#
# PCOD8147323 Si02
#       8
#     8   8   8   8   8   8   8   8
#     4  11  22  43  69  94 133 170 224 282 331 404
#     4  11  23  41  67 101 131 175 226 273 336 406
#     4  10  22  43  67  97 132 175 221 275 342 395
#     4  12  24  41  64  99 136 182 226 274 340 405
#     4  12  24  41  65  96 136 179 228 274 336 406
#     4  12  25  40  66 100 138 182 228 276 334 405
#     4  10  22  44  69  95 129 175 218 277 346 392
#     4  10  23  41  66  95 139 174 220 280 332 401
#
# _framework density 21.380557
#
# number of rings (size 3 to 8) (size 9 to 14) (size 15 to 20)
#    0.000    1.000    5.000    1.875    1.750    1.500 
#    0.000   12.500    0.000    0.000    0.000    0.000 
#    0.000    0.000    0.000    0.000    0.000    0.000 
#
# Total GULP energy -396728.454081 kJ/mol
# GULP energy per Si atom -12397.764190 kJ/mol
# Density = 2.133189 g / cm^3
# Si number density = 21.380557 Si / 1000 Ang^3
#
#
#
# Elastic Constant Matrix: (Units=GPa)
#
#
# Indices 1 2 3 4 5 6 
#
# 1 110.8776 26.0447 9.8740 -0.0009 -7.1228 0.0005
# 2 26.0447 101.0071 20.0788 0.0028 -2.5792 0.0069
# 3 9.8740 20.0788 76.1113 -0.0003 -20.5503 0.0001
# 4 -0.0009 0.0028 -0.0003 17.9184 -0.0009 4.2274
# 5 -7.1228 -2.5792 -20.5503 -0.0009 33.7051 0.0001
# 6 0.0005 0.0069 0.0001 4.2274 0.0001 26.8410
#
#
#
# Elastic Compliance Matrix: (Units=1/GPa)
#
#
# Indices 1 2 3 4 5 6 
#
# 1 0.009717 -0.002433 -0.000137 0.000001 0.001784 0.000000
# 2 -0.002433 0.011089 -0.003016 -0.000001 -0.001504 -0.000003
# 3 -0.000137 -0.003016 0.016618 0.000001 0.009872 0.000000
# 4 0.000001 -0.000001 0.000001 0.057962 0.000002 -0.009129
# 5 0.001784 -0.001504 0.009872 0.000002 0.035950 0.000000
# 6 0.000000 -0.000003 0.000000 -0.009129 0.000000 0.038694
#
#
# Mechanical properties :
#
#
# Convention : Reuss Voigt Hill
#
# Bulk Modulus (GPa) = 38.09276 44.44347 41.26812
# Shear Modulus (GPa) = 26.32241 31.15947 28.74094
#
# Velocity S-wave (km/s) = 3.51256 3.82170 3.67039
# Velocity P-wave (km/s) = 5.85713 6.34869 6.10786
#
# Compressibility (1/GPa) = 0.02625171
#
# Stress axis : x y z
#
# Youngs Moduli (GPa) = 102.91027 90.18207 60.17726
#
# Poissons Ratio (x) = 0.21939 0.00826
# Poissons Ratio (y) = 0.25036 0.18149
# Poissons Ratio (z) = 0.01412 0.27198
#
# Static dielectric constant tensor:
#      x y z
#    x 4.383450 -0.000010 0.171230 
#    y -0.000010 3.968680 0.000000 
#    z 0.171230 0.000000 4.067440 
# 
# 
# High freq. dielectric constant tensor:
#      x y z
#    x 1.859660 0.000000 0.001500 
#    y 0.000000 1.823360 0.000000 
#    z 0.001500 0.000000 1.843330 
# 
# From -- ./inp_files/304110.got.cif
#   From: 2010.06.25/outbox.cif.g09.slc.cpg/sg15_153_cif.got.tgz:304110.got - 2010.06.28 07:06:18.
