data_PCOD8147009
_publ_section_title
;
Structure prediction by ZEFSAII (Michael W. Deem and Ramdas Pophale) SiO2 
 PCOD8147009
Probable space group: C 2/C
;
_chemical_formula_sum "Si O2"
_cell_formula_units_Z 60
_cell_length_a 22.134371
_cell_length_b 14.151098
_cell_length_c 8.652035
_cell_angle_alpha 90.000000
_cell_angle_beta 84.364269
_cell_angle_gamma 90.000000
_cell_volume 2696.939937
_symmetry_space_group_name_H-M "C 2/C"
_symmetry_group_IT_number 15
_symmetry_cell_setting 'monoclinic'
loop_
_space_group_symop_operation_xyz
x,y,z
-x,y,1/2-z
-x,-y,-z
x,-y,1/2+z
1/2+x,1/2+y,z
1/2-x,1/2+y,1/2-z
1/2-x,1/2-y,-z
1/2+x,1/2-y,1/2+z
loop_
_atom_site_type_symbol
_atom_site_label
_atom_site_fract_x
_atom_site_fract_y
_atom_site_fract_z
Si Si1 0.115854 0.427217 0.829309
Si Si2 0.000000 0.021799 0.750000
Si Si3 0.211204 0.715246 0.365957
Si Si4 0.912708 0.948571 0.526227
Si Si5 0.384962 0.337806 0.991185
Si Si6 0.892065 0.624915 0.523350
Si Si7 0.485727 0.214649 0.080159
Si Si8 0.669938 0.293532 0.823898
O O1 0.176415 0.385003 0.896338
O O2 0.108516 0.537571 0.859744
O O3 0.119904 0.410401 0.645687
O O4 0.056992 0.377077 0.914081
O O5 0.043233 0.084600 0.626664
O O6 0.044906 0.953328 0.833563
O O7 0.250000 0.750000 0.500000
O O8 0.158229 0.795117 0.359876
O O9 0.256884 0.700339 0.210529
O O10 0.857336 0.876414 0.561437
O O11 0.882663 0.049524 0.495792
O O12 0.453847 0.303408 0.003550
O O13 0.362115 0.297370 0.834490
O O14 0.838901 0.693714 0.591088
O O15 0.953843 0.685231 0.526458
O O16 0.500000 0.246450 0.250000
#
# Coordination Sequence:
#
# PCOD8147009 Si02
#       8
#     8   4   8   8   8   8   8   8
#     4  10  23  45  65 101 129 181 219 276 339 395
#     4  10  24  38  62  92 136 174 216 276 330 424
#     4   9  22  45  71  94 132 170 231 279 335 395
#     4  11  23  41  64  98 135 177 227 269 352 408
#     4  10  22  42  68  96 132 185 218 286 347 404
#     4  11  25  40  70  98 138 170 225 278 338 410
#     4   9  21  40  65  97 134 174 224 272 340 403
#     4  11  25  44  63 102 131 179 233 281 334 411
#
# _framework density 22.247437999999999
#
# number of rings (size 3 to 8) (size 9 to 14) (size 15 to 20)
#    0.000    1.867    1.333    0.400   10.267    4.267 
#    2.400    0.000    0.000    0.000    0.000    0.000 
#    0.000    0.000    0.000    0.000    0.000    0.000 
#
# Total GULP energy -371926.997379 kJ/mol
# GULP energy per Si atom -12397.566579 kJ/mol
# Density = 2.219680 g / cm^3
# Si number density = 22.247438 Si / 1000 Ang^3
#
#
#
# Elastic Constant Matrix: (Units=GPa)
#
#
# Indices 1 2 3 4 5 6 
#
# 1 89.9041 14.2823 31.2429 0.0000 -16.3512 0.0000
# 2 14.2823 88.2221 29.6016 0.0000 -7.2562 0.0000
# 3 31.2429 29.6016 88.9320 0.0000 -19.4692 0.0000
# 4 0.0000 0.0000 0.0000 34.0011 0.0000 -4.2347
# 5 -16.3512 -7.2562 -19.4692 0.0000 41.1560 0.0000
# 6 0.0000 0.0000 0.0000 -4.2347 0.0000 23.7309
#
#
#
# Elastic Compliance Matrix: (Units=1/GPa)
#
#
# Indices 1 2 3 4 5 6 
#
# 1 0.013106 -0.000616 -0.003662 0.000000 0.003366 0.000000
# 2 -0.000616 0.012792 -0.004017 0.000000 0.000110 0.000000
# 3 -0.003662 -0.004017 0.014942 0.000000 0.004905 0.000000
# 4 0.000000 0.000000 0.000000 0.030079 0.000000 0.005367
# 5 0.003366 0.000110 0.004905 0.000000 0.027975 0.000000
# 6 0.000000 0.000000 0.000000 0.005367 0.000000 0.043097
#
#
# Mechanical properties :
#
#
# Convention : Reuss Voigt Hill
#
# Bulk Modulus (GPa) = 41.23981 46.36796 43.80389
# Shear Modulus (GPa) = 30.00036 32.57304 31.28670
#
# Velocity S-wave (km/s) = 3.67616 3.83054 3.75414
# Velocity P-wave (km/s) = 6.04946 6.36013 6.20674
#
# Compressibility (1/GPa) = 0.02424841
#
# Stress axis : x y z
#
# Youngs Moduli (GPa) = 76.30285 78.17536 66.92456
#
# Poissons Ratio (x) = 0.04816 0.24510
# Poissons Ratio (y) = 0.04700 0.26885
# Poissons Ratio (z) = 0.27944 0.31405
#
# Static dielectric constant tensor:
#      x y z
#    x 4.336180 0.000000 -0.346670 
#    y 0.000000 3.858740 0.000000 
#    z -0.346670 0.000000 4.147060 
# 
# 
# High freq. dielectric constant tensor:
#      x y z
#    x 1.877940 0.000000 -0.012940 
#    y 0.000000 1.873440 0.000000 
#    z -0.012940 0.000000 1.874010 
# 
# From -- ./inp_files/61904.got.cif
#   From: 2010.06.25/outbox.cif.g09.slc.cpg/sg15_31_cif.got.tgz:61904.got - 2010.06.28 07:06:18.
