data_PCOD8147895
_publ_section_title
;
Structure prediction by ZEFSAII (Michael W. Deem and Ramdas Pophale) SiO2 
 PCOD8147895
Probable space group: C 2/C
;
_chemical_formula_sum "Si O2"
_cell_formula_units_Z 52
_cell_length_a 7.918115
_cell_length_b 12.180512
_cell_length_c 27.342993
_cell_angle_alpha 90.000000
_cell_angle_beta 62.040190
_cell_angle_gamma 90.000000
_cell_volume 2329.325427
_symmetry_space_group_name_H-M "C 2/C"
_symmetry_group_IT_number 15
_symmetry_cell_setting 'monoclinic'
loop_
_space_group_symop_operation_xyz
x,y,z
-x,y,1/2-z
-x,-y,-z
x,-y,1/2+z
1/2+x,1/2+y,z
1/2-x,1/2+y,1/2-z
1/2-x,1/2-y,-z
1/2+x,1/2-y,1/2+z
loop_
_atom_site_type_symbol
_atom_site_label
_atom_site_fract_x
_atom_site_fract_y
_atom_site_fract_z
Si Si1 0.654550 0.085966 0.092341
Si Si2 0.500000 0.917962 0.250000
Si Si3 0.419170 0.479558 0.206590
Si Si4 0.280848 0.030935 0.523326
Si Si5 0.516790 0.319063 0.114844
Si Si6 0.008402 0.868286 0.608830
Si Si7 0.116022 0.357822 0.132983
O O1 0.506547 0.187415 0.111862
O O2 0.800738 0.116427 0.114841
O O3 0.541558 0.974032 0.121388
O O4 0.758822 0.069850 0.026463
O O5 0.687986 0.992110 0.235412
O O6 0.533082 0.839743 0.198685
O O7 0.500000 0.488205 0.250000
O O8 0.482250 0.361490 0.175034
O O9 0.514726 0.575582 0.161310
O O10 0.215722 0.131591 0.567111
O O11 0.500000 0.000000 0.500000
O O12 0.163730 0.921338 0.551729
O O13 0.346691 0.365666 0.103663
O O14 0.048118 0.739160 0.607250
#
# Coordination Sequence:
#
# PCOD8147895 Si02
#       7
#     8   4   8   8   8   8   8
#     4  12  24  45  71  97 141 182 224 293 339 424
#     4  10  22  46  66 102 136 186 234 286 354 414
#     4  10  23  46  71 101 143 181 238 294 347 428
#     4  11  24  44  71 102 138 186 232 282 356 416
#     4  10  24  47  64 105 139 176 239 286 346 420
#     4  11  25  45  67 105 137 180 232 290 352 413
#     4  11  25  46  68  99 143 175 236 290 344 423
#
# _framework density 22.324061
#
# number of rings (size 3 to 8) (size 9 to 14) (size 15 to 20)
#    0.000    1.231    4.615    1.846    5.385    3.077 
#    4.154    0.000    0.000    0.000    0.000    0.000 
#    0.000    0.000    0.000    0.000    0.000    0.000 
#
# Total GULP energy -322414.893649 kJ/mol
# GULP energy per Si atom -12400.572833 kJ/mol
# Density = 2.227325 g / cm^3
# Si number density = 22.324061 Si / 1000 Ang^3
#
#
#
# Elastic Constant Matrix: (Units=GPa)
#
#
# Indices 1 2 3 4 5 6 
#
# 1 70.7484 30.7761 39.6025 0.0000 3.8412 0.0000
# 2 30.7761 158.6368 41.3616 0.0000 -0.1651 0.0000
# 3 39.6025 41.3616 120.1658 0.0000 8.6806 0.0000
# 4 0.0000 0.0000 0.0000 23.7523 0.0000 3.2255
# 5 3.8412 -0.1651 8.6806 0.0000 40.5166 0.0000
# 6 0.0000 0.0000 0.0000 3.2255 0.0000 26.9529
#
#
#
# Elastic Compliance Matrix: (Units=1/GPa)
#
#
# Indices 1 2 3 4 5 6 
#
# 1 0.017981 -0.002148 -0.005142 0.000000 -0.000612 0.000000
# 2 -0.002148 0.007194 -0.001813 0.000000 0.000621 0.000000
# 3 -0.005142 -0.001813 0.010773 0.000000 -0.001828 0.000000
# 4 0.000000 0.000000 0.000000 0.042797 0.000000 -0.005121
# 5 -0.000612 0.000621 -0.001828 0.000000 0.025133 0.000000
# 6 0.000000 0.000000 0.000000 -0.005121 0.000000 0.037715
#
#
# Mechanical properties :
#
#
# Convention : Reuss Voigt Hill
#
# Bulk Modulus (GPa) = 56.36911 63.67016 60.01964
# Shear Modulus (GPa) = 30.17278 34.09841 32.13560
#
# Velocity S-wave (km/s) = 3.68037 3.91247 3.79820
# Velocity P-wave (km/s) = 6.58524 6.99948 6.79552
#
# Compressibility (1/GPa) = 0.01774021
#
# Stress axis : x y z
#
# Youngs Moduli (GPa) = 55.61506 139.00783 92.82778
#
# Poissons Ratio (x) = 0.29862 0.47734
# Poissons Ratio (y) = 0.11947 0.16830
# Poissons Ratio (z) = 0.28598 0.25203
#
# Static dielectric constant tensor:
#      x y z
#    x 3.898730 0.000000 -0.022310 
#    y 0.000000 4.336230 0.000000 
#    z -0.022310 0.000000 4.165880 
# 
# 
# High freq. dielectric constant tensor:
#      x y z
#    x 1.875560 0.000000 0.001270 
#    y 0.000000 1.874060 0.000000 
#    z 0.001270 0.000000 1.885300 
# 
# From -- ./inp_files/287897.got.cif
#   From: 2010.06.25/outbox.cif.g09.slc.cpg/sg15_144_cif.got.tgz:287897.got - 2010.06.28 07:06:18.
