data_PCOD8147950
_publ_section_title
;
Structure prediction by ZEFSAII (Michael W. Deem and Ramdas Pophale) SiO2 
 PCOD8147950
Probable space group: C 2/C
;
_chemical_formula_sum "Si O2"
_cell_formula_units_Z 44
_cell_length_a 19.837853
_cell_length_b 8.942595
_cell_length_c 15.956047
_cell_angle_alpha 90.000000
_cell_angle_beta 46.066453
_cell_angle_gamma 90.000000
_cell_volume 2038.466062
_symmetry_space_group_name_H-M "C 2/C"
_symmetry_group_IT_number 15
_symmetry_cell_setting 'monoclinic'
loop_
_space_group_symop_operation_xyz
x,y,z
-x,y,1/2-z
-x,-y,-z
x,-y,1/2+z
1/2+x,1/2+y,z
1/2-x,1/2+y,1/2-z
1/2-x,1/2-y,-z
1/2+x,1/2-y,1/2+z
loop_
_atom_site_type_symbol
_atom_site_label
_atom_site_fract_x
_atom_site_fract_y
_atom_site_fract_z
Si Si1 0.849252 0.131714 0.828067
Si Si2 0.667993 0.779658 0.828718
Si Si3 0.000000 0.895188 0.750000
Si Si4 0.656351 0.930590 0.572417
Si Si5 0.816497 0.426968 0.277677
Si Si6 0.472629 0.152379 0.908465
O O1 0.864170 0.171111 0.718199
O O2 0.877199 0.270129 0.864023
O O3 0.740915 0.088040 0.934163
O O4 0.913852 0.992664 0.793041
O O5 0.746236 0.707806 0.820463
O O6 0.712995 0.929477 0.751375
O O7 0.576483 0.814764 0.961446
O O8 0.039480 0.794389 0.641074
O O9 0.690863 0.036628 0.617821
O O10 0.569305 0.004985 0.599940
O O11 0.920162 0.377998 0.162856
#
# Coordination Sequence:
#
# PCOD8147950 Si02
#       6
#     8   8   4   8   8   8
#     4  10  25  44  67 100 131 178 227 278 333 396
#     4  11  26  43  67  97 142 172 223 283 334 404
#     4  12  26  40  70 100 132 174 228 280 324 410
#     4  10  22  46  72  91 133 182 228 273 328 406
#     4  11  24  44  66 101 131 182 222 274 342 398
#     4  12  25  43  70 100 133 183 221 280 337 405
#
# _framework density 21.584859000000002
#
# number of rings (size 3 to 8) (size 9 to 14) (size 15 to 20)
#    0.000    1.091    1.818    2.727   10.182    2.182 
#    6.545    0.000    0.000    0.000    0.000    0.000 
#    0.000    0.000    0.000    0.000    0.000    0.000 
#
# Total GULP energy -272988.108611 kJ/mol
# GULP energy per Si atom -12408.550391 kJ/mol
# Density = 2.153573 g / cm^3
# Si number density = 21.584859 Si / 1000 Ang^3
#
#
#
# Elastic Constant Matrix: (Units=GPa)
#
#
# Indices 1 2 3 4 5 6 
#
# 1 49.3430 38.2889 0.1281 0.0003 -3.8560 -0.0003
# 2 38.2889 89.7407 16.8929 0.0004 -6.5541 -0.0005
# 3 0.1281 16.8929 92.0459 0.0002 13.4746 -0.0003
# 4 0.0003 0.0004 0.0002 34.3558 -0.0001 -2.7649
# 5 -3.8560 -6.5541 13.4746 -0.0001 30.0453 0.0001
# 6 -0.0003 -0.0005 -0.0003 -2.7649 0.0001 44.3278
#
#
#
# Elastic Compliance Matrix: (Units=1/GPa)
#
#
# Indices 1 2 3 4 5 6 
#
# 1 0.030824 -0.013627 0.002477 0.000000 -0.000127 0.000000
# 2 -0.013627 0.017966 -0.003849 0.000000 0.003896 0.000000
# 3 0.002477 -0.003849 0.012462 0.000000 -0.006110 0.000000
# 4 0.000000 0.000000 0.000000 0.029254 0.000000 0.001825
# 5 -0.000127 0.003896 -0.006110 0.000000 0.036857 0.000000
# 6 0.000000 0.000000 0.000000 0.001825 0.000000 0.022673
#
#
# Mechanical properties :
#
#
# Convention : Reuss Voigt Hill
#
# Bulk Modulus (GPa) = 31.99599 37.97218 34.98409
# Shear Modulus (GPa) = 26.25329 33.46709 29.86019
#
# Velocity S-wave (km/s) = 3.49131 3.94190 3.72342
# Velocity P-wave (km/s) = 5.57744 6.19260 5.89305
#
# Compressibility (1/GPa) = 0.03125391
#
# Stress axis : x y z
#
# Youngs Moduli (GPa) = 32.44213 55.65948 80.24686
#
# Poissons Ratio (x) = 0.75847 -0.19874
# Poissons Ratio (y) = 0.44209 0.30885
# Poissons Ratio (z) = -0.08035 0.21422
#
# Static dielectric constant tensor:
#      x y z
#    x 3.726730 0.000000 0.089880 
#    y 0.000000 4.124420 0.000000 
#    z 0.089880 0.000000 4.044870 
# 
# 
# High freq. dielectric constant tensor:
#      x y z
#    x 1.844820 0.000000 0.005460 
#    y 0.000000 1.860690 0.000000 
#    z 0.005460 0.000000 1.857890 
# 
# From -- ./inp_files/159660.got.cif
#   From: 2010.06.25/outbox.cif.g09.slc.cpg/sg15_80_cif.got.tgz:159660.got - 2010.06.28 07:06:18.
