data_PCOD8147352
_publ_section_title
;
Structure prediction by ZEFSAII (Michael W. Deem and Ramdas Pophale) SiO2 
 PCOD8147352
Probable space group: C 2/C
;
_chemical_formula_sum "Si O2"
_cell_formula_units_Z 32
_cell_length_a 14.684146
_cell_length_b 5.140949
_cell_length_c 17.918279
_cell_angle_alpha 90.000000
_cell_angle_beta 68.241633
_cell_angle_gamma 90.000000
_cell_volume 1256.289268
_symmetry_space_group_name_H-M "C 2/C"
_symmetry_group_IT_number 15
_symmetry_cell_setting 'monoclinic'
loop_
_space_group_symop_operation_xyz
x,y,z
-x,y,1/2-z
-x,-y,-z
x,-y,1/2+z
1/2+x,1/2+y,z
1/2-x,1/2+y,1/2-z
1/2-x,1/2-y,-z
1/2+x,1/2-y,1/2+z
loop_
_atom_site_type_symbol
_atom_site_label
_atom_site_fract_x
_atom_site_fract_y
_atom_site_fract_z
Si Si1 0.864768 0.870544 0.571932
Si Si2 0.859630 0.346062 0.480225
Si Si3 0.291554 0.043899 0.275291
Si Si4 0.521874 0.787811 0.320224
O O1 0.871661 0.605396 0.524259
O O2 0.748432 0.904141 0.627857
O O3 0.920789 0.870851 0.634026
O O4 0.909480 0.111089 0.511934
O O5 0.750000 0.250000 0.500000
O O6 0.918811 0.387316 0.385484
O O7 0.254427 0.264814 0.231151
O O8 0.409611 0.026814 0.230729
O O9 0.500000 0.624310 0.250000
#
# Coordination Sequence:
#
# PCOD8147352 Si02
#       4
#     8   8   8   8
#     4  11  24  48  72  99 139 185 229 284 344 410
#     4  12  26  47  72 103 138 184 232 284 344 411
#     4  10  22  43  68  98 134 178 226 282 339 399
#     4  11  25  44  71 106 141 181 231 284 344 412
#
# _framework density 25.471838000000002
#
# number of rings (size 3 to 8) (size 9 to 14) (size 15 to 20)
#    0.000    1.000    0.000    6.750    0.000    8.000 
#    0.000   15.000    0.000    0.000    0.000    0.000 
#    0.000    0.000    0.000    0.000    0.000    0.000 
#
# Total GULP energy -198255.361078 kJ/mol
# GULP energy per Si atom -12390.960067 kJ/mol
# Density = 2.541386 g / cm^3
# Si number density = 25.471838 Si / 1000 Ang^3
#
#
#
# Elastic Constant Matrix: (Units=GPa)
#
#
# Indices 1 2 3 4 5 6 
#
# 1 119.8354 28.6328 67.4730 0.0001 -18.2022 -0.0009
# 2 28.6328 142.2858 66.4206 -0.0032 -1.0798 -0.0014
# 3 67.4730 66.4206 220.5245 -0.0004 -23.0585 -0.0004
# 4 0.0001 -0.0032 -0.0004 23.9150 -0.0005 -1.2654
# 5 -18.2022 -1.0798 -23.0585 -0.0005 57.9525 -0.0009
# 6 -0.0009 -0.0014 -0.0004 -1.2654 -0.0009 13.3330
#
#
#
# Elastic Compliance Matrix: (Units=1/GPa)
#
#
# Indices 1 2 3 4 5 6 
#
# 1 0.010394 -0.000811 -0.002709 0.000000 0.002172 0.000001
# 2 -0.000811 0.008283 -0.002355 0.000001 -0.001037 0.000001
# 3 -0.002709 -0.002355 0.006239 0.000000 0.001588 0.000000
# 4 0.000000 0.000001 0.000000 0.042026 0.000000 0.003989
# 5 0.002172 -0.001037 0.001588 0.000000 0.018550 0.000001
# 6 0.000001 0.000001 0.000000 0.003989 0.000001 0.075381
#
#
# Mechanical properties :
#
#
# Convention : Reuss Voigt Hill
#
# Bulk Modulus (GPa) = 75.95350 89.74426 82.84888
# Shear Modulus (GPa) = 28.24709 40.38138 34.31424
#
# Velocity S-wave (km/s) = 3.33371 3.98595 3.67433
# Velocity P-wave (km/s) = 6.68592 7.51618 7.11317
#
# Compressibility (1/GPa) = 0.01316595
#
# Stress axis : x y z
#
# Youngs Moduli (GPa) = 96.21391 120.73252 160.28609
#
# Poissons Ratio (x) = 0.09786 0.43419
# Poissons Ratio (y) = 0.07798 0.37751
# Poissons Ratio (z) = 0.26063 0.28435
#
# Static dielectric constant tensor:
#      x y z
#    x 5.073290 0.000000 -0.511850 
#    y 0.000000 4.413210 -0.000010 
#    z -0.511850 -0.000010 5.478410 
# 
# 
# High freq. dielectric constant tensor:
#      x y z
#    x 2.029790 0.000000 -0.018950 
#    y 0.000000 1.991170 0.000000 
#    z -0.018950 0.000000 2.049420 
# 
# From -- ./inp_files/207698.got.cif
#   From: 2010.06.25/outbox.cif.g09.slc.cpg/sg15_104_cif.got.tgz:207698.got - 2010.06.28 07:06:18.
