data_PCOD8147129
_publ_section_title
;
Structure prediction by ZEFSAII (Michael W. Deem and Ramdas Pophale) SiO2 
 PCOD8147129
Probable space group: C 2/C
;
_chemical_formula_sum "Si O2"
_cell_formula_units_Z 40
_cell_length_a 7.590891
_cell_length_b 20.496561
_cell_length_c 11.006466
_cell_angle_alpha 90.000000
_cell_angle_beta 89.155310
_cell_angle_gamma 90.000000
_cell_volume 1712.278697
_symmetry_space_group_name_H-M "C 2/C"
_symmetry_group_IT_number 15
_symmetry_cell_setting 'monoclinic'
loop_
_space_group_symop_operation_xyz
x,y,z
-x,y,1/2-z
-x,-y,-z
x,-y,1/2+z
1/2+x,1/2+y,z
1/2-x,1/2+y,1/2-z
1/2-x,1/2-y,-z
1/2+x,1/2-y,1/2+z
loop_
_atom_site_type_symbol
_atom_site_label
_atom_site_fract_x
_atom_site_fract_y
_atom_site_fract_z
Si Si1 0.307569 0.142765 0.296364
Si Si2 0.000000 0.859688 0.250000
Si Si3 0.000000 0.755897 0.750000
Si Si4 0.205789 0.065955 0.077971
Si Si5 0.674484 0.424526 0.019696
Si Si6 0.786366 0.312679 0.422419
O O1 0.500000 0.166366 0.250000
O O2 0.171963 0.201026 0.272570
O O3 0.253249 0.079061 0.217766
O O4 0.304699 0.122642 0.440068
O O5 0.132185 0.815384 0.324292
O O6 0.881343 0.901843 0.344982
O O7 0.972774 0.705165 0.860330
O O8 0.996535 0.070869 0.064367
O O9 0.303955 0.120624 0.996394
O O10 0.269824 0.994487 0.035333
O O11 0.750000 0.250000 0.500000
#
# Coordination Sequence:
#
# PCOD8147129 Si02
#       6
#     8   4   4   8   8   8
#     4  12  25  44  73 105 141 192 242 297 364 429
#     4  10  24  43  74 114 135 192 252 288 368 428
#     4  12  24  45  72  96 143 192 232 298 354 430
#     4  10  22  42  72 100 146 185 237 292 372 423
#     4  10  22  43  73 107 141 186 238 305 355 437
#     4  11  23  44  66 103 145 184 240 295 349 435
#
# _framework density 23.360683999999999
#
# number of rings (size 3 to 8) (size 9 to 14) (size 15 to 20)
#    0.000    1.200    4.000    1.200    9.800    2.400 
#    1.800    3.000    0.000    0.000    0.000    0.000 
#    0.000    0.000    0.000    0.000    0.000    0.000 
#
# Total GULP energy -247875.864756 kJ/mol
# GULP energy per Si atom -12393.793238 kJ/mol
# Density = 2.330751 g / cm^3
# Si number density = 23.360684 Si / 1000 Ang^3
#
#
#
# Elastic Constant Matrix: (Units=GPa)
#
#
# Indices 1 2 3 4 5 6 
#
# 1 92.9279 51.4813 46.1053 0.0000 -20.2451 0.0000
# 2 51.4813 155.6656 76.1295 0.0000 -25.4055 0.0000
# 3 46.1053 76.1295 171.8225 0.0000 -30.2280 0.0000
# 4 0.0000 0.0000 0.0000 29.4404 0.0000 -11.2318
# 5 -20.2451 -25.4055 -30.2280 0.0000 53.8146 0.0000
# 6 0.0000 0.0000 0.0000 -11.2318 0.0000 25.5970
#
#
#
# Elastic Compliance Matrix: (Units=1/GPa)
#
#
# Indices 1 2 3 4 5 6 
#
# 1 0.014103 -0.003325 -0.001835 0.000000 0.002705 0.000000
# 2 -0.003325 0.009190 -0.002926 0.000000 0.001444 0.000000
# 3 -0.001835 -0.002926 0.008039 0.000000 0.002444 0.000000
# 4 0.000000 0.000000 0.000000 0.040796 0.000000 0.017901
# 5 0.002705 0.001444 0.002444 0.000000 0.021655 0.000000
# 6 0.000000 0.000000 0.000000 0.017901 0.000000 0.046922
#
#
# Mechanical properties :
#
#
# Convention : Reuss Voigt Hill
#
# Bulk Modulus (GPa) = 65.96295 85.31648 75.63971
# Shear Modulus (GPa) = 30.87760 38.21704 34.54732
#
# Velocity S-wave (km/s) = 3.63957 4.04908 3.84977
# Velocity P-wave (km/s) = 6.77938 7.64596 7.22567
#
# Compressibility (1/GPa) = 0.01516003
#
# Stress axis : x y z
#
# Youngs Moduli (GPa) = 70.90745 108.81142 124.40077
#
# Poissons Ratio (x) = 0.36181 0.22829
# Poissons Ratio (y) = 0.23578 0.36394
# Poissons Ratio (z) = 0.13012 0.31834
#
# Static dielectric constant tensor:
#      x y z
#    x 4.035630 0.000000 -0.628820 
#    y 0.000000 3.716090 0.000000 
#    z -0.628820 0.000000 13.439440 
# 
# 
# High freq. dielectric constant tensor:
#      x y z
#    x 1.908250 0.000000 -0.009490 
#    y 0.000000 1.922680 0.000000 
#    z -0.009490 0.000000 1.940910 
# 
# From -- ./inp_files/77759.got.cif
#   From: 2010.06.25/outbox.cif.g09.slc.cpg/sg15_39_cif.got.tgz:77759.got - 2010.06.28 07:06:18.
