data_PCOD8147903
_publ_section_title
;
Structure prediction by ZEFSAII (Michael W. Deem and Ramdas Pophale) SiO2 
 PCOD8147903
Probable space group: C 2/C
;
_chemical_formula_sum "Si O2"
_cell_formula_units_Z 56
_cell_length_a 10.736902
_cell_length_b 25.675842
_cell_length_c 9.299134
_cell_angle_alpha 90.000000
_cell_angle_beta 100.931269
_cell_angle_gamma 90.000000
_cell_volume 2517.060814
_symmetry_space_group_name_H-M "C 2/C"
_symmetry_group_IT_number 15
_symmetry_cell_setting 'monoclinic'
loop_
_space_group_symop_operation_xyz
x,y,z
-x,y,1/2-z
-x,-y,-z
x,-y,1/2+z
1/2+x,1/2+y,z
1/2-x,1/2+y,1/2-z
1/2-x,1/2-y,-z
1/2+x,1/2-y,1/2+z
loop_
_atom_site_type_symbol
_atom_site_label
_atom_site_fract_x
_atom_site_fract_y
_atom_site_fract_z
Si Si1 0.581809 0.888431 0.900529
Si Si2 0.820669 0.050732 0.449456
Si Si3 0.999241 0.135098 0.565178
Si Si4 0.756754 0.196652 0.589113
Si Si5 0.906841 0.605351 0.608351
Si Si6 0.734423 0.696720 0.576054
Si Si7 0.683968 0.550475 0.715147
O O1 0.500000 0.866258 0.750000
O O2 0.684102 0.929807 0.861476
O O3 0.653007 0.841848 0.998542
O O4 0.487050 0.917438 0.991968
O O5 0.799411 0.038773 0.613538
O O6 0.925706 0.095651 0.442320
O O7 0.871446 0.000593 0.374999
O O8 0.093166 0.175560 0.508803
O O9 0.087647 0.099136 0.688631
O O10 0.895797 0.170580 0.623058
O O11 0.750000 0.250000 0.500000
O O12 0.729671 0.206460 0.749921
O O13 0.829945 0.654602 0.530241
O O14 0.815006 0.562643 0.661173
O O15 0.000000 0.626505 0.750000
O O16 0.750000 0.750000 0.500000
#
# Coordination Sequence:
#
# PCOD8147903 Si02
#       7
#     8   8   8   8   8   8   8
#     4  11  25  42  66  91 131 174 219 267 316 382
#     4  11  23  42  66  97 127 170 218 261 323 383
#     4  10  22  46  67  91 130 172 212 261 325 386
#     4  11  24  42  66  94 128 169 216 266 320 383
#     4  11  21  44  63  89 135 171 211 264 323 380
#     4  11  24  40  69  96 125 171 213 263 325 387
#     4  11  23  40  69  95 128 173 210 266 324 382
#
# _framework density 22.248173000000001
#
# number of rings (size 3 to 8) (size 9 to 14) (size 15 to 20)
#    0.000    1.143    2.857    4.714    6.000    1.143 
#    0.000    1.429    0.000    0.000    0.000    0.000 
#    0.000    0.000    0.000    0.000    0.000    0.000 
#
# Total GULP energy -347085.806465 kJ/mol
# GULP energy per Si atom -12395.921659 kJ/mol
# Density = 2.219754 g / cm^3
# Si number density = 22.248173 Si / 1000 Ang^3
#
#
#
# Elastic Constant Matrix: (Units=GPa)
#
#
# Indices 1 2 3 4 5 6 
#
# 1 118.3129 37.4997 50.0423 0.0000 12.5322 0.0000
# 2 37.4997 132.0483 45.4612 0.0000 -0.9839 0.0000
# 3 50.0423 45.4612 101.6619 0.0000 12.4336 0.0000
# 4 0.0000 0.0000 0.0000 35.8346 0.0000 -7.0222
# 5 12.5322 -0.9839 12.4336 0.0000 23.8832 0.0000
# 6 0.0000 0.0000 0.0000 -7.0222 0.0000 17.5727
#
#
#
# Elastic Compliance Matrix: (Units=1/GPa)
#
#
# Indices 1 2 3 4 5 6 
#
# 1 0.011209 -0.001735 -0.004287 0.000000 -0.003722 0.000000
# 2 -0.001735 0.009376 -0.003735 0.000000 0.003241 0.000000
# 3 -0.004287 -0.003735 0.014269 0.000000 -0.005333 0.000000
# 4 0.000000 0.000000 0.000000 0.030277 0.000000 0.012099
# 5 -0.003722 0.003241 -0.005333 0.000000 0.046733 0.000000
# 6 0.000000 0.000000 0.000000 0.012099 0.000000 0.061741
#
#
# Mechanical properties :
#
#
# Convention : Reuss Voigt Hill
#
# Bulk Modulus (GPa) = 65.18613 68.66995 66.92804
# Shear Modulus (GPa) = 25.22288 30.05943 27.64116
#
# Velocity S-wave (km/s) = 3.37071 3.67971 3.52860
# Velocity P-wave (km/s) = 6.67173 6.99901 6.83733
#
# Compressibility (1/GPa) = 0.01534069
#
# Stress axis : x y z
#
# Youngs Moduli (GPa) = 89.21015 106.65801 70.08203
#
# Poissons Ratio (x) = 0.18508 0.30041
# Poissons Ratio (y) = 0.15480 0.26175
# Poissons Ratio (z) = 0.38241 0.39836
#
# Static dielectric constant tensor:
#      x y z
#    x 4.654260 0.000000 0.111720 
#    y 0.000000 3.969320 0.000000 
#    z 0.111720 0.000000 3.749190 
# 
# 
# High freq. dielectric constant tensor:
#      x y z
#    x 1.899270 0.000000 0.009170 
#    y 0.000000 1.869050 0.000000 
#    z 0.009170 0.000000 1.861060 
# 
# From -- ./inp_files/35299.got.cif
#   From: 2010.06.25/outbox.cif.g09.slc.cpg/sg15_18_cif.got.tgz:35299.got - 2010.06.28 07:06:18.
