data_PCOD8147987
_publ_section_title
;
Structure prediction by ZEFSAII (Michael W. Deem and Ramdas Pophale) SiO2 
 PCOD8147987
Probable space group: C 2/C
;
_chemical_formula_sum "Si O2"
_cell_formula_units_Z 56
_cell_length_a 22.561743
_cell_length_b 21.979201
_cell_length_c 15.651414
_cell_angle_alpha 90.000000
_cell_angle_beta 161.526490
_cell_angle_gamma 90.000000
_cell_volume 2459.314167
_symmetry_space_group_name_H-M "C 2/C"
_symmetry_group_IT_number 15
_symmetry_cell_setting 'monoclinic'
loop_
_space_group_symop_operation_xyz
x,y,z
-x,y,1/2-z
-x,-y,-z
x,-y,1/2+z
1/2+x,1/2+y,z
1/2-x,1/2+y,1/2-z
1/2-x,1/2-y,-z
1/2+x,1/2-y,1/2+z
loop_
_atom_site_type_symbol
_atom_site_label
_atom_site_fract_x
_atom_site_fract_y
_atom_site_fract_z
Si Si1 0.626974 0.308579 0.673072
Si Si2 0.227743 0.257689 0.801524
Si Si3 0.590775 0.120948 0.192171
Si Si4 0.991982 0.571978 0.886902
Si Si5 0.500000 0.167388 0.750000
Si Si6 0.165279 0.980498 0.426265
Si Si7 0.000000 0.664451 0.250000
Si Si8 0.585929 0.554903 0.065067
O O1 0.644842 0.280920 0.601893
O O2 0.458259 0.274516 0.490027
O O3 0.585970 0.380878 0.614954
O O4 0.811647 0.293206 0.981460
O O5 0.170926 0.313145 0.783530
O O6 0.324382 0.208398 0.994961
O O7 0.755837 0.072572 0.405962
O O8 0.514378 0.121128 0.185316
O O9 0.445584 0.097925 0.919389
O O10 0.987855 0.629083 0.819694
O O11 0.834365 0.526160 0.635442
O O12 0.801916 0.540309 0.333704
O O13 0.000000 0.016838 0.250000
O O14 0.069201 0.942078 0.220237
O O15 0.500000 0.500000 0.000000
#
# Coordination Sequence:
#
# PCOD8147987 Si02
#       8
#     8   8   8   8   4   8   4   8
#     4  11  24  45  72 105 145 185 240 297 360 433
#     4  12  24  45  70 105 143 184 237 296 358 434
#     4  12  25  45  67 103 144 184 235 301 363 419
#     4  11  24  46  70 102 148 183 237 306 352 430
#     4  10  22  47  74  94 134 195 230 294 364 410
#     4  12  24  42  70  98 137 190 231 287 367 421
#     4  12  28  41  76 104 138 189 240 292 358 438
#     4  11  24  45  74 105 138 185 243 298 359 434
#
# _framework density 22.770575999999998
#
# number of rings (size 3 to 8) (size 9 to 14) (size 15 to 20)
#    0.000    0.571    5.714    3.429    3.000    3.429 
#    2.571    0.000    0.000    0.000    0.000    0.000 
#    0.000    0.000    0.000    0.000    0.000    0.000 
#
# Total GULP energy -346901.765046 kJ/mol
# GULP energy per Si atom -12389.348752 kJ/mol
# Density = 2.271875 g / cm^3
# Si number density = 22.770576 Si / 1000 Ang^3
#
#
#
# Elastic Constant Matrix: (Units=GPa)
#
#
# Indices 1 2 3 4 5 6 
#
# 1 83.6551 23.8397 17.1430 0.0001 -4.8216 0.0001
# 2 23.8397 58.3287 7.5326 0.0000 20.9232 0.0000
# 3 17.1430 7.5326 106.1581 0.0000 8.0130 0.0000
# 4 0.0001 0.0000 0.0000 26.3073 0.0000 -12.5873
# 5 -4.8216 20.9232 8.0130 0.0000 41.0954 0.0000
# 6 0.0001 0.0000 0.0000 -12.5873 0.0000 22.7960
#
#
#
# Elastic Compliance Matrix: (Units=1/GPa)
#
#
# Indices 1 2 3 4 5 6 
#
# 1 0.015133 -0.008177 -0.002346 0.000000 0.006396 0.000000
# 2 -0.008177 0.025443 0.000574 0.000000 -0.014025 0.000000
# 3 -0.002346 0.000574 0.009947 0.000000 -0.002507 0.000000
# 4 0.000000 0.000000 0.000000 0.051661 0.000000 0.028526
# 5 0.006396 -0.014025 -0.002507 0.000000 0.032714 0.000000
# 6 0.000000 0.000000 0.000000 0.028526 0.000000 0.059619
#
#
# Mechanical properties :
#
#
# Convention : Reuss Voigt Hill
#
# Bulk Modulus (GPa) = 32.65288 38.35249 35.50268
# Shear Modulus (GPa) = 22.25940 31.34817 26.80378
#
# Velocity S-wave (km/s) = 3.12997 3.71441 3.43465
# Velocity P-wave (km/s) = 5.23769 5.93931 5.59950
#
# Compressibility (1/GPa) = 0.03062517
#
# Stress axis : x y z
#
# Youngs Moduli (GPa) = 66.07878 39.30362 100.52926
#
# Poissons Ratio (x) = 0.32137 0.23589
# Poissons Ratio (y) = 0.54030 -0.05767
# Poissons Ratio (z) = 0.15505 -0.02255
#
# Static dielectric constant tensor:
#      x y z
#    x -75.959690 -0.000080 42.793230 
#    y -0.000080 3.782870 0.000040 
#    z 42.793230 0.000040 -18.315700 
# 
# 
# High freq. dielectric constant tensor:
#      x y z
#    x 1.887960 0.000000 -0.006610 
#    y 0.000000 1.889490 0.000000 
#    z -0.006610 0.000000 1.917000 
# 
# From -- ./inp_files/174797.got.cif
#   From: 2010.06.25/outbox.cif.g09.slc.cpg/sg15_88_cif.got.tgz:174797.got - 2010.06.28 07:06:18.
