data_PCOD8147525
_publ_section_title
;
Structure prediction by ZEFSAII (Michael W. Deem and Ramdas Pophale) SiO2 
 PCOD8147525
Probable space group: C 2/C
;
_chemical_formula_sum "Si O2"
_cell_formula_units_Z 40
_cell_length_a 18.426629
_cell_length_b 6.870886
_cell_length_c 18.574506
_cell_angle_alpha 90.000000
_cell_angle_beta 51.249274
_cell_angle_gamma 90.000000
_cell_volume 1834.010298
_symmetry_space_group_name_H-M "C 2/C"
_symmetry_group_IT_number 15
_symmetry_cell_setting 'monoclinic'
loop_
_space_group_symop_operation_xyz
x,y,z
-x,y,1/2-z
-x,-y,-z
x,-y,1/2+z
1/2+x,1/2+y,z
1/2-x,1/2+y,1/2-z
1/2-x,1/2-y,-z
1/2+x,1/2-y,1/2+z
loop_
_atom_site_type_symbol
_atom_site_label
_atom_site_fract_x
_atom_site_fract_y
_atom_site_fract_z
Si Si1 0.956819 0.774683 0.150705
Si Si2 0.664281 0.615422 0.531888
Si Si3 0.845586 0.033837 0.123487
Si Si4 0.398562 0.591652 0.296360
Si Si5 0.154346 0.611741 0.785844
O O1 0.922847 0.554382 0.170381
O O2 0.067871 0.764390 0.090419
O O3 0.929924 0.889109 0.093389
O O4 0.909114 0.888200 0.246643
O O5 0.750000 0.750000 0.500000
O O6 0.678795 0.516083 0.445280
O O7 0.658014 0.445320 0.595135
O O8 0.869589 0.257645 0.129084
O O9 0.756557 0.979563 0.228054
O O10 0.500000 0.677906 0.250000
O O11 0.344699 0.754183 0.285474
#
# Coordination Sequence:
#
# PCOD8147525 Si02
#       5
#     8   8   8   8   8
#     4  10  22  44  65  90 131 174 215 264 323 395
#     4  11  24  40  65  99 135 166 214 276 328 382
#     4  11  23  40  66  95 130 171 217 268 322 389
#     4   9  22  42  63  92 127 166 213 267 326 382
#     4  11  22  40  69  89 123 177 218 256 323 390
#
# _framework density 21.810127000000001
#
# number of rings (size 3 to 8) (size 9 to 14) (size 15 to 20)
#    0.000    1.600    2.000    1.800    2.800    5.600 
#    0.000    6.000    0.000    0.000    0.000    0.000 
#    0.000    0.000    0.000    0.000    0.000    0.000 
#
# Total GULP energy -248050.035500 kJ/mol
# GULP energy per Si atom -12402.501775 kJ/mol
# Density = 2.176049 g / cm^3
# Si number density = 21.810127 Si / 1000 Ang^3
#
#
#
# Elastic Constant Matrix: (Units=GPa)
#
#
# Indices 1 2 3 4 5 6 
#
# 1 133.3860 47.9813 42.3355 -0.0008 1.9653 0.0018
# 2 47.9813 121.3475 39.0223 -0.0018 -2.5614 0.0020
# 3 42.3355 39.0223 89.3096 -0.0010 16.7249 0.0009
# 4 -0.0008 -0.0018 -0.0010 15.7485 0.0005 -4.4885
# 5 1.9653 -2.5614 16.7249 0.0005 49.6617 -0.0005
# 6 0.0018 0.0020 0.0009 -4.4885 -0.0005 33.0807
#
#
#
# Elastic Compliance Matrix: (Units=1/GPa)
#
#
# Indices 1 2 3 4 5 6 
#
# 1 0.009545 -0.002636 -0.003498 0.000000 0.000664 0.000000
# 2 -0.002636 0.010512 -0.003698 0.000001 0.001892 0.000000
# 3 -0.003498 -0.003698 0.015455 0.000001 -0.005257 0.000000
# 4 0.000000 0.000001 0.000001 0.066053 -0.000001 0.008962
# 5 0.000664 0.001892 -0.005257 -0.000001 0.021978 0.000000
# 6 0.000000 0.000000 0.000000 0.008962 0.000000 0.031445
#
#
# Mechanical properties :
#
#
# Convention : Reuss Voigt Hill
#
# Bulk Modulus (GPa) = 63.09011 66.96902 65.02957
# Shear Modulus (GPa) = 27.78790 34.01177 30.89984
#
# Velocity S-wave (km/s) = 3.57330 3.95327 3.76808
# Velocity P-wave (km/s) = 6.78339 7.18400 6.98657
#
# Compressibility (1/GPa) = 0.01585035
#
# Stress axis : x y z
#
# Youngs Moduli (GPa) = 104.76225 95.12924 64.70258
#
# Poissons Ratio (x) = 0.25071 0.22631
# Poissons Ratio (y) = 0.27610 0.23927
# Poissons Ratio (z) = 0.36642 0.35179
#
# Static dielectric constant tensor:
#      x y z
#    x 4.213320 0.000000 0.157360 
#    y 0.000000 3.694810 0.000000 
#    z 0.157360 0.000000 3.822300 
# 
# 
# High freq. dielectric constant tensor:
#      x y z
#    x 1.880390 0.000000 0.004290 
#    y 0.000000 1.843380 0.000000 
#    z 0.004290 0.000000 1.844880 
# 
# From -- ./inp_files/250996.got.cif
#   From: 2010.06.25/outbox.cif.g09.slc.cpg/sg15_126_cif.got.tgz:250996.got - 2010.06.28 07:06:18.
