data_PCOD8147901
_publ_section_title
;
Structure prediction by ZEFSAII (Michael W. Deem and Ramdas Pophale) SiO2 
 PCOD8147901
Probable space group: C 2/C
;
_chemical_formula_sum "Si O2"
_cell_formula_units_Z 64
_cell_length_a 21.185759
_cell_length_b 11.027271
_cell_length_c 12.847447
_cell_angle_alpha 90.000000
_cell_angle_beta 106.756225
_cell_angle_gamma 90.000000
_cell_volume 2873.993985
_symmetry_space_group_name_H-M "C 2/C"
_symmetry_group_IT_number 15
_symmetry_cell_setting 'monoclinic'
loop_
_space_group_symop_operation_xyz
x,y,z
-x,y,1/2-z
-x,-y,-z
x,-y,1/2+z
1/2+x,1/2+y,z
1/2-x,1/2+y,1/2-z
1/2-x,1/2-y,-z
1/2+x,1/2-y,1/2+z
loop_
_atom_site_type_symbol
_atom_site_label
_atom_site_fract_x
_atom_site_fract_y
_atom_site_fract_z
Si Si1 0.507922 0.111672 0.876145
Si Si2 0.778012 0.082632 0.481568
Si Si3 0.628855 0.029588 0.687153
Si Si4 0.652545 0.074697 0.928725
Si Si5 0.738315 0.191447 0.659663
Si Si6 0.166516 0.724454 0.129909
Si Si7 0.010928 0.885792 0.633902
Si Si8 0.398154 0.459776 0.444601
O O1 0.500000 0.107557 0.750000
O O2 0.446235 0.035477 0.891443
O O3 0.578876 0.053353 0.943595
O O4 0.499090 0.249281 0.912120
O O5 0.792411 0.136695 0.603716
O O6 0.787685 0.182677 0.397479
O O7 0.702467 0.037197 0.449320
O O8 0.829363 0.980335 0.472678
O O9 0.638331 0.103215 0.800716
O O10 0.677828 0.097052 0.632003
O O11 0.647623 0.887507 0.696832
O O12 0.682066 0.181385 0.017643
O O13 0.769217 0.210941 0.788964
O O14 0.108185 0.824118 0.105089
O O15 0.955210 0.969994 0.556985
O O16 0.000000 0.893835 0.750000
O O17 0.082743 0.941207 0.635406
#
# Coordination Sequence:
#
# PCOD8147901 Si02
#       8
#     8   8   8   8   8   8   8   8
#     4   9  20  41  69  94 129 175 225 277 337 406
#     4  11  24  45  68  98 136 179 222 281 354 407
#     4  11  23  44  68  98 134 182 226 282 352 402
#     4  11  22  45  65 103 133 174 230 285 340 418
#     4  11  25  44  66  97 138 174 228 282 339 420
#     4  12  25  43  66 104 135 175 235 282 340 412
#     4  10  22  46  67 100 137 178 230 274 341 414
#     4  11  25  42  69 102 136 176 225 284 339 415
#
# _framework density 22.268661999999999
#
# number of rings (size 3 to 8) (size 9 to 14) (size 15 to 20)
#    0.000    1.250    3.750    1.500    1.750    2.500 
#    0.000    3.125    0.000    0.000    0.000    0.000 
#    0.000    0.000    0.000    0.000    0.000    0.000 
#
# Total GULP energy -396443.497628 kJ/mol
# GULP energy per Si atom -12388.859301 kJ/mol
# Density = 2.221798 g / cm^3
# Si number density = 22.268662 Si / 1000 Ang^3
#
#
#
# Elastic Constant Matrix: (Units=GPa)
#
#
# Indices 1 2 3 4 5 6 
#
# 1 131.8873 65.1272 43.7681 0.0000 8.5882 0.0000
# 2 65.1272 106.1096 12.7224 0.0000 1.3959 0.0000
# 3 43.7681 12.7224 55.1965 0.0000 -4.4108 0.0000
# 4 0.0000 0.0000 0.0000 29.5666 0.0000 -3.5416
# 5 8.5882 1.3959 -4.4108 0.0000 29.8154 0.0000
# 6 0.0000 0.0000 0.0000 -3.5416 0.0000 33.3286
#
#
#
# Elastic Compliance Matrix: (Units=1/GPa)
#
#
# Indices 1 2 3 4 5 6 
#
# 1 0.015660 -0.008219 -0.010983 0.000000 -0.005751 0.000000
# 2 -0.008219 0.014025 0.003463 0.000000 0.002223 0.000000
# 3 -0.010983 0.003463 0.026582 0.000000 0.006934 0.000000
# 4 0.000000 0.000000 0.000000 0.034258 0.000000 0.003640
# 5 -0.005751 0.002223 0.006934 0.000000 0.036118 0.000000
# 6 0.000000 0.000000 0.000000 0.003640 0.000000 0.030391
#
#
# Mechanical properties :
#
#
# Convention : Reuss Voigt Hill
#
# Bulk Modulus (GPa) = 40.34272 59.60320 49.97296
# Shear Modulus (GPa) = 25.40966 29.98051 27.69508
#
# Velocity S-wave (km/s) = 3.38161 3.67319 3.53041
# Velocity P-wave (km/s) = 5.77951 6.69428 6.25364
#
# Compressibility (1/GPa) = 0.02478762
#
# Stress axis : x y z
#
# Youngs Moduli (GPa) = 63.85578 71.30312 37.61955
#
# Poissons Ratio (x) = 0.58607 0.41317
# Poissons Ratio (y) = 0.52485 -0.13026
# Poissons Ratio (z) = 0.70132 -0.24690
#
# Static dielectric constant tensor:
#      x y z
#    x 4.133160 0.000000 0.060990 
#    y 0.000000 3.902240 0.000000 
#    z 0.060990 0.000000 4.094050 
# 
# 
# High freq. dielectric constant tensor:
#      x y z
#    x 1.874120 0.000000 -0.000010 
#    y 0.000000 1.867940 0.000000 
#    z -0.000010 0.000000 1.884710 
# 
# From -- ./inp_files/167662.got.cif
#   From: 2010.06.25/outbox.cif.g09.slc.cpg/sg15_84_cif.got.tgz:167662.got - 2010.06.28 07:06:18.
