data_PCOD8147506
_publ_section_title
;
Structure prediction by ZEFSAII (Michael W. Deem and Ramdas Pophale) SiO2 
 PCOD8147506
Probable space group: C 2/C
;
_chemical_formula_sum "Si O2"
_cell_formula_units_Z 44
_cell_length_a 18.679619
_cell_length_b 11.605576
_cell_length_c 10.980797
_cell_angle_alpha 90.000000
_cell_angle_beta 125.460086
_cell_angle_gamma 90.000000
_cell_volume 1938.966263
_symmetry_space_group_name_H-M "C 2/C"
_symmetry_group_IT_number 15
_symmetry_cell_setting 'monoclinic'
loop_
_space_group_symop_operation_xyz
x,y,z
-x,y,1/2-z
-x,-y,-z
x,-y,1/2+z
1/2+x,1/2+y,z
1/2-x,1/2+y,1/2-z
1/2-x,1/2-y,-z
1/2+x,1/2-y,1/2+z
loop_
_atom_site_type_symbol
_atom_site_label
_atom_site_fract_x
_atom_site_fract_y
_atom_site_fract_z
Si Si1 0.088186 0.691956 0.654723
Si Si2 0.500000 0.957692 0.250000
Si Si3 0.770246 0.840044 0.415645
Si Si4 0.368394 0.151207 0.065336
Si Si5 0.905927 0.938323 0.715333
Si Si6 0.672266 0.335721 0.285359
O O1 0.175364 0.616485 0.775064
O O2 0.077121 0.695702 0.498481
O O3 0.096581 0.822890 0.707523
O O4 0.007344 0.626054 0.639200
O O5 0.411711 0.031648 0.149179
O O6 0.750000 0.750000 0.500000
O O7 0.833074 0.937173 0.534933
O O8 0.818506 0.786637 0.343266
O O9 0.379763 0.243063 0.185062
O O10 0.266268 0.133195 0.936872
O O11 0.000000 0.956517 0.750000
O O12 0.883932 0.046926 0.778651
#
# Coordination Sequence:
#
# PCOD8147506 Si02
#       6
#     8   4   8   8   8   8
#     4  10  22  44  64  94 130 168 218 265 315 384
#     4  12  22  42  66  94 128 174 214 268 324 376
#     4   9  21  43  65  89 124 171 210 255 318 382
#     4  10  24  43  66  95 130 166 221 265 318 387
#     4  11  23  39  66  96 131 166 212 265 320 383
#     4  10  23  44  65  95 130 170 210 269 321 384
#
# _framework density 22.692505000000001
#
# number of rings (size 3 to 8) (size 9 to 14) (size 15 to 20)
#    0.000    1.818    0.909    1.636    3.818    2.182 
#   22.909    0.000    0.000    0.000    0.000    0.000 
#    0.000    0.000    0.000    0.000    0.000    0.000 
#
# Total GULP energy -272704.055838 kJ/mol
# GULP energy per Si atom -12395.638902 kJ/mol
# Density = 2.264086 g / cm^3
# Si number density = 22.692505 Si / 1000 Ang^3
#
#
#
# Elastic Constant Matrix: (Units=GPa)
#
#
# Indices 1 2 3 4 5 6 
#
# 1 149.1341 73.0494 48.1316 0.0000 -40.2661 0.0000
# 2 73.0494 126.4087 32.8844 0.0000 -22.3166 0.0000
# 3 48.1316 32.8844 67.7177 0.0000 -30.1622 0.0000
# 4 0.0000 0.0000 0.0000 22.0621 0.0000 2.0781
# 5 -40.2661 -22.3166 -30.1622 0.0000 50.1297 0.0000
# 6 0.0000 0.0000 0.0000 2.0781 0.0000 42.8256
#
#
#
# Elastic Compliance Matrix: (Units=1/GPa)
#
#
# Indices 1 2 3 4 5 6 
#
# 1 0.011623 -0.004885 -0.003687 0.000000 0.004942 0.000000
# 2 -0.004885 0.011241 -0.002057 0.000000 -0.000157 0.000000
# 3 -0.003687 -0.002057 0.022759 0.000000 0.009816 0.000000
# 4 0.000000 0.000000 0.000000 0.045535 0.000000 -0.002210
# 5 0.004942 -0.000157 0.009816 0.000000 0.029755 0.000000
# 6 0.000000 0.000000 0.000000 -0.002210 0.000000 0.023458
#
#
# Mechanical properties :
#
#
# Convention : Reuss Voigt Hill
#
# Bulk Modulus (GPa) = 41.04249 72.37683 56.70966
# Shear Modulus (GPa) = 28.77711 35.61649 32.19680
#
# Velocity S-wave (km/s) = 3.56495 3.96602 3.77082
# Velocity P-wave (km/s) = 5.92206 7.27573 6.63352
#
# Compressibility (1/GPa) = 0.02436499
#
# Stress axis : x y z
#
# Youngs Moduli (GPa) = 86.03973 88.96044 43.93826
#
# Poissons Ratio (x) = 0.43454 0.16202
# Poissons Ratio (y) = 0.42027 0.09037
# Poissons Ratio (z) = 0.31727 0.18297
#
# Static dielectric constant tensor:
#      x y z
#    x 4.308100 0.000000 -0.031950 
#    y 0.000000 3.775390 0.000000 
#    z -0.031950 0.000000 4.449750 
# 
# 
# High freq. dielectric constant tensor:
#      x y z
#    x 1.915770 0.000000 -0.006570 
#    y 0.000000 1.871880 0.000000 
#    z -0.006570 0.000000 1.891880 
# 
# From -- ./inp_files/104368.got.cif
#   From: 2010.06.25/outbox.cif.g09.slc.cpg/sg15_53_cif.got.tgz:104368.got - 2010.06.28 07:06:18.
