data_PCOD8147756
_publ_section_title
;
Structure prediction by ZEFSAII (Michael W. Deem and Ramdas Pophale) SiO2 
 PCOD8147756
Probable space group: C 2/C
;
_chemical_formula_sum "Si O2"
_cell_formula_units_Z 48
_cell_length_a 25.114802
_cell_length_b 20.925863
_cell_length_c 11.100750
_cell_angle_alpha 90.000000
_cell_angle_beta 158.530311
_cell_angle_gamma 90.000000
_cell_volume 2135.291519
_symmetry_space_group_name_H-M "C 2/C"
_symmetry_group_IT_number 15
_symmetry_cell_setting 'monoclinic'
loop_
_space_group_symop_operation_xyz
x,y,z
-x,y,1/2-z
-x,-y,-z
x,-y,1/2+z
1/2+x,1/2+y,z
1/2-x,1/2+y,1/2-z
1/2-x,1/2-y,-z
1/2+x,1/2-y,1/2+z
loop_
_atom_site_type_symbol
_atom_site_label
_atom_site_fract_x
_atom_site_fract_y
_atom_site_fract_z
Si Si1 0.382040 0.110060 0.156687
Si Si2 0.806723 0.425118 0.241269
Si Si3 0.500000 0.856570 0.250000
Si Si4 0.584102 0.769690 0.649823
Si Si5 0.844711 0.812987 0.717151
Si Si6 0.000000 0.131575 0.750000
Si Si7 0.758356 0.930110 0.890309
O O1 0.527096 0.066602 0.454924
O O2 0.435740 0.183874 0.276199
O O3 0.281211 0.095797 0.059979
O O4 0.291112 0.101195 0.843906
O O5 0.733973 0.493964 0.084791
O O6 0.722010 0.376888 0.977031
O O7 0.515816 0.810192 0.396684
O O8 0.639991 0.903915 0.543699
O O9 0.498952 0.703146 0.479855
O O10 0.750000 0.750000 0.000000
O O11 0.750000 0.750000 0.500000
O O12 0.876892 0.825145 0.926219
O O13 0.918535 0.090423 0.682013
#
# Coordination Sequence:
#
# PCOD8147756 Si02
#       7
#     8   8   4   8   8   4   8
#     4  10  23  45  71 110 140 185 245 299 342 425
#     4  11  25  44  78 107 141 189 241 300 351 429
#     4  10  22  44  74 104 140 198 242 302 350 428
#     4  11  24  42  68 106 148 188 240 296 358 432
#     4  12  26  45  74 103 144 192 233 291 371 430
#     4  12  30  48  68 108 150 188 232 308 360 428
#     4  11  25  48  74 103 148 186 245 292 365 419
#
# _framework density 22.479365000000001
#
# number of rings (size 3 to 8) (size 9 to 14) (size 15 to 20)
#    0.000    1.000    1.667    4.500    9.333    0.667 
#    3.000    0.000    0.000    0.000    0.000    0.000 
#    0.000    0.000    0.000    0.000    0.000    0.000 
#
# Total GULP energy -297462.525275 kJ/mol
# GULP energy per Si atom -12394.271886 kJ/mol
# Density = 2.242820 g / cm^3
# Si number density = 22.479365 Si / 1000 Ang^3
#
#
#
# Elastic Constant Matrix: (Units=GPa)
#
#
# Indices 1 2 3 4 5 6 
#
# 1 132.2276 42.8292 52.7770 0.0000 -1.1111 0.0000
# 2 42.8292 131.4486 43.6190 0.0000 -16.3056 0.0000
# 3 52.7770 43.6190 105.4937 0.0000 -12.8039 0.0000
# 4 0.0000 0.0000 0.0000 33.7292 0.0000 5.9887
# 5 -1.1111 -16.3056 -12.8039 0.0000 48.5169 0.0000
# 6 0.0000 0.0000 0.0000 5.9887 0.0000 34.2384
#
#
#
# Elastic Compliance Matrix: (Units=1/GPa)
#
#
# Indices 1 2 3 4 5 6 
#
# 1 0.009924 -0.001992 -0.004334 0.000000 -0.001586 0.000000
# 2 -0.001992 0.009423 -0.002604 0.000000 0.002434 0.000000
# 3 -0.004334 -0.002604 0.013023 0.000000 0.002462 0.000000
# 4 0.000000 0.000000 0.000000 0.030598 0.000000 -0.005352
# 5 -0.001586 0.002434 0.002462 0.000000 0.022043 0.000000
# 6 0.000000 0.000000 0.000000 -0.005352 0.000000 0.030143
#
#
# Mechanical properties :
#
#
# Convention : Reuss Voigt Hill
#
# Bulk Modulus (GPa) = 68.91782 71.95783 70.43782
# Shear Modulus (GPa) = 36.27106 38.62654 37.44880
#
# Velocity S-wave (km/s) = 4.02123 4.14975 4.08599
# Velocity P-wave (km/s) = 7.23085 7.41894 7.32550
#
# Compressibility (1/GPa) = 0.01451004
#
# Stress axis : x y z
#
# Youngs Moduli (GPa) = 100.76088 106.12715 76.78777
#
# Poissons Ratio (x) = 0.21143 0.33278
# Poissons Ratio (y) = 0.20074 0.19995
# Poissons Ratio (z) = 0.43668 0.27635
#
# Static dielectric constant tensor:
#      x y z
#    x 4.038950 0.000000 -0.049320 
#    y 0.000000 4.427450 0.000000 
#    z -0.049320 0.000000 4.176110 
# 
# 
# High freq. dielectric constant tensor:
#      x y z
#    x 1.881230 0.000000 -0.003930 
#    y 0.000000 1.893960 0.000000 
#    z -0.003930 0.000000 1.891930 
# 
# From -- ./inp_files/124353.got.cif
#   From: 2010.06.25/outbox.cif.g09.slc.cpg/sg15_63_cif.got.tgz:124353.got - 2010.06.28 07:06:18.
