data_PCOD8147864
_publ_section_title
;
Structure prediction by ZEFSAII (Michael W. Deem and Ramdas Pophale) SiO2 
 PCOD8147864
Probable space group: C 2/C
;
_chemical_formula_sum "Si O2"
_cell_formula_units_Z 52
_cell_length_a 13.689790
_cell_length_b 13.029679
_cell_length_c 13.644145
_cell_angle_alpha 90.000000
_cell_angle_beta 75.648448
_cell_angle_gamma 90.000000
_cell_volume 2357.804903
_symmetry_space_group_name_H-M "C 2/C"
_symmetry_group_IT_number 15
_symmetry_cell_setting 'monoclinic'
loop_
_space_group_symop_operation_xyz
x,y,z
-x,y,1/2-z
-x,-y,-z
x,-y,1/2+z
1/2+x,1/2+y,z
1/2-x,1/2+y,1/2-z
1/2-x,1/2-y,-z
1/2+x,1/2-y,1/2+z
loop_
_atom_site_type_symbol
_atom_site_label
_atom_site_fract_x
_atom_site_fract_y
_atom_site_fract_z
Si Si1 0.744272 0.167941 0.681248
Si Si2 0.592227 0.575325 0.996951
Si Si3 0.400844 0.055971 0.641920
Si Si4 0.807436 0.282899 0.843709
Si Si5 0.000000 0.609146 0.250000
Si Si6 0.950082 0.264034 0.364671
Si Si7 0.742771 0.582019 0.528628
O O1 0.846585 0.117643 0.613086
O O2 0.686639 0.082761 0.759088
O O3 0.767804 0.268667 0.742253
O O4 0.667436 0.203829 0.615287
O O5 0.541754 0.670619 0.063511
O O6 0.669934 0.515583 0.047670
O O7 0.500000 0.500000 0.000000
O O8 0.485220 0.142796 0.608069
O O9 0.349643 0.042302 0.547425
O O10 0.453194 0.955322 0.671982
O O11 0.801467 0.172228 0.894556
O O12 0.922230 0.314997 0.819147
O O13 0.748577 0.372916 0.916500
O O14 0.000000 0.230195 0.250000
#
# Coordination Sequence:
#
# PCOD8147864 Si02
#       7
#     8   8   8   8   4   8   8
#     4  10  22  47  67  94 138 178 222 283 343 406
#     4  12  28  41  70 101 140 180 235 276 348 425
#     4  10  22  45  72  97 136 175 234 285 345 403
#     4  10  25  41  72  93 142 172 229 284 343 400
#     4  12  22  40  72 104 122 180 238 284 332 412
#     4  10  23  44  70  98 134 181 225 288 343 405
#     4  10  25  46  64 100 138 186 219 285 351 410
#
# _framework density 22.054411999999999
#
# number of rings (size 3 to 8) (size 9 to 14) (size 15 to 20)
#    0.000    1.538    2.308    1.385   12.923    3.077 
#    0.000    0.000    0.000    0.000    0.000    0.000 
#    0.000    0.000    0.000    0.000    0.000    0.000 
#
# Total GULP energy -322320.869404 kJ/mol
# GULP energy per Si atom -12396.956516 kJ/mol
# Density = 2.200421 g / cm^3
# Si number density = 22.054412 Si / 1000 Ang^3
#
#
#
# Elastic Constant Matrix: (Units=GPa)
#
#
# Indices 1 2 3 4 5 6 
#
# 1 155.2864 52.9542 58.1385 0.0000 5.8596 0.0000
# 2 52.9542 34.5462 22.4342 0.0000 -1.3762 0.0000
# 3 58.1385 22.4342 58.7613 0.0000 -4.2028 0.0000
# 4 0.0000 0.0000 0.0000-2800.2874 0.0000 2629.1234
# 5 5.8596 -1.3762 -4.2028 0.0000 38.9619 0.0000
# 6 0.0000 0.0000 0.0000 2629.1234 0.0000-2398.0992
#
#
#
# Elastic Compliance Matrix: (Units=1/GPa)
#
#
# Indices 1 2 3 4 5 6 
#
# 1 0.016980 -0.020064 -0.009446 0.000000 -0.004281 0.000000
# 2 -0.020064 0.062199 -0.003550 0.000000 0.004832 0.000000
# 3 -0.009446 -0.003550 0.028028 0.000000 0.004319 0.000000
# 4 0.000000 0.000000 0.000000 0.012178 0.000000 0.013351
# 5 -0.004281 0.004832 0.004319 0.000000 0.026947 0.000000
# 6 0.000000 0.000000 0.000000 0.013351 0.000000 0.014220
#
#
# Mechanical properties :
#
#
# Convention : Reuss Voigt Hill
#
# Bulk Modulus (GPa) = 24.33827 57.29418 40.81623
# Shear Modulus (GPa) = 20.80152 -1024.21379 -501.70613
#
# Velocity S-wave (km/s) = 3.07447 -21.57339 -15.09899
# Velocity P-wave (km/s) = 4.86443 24.38265 16.89454
#
# Compressibility (1/GPa) = 0.04108756
#
# Stress axis : x y z
#
# Youngs Moduli (GPa) = 58.89386 16.07734 35.67853
#
# Poissons Ratio (x) = 0.32257 0.33702
# Poissons Ratio (y) = 1.18163 0.12666
# Poissons Ratio (z) = 0.55631 0.05708
#
# Static dielectric constant tensor:
#      x y z
#    x 4.318030 0.000000 0.127460 
#    y 0.000000 3.909990 0.000000 
#    z 0.127460 0.000000 4.090110 
# 
# 
# High freq. dielectric constant tensor:
#      x y z
#    x 1.876590 0.000000 -0.004200 
#    y 0.000000 1.867200 0.000000 
#    z -0.004200 0.000000 1.861280 
# 
# From -- ./inp_files/144163.got.cif
#   From: 2010.06.25/outbox.cif.g09.slc.cpg/sg15_73_cif.got.tgz:144163.got - 2010.06.28 07:06:18.
