data_PCOD8147467
_publ_section_title
;
Structure prediction by ZEFSAII (Michael W. Deem and Ramdas Pophale) SiO2 
 PCOD8147467
Probable space group: C 2/C
;
_chemical_formula_sum "Si O2"
_cell_formula_units_Z 48
_cell_length_a 9.660462
_cell_length_b 9.657872
_cell_length_c 26.425797
_cell_angle_alpha 90.000000
_cell_angle_beta 100.060141
_cell_angle_gamma 90.000000
_cell_volume 2427.606367
_symmetry_space_group_name_H-M "C 2/C"
_symmetry_group_IT_number 15
_symmetry_cell_setting 'monoclinic'
loop_
_space_group_symop_operation_xyz
x,y,z
-x,y,1/2-z
-x,-y,-z
x,-y,1/2+z
1/2+x,1/2+y,z
1/2-x,1/2+y,1/2-z
1/2-x,1/2-y,-z
1/2+x,1/2-y,1/2+z
loop_
_atom_site_type_symbol
_atom_site_label
_atom_site_fract_x
_atom_site_fract_y
_atom_site_fract_z
Si Si1 0.524477 0.533878 0.891269
Si Si2 0.143388 0.379892 0.229504
Si Si3 0.337459 0.061321 0.884069
Si Si4 0.945922 0.235259 0.051412
Si Si5 0.883198 0.064544 0.283479
Si Si6 0.136684 0.733277 0.065120
O O1 0.674556 0.594994 0.884021
O O2 0.537296 0.429490 0.939467
O O3 0.454933 0.444630 0.842472
O O4 0.426474 0.661245 0.898778
O O5 0.134283 0.449713 0.173874
O O6 0.180247 0.217721 0.227352
O O7 0.261767 0.451622 0.270844
O O8 0.000000 0.402922 0.250000
O O9 0.429498 0.182409 0.914033
O O10 0.378669 0.917081 0.911915
O O11 0.796700 0.280757 0.065617
O O12 0.952063 0.265621 0.992254
O O13 0.000000 0.029712 0.250000
#
# Coordination Sequence:
#
# PCOD8147467 Si02
#       6
#     8   8   8   8   8   8
#     4  11  23  39  65  91 123 162 203 254 309 364
#     4  11  26  41  65  91 122 163 204 252 308 370
#     4  11  23  41  62  94 125 159 206 255 303 365
#     4  10  22  44  60  92 128 163 207 254 308 362
#     4  11  24  43  61  88 125 157 201 257 305 364
#     4  10  24  39  67  90 125 166 205 256 308 365
#
# _framework density 19.772563999999999
#
# number of rings (size 3 to 8) (size 9 to 14) (size 15 to 20)
#    0.000    1.333    3.333    1.000    4.667    4.000 
#    0.000    0.000    0.000    0.000    0.000    0.000 
#    0.000    0.000    0.000    0.000    0.000    0.000 
#
# Total GULP energy -297748.608139 kJ/mol
# GULP energy per Si atom -12406.192006 kJ/mol
# Density = 1.972756 g / cm^3
# Si number density = 19.772564 Si / 1000 Ang^3
#
#
#
# Elastic Constant Matrix: (Units=GPa)
#
#
# Indices 1 2 3 4 5 6 
#
# 1 91.1889 50.1247 34.7061 0.0000 5.3901 0.0000
# 2 50.1247 75.6844 23.3939 0.0000 -8.8287 0.0000
# 3 34.7061 23.3939 80.6776 0.0000 -2.4087 0.0000
# 4 0.0000 0.0000 0.0000 37.6435 0.0000 -2.8032
# 5 5.3901 -8.8287 -2.4087 0.0000 34.5307 0.0000
# 6 0.0000 0.0000 0.0000 -2.8032 0.0000 98.4941
#
#
#
# Elastic Compliance Matrix: (Units=1/GPa)
#
#
# Indices 1 2 3 4 5 6 
#
# 1 0.020303 -0.012603 -0.005282 0.000000 -0.006760 0.000000
# 2 -0.012603 0.022752 -0.000945 0.000000 0.007718 0.000000
# 3 -0.005282 -0.000945 0.014990 0.000000 0.001628 0.000000
# 4 0.000000 0.000000 0.000000 0.026621 0.000000 0.000758
# 5 -0.006760 0.007718 0.001628 0.000000 0.032102 0.000000
# 6 0.000000 0.000000 0.000000 0.000758 0.000000 0.010174
#
#
# Mechanical properties :
#
#
# Convention : Reuss Voigt Hill
#
# Bulk Modulus (GPa) = 49.05397 51.55559 50.30478
# Shear Modulus (GPa) = 29.17191 43.42208 36.29700
#
# Velocity S-wave (km/s) = 3.84523 4.69132 4.28918
# Velocity P-wave (km/s) = 6.67662 7.44819 7.07294
#
# Compressibility (1/GPa) = 0.02038571
#
# Stress axis : x y z
#
# Youngs Moduli (GPa) = 49.25272 43.95227 66.71191
#
# Poissons Ratio (x) = 0.55392 0.35235
# Poissons Ratio (y) = 0.62072 0.06307
# Poissons Ratio (z) = 0.26013 0.04155
#
# Static dielectric constant tensor:
#      x y z
#    x 3.878160 0.000000 0.309780 
#    y 0.000000 3.505320 0.000000 
#    z 0.309780 0.000000 4.120060 
# 
# 
# High freq. dielectric constant tensor:
#      x y z
#    x 1.774990 0.000000 0.002040 
#    y 0.000000 1.774270 0.000000 
#    z 0.002040 0.000000 1.785070 
# 
# From -- ./inp_files/263068.got.cif
#   From: 2010.06.25/outbox.cif.g09.slc.cpg/sg15_132_cif.got.tgz:263068.got - 2010.06.28 07:06:18.
