data_PCOD8147913
_publ_section_title
;
Structure prediction by ZEFSAII (Michael W. Deem and Ramdas Pophale) SiO2 
 PCOD8147913
Probable space group: C 2/C
;
_chemical_formula_sum "Si O2"
_cell_formula_units_Z 56
_cell_length_a 20.786061
_cell_length_b 7.987815
_cell_length_c 31.115405
_cell_angle_alpha 90.000000
_cell_angle_beta 151.564433
_cell_angle_gamma 90.000000
_cell_volume 2460.015469
_symmetry_space_group_name_H-M "C 2/C"
_symmetry_group_IT_number 15
_symmetry_cell_setting 'monoclinic'
loop_
_space_group_symop_operation_xyz
x,y,z
-x,y,1/2-z
-x,-y,-z
x,-y,1/2+z
1/2+x,1/2+y,z
1/2-x,1/2+y,1/2-z
1/2-x,1/2-y,-z
1/2+x,1/2-y,1/2+z
loop_
_atom_site_type_symbol
_atom_site_label
_atom_site_fract_x
_atom_site_fract_y
_atom_site_fract_z
Si Si1 0.342478 0.013777 0.395441
Si Si2 0.522082 0.521096 0.063259
Si Si3 0.244731 0.319104 0.044259
Si Si4 0.226500 0.678519 0.308281
Si Si5 0.276097 0.007640 0.608889
Si Si6 0.433432 0.814465 0.869604
Si Si7 0.851705 0.135442 0.149857
O O1 0.247894 0.850363 0.347218
O O2 0.500000 0.000000 0.500000
O O3 0.340140 0.063199 0.343698
O O4 0.262815 0.142573 0.379702
O O5 0.630247 0.669132 0.133715
O O6 0.596910 0.366982 0.129504
O O7 0.500000 0.500000 0.000000
O O8 0.375230 0.551338 0.997128
O O9 0.314010 0.501582 0.090382
O O10 0.320850 0.171257 0.115384
O O11 0.250000 0.250000 0.000000
O O12 0.091673 0.350772 0.969857
O O13 0.208898 0.522209 0.330707
O O14 0.103269 0.677141 0.202387
O O15 0.361816 0.167195 0.641978
O O16 0.000000 0.076743 0.250000
#
# Coordination Sequence:
#
# PCOD8147913 Si02
#       7
#     8   8   8   8   8   8   8
#     4  12  21  42  71 101 141 185 242 289 366 434
#     4   9  18  37  61  93 136 182 230 283 355 437
#     4  11  26  47  71  99 142 189 239 296 361 442
#     4  11  21  37  67 102 140 182 231 306 359 427
#     4  10  22  46  68  95 138 191 232 287 369 429
#     4  11  23  39  67 106 137 187 239 299 369 425
#     4  12  27  45  73 106 136 190 245 296 362 446
#
# _framework density 22.764084
#
# number of rings (size 3 to 8) (size 9 to 14) (size 15 to 20)
#    0.000    1.143    2.857    5.143    2.000    2.286 
#    0.000    0.000    0.000    0.000    0.000    0.000 
#    0.000    0.000    0.000    0.000    0.000    0.000 
#
# Total GULP energy -346898.069496 kJ/mol
# GULP energy per Si atom -12389.216768 kJ/mol
# Density = 2.271227 g / cm^3
# Si number density = 22.764084 Si / 1000 Ang^3
#
#
#
# Elastic Constant Matrix: (Units=GPa)
#
#
# Indices 1 2 3 4 5 6 
#
# 1 74.0108 26.8069 17.8415 -0.0005 -9.1335 0.0013
# 2 26.8069 135.8935 41.4400 -0.0021 -18.7943 0.0045
# 3 17.8415 41.4400 105.9144 -0.0008 -13.4226 0.0006
# 4 -0.0005 -0.0021 -0.0008 35.4854 0.0005 -4.9931
# 5 -9.1335 -18.7943 -13.4226 0.0005 31.7794 0.0000
# 6 0.0013 0.0045 0.0006 -4.9931 0.0000 29.6370
#
#
#
# Elastic Compliance Matrix: (Units=1/GPa)
#
#
# Indices 1 2 3 4 5 6 
#
# 1 0.014932 -0.002200 -0.001348 0.000000 0.002421 0.000000
# 2 -0.002200 0.009128 -0.002744 0.000000 0.003607 -0.000001
# 3 -0.001348 -0.002744 0.011081 0.000000 0.002670 0.000000
# 4 0.000000 0.000000 0.000000 0.028865 0.000000 0.004863
# 5 0.002421 0.003607 0.002670 0.000000 0.035424 -0.000001
# 6 0.000000 -0.000001 0.000000 0.004863 -0.000001 0.034561
#
#
# Mechanical properties :
#
#
# Convention : Reuss Voigt Hill
#
# Bulk Modulus (GPa) = 44.32980 54.22172 49.27576
# Shear Modulus (GPa) = 32.44807 34.69572 33.57189
#
# Velocity S-wave (km/s) = 3.77955 3.90826 3.84445
# Velocity P-wave (km/s) = 6.20987 6.65107 6.43425
#
# Compressibility (1/GPa) = 0.02255819
#
# Stress axis : x y z
#
# Youngs Moduli (GPa) = 66.97027 109.55023 90.24831
#
# Poissons Ratio (x) = 0.24097 0.12164
# Poissons Ratio (y) = 0.14731 0.24762
# Poissons Ratio (z) = 0.09026 0.30059
#
# Static dielectric constant tensor:
#      x y z
#    x 3.905260 0.000000 0.156410 
#    y 0.000000 4.173350 0.000000 
#    z 0.156410 0.000000 4.098470 
# 
# 
# High freq. dielectric constant tensor:
#      x y z
#    x 1.876480 0.000000 0.004590 
#    y 0.000000 1.904140 0.000000 
#    z 0.004590 0.000000 1.891780 
# 
# From -- ./inp_files/317540.got.cif
#   From: 2010.06.25/outbox.cif.g09.slc.cpg/sg15_159_cif.got.tgz:317540.got - 2010.06.28 07:06:18.
