data_PCOD8147671
_publ_section_title
;
Structure prediction by ZEFSAII (Michael W. Deem and Ramdas Pophale) SiO2 
 PCOD8147671
Probable space group: C 2/C
;
_chemical_formula_sum "Si O2"
_cell_formula_units_Z 32
_cell_length_a 22.852394
_cell_length_b 7.601678
_cell_length_c 13.561353
_cell_angle_alpha 90.000000
_cell_angle_beta 143.001114
_cell_angle_gamma 90.000000
_cell_volume 1417.738106
_symmetry_space_group_name_H-M "C 2/C"
_symmetry_group_IT_number 15
_symmetry_cell_setting 'monoclinic'
loop_
_space_group_symop_operation_xyz
x,y,z
-x,y,1/2-z
-x,-y,-z
x,-y,1/2+z
1/2+x,1/2+y,z
1/2-x,1/2+y,1/2-z
1/2-x,1/2-y,-z
1/2+x,1/2-y,1/2+z
loop_
_atom_site_type_symbol
_atom_site_label
_atom_site_fract_x
_atom_site_fract_y
_atom_site_fract_z
Si Si1 0.420824 0.351230 0.773781
Si Si2 0.721014 0.405190 0.531646
Si Si3 0.062052 0.845024 0.471802
Si Si4 0.434422 0.975501 0.818854
O O1 0.328399 0.435770 0.595143
O O2 0.516897 0.465885 0.883246
O O3 0.440177 0.152623 0.759089
O O4 0.403760 0.339795 0.868989
O O5 0.750000 0.250000 0.500000
O O6 0.657490 0.324030 0.534186
O O7 0.824690 0.466905 0.712847
O O8 0.978150 0.701669 0.327155
O O9 0.500000 0.000000 0.000000
#
# Coordination Sequence:
#
# PCOD8147671 Si02
#       4
#     8   8   8   8
#     4  10  22  44  69  99 134 181 231 272 342 408
#     4  12  24  43  71 102 138 180 225 282 350 403
#     4  10  23  46  67  98 144 175 222 295 333 407
#     4  10  23  46  67  98 135 178 232 278 343 402
#
# _framework density 22.571165000000001
#
# number of rings (size 3 to 8) (size 9 to 14) (size 15 to 20)
#    0.000    1.500    2.500    1.500    0.000    4.000 
#   13.500    0.000    0.000    0.000    0.000    0.000 
#    0.000    0.000    0.000    0.000    0.000    0.000 
#
# Total GULP energy -198276.767639 kJ/mol
# GULP energy per Si atom -12392.297977 kJ/mol
# Density = 2.251979 g / cm^3
# Si number density = 22.571165 Si / 1000 Ang^3
#
#
#
# Elastic Constant Matrix: (Units=GPa)
#
#
# Indices 1 2 3 4 5 6 
#
# 1 135.7803 46.2964 48.8867 0.0000 32.5535 0.0000
# 2 46.2964 153.3805 29.0516 0.0000 25.9012 0.0000
# 3 48.8867 29.0516 146.1412 0.0000 25.8372 0.0000
# 4 0.0000 0.0000 0.0000 40.4445 0.0000 2.1367
# 5 32.5535 25.9012 25.8372 0.0000 36.9721 0.0000
# 6 0.0000 0.0000 0.0000 2.1367 0.0000 13.2787
#
#
#
# Elastic Compliance Matrix: (Units=1/GPa)
#
#
# Indices 1 2 3 4 5 6 
#
# 1 0.010161 -0.001608 -0.001936 0.000000 -0.006467 0.000000
# 2 -0.001608 0.007701 -0.000330 0.000000 -0.003748 0.000000
# 3 -0.001936 -0.000330 0.008231 0.000000 -0.003816 0.000000
# 4 0.000000 0.000000 0.000000 0.024937 0.000000 -0.004013
# 5 -0.006467 -0.003748 -0.003816 0.000000 0.038034 0.000000
# 6 0.000000 0.000000 0.000000 -0.004013 0.000000 0.075954
#
#
# Mechanical properties :
#
#
# Convention : Reuss Voigt Hill
#
# Bulk Modulus (GPa) = 54.51606 75.97463 65.24535
# Shear Modulus (GPa) = 27.95172 38.87687 33.41429
#
# Velocity S-wave (km/s) = 3.52288 4.15470 3.85177
# Velocity P-wave (km/s) = 6.38381 7.53316 6.98217
#
# Compressibility (1/GPa) = 0.01834322
#
# Stress axis : x y z
#
# Youngs Moduli (GPa) = 98.41935 129.85986 121.49829
#
# Poissons Ratio (x) = 0.20884 0.23521
# Poissons Ratio (y) = 0.15827 0.04012
# Poissons Ratio (z) = 0.19053 0.04288
#
# Static dielectric constant tensor:
#      x y z
#    x 1.886100 0.000000 -1.934470 
#    y 0.000000 6.357640 0.000000 
#    z -1.934470 0.000000 2.143490 
# 
# 
# High freq. dielectric constant tensor:
#      x y z
#    x 1.868140 0.000000 0.005000 
#    y 0.000000 1.911830 0.000000 
#    z 0.005000 0.000000 1.899600 
# 
# From -- ./inp_files/102375.got.cif
#   From: 2010.06.25/outbox.cif.g09.slc.cpg/sg15_52_cif.got.tgz:102375.got - 2010.06.28 07:06:18.
