data_PCOD8147183
_publ_section_title
;
Structure prediction by ZEFSAII (Michael W. Deem and Ramdas Pophale) SiO2 
 PCOD8147183
Probable space group: C 2/C
;
_chemical_formula_sum "Si O2"
_cell_formula_units_Z 56
_cell_length_a 20.504457
_cell_length_b 27.522273
_cell_length_c 9.553763
_cell_angle_alpha 90.000000
_cell_angle_beta 31.258756
_cell_angle_gamma 90.000000
_cell_volume 2797.653794
_symmetry_space_group_name_H-M "C 2/C"
_symmetry_group_IT_number 15
_symmetry_cell_setting 'monoclinic'
loop_
_space_group_symop_operation_xyz
x,y,z
-x,y,1/2-z
-x,-y,-z
x,-y,1/2+z
1/2+x,1/2+y,z
1/2-x,1/2+y,1/2-z
1/2-x,1/2-y,-z
1/2+x,1/2-y,1/2+z
loop_
_atom_site_type_symbol
_atom_site_label
_atom_site_fract_x
_atom_site_fract_y
_atom_site_fract_z
Si Si1 0.811663 0.222992 0.257867
Si Si2 0.619601 0.177653 0.941546
Si Si3 0.987085 0.860353 0.439114
Si Si4 0.369402 0.622230 0.571728
Si Si5 0.144624 0.984296 0.490983
Si Si6 0.713536 0.559136 0.149108
Si Si7 0.385003 0.852850 0.359065
O O1 0.750000 0.250000 0.500000
O O2 0.851955 0.265313 0.075279
O O3 0.715329 0.182045 0.375696
O O4 0.933447 0.192374 0.079507
O O5 0.748841 0.149073 0.729801
O O6 0.578750 0.171239 0.855257
O O7 0.500000 0.159193 0.250000
O O8 0.904631 0.904951 0.646696
O O9 0.000000 0.864941 0.250000
O O10 0.116634 0.863857 0.289296
O O11 0.500000 0.635273 0.250000
O O12 0.339115 0.565557 0.622290
O O13 0.200997 0.978241 0.542899
O O14 0.221064 0.027489 0.276296
O O15 0.000000 0.000967 0.750000
O O16 0.836713 0.592556 0.918928
O O17 0.500000 0.857163 0.250000
#
# Coordination Sequence:
#
# PCOD8147183 Si02
#       7
#     8   8   8   8   8   8   8
#     4   9  20  39  63  88 122 162 210 255 311 372
#     4  11  23  41  64  94 128 165 210 262 312 378
#     4  11  22  36  58  94 126 154 199 266 319 370
#     4  11  21  41  65  89 127 170 212 256 318 380
#     4  11  21  37  63  93 121 158 212 265 321 370
#     4  11  22  39  59  91 125 157 209 264 318 372
#     4  10  22  43  62  87 125 171 209 254 311 381
#
# _framework density 20.016772
#
# number of rings (size 3 to 8) (size 9 to 14) (size 15 to 20)
#    0.000    1.429    4.286    3.000    2.000    5.143 
#    0.000    3.571    0.000    0.000    0.000    0.000 
#    0.000    0.000    0.000    0.000    0.000    0.000 
#
# Total GULP energy -347032.284148 kJ/mol
# GULP energy per Si atom -12394.010148 kJ/mol
# Density = 1.997121 g / cm^3
# Si number density = 20.016772 Si / 1000 Ang^3
#
#
#
# Elastic Constant Matrix: (Units=GPa)
#
#
# Indices 1 2 3 4 5 6 
#
# 1 125.7719 21.1482 33.4558 0.0001 -0.1125 0.0000
# 2 21.1482 98.8677 33.1895 0.0001 -0.1353 0.0000
# 3 33.4558 33.1895 77.0156 0.0000 -2.6370 0.0001
# 4 0.0001 0.0001 0.0000 24.7932 0.0000 9.6728
# 5 -0.1125 -0.1353 -2.6370 0.0000 29.2339 -0.0001
# 6 0.0000 0.0000 0.0001 9.6728 -0.0001 16.8501
#
#
#
# Elastic Compliance Matrix: (Units=1/GPa)
#
#
# Indices 1 2 3 4 5 6 
#
# 1 0.009036 -0.000716 -0.003627 0.000000 -0.000296 0.000000
# 2 -0.000716 0.011887 -0.004825 0.000000 -0.000383 0.000000
# 3 -0.003627 -0.004825 0.016689 0.000000 0.001469 0.000000
# 4 0.000000 0.000000 0.000000 0.051974 0.000000 -0.029835
# 5 -0.000296 -0.000383 0.001469 0.000000 0.034336 0.000000
# 6 0.000000 0.000000 0.000000 -0.029835 0.000000 0.076474
#
#
# Mechanical properties :
#
#
# Convention : Reuss Voigt Hill
#
# Bulk Modulus (GPa) = 51.87443 53.02691 52.45067
# Shear Modulus (GPa) = 22.20683 28.43291 25.31987
#
# Velocity S-wave (km/s) = 3.33440 3.77298 3.56045
# Velocity P-wave (km/s) = 6.38718 6.74754 6.56983
#
# Compressibility (1/GPa) = 0.01927732
#
# Stress axis : x y z
#
# Youngs Moduli (GPa) = 110.67175 84.12741 59.91824
#
# Poissons Ratio (x) = 0.06021 0.21732
# Poissons Ratio (y) = 0.07920 0.28909
# Poissons Ratio (z) = 0.40139 0.40589
#
# Static dielectric constant tensor:
#      x y z
#    x 3.528000 -0.000010 0.061180 
#    y -0.000010 4.020340 0.000000 
#    z 0.061180 0.000000 3.563820 
# 
# 
# High freq. dielectric constant tensor:
#      x y z
#    x 1.771820 0.000000 0.007950 
#    y 0.000000 1.797120 0.000000 
#    z 0.007950 0.000000 1.755330 
# 
# From -- ./inp_files/52293.got.cif
#   From: 2010.06.25/outbox.cif.g09.slc.cpg/sg15_27_cif.got.tgz:52293.got - 2010.06.28 07:06:18.
