data_PCOD8147079
_publ_section_title
;
Structure prediction by ZEFSAII (Michael W. Deem and Ramdas Pophale) SiO2 
 PCOD8147079
Probable space group: C 2/C
;
_chemical_formula_sum "Si O2"
_cell_formula_units_Z 44
_cell_length_a 7.624354
_cell_length_b 16.319131
_cell_length_c 15.797181
_cell_angle_alpha 90.000000
_cell_angle_beta 56.821998
_cell_angle_gamma 90.000000
_cell_volume 1645.098448
_symmetry_space_group_name_H-M "C 2/C"
_symmetry_group_IT_number 15
_symmetry_cell_setting 'monoclinic'
loop_
_space_group_symop_operation_xyz
x,y,z
-x,y,1/2-z
-x,-y,-z
x,-y,1/2+z
1/2+x,1/2+y,z
1/2-x,1/2+y,1/2-z
1/2-x,1/2-y,-z
1/2+x,1/2-y,1/2+z
loop_
_atom_site_type_symbol
_atom_site_label
_atom_site_fract_x
_atom_site_fract_y
_atom_site_fract_z
Si Si1 0.155937 0.331758 0.862201
Si Si2 0.321876 0.671158 0.057632
Si Si3 0.764675 0.466217 0.790859
Si Si4 0.500000 0.798506 0.250000
Si Si5 0.050146 0.884905 0.147417
Si Si6 0.523056 0.840800 0.424504
O O1 0.231813 0.412457 0.794883
O O2 0.293089 0.255642 0.794893
O O3 0.915057 0.308654 0.907864
O O4 0.176068 0.348740 0.959015
O O5 0.328863 0.587045 0.107670
O O6 0.397964 0.746546 0.093715
O O7 0.472878 0.664389 0.934808
O O8 0.605453 0.539044 0.815237
O O9 0.000000 0.496710 0.750000
O O10 0.470569 0.857574 0.339917
O O11 0.299365 0.905642 0.090465
O O12 0.000000 0.836691 0.250000
#
# Coordination Sequence:
#
# PCOD8147079 Si02
#       6
#     8   8   8   4   8   8
#     4  10  22  42  70 110 139 187 245 308 370 434
#     4  10  22  45  77 102 142 192 254 314 371 439
#     4  10  22  45  74 104 145 199 245 302 375 463
#     4  12  24  40  74 108 154 188 252 306 374 436
#     4  11  25  42  68 105 145 196 240 297 380 444
#     4  11  25  44  72 110 147 193 251 319 363 435
#
# _framework density 26.746120000000001
#
# number of rings (size 3 to 8) (size 9 to 14) (size 15 to 20)
#    0.000    1.455    1.818    3.273    6.364    0.000 
#    1.636   10.000    0.000    0.000    0.000    0.000 
#    0.000    0.000    0.000    0.000    0.000    0.000 
#
# Total GULP energy -272624.611363 kJ/mol
# GULP energy per Si atom -12392.027789 kJ/mol
# Density = 2.668525 g / cm^3
# Si number density = 26.746120 Si / 1000 Ang^3
#
#
#
# Elastic Constant Matrix: (Units=GPa)
#
#
# Indices 1 2 3 4 5 6 
#
# 1 86.9486 38.9228 47.2933 0.0000 8.9090 0.0000
# 2 38.9228 67.1829 32.4332 0.0000 -3.5663 0.0000
# 3 47.2933 32.4332 212.6052 0.0000 39.4249 0.0000
# 4 0.0000 0.0000 0.0000 25.8503 0.0000 -9.8887
# 5 8.9090 -3.5663 39.4249 0.0000 58.6765 0.0000
# 6 0.0000 0.0000 0.0000 -9.8887 0.0000 36.8243
#
#
#
# Elastic Compliance Matrix: (Units=1/GPa)
#
#
# Indices 1 2 3 4 5 6 
#
# 1 0.016731 -0.008784 -0.002070 0.000000 -0.001684 0.000000
# 2 -0.008784 0.021154 -0.002009 0.000000 0.003969 0.000000
# 3 -0.002070 -0.002009 0.006208 0.000000 -0.003979 0.000000
# 4 0.000000 0.000000 0.000000 0.043113 0.000000 0.011578
# 5 -0.001684 0.003969 -0.003979 0.000000 0.020213 0.000000
# 6 0.000000 0.000000 0.000000 0.011578 0.000000 0.030265
#
#
# Mechanical properties :
#
#
# Convention : Reuss Voigt Hill
#
# Bulk Modulus (GPa) = 54.44008 67.11503 60.77756
# Shear Modulus (GPa) = 29.49272 40.80938 35.15105
#
# Velocity S-wave (km/s) = 3.32428 3.91039 3.62919
# Velocity P-wave (km/s) = 5.92731 6.74804 6.35095
#
# Compressibility (1/GPa) = 0.01836882
#
# Stress axis : x y z
#
# Youngs Moduli (GPa) = 59.76828 47.27173 161.07252
#
# Poissons Ratio (x) = 0.41521 0.33337
# Poissons Ratio (y) = 0.52498 0.32365
# Poissons Ratio (z) = 0.12370 0.09498
#
# Static dielectric constant tensor:
#      x y z
#    x 4.871760 0.000000 0.201720 
#    y 0.000000 4.374080 0.000000 
#    z 0.201720 0.000000 5.923700 
# 
# 
# High freq. dielectric constant tensor:
#      x y z
#    x 2.070510 0.000000 0.008750 
#    y 0.000000 2.044150 0.000000 
#    z 0.008750 0.000000 2.110480 
# 
# From -- ./inp_files/191461.got.cif
#   From: 2010.06.25/outbox.cif.g09.slc.cpg/sg15_96_cif.got.tgz:191461.got - 2010.06.28 07:06:18.
