data_PCOD8147014
_publ_section_title
;
Structure prediction by ZEFSAII (Michael W. Deem and Ramdas Pophale) SiO2 
 PCOD8147014
Probable space group: C 2/C
;
_chemical_formula_sum "Si O2"
_cell_formula_units_Z 44
_cell_length_a 10.665235
_cell_length_b 21.936841
_cell_length_c 9.670501
_cell_angle_alpha 90.000000
_cell_angle_beta 67.720847
_cell_angle_gamma 90.000000
_cell_volume 2093.622856
_symmetry_space_group_name_H-M "C 2/C"
_symmetry_group_IT_number 15
_symmetry_cell_setting 'monoclinic'
loop_
_space_group_symop_operation_xyz
x,y,z
-x,y,1/2-z
-x,-y,-z
x,-y,1/2+z
1/2+x,1/2+y,z
1/2-x,1/2+y,1/2-z
1/2-x,1/2-y,-z
1/2+x,1/2-y,1/2+z
loop_
_atom_site_type_symbol
_atom_site_label
_atom_site_fract_x
_atom_site_fract_y
_atom_site_fract_z
Si Si1 0.912008 0.148049 0.164742
Si Si2 0.343946 0.929886 0.814621
Si Si3 0.500000 0.124709 0.750000
Si Si4 0.306459 0.770199 0.332732
Si Si5 0.181703 0.548837 0.853300
Si Si6 0.601849 0.356825 0.326105
O O1 0.764187 0.121083 0.189151
O O2 0.891220 0.219285 0.214715
O O3 0.000000 0.115820 0.250000
O O4 0.016156 0.139010 0.999425
O O5 0.500000 0.905206 0.750000
O O6 0.326813 0.982025 0.707532
O O7 0.308985 0.953451 0.984031
O O8 0.616646 0.169101 0.649435
O O9 0.545289 0.083670 0.861793
O O10 0.250000 0.750000 0.500000
O O11 0.189882 0.795079 0.281295
O O12 0.312301 0.581732 0.733526
O O13 0.500000 0.346240 0.250000
#
# Coordination Sequence:
#
# PCOD8147014 Si02
#       6
#     8   8   4   8   8   8
#     4  12  26  46  71 107 142 192 239 287 363 425
#     4  12  28  46  72 106 145 185 245 295 358 428
#     4  10  22  42  68  96 140 178 236 284 346 420
#     4  11  22  41  71  98 138 189 232 284 352 430
#     4  11  26  45  73 102 139 189 235 300 358 417
#     4  11  24  46  67 103 144 177 239 298 358 417
#
# _framework density 21.016202
#
# number of rings (size 3 to 8) (size 9 to 14) (size 15 to 20)
#    0.000    0.727    5.455    0.545    5.091    2.909 
#    0.000    0.000    0.000    0.000    0.000    0.000 
#    0.000    0.000    0.000    0.000    0.000    0.000 
#
# Total GULP energy -272573.851692 kJ/mol
# GULP energy per Si atom -12389.720531 kJ/mol
# Density = 2.096837 g / cm^3
# Si number density = 21.016202 Si / 1000 Ang^3
#
#
#
# Elastic Constant Matrix: (Units=GPa)
#
#
# Indices 1 2 3 4 5 6 
#
# 1 157.6874 37.1105 41.3515 0.0000 8.1193 0.0000
# 2 37.1105 74.4860 15.5541 0.0000 2.0734 0.0000
# 3 41.3515 15.5541 122.4942 0.0000 2.3606 0.0000
# 4 0.0000 0.0000 0.0000 23.9997 0.0000 -1.7605
# 5 8.1193 2.0734 2.3606 0.0000 43.4804 0.0000
# 6 0.0000 0.0000 0.0000 -1.7605 0.0000 22.8744
#
#
#
# Elastic Compliance Matrix: (Units=1/GPa)
#
#
# Indices 1 2 3 4 5 6 
#
# 1 0.007767 -0.003384 -0.002170 0.000000 -0.001171 0.000000
# 2 -0.003384 0.015279 -0.000797 0.000000 -0.000053 0.000000
# 3 -0.002170 -0.000797 0.008998 0.000000 -0.000045 0.000000
# 4 0.000000 0.000000 0.000000 0.041904 0.000000 0.003225
# 5 -0.001171 -0.000053 -0.000045 0.000000 0.023223 0.000000
# 6 0.000000 0.000000 0.000000 0.003225 0.000000 0.043965
#
#
# Mechanical properties :
#
#
# Convention : Reuss Voigt Hill
#
# Bulk Modulus (GPa) = 51.69700 60.29997 55.99848
# Shear Modulus (GPa) = 31.19431 35.44766 33.32098
#
# Velocity S-wave (km/s) = 3.85684 4.11138 3.98614
# Velocity P-wave (km/s) = 6.66976 7.16187 6.92019
#
# Compressibility (1/GPa) = 0.01934348
#
# Stress axis : x y z
#
# Youngs Moduli (GPa) = 128.74276 65.44814 111.13364
#
# Poissons Ratio (x) = 0.22149 0.24114
# Poissons Ratio (y) = 0.43569 0.08854
# Poissons Ratio (z) = 0.27935 0.05214
#
# Static dielectric constant tensor:
#      x y z
#    x 4.566830 0.000000 0.054600 
#    y 0.000000 3.983470 0.000000 
#    z 0.054600 0.000000 3.780020 
# 
# 
# High freq. dielectric constant tensor:
#      x y z
#    x 1.853620 0.000000 0.002290 
#    y 0.000000 1.814870 0.000000 
#    z 0.002290 0.000000 1.827660 
# 
# From -- ./inp_files/30700.got.cif
#   From: 2010.06.25/outbox.cif.g09.slc.cpg/sg15_16_cif.got.tgz:30700.got - 2010.06.28 07:06:18.
