data_PCOD8147458
_publ_section_title
;
Structure prediction by ZEFSAII (Michael W. Deem and Ramdas Pophale) SiO2 
 PCOD8147458
Probable space group: C 2/C
;
_chemical_formula_sum "Si O2"
_cell_formula_units_Z 40
_cell_length_a 14.337884
_cell_length_b 23.629124
_cell_length_c 8.348121
_cell_angle_alpha 90.000000
_cell_angle_beta 37.084884
_cell_angle_gamma 90.000000
_cell_volume 1705.442035
_symmetry_space_group_name_H-M "C 2/C"
_symmetry_group_IT_number 15
_symmetry_cell_setting 'monoclinic'
loop_
_space_group_symop_operation_xyz
x,y,z
-x,y,1/2-z
-x,-y,-z
x,-y,1/2+z
1/2+x,1/2+y,z
1/2-x,1/2+y,1/2-z
1/2-x,1/2-y,-z
1/2+x,1/2-y,1/2+z
loop_
_atom_site_type_symbol
_atom_site_label
_atom_site_fract_x
_atom_site_fract_y
_atom_site_fract_z
Si Si1 0.000000 0.784102 0.750000
Si Si2 0.173970 0.714734 0.250123
Si Si3 0.714160 0.420543 0.164725
Si Si4 0.000000 0.657532 0.250000
Si Si5 0.881994 0.132384 0.155816
Si Si6 0.320974 0.464995 0.953388
O O1 0.896870 0.823189 0.778506
O O2 0.125156 0.748906 0.475167
O O3 0.008942 0.694364 0.401134
O O4 0.288504 0.662649 0.140578
O O5 0.250000 0.750000 0.000000
O O6 0.549430 0.389897 0.369567
O O7 0.762212 0.444163 0.272822
O O8 0.729334 0.471674 0.018648
O O9 0.842294 0.375492 0.950991
O O10 0.787170 0.077763 0.351849
O O11 0.500000 0.463668 0.750000
#
# Coordination Sequence:
#
# PCOD8147458 Si02
#       6
#     4   8   8   4   8   8
#     4  12  24  46  77 110 143 186 252 316 362 428
#     4  12  29  48  73 108 148 199 249 305 367 432
#     4  11  25  46  72 108 145 184 245 295 373 442
#     4  12  30  46  67 108 151 192 240 304 374 434
#     4  11  23  47  78 102 141 191 241 303 361 441
#     4  10  22  43  75 107 136 182 244 296 360 445
#
# _framework density 23.454329999999999
#
# number of rings (size 3 to 8) (size 9 to 14) (size 15 to 20)
#    0.000    0.800    3.000    5.400    8.400    2.400 
#    0.000    0.000    0.000    0.000    0.000    0.000 
#    0.000    0.000    0.000    0.000    0.000    0.000 
#
# Total GULP energy -247896.100886 kJ/mol
# GULP energy per Si atom -12394.805044 kJ/mol
# Density = 2.340095 g / cm^3
# Si number density = 23.454330 Si / 1000 Ang^3
#
#
#
# Elastic Constant Matrix: (Units=GPa)
#
#
# Indices 1 2 3 4 5 6 
#
# 1 145.0712 61.9978 27.3808 0.0000 9.2668 0.0000
# 2 61.9978 119.4268 25.1076 0.0000 -1.3552 0.0000
# 3 27.3808 25.1076 78.8859 0.0000 13.3418 0.0000
# 4 0.0000 0.0000 0.0000 19.2143 0.0000 11.4632
# 5 9.2668 -1.3552 13.3418 0.0000 21.5794 0.0000
# 6 0.0000 0.0000 0.0000 11.4632 0.0000 67.1662
#
#
#
# Elastic Compliance Matrix: (Units=1/GPa)
#
#
# Indices 1 2 3 4 5 6 
#
# 1 0.009321 -0.004637 -0.001154 0.000000 -0.003581 0.000000
# 2 -0.004637 0.011413 -0.002771 0.000000 0.004421 0.000000
# 3 -0.001154 -0.002771 0.015528 0.000000 -0.009279 0.000000
# 4 0.000000 0.000000 0.000000 0.057945 0.000000 -0.009889
# 5 -0.003581 0.004421 -0.009279 0.000000 0.053893 0.000000
# 6 0.000000 0.000000 0.000000 -0.009889 0.000000 0.016576
#
#
# Mechanical properties :
#
#
# Convention : Reuss Voigt Hill
#
# Bulk Modulus (GPa) = 52.24844 63.59513 57.92178
# Shear Modulus (GPa) = 26.57035 36.85184 31.71110
#
# Velocity S-wave (km/s) = 3.36944 3.96816 3.68099
# Velocity P-wave (km/s) = 6.12067 6.94034 6.54335
#
# Compressibility (1/GPa) = 0.01913933
#
# Stress axis : x y z
#
# Youngs Moduli (GPa) = 107.28050 87.61772 64.39848
#
# Poissons Ratio (x) = 0.40628 0.07431
# Poissons Ratio (y) = 0.49746 0.17844
# Poissons Ratio (z) = 0.12380 0.24277
#
# Static dielectric constant tensor:
#      x y z
#    x 5.097930 0.000000 0.868930 
#    y 0.000000 4.739030 0.000000 
#    z 0.868930 0.000000 4.431870 
# 
# 
# High freq. dielectric constant tensor:
#      x y z
#    x 1.939710 0.000000 0.026610 
#    y 0.000000 1.952860 0.000000 
#    z 0.026610 0.000000 1.904530 
# 
# From -- ./inp_files/41968.got.cif
#   From: 2010.06.25/outbox.cif.g09.slc.cpg/sg15_21_cif.got.tgz:41968.got - 2010.06.28 07:06:18.
