data_PCOD8147963
_publ_section_title
;
Structure prediction by ZEFSAII (Michael W. Deem and Ramdas Pophale) SiO2 
 PCOD8147963
Probable space group: C 2/C
;
_chemical_formula_sum "Si O2"
_cell_formula_units_Z 40
_cell_length_a 30.310391
_cell_length_b 8.783433
_cell_length_c 14.637531
_cell_angle_alpha 90.000000
_cell_angle_beta 151.567853
_cell_angle_gamma 90.000000
_cell_volume 1855.401775
_symmetry_space_group_name_H-M "C 2/C"
_symmetry_group_IT_number 15
_symmetry_cell_setting 'monoclinic'
loop_
_space_group_symop_operation_xyz
x,y,z
-x,y,1/2-z
-x,-y,-z
x,-y,1/2+z
1/2+x,1/2+y,z
1/2-x,1/2+y,1/2-z
1/2-x,1/2-y,-z
1/2+x,1/2-y,1/2+z
loop_
_atom_site_type_symbol
_atom_site_label
_atom_site_fract_x
_atom_site_fract_y
_atom_site_fract_z
Si Si1 0.998217 0.775125 0.596817
Si Si2 0.149113 0.723619 0.551316
Si Si3 0.701187 0.323625 0.324964
Si Si4 0.673550 0.321383 0.796777
Si Si5 0.000000 0.471150 0.250000
Si Si6 0.000000 0.971538 0.250000
O O1 0.899405 0.747855 0.369536
O O2 0.024068 0.631780 0.706495
O O3 0.071648 0.790883 0.650011
O O4 0.996480 0.929520 0.652252
O O5 0.242285 0.712378 0.663321
O O6 0.180662 0.739349 0.712700
O O7 0.090277 0.570729 0.433096
O O8 0.091673 0.869250 0.412286
O O9 0.750000 0.250000 0.500000
O O10 0.692772 0.501777 0.323828
O O11 0.750000 0.250000 0.000000
#
# Coordination Sequence:
#
# PCOD8147963 Si02
#       6
#     8   8   8   8   4   4
#     4  11  25  46  72 100 138 186 233 285 345 412
#     4  11  26  45  69 103 141 182 231 290 346 408
#     4  12  28  44  73 103 141 182 237 283 349 410
#     4  12  28  46  72 102 142 184 235 283 348 415
#     4  10  26  44  72  98 142 182 232 290 350 402
#     4  10  22  46  74  94 142 184 236 280 344 410
#
# _framework density 21.558672999999999
#
# number of rings (size 3 to 8) (size 9 to 14) (size 15 to 20)
#    0.000    0.800    2.000    3.000   16.800    0.800 
#    0.000    0.000    0.000    0.000    0.000    0.000 
#    0.000    0.000    0.000    0.000    0.000    0.000 
#
# Total GULP energy -248189.297320 kJ/mol
# GULP energy per Si atom -12409.464866 kJ/mol
# Density = 2.150960 g / cm^3
# Si number density = 21.558673 Si / 1000 Ang^3
#
#
#
# Elastic Constant Matrix: (Units=GPa)
#
#
# Indices 1 2 3 4 5 6 
#
# 1 195.1342 60.7362 90.0881 0.0000 7.8195 0.0000
# 2 60.7362 131.2509 62.4002 0.0000 -9.3252 0.0000
# 3 90.0881 62.4002 176.2396 0.0000 -6.3066 0.0000
# 4 0.0000 0.0000 0.0000 234.9541 0.0000 -45.4496
# 5 7.8195 -9.3252 -6.3066 0.0000 47.4925 0.0000
# 6 0.0000 0.0000 0.0000 -45.4496 0.0000 38.8195
#
#
#
# Elastic Compliance Matrix: (Units=1/GPa)
#
#
# Indices 1 2 3 4 5 6 
#
# 1 0.007252 -0.002046 -0.003054 0.000000 -0.002001 0.000000
# 2 -0.002046 0.009828 -0.002364 0.000000 0.001953 0.000000
# 3 -0.003054 -0.002364 0.008112 0.000000 0.001116 0.000000
# 4 0.000000 0.000000 0.000000 0.005502 0.000000 0.006442
# 5 -0.002001 0.001953 0.001116 0.000000 0.021917 0.000000
# 6 0.000000 0.000000 0.000000 0.006442 0.000000 0.033303
#
#
# Mechanical properties :
#
#
# Convention : Reuss Voigt Hill
#
# Bulk Modulus (GPa) = 97.42778 103.23041 100.32909
# Shear Modulus (GPa) = 47.95519 83.54657 65.75088
#
# Velocity S-wave (km/s) = 4.72148 6.23195 5.52854
# Velocity P-wave (km/s) = 8.66101 9.98851 9.34836
#
# Compressibility (1/GPa) = 0.01026401
#
# Stress axis : x y z
#
# Youngs Moduli (GPa) = 137.90011 101.74499 123.27043
#
# Poissons Ratio (x) = 0.20816 0.37647
# Poissons Ratio (y) = 0.28213 0.29144
# Poissons Ratio (z) = 0.42115 0.24055
#
# Static dielectric constant tensor:
#      x y z
#    x 4.112890 0.000000 -0.080310 
#    y 0.000000 3.984850 0.000000 
#    z -0.080310 0.000000 4.080050 
# 
# 
# High freq. dielectric constant tensor:
#      x y z
#    x 1.857350 0.000000 -0.002350 
#    y 0.000000 1.861490 0.000000 
#    z -0.002350 0.000000 1.864810 
# 
# From -- ./inp_files/150635.got.cif
#   From: 2010.06.25/outbox.cif.g09.slc.cpg/sg15_76_cif.got.tgz:150635.got - 2010.06.28 07:06:18.
