data_PCOD8147899
_publ_section_title
;
Structure prediction by ZEFSAII (Michael W. Deem and Ramdas Pophale) SiO2 
 PCOD8147899
Probable space group: C 2/C
;
_chemical_formula_sum "Si O2"
_cell_formula_units_Z 40
_cell_length_a 19.506055
_cell_length_b 8.796070
_cell_length_c 27.503492
_cell_angle_alpha 90.000000
_cell_angle_beta 158.254212
_cell_angle_gamma 90.000000
_cell_volume 1748.322154
_symmetry_space_group_name_H-M "C 2/C"
_symmetry_group_IT_number 15
_symmetry_cell_setting 'monoclinic'
loop_
_space_group_symop_operation_xyz
x,y,z
-x,y,1/2-z
-x,-y,-z
x,-y,1/2+z
1/2+x,1/2+y,z
1/2-x,1/2+y,1/2-z
1/2-x,1/2-y,-z
1/2+x,1/2-y,1/2+z
loop_
_atom_site_type_symbol
_atom_site_label
_atom_site_fract_x
_atom_site_fract_y
_atom_site_fract_z
Si Si1 0.000000 0.033607 0.750000
Si Si2 0.500000 0.966640 0.250000
Si Si3 0.331560 0.300232 0.803900
Si Si4 0.771993 0.720396 0.458206
Si Si5 0.832619 0.710125 0.197747
Si Si6 0.964023 0.902215 0.427511
O O1 0.933712 0.133723 0.751711
O O2 0.826889 0.935447 0.619468
O O3 0.477005 0.071720 0.283166
O O4 0.682396 0.863122 0.371490
O O5 0.230921 0.277340 0.788954
O O6 0.189134 0.234345 0.669278
O O7 0.389274 0.479274 0.836704
O O8 0.517670 0.201989 0.921110
O O9 0.750000 0.750000 0.500000
O O10 0.659887 0.680023 0.046473
O O11 0.000000 0.000000 0.500000
#
# Coordination Sequence:
#
# PCOD8147899 Si02
#       6
#     4   4   8   8   8   8
#     4  10  26  44  66 102 134 180 222 290 336 400
#     4  10  22  46  66  96 144 178 218 296 338 400
#     4  11  25  43  72  98 133 186 231 275 345 410
#     4  11  26  41  66 100 138 179 228 277 347 406
#     4  10  23  45  71  96 135 178 233 279 341 402
#     4  10  24  44  68 103 135 176 227 285 332 405
#
# _framework density 22.879079000000001
#
# number of rings (size 3 to 8) (size 9 to 14) (size 15 to 20)
#    0.000    1.600    2.000    0.000   11.200    2.400 
#    0.000    4.000    0.000    0.000    0.000    0.000 
#    0.000    0.000    0.000    0.000    0.000    0.000 
#
# Total GULP energy -247855.567530 kJ/mol
# GULP energy per Si atom -12392.778377 kJ/mol
# Density = 2.282701 g / cm^3
# Si number density = 22.879079 Si / 1000 Ang^3
#
#
#
# Elastic Constant Matrix: (Units=GPa)
#
#
# Indices 1 2 3 4 5 6 
#
# 1 118.5513 24.1108 11.4002 0.0079 22.6185 0.0030
# 2 24.1108 117.8472 35.5565 0.0024 4.2686 0.0036
# 3 11.4002 35.5565 97.9583 -0.0600 18.8325 0.0088
# 4 0.0079 0.0024 -0.0600 36.2877 0.0069 0.6372
# 5 22.6185 4.2686 18.8325 0.0069 39.0090 0.0042
# 6 0.0030 0.0036 0.0088 0.6372 0.0042 27.2729
#
#
#
# Elastic Compliance Matrix: (Units=1/GPa)
#
#
# Indices 1 2 3 4 5 6 
#
# 1 0.009897 -0.002027 0.000710 0.000000 -0.005860 0.000000
# 2 -0.002027 0.009961 -0.003744 -0.000007 0.001893 0.000000
# 3 0.000710 -0.003744 0.012660 0.000022 -0.006114 -0.000003
# 4 0.000000 -0.000007 0.000022 0.027569 -0.000015 -0.000644
# 5 -0.005860 0.001893 -0.006114 -0.000015 0.031777 -0.000002
# 6 0.000000 0.000000 -0.000003 -0.000644 -0.000002 0.036682
#
#
# Mechanical properties :
#
#
# Convention : Reuss Voigt Hill
#
# Bulk Modulus (GPa) = 44.64670 52.94355 48.79513
# Shear Modulus (GPa) = 34.21549 38.06654 36.14102
#
# Velocity S-wave (km/s) = 3.87136 4.08341 3.97880
# Velocity P-wave (km/s) = 6.28806 6.73967 6.51778
#
# Compressibility (1/GPa) = 0.02239807
#
# Stress axis : x y z
#
# Youngs Moduli (GPa) = 101.03984 100.38903 78.98850
#
# Poissons Ratio (x) = 0.20349 -0.05612
# Poissons Ratio (y) = 0.20481 0.29571
# Poissons Ratio (z) = -0.07179 0.37582
#
# Static dielectric constant tensor:
#      x y z
#    x 3.777470 -0.000040 0.186610 
#    y -0.000040 4.088150 0.000000 
#    z 0.186610 0.000000 4.670680 
# 
# 
# High freq. dielectric constant tensor:
#      x y z
#    x 1.883780 0.000000 0.026190 
#    y 0.000000 1.916190 0.000000 
#    z 0.026190 0.000000 1.907780 
# 
# From -- ./inp_files/109600.got.cif
#   From: 2010.06.25/outbox.cif.g09.slc.cpg/sg15_55_cif.got.tgz:109600.got - 2010.06.28 07:06:18.
