data_PCOD8147463
_publ_section_title
;
Structure prediction by ZEFSAII (Michael W. Deem and Ramdas Pophale) SiO2 
 PCOD8147463
Probable space group: C 2/C
;
_chemical_formula_sum "Si O2"
_cell_formula_units_Z 44
_cell_length_a 18.042522
_cell_length_b 7.646783
_cell_length_c 15.647979
_cell_angle_alpha 90.000000
_cell_angle_beta 100.612665
_cell_angle_gamma 90.000000
_cell_volume 2121.979780
_symmetry_space_group_name_H-M "C 2/C"
_symmetry_group_IT_number 15
_symmetry_cell_setting 'monoclinic'
loop_
_space_group_symop_operation_xyz
x,y,z
-x,y,1/2-z
-x,-y,-z
x,-y,1/2+z
1/2+x,1/2+y,z
1/2-x,1/2+y,1/2-z
1/2-x,1/2-y,-z
1/2+x,1/2-y,1/2+z
loop_
_atom_site_type_symbol
_atom_site_label
_atom_site_fract_x
_atom_site_fract_y
_atom_site_fract_z
Si Si1 0.829864 0.768372 0.560527
Si Si2 0.243454 0.212915 0.858007
Si Si3 0.943896 0.078738 0.557090
Si Si4 0.000000 0.003491 0.750000
Si Si5 0.650194 0.901132 0.976502
Si Si6 0.837331 0.104851 0.238318
O O1 0.750000 0.750000 0.500000
O O2 0.871893 0.949447 0.546913
O O3 0.879942 0.599493 0.543114
O O4 0.813960 0.763076 0.658156
O O5 0.189339 0.344227 0.896571
O O6 0.302888 0.328355 0.818713
O O7 0.192567 0.091502 0.786270
O O8 0.289597 0.092767 0.933838
O O9 0.979168 0.110989 0.659191
O O10 0.917646 0.267799 0.517178
O O11 0.000000 0.000000 0.500000
O O12 0.071676 0.888277 0.737060
#
# Coordination Sequence:
#
# PCOD8147463 Si02
#       6
#     8   8   8   4   8   8
#     4  11  21  41  66  94 127 161 221 274 310 384
#     4  11  21  38  65  97 126 164 220 266 319 379
#     4  11  24  43  65  92 135 179 207 269 340 388
#     4  10  22  44  58  92 140 166 210 264 332 394
#     4  11  21  41  65  96 127 166 220 272 317 385
#     4  11  22  40  66  95 129 172 211 269 326 384
#
# _framework density 20.735351999999999
#
# number of rings (size 3 to 8) (size 9 to 14) (size 15 to 20)
#    0.000    1.091    5.455    3.273    0.000    2.182 
#    0.000    3.636    0.000    0.000    0.000    0.000 
#    0.000    0.000    0.000    0.000    0.000    0.000 
#
# Total GULP energy -272723.286501 kJ/mol
# GULP energy per Si atom -12396.513023 kJ/mol
# Density = 2.068816 g / cm^3
# Si number density = 20.735352 Si / 1000 Ang^3
#
#
#
# Elastic Constant Matrix: (Units=GPa)
#
#
# Indices 1 2 3 4 5 6 
#
# 1 105.9841 16.1980 31.4773 0.0000 -0.8724 0.0000
# 2 16.1980 100.1142 15.8218 0.0000 10.3602 0.0000
# 3 31.4773 15.8218 67.5745 0.0000 4.2047 0.0000
# 4 0.0000 0.0000 0.0000 23.7585 0.0000 -0.7539
# 5 -0.8724 10.3602 4.2047 0.0000 38.6653 0.0000
# 6 0.0000 0.0000 0.0000 -0.7539 0.0000 26.2430
#
#
#
# Elastic Compliance Matrix: (Units=1/GPa)
#
#
# Indices 1 2 3 4 5 6 
#
# 1 0.011093 -0.001122 -0.004972 0.000000 0.001092 0.000000
# 2 -0.001122 0.010738 -0.001823 0.000000 -0.002704 0.000000
# 3 -0.004972 -0.001823 0.017638 0.000000 -0.001542 0.000000
# 4 0.000000 0.000000 0.000000 0.042129 0.000000 0.001210
# 5 0.001092 -0.002704 -0.001542 0.000000 0.026780 0.000000
# 6 0.000000 0.000000 0.000000 0.001210 0.000000 0.038140
#
#
# Mechanical properties :
#
#
# Convention : Reuss Voigt Hill
#
# Bulk Modulus (GPa) = 42.31357 44.51854 43.41606
# Shear Modulus (GPa) = 29.37208 31.74508 30.55858
#
# Velocity S-wave (km/s) = 3.76775 3.91700 3.84310
# Velocity P-wave (km/s) = 6.27525 6.47871 6.37779
#
# Compressibility (1/GPa) = 0.02363308
#
# Stress axis : x y z
#
# Youngs Moduli (GPa) = 90.15007 93.12623 56.69730
#
# Poissons Ratio (x) = 0.10448 0.28192
# Poissons Ratio (y) = 0.10114 0.10338
# Poissons Ratio (z) = 0.44826 0.16980
#
# Static dielectric constant tensor:
#      x y z
#    x 3.751110 0.000000 -0.087000 
#    y 0.000000 3.829350 0.000000 
#    z -0.087000 0.000000 4.043960 
# 
# 
# High freq. dielectric constant tensor:
#      x y z
#    x 1.806720 0.000000 -0.003200 
#    y 0.000000 1.800260 0.000000 
#    z -0.003200 0.000000 1.822250 
# 
# From -- ./inp_files/159456.got.cif
#   From: 2010.06.25/outbox.cif.g09.slc.cpg/sg15_80_cif.got.tgz:159456.got - 2010.06.28 07:06:18.
