data_PCOD8147504
_publ_section_title
;
Structure prediction by ZEFSAII (Michael W. Deem and Ramdas Pophale) SiO2 
 PCOD8147504
Probable space group: C 2/C
;
_chemical_formula_sum "Si O2"
_cell_formula_units_Z 48
_cell_length_a 15.406945
_cell_length_b 12.372625
_cell_length_c 19.692977
_cell_angle_alpha 90.000000
_cell_angle_beta 35.928953
_cell_angle_gamma 90.000000
_cell_volume 2202.755301
_symmetry_space_group_name_H-M "C 2/C"
_symmetry_group_IT_number 15
_symmetry_cell_setting 'monoclinic'
loop_
_space_group_symop_operation_xyz
x,y,z
-x,y,1/2-z
-x,-y,-z
x,-y,1/2+z
1/2+x,1/2+y,z
1/2-x,1/2+y,1/2-z
1/2-x,1/2-y,-z
1/2+x,1/2-y,1/2+z
loop_
_atom_site_type_symbol
_atom_site_label
_atom_site_fract_x
_atom_site_fract_y
_atom_site_fract_z
Si Si1 0.826157 0.228929 0.353368
Si Si2 0.048186 0.535290 0.065873
Si Si3 0.267000 0.568910 0.510896
Si Si4 0.160709 0.728301 0.320548
Si Si5 0.472932 0.446712 0.089232
Si Si6 0.306046 0.905510 0.157338
O O1 0.750231 0.344250 0.418405
O O2 0.784311 0.131833 0.429159
O O3 0.765389 0.197542 0.317857
O O4 0.000000 0.247179 0.250000
O O5 0.120151 0.504491 0.092642
O O6 0.922619 0.625129 0.156247
O O7 0.967749 0.429133 0.086346
O O8 0.180924 0.573201 0.931319
O O9 0.398803 0.485921 0.441630
O O10 0.032797 0.817059 0.419268
O O11 0.267878 0.778932 0.194569
O O12 0.318417 0.479514 0.225216
O O13 0.500000 0.500000 0.000000
#
# Coordination Sequence:
#
# PCOD8147504 Si02
#       6
#     8   8   8   8   8   8
#     4  11  23  38  63  99 130 165 217 266 319 384
#     4  11  22  41  66  95 131 166 220 270 317 394
#     4  11  24  39  66  98 127 166 218 273 319 381
#     4  10  23  41  64  93 128 179 209 261 327 389
#     4  10  22  44  64  92 131 173 211 264 329 387
#     4   9  22  40  63  94 129 172 208 258 335 379
#
# _framework density 21.790889
#
# number of rings (size 3 to 8) (size 9 to 14) (size 15 to 20)
#    1.000    0.667    1.667    3.000    4.667    3.333 
#    0.000    0.000    0.000    0.000    0.000    0.000 
#    0.000    0.000    0.000    0.000    0.000    0.000 
#
# Total GULP energy -297391.033283 kJ/mol
# GULP energy per Si atom -12391.293053 kJ/mol
# Density = 2.174129 g / cm^3
# Si number density = 21.790889 Si / 1000 Ang^3
#
#
#
# Elastic Constant Matrix: (Units=GPa)
#
#
# Indices 1 2 3 4 5 6 
#
# 1 108.1359 37.5504 15.5717 -0.0001 -24.6686 0.0000
# 2 37.5504 70.6863 17.0527 -0.0003 -4.5138 0.0000
# 3 15.5717 17.0527 76.0811 -0.0006 -7.6171 0.0001
# 4 -0.0001 -0.0003 -0.0006 34.1475 0.0003 -14.8008
# 5 -24.6686 -4.5138 -7.6171 0.0003 26.4942 0.0000
# 6 0.0000 0.0000 0.0001 -14.8008 0.0000 33.2247
#
#
#
# Elastic Compliance Matrix: (Units=1/GPa)
#
#
# Indices 1 2 3 4 5 6 
#
# 1 0.014441 -0.006843 -0.000198 0.000000 0.012223 0.000000
# 2 -0.006843 0.018267 -0.003110 0.000000 -0.004153 0.000000
# 3 -0.000198 -0.003110 0.014219 0.000000 0.003374 0.000000
# 4 0.000000 0.000000 0.000000 0.036292 0.000000 0.016167
# 5 0.012223 -0.004153 0.003374 0.000000 0.049387 0.000000
# 6 0.000000 0.000000 0.000000 0.016167 0.000000 0.037300
#
#
# Mechanical properties :
#
#
# Convention : Reuss Voigt Hill
#
# Bulk Modulus (GPa) = 37.55776 43.91697 40.73737
# Shear Modulus (GPa) = 25.11509 31.08852 28.10180
#
# Velocity S-wave (km/s) = 3.39861 3.78123 3.59501
# Velocity P-wave (km/s) = 5.71609 6.26588 5.99728
#
# Compressibility (1/GPa) = 0.02662565
#
# Stress axis : x y z
#
# Youngs Moduli (GPa) = 69.24834 54.74310 70.32751
#
# Poissons Ratio (x) = 0.37461 0.01393
# Poissons Ratio (y) = 0.47387 0.21869
# Poissons Ratio (z) = 0.01372 0.17023
#
# Static dielectric constant tensor:
#      x y z
#    x 3.781570 0.000000 -0.134340 
#    y 0.000000 3.932550 0.000000 
#    z -0.134340 0.000000 3.872750 
# 
# 
# High freq. dielectric constant tensor:
#      x y z
#    x 1.844650 0.000000 -0.012710 
#    y 0.000000 1.855350 0.000000 
#    z -0.012710 0.000000 1.851380 
# 
# From -- ./inp_files/243912.got.cif
#   From: 2010.06.25/outbox.cif.g09.slc.cpg/sg15_122_cif.got.tgz:243912.got - 2010.06.28 07:06:18.
