data_PCOD8147603
_publ_section_title
;
Structure prediction by ZEFSAII (Michael W. Deem and Ramdas Pophale) SiO2 
 PCOD8147603
Probable space group: C 2/C
;
_chemical_formula_sum "Si O2"
_cell_formula_units_Z 48
_cell_length_a 11.182199
_cell_length_b 20.635572
_cell_length_c 11.382856
_cell_angle_alpha 90.000000
_cell_angle_beta 56.278630
_cell_angle_gamma 90.000000
_cell_volume 2184.672168
_symmetry_space_group_name_H-M "C 2/C"
_symmetry_group_IT_number 15
_symmetry_cell_setting 'monoclinic'
loop_
_space_group_symop_operation_xyz
x,y,z
-x,y,1/2-z
-x,-y,-z
x,-y,1/2+z
1/2+x,1/2+y,z
1/2-x,1/2+y,1/2-z
1/2-x,1/2-y,-z
1/2+x,1/2-y,1/2+z
loop_
_atom_site_type_symbol
_atom_site_label
_atom_site_fract_x
_atom_site_fract_y
_atom_site_fract_z
Si Si1 0.436857 0.896223 0.663573
Si Si2 0.705550 0.035200 0.461999
Si Si3 0.644820 0.404148 0.117755
Si Si4 0.500000 0.392152 0.750000
Si Si5 0.000000 0.391986 0.250000
Si Si6 0.353209 0.669843 0.119914
Si Si7 0.358557 0.178107 0.613550
O O1 0.500000 0.925658 0.750000
O O2 0.389517 0.955655 0.604749
O O3 0.305035 0.848177 0.753224
O O4 0.554740 0.850494 0.542577
O O5 0.620345 0.064451 0.619678
O O6 0.862204 0.065791 0.360615
O O7 0.730775 0.958725 0.468278
O O8 0.500000 0.435801 0.250000
O O9 0.698630 0.350727 0.182823
O O10 0.605220 0.370825 0.017178
O O11 0.531558 0.346745 0.843283
O O12 0.078666 0.343773 0.296435
O O13 0.358828 0.745782 0.095933
#
# Coordination Sequence:
#
# PCOD8147603 Si02
#       7
#     8   8   8   4   4   8   8
#     4  10  22  44  67  97 132 180 219 278 340 388
#     4  10  24  46  68 100 136 173 231 274 338 400
#     4  12  27  43  69 100 134 178 224 281 335 400
#     4  10  23  46  68  98 135 182 222 280 336 390
#     4  10  25  44  74  98 135 180 222 286 328 400
#     4  11  25  42  71  95 137 180 221 278 331 402
#     4  11  25  44  65 104 133 175 229 272 336 400
#
# _framework density 21.971260000000001
#
# number of rings (size 3 to 8) (size 9 to 14) (size 15 to 20)
#    0.000    1.333    2.500    1.000    4.667    7.333 
#    1.500    5.000    0.000    0.000    0.000    0.000 
#    0.000    0.000    0.000    0.000    0.000    0.000 
#
# Total GULP energy -297647.957587 kJ/mol
# GULP energy per Si atom -12401.998233 kJ/mol
# Density = 2.192125 g / cm^3
# Si number density = 21.971260 Si / 1000 Ang^3
#
#
#
# Elastic Constant Matrix: (Units=GPa)
#
#
# Indices 1 2 3 4 5 6 
#
# 1 119.0552 50.4457 42.6064 0.0000 31.0027 0.0000
# 2 50.4457 155.7100 51.9321 0.0000 10.3884 0.0000
# 3 42.6064 51.9321 121.0570 0.0000 7.6749 0.0000
# 4 0.0000 0.0000 0.0000 17.8269 0.0000 -1.1582
# 5 31.0027 10.3884 7.6749 0.0000 39.4066 0.0000
# 6 0.0000 0.0000 0.0000 -1.1582 0.0000 68.9699
#
#
#
# Elastic Compliance Matrix: (Units=1/GPa)
#
#
# Indices 1 2 3 4 5 6 
#
# 1 0.012827 -0.002622 -0.002829 0.000000 -0.008850 0.000000
# 2 -0.002622 0.008104 -0.002581 0.000000 0.000429 0.000000
# 3 -0.002829 -0.002581 0.010306 0.000000 0.000899 0.000000
# 4 0.000000 0.000000 0.000000 0.056156 0.000000 0.000943
# 5 -0.008850 0.000429 0.000899 0.000000 0.032051 0.000000
# 6 0.000000 0.000000 0.000000 0.000943 0.000000 0.014515
#
#
# Mechanical properties :
#
#
# Convention : Reuss Voigt Hill
#
# Bulk Modulus (GPa) = 65.90052 76.19897 71.04975
# Shear Modulus (GPa) = 32.24141 41.96322 37.10232
#
# Velocity S-wave (km/s) = 3.83487 4.37500 4.11381
# Velocity P-wave (km/s) = 7.04751 7.76385 7.41433
#
# Compressibility (1/GPa) = 0.01517439
#
# Stress axis : x y z
#
# Youngs Moduli (GPa) = 77.95940 123.40010 97.02740
#
# Poissons Ratio (x) = 0.32353 0.27447
# Poissons Ratio (y) = 0.20439 0.25041
# Poissons Ratio (z) = 0.22053 0.31848
#
# Static dielectric constant tensor:
#      x y z
#    x 4.455740 0.000000 -0.049870 
#    y 0.000000 3.888820 0.000000 
#    z -0.049870 0.000000 4.081320 
# 
# 
# High freq. dielectric constant tensor:
#      x y z
#    x 1.885320 0.000000 -0.003420 
#    y 0.000000 1.863060 0.000000 
#    z -0.003420 0.000000 1.875200 
# 
# From -- ./inp_files/88803.got.cif
#   From: 2010.06.25/outbox.cif.g09.slc.cpg/sg15_45_cif.got.tgz:88803.got - 2010.06.28 07:06:18.
