data_PCOD8147331
_publ_section_title
;
Structure prediction by ZEFSAII (Michael W. Deem and Ramdas Pophale) SiO2 
 PCOD8147331
Probable space group: C 2/C
;
_chemical_formula_sum "Si O2"
_cell_formula_units_Z 36
_cell_length_a 13.714209
_cell_length_b 9.561196
_cell_length_c 23.308521
_cell_angle_alpha 90.000000
_cell_angle_beta 150.804038
_cell_angle_gamma 90.000000
_cell_volume 1490.863354
_symmetry_space_group_name_H-M "C 2/C"
_symmetry_group_IT_number 15
_symmetry_cell_setting 'monoclinic'
loop_
_space_group_symop_operation_xyz
x,y,z
-x,y,1/2-z
-x,-y,-z
x,-y,1/2+z
1/2+x,1/2+y,z
1/2-x,1/2+y,1/2-z
1/2-x,1/2-y,-z
1/2+x,1/2-y,1/2+z
loop_
_atom_site_type_symbol
_atom_site_label
_atom_site_fract_x
_atom_site_fract_y
_atom_site_fract_z
Si Si1 0.941166 0.265226 0.813766
Si Si2 0.771214 0.833806 0.906168
Si Si3 0.341044 0.355763 0.449846
Si Si4 0.618631 0.458251 0.692521
Si Si5 0.000000 0.151824 0.250000
O O1 0.838204 0.246818 0.699258
O O2 0.841622 0.398565 0.794913
O O3 0.178184 0.293909 0.920827
O O4 0.904044 0.124351 0.831834
O O5 0.742644 0.999136 0.878551
O O6 0.007868 0.801352 0.022849
O O7 0.459957 0.375882 0.571056
O O8 0.168600 0.243638 0.367716
O O9 0.581181 0.443440 0.740864
#
# Coordination Sequence:
#
# PCOD8147331 Si02
#       5
#     8   8   8   8   4
#     4  10  22  43  68 102 135 177 220 281 338 402
#     4   9  20  42  70  94 136 173 222 275 332 410
#     4  10  23  42  72 102 132 182 229 274 346 398
#     4  11  26  43  69 103 137 176 231 277 341 405
#     4  12  24  44  66  98 140 180 224 292 326 400
#
# _framework density 24.147082999999999
#
# number of rings (size 3 to 8) (size 9 to 14) (size 15 to 20)
#    0.000    1.778    0.000    3.333   12.444    0.889 
#    0.000    5.556    0.000    0.000    0.000    0.000 
#    0.000    0.000    0.000    0.000    0.000    0.000 
#
# Total GULP energy -223053.697618 kJ/mol
# GULP energy per Si atom -12391.872090 kJ/mol
# Density = 2.409212 g / cm^3
# Si number density = 24.147083 Si / 1000 Ang^3
#
#
#
# Elastic Constant Matrix: (Units=GPa)
#
#
# Indices 1 2 3 4 5 6 
#
# 1 160.5825 47.4097 48.8218 -0.0002 28.1525 0.0000
# 2 47.4097 90.7982 14.8223 0.0000 22.8710 -0.0001
# 3 48.8218 14.8223 39.0714 0.0021 -10.2421 -0.0002
# 4 -0.0002 0.0000 0.0021 33.0278 -0.0002 -4.0278
# 5 28.1525 22.8710 -10.2421 -0.0002 42.0264 -0.0001
# 6 0.0000 -0.0001 -0.0002 -4.0278 -0.0001 29.9547
#
#
#
# Elastic Compliance Matrix: (Units=1/GPa)
#
#
# Indices 1 2 3 4 5 6 
#
# 1 0.017564 -0.000272 -0.026587 0.000002 -0.018097 0.000000
# 2 -0.000272 0.014935 -0.007914 0.000000 -0.009874 0.000000
# 3 -0.026587 -0.007914 0.072231 -0.000005 0.039720 0.000000
# 4 0.000002 0.000000 -0.000005 0.030782 -0.000002 0.004139
# 5 -0.018097 -0.009874 0.039720 -0.000002 0.050971 0.000000
# 6 0.000000 0.000000 0.000000 0.004139 0.000000 0.033940
#
#
# Mechanical properties :
#
#
# Convention : Reuss Voigt Hill
#
# Bulk Modulus (GPa) = 28.42337 56.95110 42.68723
# Shear Modulus (GPa) = 16.57292 32.96168 24.76730
#
# Velocity S-wave (km/s) = 2.62264 3.69865 3.20611
# Velocity P-wave (km/s) = 4.57902 6.47119 5.60552
#
# Compressibility (1/GPa) = 0.03518232
#
# Stress axis : x y z
#
# Youngs Moduli (GPa) = 56.93564 66.95898 13.84445
#
# Poissons Ratio (x) = 0.01822 0.36809
# Poissons Ratio (y) = 0.01549 0.10956
# Poissons Ratio (z) = 1.51377 0.52991
#
# Static dielectric constant tensor:
#      x y z
#    x 4.732180 0.000000 0.351680 
#    y 0.000000 3.988710 0.000000 
#    z 0.351680 0.000000 4.239810 
# 
# 
# High freq. dielectric constant tensor:
#      x y z
#    x 1.980870 0.000000 0.000680 
#    y 0.000000 1.932150 0.000000 
#    z 0.000680 0.000000 1.953110 
# 
# From -- ./inp_files/295498.got.cif
#   From: 2010.06.25/outbox.cif.g09.slc.cpg/sg15_148_cif.got.tgz:295498.got - 2010.06.28 07:06:18.
