data_PCOD8147984
_publ_section_title
;
Structure prediction by ZEFSAII (Michael W. Deem and Ramdas Pophale) SiO2 
 PCOD8147984
Probable space group: C 2/C
;
_chemical_formula_sum "Si O2"
_cell_formula_units_Z 40
_cell_length_a 21.522945
_cell_length_b 9.517377
_cell_length_c 12.681226
_cell_angle_alpha 90.000000
_cell_angle_beta 138.255836
_cell_angle_gamma 90.000000
_cell_volume 1729.528413
_symmetry_space_group_name_H-M "C 2/C"
_symmetry_group_IT_number 15
_symmetry_cell_setting 'monoclinic'
loop_
_space_group_symop_operation_xyz
x,y,z
-x,y,1/2-z
-x,-y,-z
x,-y,1/2+z
1/2+x,1/2+y,z
1/2-x,1/2+y,1/2-z
1/2-x,1/2-y,-z
1/2+x,1/2-y,1/2+z
loop_
_atom_site_type_symbol
_atom_site_label
_atom_site_fract_x
_atom_site_fract_y
_atom_site_fract_z
Si Si1 0.194352 0.966745 0.097812
Si Si2 0.644615 0.367579 0.804261
Si Si3 0.300421 0.822562 0.838581
Si Si4 0.496974 0.605717 0.623802
Si Si5 0.500597 0.158724 0.540160
O O1 0.225495 0.840406 0.215386
O O2 0.276566 0.083982 0.203713
O O3 0.177122 0.887695 0.965609
O O4 0.104535 0.044819 0.031281
O O5 0.738431 0.385170 0.855396
O O6 0.570505 0.487763 0.682205
O O7 0.593345 0.215531 0.719245
O O8 0.410996 0.828245 0.004119
O O9 0.500000 0.644518 0.750000
O O10 0.516041 0.746816 0.584324
O O11 0.500000 0.000000 0.500000
#
# Coordination Sequence:
#
# PCOD8147984 Si02
#       5
#     8   8   8   8   8
#     4  11  24  45  72 105 142 194 236 300 365 438
#     4  11  23  47  74  99 146 194 242 288 374 443
#     4  12  24  42  71 104 142 186 245 298 359 430
#     4  10  22  47  73  96 138 200 239 281 372 445
#     4  12  25  44  69 107 148 183 241 312 360 423
#
# _framework density 23.127693000000001
#
# number of rings (size 3 to 8) (size 9 to 14) (size 15 to 20)
#    0.000    0.800    4.000    3.600    0.000    0.000 
#    7.200    3.000    0.000    0.000    0.000    0.000 
#    0.000    0.000    0.000    0.000    0.000    0.000 
#
# Total GULP energy -247867.963160 kJ/mol
# GULP energy per Si atom -12393.398158 kJ/mol
# Density = 2.307505 g / cm^3
# Si number density = 23.127693 Si / 1000 Ang^3
#
#
#
# Elastic Constant Matrix: (Units=GPa)
#
#
# Indices 1 2 3 4 5 6 
#
# 1 126.4255 31.2714 24.8705 0.0000 19.6027 0.0000
# 2 31.2714 179.2701 50.1197 0.0000 -15.9033 0.0000
# 3 24.8705 50.1197 82.5789 0.0000 -2.2647 0.0000
# 4 0.0000 0.0000 0.0000 41.6942 0.0000 -1.1229
# 5 19.6027 -15.9033 -2.2647 0.0000 24.4081 0.0000
# 6 0.0000 0.0000 0.0000 -1.1229 0.0000 30.7786
#
#
#
# Elastic Compliance Matrix: (Units=1/GPa)
#
#
# Indices 1 2 3 4 5 6 
#
# 1 0.010381 -0.002094 -0.002127 0.000000 -0.009899 0.000000
# 2 -0.002094 0.007556 -0.003784 0.000000 0.006254 0.000000
# 3 -0.002127 -0.003784 0.015064 0.000000 0.000641 0.000000
# 4 0.000000 0.000000 0.000000 0.024008 0.000000 0.000876
# 5 -0.009899 0.006254 0.000641 0.000000 0.053055 0.000000
# 6 0.000000 0.000000 0.000000 0.000876 0.000000 0.032522
#
#
# Mechanical properties :
#
#
# Convention : Reuss Voigt Hill
#
# Bulk Modulus (GPa) = 58.85295 66.75531 62.80413
# Shear Modulus (GPa) = 30.43952 38.17704 34.30828
#
# Velocity S-wave (km/s) = 3.63181 4.06730 3.85571
# Velocity P-wave (km/s) = 6.56422 7.14028 6.85830
#
# Compressibility (1/GPa) = 0.01699150
#
# Stress axis : x y z
#
# Youngs Moduli (GPa) = 96.32822 132.34153 66.38240
#
# Poissons Ratio (x) = 0.27718 0.14118
# Poissons Ratio (y) = 0.20175 0.25118
# Poissons Ratio (z) = 0.20487 0.50075
#
# Static dielectric constant tensor:
#      x y z
#    x 4.295710 0.000000 0.162550 
#    y 0.000000 4.413430 0.000000 
#    z 0.162550 0.000000 4.408000 
# 
# 
# High freq. dielectric constant tensor:
#      x y z
#    x 1.921740 0.000000 0.014150 
#    y 0.000000 1.923650 0.000000 
#    z 0.014150 0.000000 1.906940 
# 
# From -- ./inp_files/172131.got.cif
#   From: 2010.06.25/outbox.cif.g09.slc.cpg/sg15_87_cif.got.tgz:172131.got - 2010.06.28 07:06:18.
