data_PCOD8147383
_publ_section_title
;
Structure prediction by ZEFSAII (Michael W. Deem and Ramdas Pophale) SiO2 
 PCOD8147383
Probable space group: C 2/C
;
_chemical_formula_sum "Si O2"
_cell_formula_units_Z 48
_cell_length_a 21.652851
_cell_length_b 7.638175
_cell_length_c 26.854913
_cell_angle_alpha 90.000000
_cell_angle_beta 28.957184
_cell_angle_gamma 90.000000
_cell_volume 2150.372360
_symmetry_space_group_name_H-M "C 2/C"
_symmetry_group_IT_number 15
_symmetry_cell_setting 'monoclinic'
loop_
_space_group_symop_operation_xyz
x,y,z
-x,y,1/2-z
-x,-y,-z
x,-y,1/2+z
1/2+x,1/2+y,z
1/2-x,1/2+y,1/2-z
1/2-x,1/2-y,-z
1/2+x,1/2-y,1/2+z
loop_
_atom_site_type_symbol
_atom_site_label
_atom_site_fract_x
_atom_site_fract_y
_atom_site_fract_z
Si Si1 0.040509 0.619819 0.853554
Si Si2 0.608895 0.768101 0.512993
Si Si3 0.736086 0.801206 0.137553
Si Si4 0.857578 0.928391 0.959042
Si Si5 0.511756 0.199352 0.978006
Si Si6 0.148523 0.971591 0.145368
O O1 0.154429 0.588012 0.734698
O O2 0.944403 0.757513 0.897205
O O3 0.091888 0.704598 0.869533
O O4 0.969481 0.438072 0.914684
O O5 0.570023 0.608820 0.576809
O O6 0.578172 0.704814 0.477889
O O7 0.760921 0.805339 0.408361
O O8 0.671316 0.612891 0.173001
O O9 0.744021 0.906148 0.079752
O O10 0.874233 0.781282 0.064431
O O11 0.805536 0.947437 0.939867
O O12 0.500000 0.000000 0.000000
O O13 0.000000 0.914955 0.250000
#
# Coordination Sequence:
#
# PCOD8147383 Si02
#       6
#     8   8   8   8   8   8
#     4  10  22  43  69  99 131 174 218 269 331 392
#     4  11  24  46  66  97 138 172 214 280 328 381
#     4  11  22  42  69 100 127 177 223 265 333 388
#     4  11  24  42  68  95 133 175 215 271 330 390
#     4   9  19  44  67  92 136 170 209 278 327 379
#     4  12  23  42  69  94 132 175 219 270 326 390
#
# _framework density 22.321715999999999
#
# number of rings (size 3 to 8) (size 9 to 14) (size 15 to 20)
#    0.000    1.333    6.667    1.000    0.000    4.000 
#   15.000    0.833    0.000    0.000    0.000    0.000 
#    0.000    0.000    0.000    0.000    0.000    0.000 
#
# Total GULP energy -297465.160497 kJ/mol
# GULP energy per Si atom -12394.381687 kJ/mol
# Density = 2.227091 g / cm^3
# Si number density = 22.321716 Si / 1000 Ang^3
#
#
#
# Elastic Constant Matrix: (Units=GPa)
#
#
# Indices 1 2 3 4 5 6 
#
# 1 125.2646 13.0541 45.3493 -0.0814 3.4142 0.1627
# 2 13.0541 80.7019 16.2404 -0.0996 -3.1007 0.2838
# 3 45.3493 16.2404 144.7293 -0.0369 18.2084 0.0085
# 4 -0.0814 -0.0996 -0.0369 10.0404 0.0035 1.8997
# 5 3.4142 -3.1007 18.2084 0.0035 31.7992 0.0095
# 6 0.1627 0.2838 0.0085 1.8997 0.0095 19.9670
#
#
#
# Elastic Compliance Matrix: (Units=1/GPa)
#
#
# Indices 1 2 3 4 5 6 
#
# 1 0.009079 -0.000881 -0.002815 0.000067 0.000551 -0.000067
# 2 -0.000881 0.012910 -0.001447 0.000151 0.002182 -0.000191
# 3 -0.002815 -0.001447 0.008550 -0.000012 -0.004734 0.000043
# 4 0.000067 0.000151 -0.000012 0.101426 0.000006 -0.009652
# 5 0.000551 0.002182 -0.004734 0.000006 0.034312 -0.000050
# 6 -0.000067 -0.000191 0.000043 -0.009652 -0.000050 0.051004
#
#
# Mechanical properties :
#
#
# Convention : Reuss Voigt Hill
#
# Bulk Modulus (GPa) = 49.37735 55.55374 52.46555
# Shear Modulus (GPa) = 21.33852 30.76476 26.05164
#
# Velocity S-wave (km/s) = 3.09520 3.71650 3.41999
# Velocity P-wave (km/s) = 5.91122 6.58470 6.25703
#
# Compressibility (1/GPa) = 0.02025220
#
# Stress axis : x y z
#
# Youngs Moduli (GPa) = 110.14148 77.46148 116.96369
#
# Poissons Ratio (x) = 0.06821 0.32930
# Poissons Ratio (y) = 0.09699 0.16927
# Poissons Ratio (z) = 0.31010 0.11210
#
# Static dielectric constant tensor:
#      x y z
#    x 4.506520 -0.000470 0.300320 
#    y -0.000470 3.915820 0.000070 
#    z 0.300320 0.000070 3.940930 
# 
# 
# High freq. dielectric constant tensor:
#      x y z
#    x 1.894930 -0.000010 0.018770 
#    y -0.000010 1.874120 0.000000 
#    z 0.018770 0.000000 1.856930 
# 
# From -- ./inp_files/300461.got.cif
#   From: 2010.06.25/outbox.cif.g09.slc.cpg/sg15_151_cif.got.tgz:300461.got - 2010.06.28 07:06:18.
