data_PCOD8147969
_publ_section_title
;
Structure prediction by ZEFSAII (Michael W. Deem and Ramdas Pophale) SiO2 
 PCOD8147969
Probable space group: C 2/C
;
_chemical_formula_sum "Si O2"
_cell_formula_units_Z 44
_cell_length_a 14.786807
_cell_length_b 19.775922
_cell_length_c 11.451460
_cell_angle_alpha 90.000000
_cell_angle_beta 145.225591
_cell_angle_gamma 90.000000
_cell_volume 1909.901519
_symmetry_space_group_name_H-M "C 2/C"
_symmetry_group_IT_number 15
_symmetry_cell_setting 'monoclinic'
loop_
_space_group_symop_operation_xyz
x,y,z
-x,y,1/2-z
-x,-y,-z
x,-y,1/2+z
1/2+x,1/2+y,z
1/2-x,1/2+y,1/2-z
1/2-x,1/2-y,-z
1/2+x,1/2-y,1/2+z
loop_
_atom_site_type_symbol
_atom_site_label
_atom_site_fract_x
_atom_site_fract_y
_atom_site_fract_z
Si Si1 0.098716 0.603844 0.610831
Si Si2 0.000000 0.437935 0.250000
Si Si3 0.000000 0.243137 0.750000
Si Si4 0.778992 0.010555 0.179109
Si Si5 0.500000 0.433637 0.250000
Si Si6 0.232377 0.219562 0.821457
Si Si7 0.245147 0.375008 0.815391
O O1 0.198809 0.536534 0.692525
O O2 0.219956 0.666420 0.725994
O O3 0.041159 0.608415 0.682876
O O4 0.940706 0.605433 0.361768
O O5 0.153777 0.483092 0.440756
O O6 0.059724 0.201755 0.696638
O O7 0.855130 0.291062 0.559661
O O8 0.816067 0.082144 0.281331
O O9 0.938958 0.980015 0.292864
O O10 0.646866 0.387721 0.453738
O O11 0.243494 0.295317 0.782295
#
# Coordination Sequence:
#
# PCOD8147969 Si02
#       7
#     8   4   4   8   4   8   8
#     4  11  24  43  67  92 127 170 219 260 316 385
#     4  10  22  47  66  88 123 176 218 260 314 383
#     4  10  23  39  62  98 133 165 204 264 335 369
#     4  11  24  42  66  95 129 167 212 262 319 389
#     4  12  25  38  64  98 132 163 206 268 335 370
#     4  11  23  40  63  98 128 166 211 268 319 381
#     4  11  24  42  62  95 129 167 212 262 316 387
#
# _framework density 23.037837
#
# number of rings (size 3 to 8) (size 9 to 14) (size 15 to 20)
#    0.000    1.091    1.818    5.455    7.636    0.727 
#    0.000    4.545    0.000    0.000    0.000    0.000 
#    0.000    0.000    0.000    0.000    0.000    0.000 
#
# Total GULP energy -272679.939731 kJ/mol
# GULP energy per Si atom -12394.542715 kJ/mol
# Density = 2.298540 g / cm^3
# Si number density = 23.037837 Si / 1000 Ang^3
#
#
#
# Elastic Constant Matrix: (Units=GPa)
#
#
# Indices 1 2 3 4 5 6 
#
# 1 158.4043 61.1557 39.2861 0.0000 18.8236 0.0000
# 2 61.1557 131.6964 26.0629 0.0000 0.8829 0.0000
# 3 39.2861 26.0629 79.2210 0.0000 0.7121 0.0000
# 4 0.0000 0.0000 0.0000 28.8506 0.0000 7.1199
# 5 18.8236 0.8829 0.7121 0.0000 31.6191 0.0000
# 6 0.0000 0.0000 0.0000 7.1199 0.0000 32.6612
#
#
#
# Elastic Compliance Matrix: (Units=1/GPa)
#
#
# Indices 1 2 3 4 5 6 
#
# 1 0.009130 -0.003549 -0.003313 0.000000 -0.005262 0.000000
# 2 -0.003549 0.009502 -0.001383 0.000000 0.001878 0.000000
# 3 -0.003313 -0.001383 0.014706 0.000000 0.001680 0.000000
# 4 0.000000 0.000000 0.000000 0.036632 0.000000 -0.007986
# 5 -0.005262 0.001878 0.001680 0.000000 0.034668 0.000000
# 6 0.000000 0.000000 0.000000 -0.007986 0.000000 0.032358
#
#
# Mechanical properties :
#
#
# Convention : Reuss Voigt Hill
#
# Bulk Modulus (GPa) = 59.35262 69.14787 64.25025
# Shear Modulus (GPa) = 31.42636 34.81399 33.12018
#
# Velocity S-wave (km/s) = 3.69741 3.89159 3.79574
# Velocity P-wave (km/s) = 6.63677 7.09032 6.86729
#
# Compressibility (1/GPa) = 0.01684846
#
# Stress axis : x y z
#
# Youngs Moduli (GPa) = 109.53048 105.23769 68.00089
#
# Poissons Ratio (x) = 0.37346 0.22527
# Poissons Ratio (y) = 0.38870 0.09406
# Poissons Ratio (z) = 0.36285 0.14556
#
# Static dielectric constant tensor:
#      x y z
#    x 4.162510 0.000000 0.405530 
#    y 0.000000 4.035490 0.000000 
#    z 0.405530 0.000000 4.343070 
# 
# 
# High freq. dielectric constant tensor:
#      x y z
#    x 1.908830 0.000000 0.029530 
#    y 0.000000 1.905770 0.000000 
#    z 0.029530 0.000000 1.906740 
# 
# From -- ./inp_files/99907.got.cif
#   From: 2010.06.25/outbox.cif.g09.slc.cpg/sg15_50_cif.got.tgz:99907.got - 2010.06.28 07:06:18.
