data_PCOD8147447
_publ_section_title
;
Structure prediction by ZEFSAII (Michael W. Deem and Ramdas Pophale) SiO2 
 PCOD8147447
Probable space group: C 2/C
;
_chemical_formula_sum "Si O2"
_cell_formula_units_Z 40
_cell_length_a 20.732746
_cell_length_b 4.984588
_cell_length_c 13.677544
_cell_angle_alpha 90.000000
_cell_angle_beta 106.120382
_cell_angle_gamma 90.000000
_cell_volume 1357.916812
_symmetry_space_group_name_H-M "C 2/C"
_symmetry_group_IT_number 15
_symmetry_cell_setting 'monoclinic'
loop_
_space_group_symop_operation_xyz
x,y,z
-x,y,1/2-z
-x,-y,-z
x,-y,1/2+z
1/2+x,1/2+y,z
1/2-x,1/2+y,1/2-z
1/2-x,1/2-y,-z
1/2+x,1/2-y,1/2+z
loop_
_atom_site_type_symbol
_atom_site_label
_atom_site_fract_x
_atom_site_fract_y
_atom_site_fract_z
Si Si1 0.135728 0.954865 0.254513
Si Si2 0.454158 0.503847 0.117728
Si Si3 0.069325 0.259533 0.076702
Si Si4 0.293584 0.040801 0.636027
Si Si5 0.158918 0.706526 0.041176
O O1 0.063926 0.891651 0.281324
O O2 0.115390 0.992875 0.129780
O O3 0.154824 0.253180 0.293985
O O4 0.193484 0.742157 0.303407
O O5 0.510151 0.742466 0.134833
O O6 0.469621 0.266887 0.044308
O O7 0.382577 0.594555 0.044482
O O8 0.114840 0.524542 0.098708
O O9 0.217805 0.137560 0.625601
O O10 0.305302 0.006857 0.523729
#
# Coordination Sequence:
#
# PCOD8147447 Si02
#       5
#     8   8   8   8   8
#     4  11  24  46  69 109 146 199 242 311 387 449
#     4  10  23  43  69 103 152 193 250 307 383 461
#     4  11  23  42  71 108 147 194 251 314 376 468
#     4  10  24  44  74 100 148 191 253 314 375 452
#     4  10  22  43  73 102 144 199 255 313 387 451
#
# _framework density 29.456886999999998
#
# number of rings (size 3 to 8) (size 9 to 14) (size 15 to 20)
#    0.000    1.600    2.000    1.200    5.600    2.400 
#    3.600    2.000    0.000    0.000    0.000    0.000 
#    0.000    0.000    0.000    0.000    0.000    0.000 
#
# Total GULP energy -247814.641860 kJ/mol
# GULP energy per Si atom -12390.732093 kJ/mol
# Density = 2.938984 g / cm^3
# Si number density = 29.456887 Si / 1000 Ang^3
#
#
#
# Elastic Constant Matrix: (Units=GPa)
#
#
# Indices 1 2 3 4 5 6 
#
# 1 130.5493 9.8415 -2.6752 0.0000 1.8368 0.0000
# 2 9.8415 109.5637 15.6106 0.0000 1.3263 0.0000
# 3 -2.6752 15.6106 97.9125 0.0000 -29.2710 0.0000
# 4 0.0000 0.0000 0.0000 36.3841 0.0000 10.7355
# 5 1.8368 1.3263 -29.2710 0.0000 36.2386 0.0000
# 6 0.0000 0.0000 0.0000 10.7355 0.0000 56.6112
#
#
#
# Elastic Compliance Matrix: (Units=1/GPa)
#
#
# Indices 1 2 3 4 5 6 
#
# 1 0.007723 -0.000733 0.000289 0.000000 -0.000131 0.000000
# 2 -0.000733 0.009524 -0.002151 0.000000 -0.002049 0.000000
# 3 0.000289 -0.002151 0.013952 0.000000 0.011334 0.000000
# 4 0.000000 0.000000 0.000000 0.029114 0.000000 -0.005521
# 5 -0.000131 -0.002049 0.011334 0.000000 0.036831 0.000000
# 6 0.000000 0.000000 0.000000 -0.005521 0.000000 0.018711
#
#
# Mechanical properties :
#
#
# Convention : Reuss Voigt Hill
#
# Bulk Modulus (GPa) = 38.44949 42.61993 40.53471
# Shear Modulus (GPa) = 38.54568 46.86337 42.70453
#
# Velocity S-wave (km/s) = 3.62131 3.99295 3.81166
# Velocity P-wave (km/s) = 5.52868 5.97982 5.75867
#
# Compressibility (1/GPa) = 0.02600815
#
# Stress axis : x y z
#
# Youngs Moduli (GPa) = 129.48368 104.99505 71.67294
#
# Poissons Ratio (x) = 0.07699 -0.02069
# Poissons Ratio (y) = 0.09494 0.15417
# Poissons Ratio (z) = -0.03737 0.22585
#
# Static dielectric constant tensor:
#      x y z
#    x 5.805230 0.000000 -0.503920 
#    y 0.000000 4.974470 0.000000 
#    z -0.503920 0.000000 6.233970 
# 
# 
# High freq. dielectric constant tensor:
#      x y z
#    x 2.228180 0.000000 -0.007220 
#    y 0.000000 2.170650 0.000000 
#    z -0.007220 0.000000 2.219600 
# 
# From -- ./inp_files/170931.got.cif
#   From: 2010.06.25/outbox.cif.g09.slc.cpg/sg15_86_cif.got.tgz:170931.got - 2010.06.28 07:06:18.
