data_PCOD8147523
_publ_section_title
;
Structure prediction by ZEFSAII (Michael W. Deem and Ramdas Pophale) SiO2 
 PCOD8147523
Probable space group: C 2/C
;
_chemical_formula_sum "Si O2"
_cell_formula_units_Z 64
_cell_length_a 32.298879
_cell_length_b 15.551064
_cell_length_c 12.747851
_cell_angle_alpha 90.000000
_cell_angle_beta 151.963627
_cell_angle_gamma 90.000000
_cell_volume 3009.621996
_symmetry_space_group_name_H-M "C 2/C"
_symmetry_group_IT_number 15
_symmetry_cell_setting 'monoclinic'
loop_
_space_group_symop_operation_xyz
x,y,z
-x,y,1/2-z
-x,-y,-z
x,-y,1/2+z
1/2+x,1/2+y,z
1/2-x,1/2+y,1/2-z
1/2-x,1/2-y,-z
1/2+x,1/2-y,1/2+z
loop_
_atom_site_type_symbol
_atom_site_label
_atom_site_fract_x
_atom_site_fract_y
_atom_site_fract_z
Si Si1 0.714777 0.235708 0.039868
Si Si2 0.613201 0.341797 0.257674
Si Si3 0.081128 0.024994 0.868512
Si Si4 0.019090 0.429329 0.681430
Si Si5 0.717322 0.445239 0.321303
Si Si6 0.457677 0.667260 0.268140
Si Si7 0.366588 0.939214 0.191705
Si Si8 0.829235 0.302392 0.473375
O O1 0.800101 0.250488 0.304280
O O2 0.750000 0.250000 0.000000
O O3 0.637818 0.296201 0.914446
O O4 0.676026 0.140215 0.965439
O O5 0.605689 0.409753 0.333167
O O6 0.657237 0.387126 0.258136
O O7 0.670977 0.261852 0.427594
O O8 0.520805 0.306295 0.005995
O O9 0.000000 0.066777 0.750000
O O10 0.050384 0.935330 0.749855
O O11 0.162186 0.012566 0.129251
O O12 0.069660 0.505720 0.738266
O O13 0.000000 0.471105 0.750000
O O14 0.924626 0.406161 0.418448
O O15 0.072206 0.340341 0.815412
O O16 0.786546 0.498198 0.547912
O O17 0.764605 0.381967 0.345920
O O18 0.500000 0.698648 0.250000
#
# Coordination Sequence:
#
# PCOD8147523 Si02
#       8
#     8   8   8   8   8   8   8   8
#     4  12  25  41  67  99 135 168 224 281 339 391
#     4  12  24  39  69  94 125 170 220 268 320 406
#     4  11  23  41  63  92 127 169 209 259 330 395
#     4  10  22  44  65  86 130 171 208 265 331 383
#     4  11  23  43  65  91 133 168 214 270 336 386
#     4  11  23  44  65  91 134 178 212 267 342 400
#     4  10  24  40  63  98 121 166 220 260 319 405
#     4  11  24  42  63  95 129 168 218 272 329 396
#
# _framework density 21.265129999999999
#
# number of rings (size 3 to 8) (size 9 to 14) (size 15 to 20)
#    0.000    1.000    3.750    3.000    1.750    5.000 
#    0.000    1.250    0.000    0.000    0.000    0.000 
#    0.000    0.000    0.000    0.000    0.000    0.000 
#
# Total GULP energy -396685.864259 kJ/mol
# GULP energy per Si atom -12396.433258 kJ/mol
# Density = 2.121673 g / cm^3
# Si number density = 21.265130 Si / 1000 Ang^3
#
#
#
# Elastic Constant Matrix: (Units=GPa)
#
#
# Indices 1 2 3 4 5 6 
#
# 1 70.3498 2.6424 42.5949 0.0000 -8.1825 0.0000
# 2 2.6424 63.5808 45.3396 0.0000 -9.0335 0.0000
# 3 42.5949 45.3396 170.0743 0.0000 -19.7059 0.0000
# 4 0.0000 0.0000 0.0000 16.2511 0.0000 -37.5207
# 5 -8.1825 -9.0335 -19.7059 0.0000 31.8374 0.0000
# 6 0.0000 0.0000 0.0000 -37.5207 0.0000 -20.4218
#
#
#
# Elastic Compliance Matrix: (Units=1/GPa)
#
#
# Indices 1 2 3 4 5 6 
#
# 1 0.017334 0.003102 -0.004901 0.000000 0.002301 0.000000
# 2 0.003102 0.020159 -0.005813 0.000000 0.002919 0.000000
# 3 -0.004901 -0.005813 0.008963 0.000000 0.002638 0.000000
# 4 0.000000 0.000000 0.000000 0.011739 0.000000 -0.021568
# 5 0.002301 0.002919 0.002638 0.000000 0.034462 0.000000
# 6 0.000000 0.000000 0.000000 -0.021568 0.000000 -0.009341
#
#
# Mechanical properties :
#
#
# Convention : Reuss Voigt Hill
#
# Bulk Modulus (GPa) = 32.02006 53.90650 42.96328
# Shear Modulus (GPa) = 45.89274 19.76188 32.82731
#
# Velocity S-wave (km/s) = 4.65060 3.05176 3.93328
# Velocity P-wave (km/s) = 6.62779 6.14999 6.39336
#
# Compressibility (1/GPa) = 0.03123042
#
# Stress axis : x y z
#
# Youngs Moduli (GPa) = 57.69170 49.60584 111.57429
#
# Poissons Ratio (x) = -0.15387 0.54687
# Poissons Ratio (y) = -0.17895 0.64855
# Poissons Ratio (z) = 0.28277 0.28834
#
# Static dielectric constant tensor:
#      x y z
#    x 4.002060 0.000000 0.249580 
#    y 0.000000 3.790860 0.000000 
#    z 0.249580 0.000000 4.477610 
# 
# 
# High freq. dielectric constant tensor:
#      x y z
#    x 1.827450 0.000000 0.003420 
#    y 0.000000 1.830670 0.000000 
#    z 0.003420 0.000000 1.858260 
# 
# From -- ./inp_files/127306.got.cif
#   From: 2010.06.25/outbox.cif.g09.slc.cpg/sg15_64_cif.got.tgz:127306.got - 2010.06.28 07:06:18.
