data_PCOD8147879
_publ_section_title
;
Structure prediction by ZEFSAII (Michael W. Deem and Ramdas Pophale) SiO2 
 PCOD8147879
Probable space group: C 2/C
;
_chemical_formula_sum "Si O2"
_cell_formula_units_Z 48
_cell_length_a 20.887526
_cell_length_b 8.545273
_cell_length_c 27.789739
_cell_angle_alpha 90.000000
_cell_angle_beta 29.342330
_cell_angle_gamma 90.000000
_cell_volume 2430.620014
_symmetry_space_group_name_H-M "C 2/C"
_symmetry_group_IT_number 15
_symmetry_cell_setting 'monoclinic'
loop_
_space_group_symop_operation_xyz
x,y,z
-x,y,1/2-z
-x,-y,-z
x,-y,1/2+z
1/2+x,1/2+y,z
1/2-x,1/2+y,1/2-z
1/2-x,1/2-y,-z
1/2+x,1/2-y,1/2+z
loop_
_atom_site_type_symbol
_atom_site_label
_atom_site_fract_x
_atom_site_fract_y
_atom_site_fract_z
Si Si1 0.000000 0.487973 0.750000
Si Si2 0.032651 0.180475 0.988430
Si Si3 0.078447 0.306452 0.859031
Si Si4 0.334634 0.235801 0.805662
Si Si5 0.500000 0.487153 0.750000
Si Si6 0.355099 0.829476 0.185745
Si Si7 0.398095 0.258016 0.387990
O O1 0.107533 0.584037 0.707688
O O2 0.080496 0.389287 0.659487
O O3 0.005402 0.277155 0.957521
O O4 0.179489 0.214076 0.909571
O O5 0.939614 0.243232 0.090679
O O6 0.000000 0.000000 0.000000
O O7 0.203690 0.194289 0.772471
O O8 0.117669 0.486812 0.829805
O O9 0.984620 0.252207 0.878529
O O10 0.382943 0.386859 0.803293
O O11 0.385662 0.248006 0.717438
O O12 0.568228 0.585711 0.663370
O O13 0.250000 0.250000 0.500000
#
# Coordination Sequence:
#
# PCOD8147879 Si02
#       7
#     4   8   8   8   4   8   8
#     4  10  22  46  62  92 130 172 212 272 316 392
#     4  11  26  40  69 100 128 173 223 279 327 397
#     4  11  25  43  68  98 131 172 223 273 340 386
#     4  10  23  43  67  95 131 170 223 263 333 381
#     4  10  26  42  68  98 134 180 214 272 320 408
#     4  11  23  44  68  95 134 172 217 282 330 388
#     4  11  26  42  69  96 133 174 219 267 332 392
#
# _framework density 19.748048000000001
#
# number of rings (size 3 to 8) (size 9 to 14) (size 15 to 20)
#    0.000    1.333    1.667    2.500   11.667    1.333 
#    0.000    3.333    0.000    0.000    0.000    0.000 
#    0.000    0.000    0.000    0.000    0.000    0.000 
#
# Total GULP energy -297654.110623 kJ/mol
# GULP energy per Si atom -12402.254609 kJ/mol
# Density = 1.970310 g / cm^3
# Si number density = 19.748048 Si / 1000 Ang^3
#
#
#
# Elastic Constant Matrix: (Units=GPa)
#
#
# Indices 1 2 3 4 5 6 
#
# 1 189.9458 59.7915 58.0399 0.0002 1.5507 0.0002
# 2 59.7915 163.6106 148.1986 0.0005 -5.9110 0.0029
# 3 58.0399 148.1986 363.6358 -0.0014 17.6417 0.0018
# 4 0.0002 0.0005 -0.0014 25.8707 -0.0004 6.9412
# 5 1.5507 -5.9110 17.6417 -0.0004 26.1458 0.0001
# 6 0.0002 0.0029 0.0018 6.9412 0.0001 48.3718
#
#
#
# Elastic Compliance Matrix: (Units=1/GPa)
#
#
# Indices 1 2 3 4 5 6 
#
# 1 0.005968 -0.002196 -0.000017 0.000000 -0.000839 0.000000
# 2 -0.002196 0.011179 -0.004481 0.000000 0.005681 0.000000
# 3 -0.000017 -0.004481 0.004785 0.000000 -0.004240 0.000000
# 4 0.000000 0.000000 0.000000 0.040202 0.000000 -0.005769
# 5 -0.000839 0.005681 -0.004240 0.000000 0.042442 0.000000
# 6 0.000000 0.000000 0.000000 -0.005769 0.000000 0.021501
#
#
# Mechanical properties :
#
#
# Convention : Reuss Voigt Hill
#
# Bulk Modulus (GPa) = 117.04686 138.80582 127.92634
# Shear Modulus (GPa) = 35.13416 50.15515 42.64465
#
# Velocity S-wave (km/s) = 4.22254 5.04506 4.65202
# Velocity P-wave (km/s) = 9.11986 10.21655 9.68374
#
# Compressibility (1/GPa) = 0.00854359
#
# Stress axis : x y z
#
# Youngs Moduli (GPa) = 167.56231 89.45582 209.00341
#
# Poissons Ratio (x) = 0.19645 0.00352
# Poissons Ratio (y) = 0.36797 0.93653
# Poissons Ratio (z) = 0.00282 0.40085
#
# Static dielectric constant tensor:
#      x y z
#    x 3.809430 -0.000010 0.144900 
#    y -0.000010 3.756420 0.000000 
#    z 0.144900 0.000000 3.653670 
# 
# 
# High freq. dielectric constant tensor:
#      x y z
#    x 1.791760 0.000000 0.007830 
#    y 0.000000 1.783560 0.000000 
#    z 0.007830 0.000000 1.775980 
# 
# From -- ./inp_files/165749.got.cif
#   From: 2010.06.25/outbox.cif.g09.slc.cpg/sg15_83_cif.got.tgz:165749.got - 2010.06.28 07:06:18.
