data_PCOD8147476
_publ_section_title
;
Structure prediction by ZEFSAII (Michael W. Deem and Ramdas Pophale) SiO2 
 PCOD8147476
Probable space group: C 2/C
;
_chemical_formula_sum "Si O2"
_cell_formula_units_Z 48
_cell_length_a 11.552359
_cell_length_b 8.712653
_cell_length_c 23.810345
_cell_angle_alpha 90.000000
_cell_angle_beta 62.385244
_cell_angle_gamma 90.000000
_cell_volume 2123.546576
_symmetry_space_group_name_H-M "C 2/C"
_symmetry_group_IT_number 15
_symmetry_cell_setting 'monoclinic'
loop_
_space_group_symop_operation_xyz
x,y,z
-x,y,1/2-z
-x,-y,-z
x,-y,1/2+z
1/2+x,1/2+y,z
1/2-x,1/2+y,1/2-z
1/2-x,1/2-y,-z
1/2+x,1/2-y,1/2+z
loop_
_atom_site_type_symbol
_atom_site_label
_atom_site_fract_x
_atom_site_fract_y
_atom_site_fract_z
Si Si1 0.525144 0.063891 0.823982
Si Si2 0.050230 0.903445 0.412556
Si Si3 0.500000 0.189502 0.250000
Si Si4 0.500000 0.318355 0.750000
Si Si5 0.689295 0.587364 0.994545
Si Si6 0.051780 0.437359 0.546694
Si Si7 0.672434 0.433468 0.262576
O O1 0.456709 0.215041 0.813418
O O2 0.673424 0.065794 0.768912
O O3 0.456721 0.913958 0.812675
O O4 0.512759 0.053889 0.893395
O O5 0.982885 0.738055 0.434051
O O6 0.164278 0.912809 0.433300
O O7 0.111558 0.925979 0.337982
O O8 0.945311 0.041401 0.443986
O O9 0.626900 0.288548 0.236381
O O10 0.374491 0.416839 0.760688
O O11 0.792395 0.453821 0.985416
O O12 0.750000 0.750000 0.000000
O O13 0.000000 0.500000 0.500000
#
# Coordination Sequence:
#
# PCOD8147476 Si02
#       7
#     8   8   4   4   8   8   8
#     4  11  25  43  68 103 142 177 230 286 357 414
#     4  11  26  46  71 104 142 192 242 291 363 419
#     4  10  22  44  62 100 132 182 218 290 344 410
#     4  10  26  40  68 104 138 186 228 288 352 406
#     4  11  26  47  70 102 145 187 241 296 350 434
#     4  12  26  47  74 104 145 192 237 296 360 427
#     4  11  24  43  70 101 138 181 233 291 349 421
#
# _framework density 22.603693
#
# number of rings (size 3 to 8) (size 9 to 14) (size 15 to 20)
#    0.000    1.000    3.333    1.500    7.000    2.667 
#    3.000    0.000    0.000    0.000    0.000    0.000 
#    0.000    0.000    0.000    0.000    0.000    0.000 
#
# Total GULP energy -297620.422964 kJ/mol
# GULP energy per Si atom -12400.850957 kJ/mol
# Density = 2.255225 g / cm^3
# Si number density = 22.603693 Si / 1000 Ang^3
#
#
#
# Elastic Constant Matrix: (Units=GPa)
#
#
# Indices 1 2 3 4 5 6 
#
# 1 133.1433 45.1136 64.7888 0.0000 23.6918 0.0000
# 2 45.1136 124.3213 49.2967 0.0000 21.0103 0.0000
# 3 64.7888 49.2967 152.0482 0.0000 20.2118 0.0000
# 4 0.0000 0.0000 0.0000 3.8219 0.0000 -25.2536
# 5 23.6918 21.0103 20.2118 0.0000 33.9568 0.0000
# 6 0.0000 0.0000 0.0000 -25.2536 0.0000 -3.4475
#
#
#
# Elastic Compliance Matrix: (Units=1/GPa)
#
#
# Indices 1 2 3 4 5 6 
#
# 1 0.010485 -0.001767 -0.003331 0.000000 -0.004239 0.000000
# 2 -0.001767 0.010135 -0.002023 0.000000 -0.003834 0.000000
# 3 -0.003331 -0.002023 0.008879 0.000000 -0.001709 0.000000
# 4 0.000000 0.000000 0.000000 0.005296 0.000000 -0.038797
# 5 -0.004239 -0.003834 -0.001709 0.000000 0.035796 0.000000
# 6 0.000000 0.000000 0.000000 -0.038797 0.000000 -0.005872
#
#
# Mechanical properties :
#
#
# Convention : Reuss Voigt Hill
#
# Bulk Modulus (GPa) = 65.54905 80.87902 73.21403
# Shear Modulus (GPa) = 59.48880 23.55381 41.52130
#
# Velocity S-wave (km/s) = 5.13569 3.23156 4.29059
# Velocity P-wave (km/s) = 8.01432 7.05570 7.55024
#
# Compressibility (1/GPa) = 0.01525575
#
# Stress axis : x y z
#
# Youngs Moduli (GPa) = 95.37586 98.66592 112.61924
#
# Poissons Ratio (x) = 0.17439 0.37515
# Poissons Ratio (y) = 0.16857 0.22786
# Poissons Ratio (z) = 0.31771 0.19963
#
# Static dielectric constant tensor:
#      x y z
#    x 4.219660 0.000000 0.282750 
#    y 0.000000 4.435080 0.000000 
#    z 0.282750 0.000000 3.938080 
# 
# 
# High freq. dielectric constant tensor:
#      x y z
#    x 1.904530 0.000000 0.021760 
#    y 0.000000 1.908560 0.000000 
#    z 0.021760 0.000000 1.883520 
# 
# From -- ./inp_files/268050.got.cif
#   From: 2010.06.25/outbox.cif.g09.slc.cpg/sg15_135_cif.got.tgz:268050.got - 2010.06.28 07:06:18.
