data_PCOD8147489
_publ_section_title
;
Structure prediction by ZEFSAII (Michael W. Deem and Ramdas Pophale) SiO2 
 PCOD8147489
Probable space group: C 2/C
;
_chemical_formula_sum "Si O2"
_cell_formula_units_Z 48
_cell_length_a 19.781034
_cell_length_b 9.339872
_cell_length_c 17.560743
_cell_angle_alpha 90.000000
_cell_angle_beta 45.924582
_cell_angle_gamma 90.000000
_cell_volume 2330.848890
_symmetry_space_group_name_H-M "C 2/C"
_symmetry_group_IT_number 15
_symmetry_cell_setting 'monoclinic'
loop_
_space_group_symop_operation_xyz
x,y,z
-x,y,1/2-z
-x,-y,-z
x,-y,1/2+z
1/2+x,1/2+y,z
1/2-x,1/2+y,1/2-z
1/2-x,1/2-y,-z
1/2+x,1/2-y,1/2+z
loop_
_atom_site_type_symbol
_atom_site_label
_atom_site_fract_x
_atom_site_fract_y
_atom_site_fract_z
Si Si1 0.749088 0.468802 0.968857
Si Si2 0.571169 0.884949 0.128693
Si Si3 0.755536 0.696355 0.620159
Si Si4 0.961458 0.609040 0.467711
Si Si5 0.428500 0.598258 0.456536
Si Si6 0.412452 0.614655 0.641554
O O1 0.826972 0.594859 0.910943
O O2 0.766741 0.361778 0.883402
O O3 0.746261 0.390485 0.050683
O O4 0.646200 0.535254 0.043304
O O5 0.500000 0.841433 0.250000
O O6 0.563506 0.765563 0.069104
O O7 0.544732 0.034289 0.109713
O O8 0.860282 0.673704 0.572214
O O9 0.684379 0.634127 0.738024
O O10 0.000000 0.500000 0.500000
O O11 0.030401 0.739522 0.400710
O O12 0.389016 0.577590 0.572676
O O13 0.527763 0.515793 0.368588
#
# Coordination Sequence:
#
# PCOD8147489 Si02
#       6
#     8   8   8   8   8   8
#     4  10  22  44  63  96 130 163 220 266 312 392
#     4  11  24  40  65  97 127 169 209 268 327 376
#     4  10  23  41  70  95 123 178 217 260 325 382
#     4  11  22  46  64  95 133 166 222 265 311 391
#     4  11  24  44  61  97 134 159 218 272 315 390
#     4  11  24  43  68  92 130 176 209 269 325 378
#
# _framework density 20.593357000000001
#
# number of rings (size 3 to 8) (size 9 to 14) (size 15 to 20)
#    0.000    1.333    3.333    1.500    2.333    2.667 
#    0.000    0.000    0.000    0.000    0.000    0.000 
#    0.000    0.000    0.000    0.000    0.000    0.000 
#
# Total GULP energy -297625.825678 kJ/mol
# GULP energy per Si atom -12401.076070 kJ/mol
# Density = 2.054649 g / cm^3
# Si number density = 20.593357 Si / 1000 Ang^3
#
#
#
# Elastic Constant Matrix: (Units=GPa)
#
#
# Indices 1 2 3 4 5 6 
#
# 1 87.2690 23.7073 19.3606 0.0000 -15.0956 0.0000
# 2 23.7073 91.8086 14.4068 -0.0001 -9.7738 0.0000
# 3 19.3606 14.4068 104.4706 0.0000 -9.3553 0.0000
# 4 0.0000 -0.0001 0.0000 18.8358 0.0000 -5.2408
# 5 -15.0956 -9.7738 -9.3553 0.0000 25.3612 0.0000
# 6 0.0000 0.0000 0.0000 -5.2408 0.0000 40.9303
#
#
#
# Elastic Compliance Matrix: (Units=1/GPa)
#
#
# Indices 1 2 3 4 5 6 
#
# 1 0.013643 -0.002577 -0.001587 0.000000 0.006542 0.000000
# 2 -0.002577 0.011996 -0.000931 0.000000 0.002746 0.000000
# 3 -0.001587 -0.000931 0.010215 0.000000 0.002465 0.000000
# 4 0.000000 0.000000 0.000000 0.055052 0.000000 0.007049
# 5 0.006542 0.002746 0.002465 0.000000 0.045291 0.000000
# 6 0.000000 0.000000 0.000000 0.007049 0.000000 0.025334
#
#
# Mechanical properties :
#
#
# Convention : Reuss Voigt Hill
#
# Bulk Modulus (GPa) = 38.96569 44.27751 41.62160
# Shear Modulus (GPa) = 27.73518 32.09702 29.91610
#
# Velocity S-wave (km/s) = 3.67386 3.95221 3.81557
# Velocity P-wave (km/s) = 6.07938 6.50954 6.29814
#
# Compressibility (1/GPa) = 0.02566360
#
# Stress axis : x y z
#
# Youngs Moduli (GPa) = 73.29955 83.36014 97.89272
#
# Poissons Ratio (x) = 0.21485 0.15536
# Poissons Ratio (y) = 0.18892 0.09112
# Poissons Ratio (z) = 0.11633 0.07759
#
# Static dielectric constant tensor:
#      x y z
#    x 3.977210 0.000000 -0.113170 
#    y 0.000000 3.956440 0.000000 
#    z -0.113170 0.000000 3.561860 
# 
# 
# High freq. dielectric constant tensor:
#      x y z
#    x 1.820380 0.000000 -0.006370 
#    y 0.000000 1.815720 0.000000 
#    z -0.006370 0.000000 1.789350 
# 
# From -- ./inp_files/251765.got.cif
#   From: 2010.06.25/outbox.cif.g09.slc.cpg/sg15_126_cif.got.tgz:251765.got - 2010.06.28 07:06:18.
