data_PCOD8147350
_publ_section_title
;
Structure prediction by ZEFSAII (Michael W. Deem and Ramdas Pophale) SiO2 
 PCOD8147350
Probable space group: C 2/C
;
_chemical_formula_sum "Si O2"
_cell_formula_units_Z 60
_cell_length_a 24.215606
_cell_length_b 17.521696
_cell_length_c 10.683483
_cell_angle_alpha 90.000000
_cell_angle_beta 39.696062
_cell_angle_gamma 90.000000
_cell_volume 2895.285645
_symmetry_space_group_name_H-M "C 2/C"
_symmetry_group_IT_number 15
_symmetry_cell_setting 'monoclinic'
loop_
_space_group_symop_operation_xyz
x,y,z
-x,y,1/2-z
-x,-y,-z
x,-y,1/2+z
1/2+x,1/2+y,z
1/2-x,1/2+y,1/2-z
1/2-x,1/2-y,-z
1/2+x,1/2-y,1/2+z
loop_
_atom_site_type_symbol
_atom_site_label
_atom_site_fract_x
_atom_site_fract_y
_atom_site_fract_z
Si Si1 0.379403 0.164773 0.606654
Si Si2 0.014086 0.937967 0.083720
Si Si3 0.354669 0.330849 0.336757
Si Si4 0.434701 0.823424 0.618990
Si Si5 0.693100 0.908562 0.516291
Si Si6 0.823206 0.833632 0.675838
Si Si7 0.500000 0.130072 0.750000
Si Si8 0.170894 0.418779 0.062299
O O1 0.483109 0.169880 0.433151
O O2 0.354053 0.130313 0.518265
O O3 0.345465 0.250369 0.690746
O O4 0.338200 0.107048 0.778722
O O5 0.000000 0.971942 0.250000
O O6 0.945585 0.872350 0.179857
O O7 0.107112 0.898085 0.906437
O O8 0.000000 0.000000 0.000000
O O9 0.372258 0.246542 0.258280
O O10 0.287426 0.371290 0.362198
O O11 0.313112 0.327896 0.545457
O O12 0.371590 0.895997 0.752674
O O13 0.466517 0.816450 0.420678
O O14 0.712146 0.998141 0.474614
O O15 0.730434 0.857297 0.889817
O O16 0.423349 0.076319 0.836168
#
# Coordination Sequence:
#
# PCOD8147350 Si02
#       8
#     8   8   8   8   8   8   4   8
#     4  11  25  43  71  97 130 184 217 278 332 408
#     4  10  22  43  68  97 135 177 223 280 343 396
#     4  11  23  42  69  99 128 175 221 280 327 399
#     4  11  23  45  67  99 128 174 230 267 346 389
#     4  12  26  40  71  99 136 173 229 274 333 410
#     4  11  22  45  72  93 136 172 228 273 334 407
#     4  10  26  42  68  92 138 170 214 286 320 402
#     4  11  27  44  65 100 138 175 221 275 346 387
#
# _framework density 20.723344000000001
#
# number of rings (size 3 to 8) (size 9 to 14) (size 15 to 20)
#    0.000    1.067    2.667    2.800    7.467    1.067 
#    3.600    0.000    0.000    0.000    0.000    0.000 
#    0.000    0.000    0.000    0.000    0.000    0.000 
#
# Total GULP energy -372057.947590 kJ/mol
# GULP energy per Si atom -12401.931586 kJ/mol
# Density = 2.067618 g / cm^3
# Si number density = 20.723344 Si / 1000 Ang^3
#
#
#
# Elastic Constant Matrix: (Units=GPa)
#
#
# Indices 1 2 3 4 5 6 
#
# 1 104.8329 29.5209 31.3226 0.0000 6.5826 0.0000
# 2 29.5209 104.5199 22.8187 0.0000 4.2714 0.0000
# 3 31.3226 22.8187 94.0528 0.0000 -0.9561 0.0000
# 4 0.0000 0.0000 0.0000 20.7951 0.0000 2.0998
# 5 6.5826 4.2714 -0.9561 0.0000 27.7083 0.0000
# 6 0.0000 0.0000 0.0000 2.0998 0.0000 28.0148
#
#
#
# Elastic Compliance Matrix: (Units=1/GPa)
#
#
# Indices 1 2 3 4 5 6 
#
# 1 0.011328 -0.002398 -0.003215 0.000000 -0.002432 0.000000
# 2 -0.002398 0.010686 -0.001805 0.000000 -0.001140 0.000000
# 3 -0.003215 -0.001805 0.012156 0.000000 0.001462 0.000000
# 4 0.000000 0.000000 0.000000 0.048455 0.000000 -0.003632
# 5 -0.002432 -0.001140 0.001462 0.000000 0.036894 0.000000
# 6 0.000000 0.000000 0.000000 -0.003632 0.000000 0.035968
#
#
# Mechanical properties :
#
#
# Convention : Reuss Voigt Hill
#
# Bulk Modulus (GPa) = 51.72890 52.30332 52.01611
# Shear Modulus (GPa) = 28.28565 29.95319 29.11942
#
# Velocity S-wave (km/s) = 3.69849 3.80595 3.75260
# Velocity P-wave (km/s) = 6.57680 6.67887 6.62803
#
# Compressibility (1/GPa) = 0.01933155
#
# Stress axis : x y z
#
# Youngs Moduli (GPa) = 88.27897 93.58375 82.26350
#
# Poissons Ratio (x) = 0.22442 0.26451
# Poissons Ratio (y) = 0.21170 0.14852
# Poissons Ratio (z) = 0.28385 0.16896
#
# Static dielectric constant tensor:
#      x y z
#    x 4.027420 0.000000 0.109830 
#    y 0.000000 3.679970 0.000000 
#    z 0.109830 0.000000 3.978990 
# 
# 
# High freq. dielectric constant tensor:
#      x y z
#    x 1.822250 0.000000 -0.009230 
#    y 0.000000 1.806540 0.000000 
#    z -0.009230 0.000000 1.822090 
# 
# From -- ./inp_files/119448.got.cif
#   From: 2010.06.25/outbox.cif.g09.slc.cpg/sg15_60_cif.got.tgz:119448.got - 2010.06.28 07:06:18.
