data_PCOD8147030
_publ_section_title
;
Structure prediction by ZEFSAII (Michael W. Deem and Ramdas Pophale) SiO2 
 PCOD8147030
Probable space group: C 2/C
;
_chemical_formula_sum "Si O2"
_cell_formula_units_Z 56
_cell_length_a 12.225900
_cell_length_b 14.551489
_cell_length_c 14.279092
_cell_angle_alpha 90.000000
_cell_angle_beta 98.609644
_cell_angle_gamma 90.000000
_cell_volume 2511.696173
_symmetry_space_group_name_H-M "C 2/C"
_symmetry_group_IT_number 15
_symmetry_cell_setting 'monoclinic'
loop_
_space_group_symop_operation_xyz
x,y,z
-x,y,1/2-z
-x,-y,-z
x,-y,1/2+z
1/2+x,1/2+y,z
1/2-x,1/2+y,1/2-z
1/2-x,1/2-y,-z
1/2+x,1/2-y,1/2+z
loop_
_atom_site_type_symbol
_atom_site_label
_atom_site_fract_x
_atom_site_fract_y
_atom_site_fract_z
Si Si1 0.087750 0.180597 0.187234
Si Si2 0.740730 0.943465 0.718461
Si Si3 0.666748 0.502435 0.958693
Si Si4 0.011428 0.855698 0.022023
Si Si5 0.403472 0.071130 0.002117
Si Si6 0.536951 0.188259 0.152157
Si Si7 0.389841 0.117364 0.789820
O O1 0.189941 0.109152 0.192621
O O2 0.136314 0.276362 0.237010
O O3 0.000000 0.141448 0.250000
O O4 0.029872 0.191176 0.079484
O O5 0.823200 0.959599 0.642815
O O6 0.638243 0.882910 0.668117
O O7 0.701112 0.042308 0.753495
O O8 0.593298 0.595025 0.942524
O O9 0.608334 0.429347 0.018903
O O10 0.788111 0.523751 0.015340
O O11 0.065363 0.778991 0.096137
O O12 0.431892 0.140224 0.089569
O O13 0.395358 0.122039 0.902421
O O14 0.500000 0.000000 0.000000
O O15 0.500000 0.219259 0.250000
O O16 0.500000 0.085626 0.750000
#
# Coordination Sequence:
#
# PCOD8147030 Si02
#       7
#     8   8   8   8   8   8   8
#     4  11  23  44  71 101 139 182 235 290 351 427
#     4  11  24  46  67 106 140 181 236 295 351 422
#     4  10  24  46  71  99 140 188 235 284 363 423
#     4  11  25  49  69 104 141 192 235 290 361 427
#     4  11  22  43  73 101 138 184 231 295 348 421
#     4  12  27  46  69 104 144 182 242 300 350 422
#     4  10  22  42  69 102 134 181 229 282 361 413
#
# _framework density 22.29569
#
# number of rings (size 3 to 8) (size 9 to 14) (size 15 to 20)
#    0.000    1.143    5.714    0.429    2.000    3.429 
#   15.429    0.000    0.000    0.000    0.000    0.000 
#    0.000    0.000    0.000    0.000    0.000    0.000 
#
# Total GULP energy -347150.103823 kJ/mol
# GULP energy per Si atom -12398.217994 kJ/mol
# Density = 2.224494 g / cm^3
# Si number density = 22.295690 Si / 1000 Ang^3
#
#
#
# Elastic Constant Matrix: (Units=GPa)
#
#
# Indices 1 2 3 4 5 6 
#
# 1 122.6109 53.2540 28.9467 0.0000 -8.7450 0.0000
# 2 53.2540 113.8819 23.1484 0.0000 1.5108 0.0000
# 3 28.9467 23.1484 94.1659 0.0000 -6.8981 0.0000
# 4 0.0000 0.0000 0.0000 35.5253 0.0000 -0.6923
# 5 -8.7450 1.5108 -6.8981 0.0000 30.9284 0.0000
# 6 0.0000 0.0000 0.0000 -0.6923 0.0000 33.0344
#
#
#
# Elastic Compliance Matrix: (Units=1/GPa)
#
#
# Indices 1 2 3 4 5 6 
#
# 1 0.010878 -0.004724 -0.001973 0.000000 0.002866 0.000000
# 2 -0.004724 0.011323 -0.001494 0.000000 -0.002222 0.000000
# 3 -0.001973 -0.001494 0.011750 0.000000 0.002136 0.000000
# 4 0.000000 0.000000 0.000000 0.028160 0.000000 0.000590
# 5 0.002866 -0.002222 0.002136 0.000000 0.033728 0.000000
# 6 0.000000 0.000000 0.000000 0.000590 0.000000 0.030284
#
#
# Mechanical properties :
#
#
# Convention : Reuss Voigt Hill
#
# Bulk Modulus (GPa) = 56.91700 60.15075 58.53387
# Shear Modulus (GPa) = 33.70165 34.91826 34.30995
#
# Velocity S-wave (km/s) = 3.89212 3.96175 3.92709
# Velocity P-wave (km/s) = 6.76622 6.92564 6.84640
#
# Compressibility (1/GPa) = 0.01756944
#
# Stress axis : x y z
#
# Youngs Moduli (GPa) = 91.93104 88.31452 85.10838
#
# Poissons Ratio (x) = 0.41718 0.16789
# Poissons Ratio (y) = 0.43426 0.12717
# Poissons Ratio (z) = 0.18135 0.13196
#
# Static dielectric constant tensor:
#      x y z
#    x 4.019960 0.000000 -0.077930 
#    y 0.000000 4.091540 0.000000 
#    z -0.077930 0.000000 3.856820 
# 
# 
# High freq. dielectric constant tensor:
#      x y z
#    x 1.876120 0.000000 -0.012100 
#    y 0.000000 1.886960 0.000000 
#    z -0.012100 0.000000 1.873870 
# 
# From -- ./inp_files/144236.got.cif
#   From: 2010.06.25/outbox.cif.g09.slc.cpg/sg15_73_cif.got.tgz:144236.got - 2010.06.28 07:06:18.
