data_PCOD8147975
_publ_section_title
;
Structure prediction by ZEFSAII (Michael W. Deem and Ramdas Pophale) SiO2 
 PCOD8147975
Probable space group: C 2/C
;
_chemical_formula_sum "Si O2"
_cell_formula_units_Z 52
_cell_length_a 10.925988
_cell_length_b 14.454664
_cell_length_c 15.127139
_cell_angle_alpha 90.000000
_cell_angle_beta 104.656442
_cell_angle_gamma 90.000000
_cell_volume 2311.312722
_symmetry_space_group_name_H-M "C 2/C"
_symmetry_group_IT_number 15
_symmetry_cell_setting 'monoclinic'
loop_
_space_group_symop_operation_xyz
x,y,z
-x,y,1/2-z
-x,-y,-z
x,-y,1/2+z
1/2+x,1/2+y,z
1/2-x,1/2+y,1/2-z
1/2-x,1/2-y,-z
1/2+x,1/2-y,1/2+z
loop_
_atom_site_type_symbol
_atom_site_label
_atom_site_fract_x
_atom_site_fract_y
_atom_site_fract_z
Si Si1 0.115716 0.313963 0.612756
Si Si2 0.635424 0.464015 0.269715
Si Si3 0.500000 0.205891 0.750000
Si Si4 0.312271 0.349314 0.794178
Si Si5 0.331209 0.169859 0.056819
Si Si6 0.215168 0.516528 0.030503
Si Si7 0.240595 0.630191 0.868183
O O1 0.184971 0.343353 0.714130
O O2 0.125520 0.399983 0.546561
O O3 0.184557 0.222354 0.587633
O O4 0.969449 0.291619 0.607527
O O5 0.500000 0.412711 0.250000
O O6 0.609901 0.559307 0.213860
O O7 0.683328 0.487766 0.376773
O O8 0.724529 0.399491 0.226075
O O9 0.407637 0.264456 0.796878
O O10 0.588430 0.146628 0.832831
O O11 0.259474 0.360071 0.881384
O O12 0.250000 0.250000 0.000000
O O13 0.357164 0.079501 0.001170
O O14 0.274121 0.553403 0.948218
#
# Coordination Sequence:
#
# PCOD8147975 Si02
#       7
#     8   8   4   8   8   8   8
#     4  10  25  45  70 101 141 182 233 285 341 420
#     4  11  25  45  72 101 139 181 236 291 349 416
#     4  10  24  42  74  98 140 186 238 280 344 422
#     4  10  22  47  68  98 138 189 228 285 348 408
#     4  12  27  42  69 105 140 180 232 287 348 412
#     4  11  26  47  69 104 140 189 229 287 351 418
#     4  11  25  45  73 104 137 189 232 287 352 411
#
# _framework density 22.498037
#
# number of rings (size 3 to 8) (size 9 to 14) (size 15 to 20)
#    0.000    1.231    2.308    1.385    8.615    4.308 
#    0.000    0.000    0.000    0.000    0.000    0.000 
#    0.000    0.000    0.000    0.000    0.000    0.000 
#
# Total GULP energy -322217.588357 kJ/mol
# GULP energy per Si atom -12392.984168 kJ/mol
# Density = 2.244683 g / cm^3
# Si number density = 22.498037 Si / 1000 Ang^3
#
#
#
# Elastic Constant Matrix: (Units=GPa)
#
#
# Indices 1 2 3 4 5 6 
#
# 1 136.6547 34.4404 57.5620 0.0000 18.3296 0.0000
# 2 34.4404 125.9107 48.5566 0.0000 5.2890 0.0000
# 3 57.5620 48.5566 110.8661 0.0000 -4.3601 0.0000
# 4 0.0000 0.0000 0.0000 28.4507 0.0000 0.6628
# 5 18.3296 5.2890 -4.3601 0.0000 22.9661 0.0000
# 6 0.0000 0.0000 0.0000 0.6628 0.0000 22.1538
#
#
#
# Elastic Compliance Matrix: (Units=1/GPa)
#
#
# Indices 1 2 3 4 5 6 
#
# 1 0.011352 -0.000302 -0.006161 0.000000 -0.010160 0.000000
# 2 -0.000302 0.009776 -0.004236 0.000000 -0.002814 0.000000
# 3 -0.006161 -0.004236 0.014413 0.000000 0.008629 0.000000
# 4 0.000000 0.000000 0.000000 0.035173 0.000000 -0.001052
# 5 -0.010160 -0.002814 0.008629 0.000000 0.053938 0.000000
# 6 0.000000 0.000000 0.000000 -0.001052 0.000000 0.045170
#
#
# Mechanical properties :
#
#
# Convention : Reuss Voigt Hill
#
# Bulk Modulus (GPa) = 70.70351 72.72772 71.71562
# Shear Modulus (GPa) = 25.51862 30.23895 27.87879
#
# Velocity S-wave (km/s) = 3.37153 3.67013 3.52400
# Velocity P-wave (km/s) = 6.83016 7.09622 6.96446
#
# Compressibility (1/GPa) = 0.01414357
#
# Stress axis : x y z
#
# Youngs Moduli (GPa) = 88.09094 102.28649 69.38086
#
# Poissons Ratio (x) = 0.03092 0.42746
# Poissons Ratio (y) = 0.02663 0.29387
# Poissons Ratio (z) = 0.54274 0.43324
#
# Static dielectric constant tensor:
#      x y z
#    x 3.609700 0.000000 0.238530 
#    y 0.000000 4.186640 0.000000 
#    z 0.238530 0.000000 3.732900 
# 
# 
# High freq. dielectric constant tensor:
#      x y z
#    x 1.881840 0.000000 -0.001680 
#    y 0.000000 1.899140 0.000000 
#    z -0.001680 0.000000 1.885560 
# 
# From -- ./inp_files/144348.got.cif
#   From: 2010.06.25/outbox.cif.g09.slc.cpg/sg15_73_cif.got.tgz:144348.got - 2010.06.28 07:06:18.
