data_PCOD8147890
_publ_section_title
;
Structure prediction by ZEFSAII (Michael W. Deem and Ramdas Pophale) SiO2 
 PCOD8147890
Probable space group: C 2/C
;
_chemical_formula_sum "Si O2"
_cell_formula_units_Z 60
_cell_length_a 17.462113
_cell_length_b 12.136270
_cell_length_c 20.997055
_cell_angle_alpha 90.000000
_cell_angle_beta 142.061347
_cell_angle_gamma 90.000000
_cell_volume 2735.813924
_symmetry_space_group_name_H-M "C 2/C"
_symmetry_group_IT_number 15
_symmetry_cell_setting 'monoclinic'
loop_
_space_group_symop_operation_xyz
x,y,z
-x,y,1/2-z
-x,-y,-z
x,-y,1/2+z
1/2+x,1/2+y,z
1/2-x,1/2+y,1/2-z
1/2-x,1/2-y,-z
1/2+x,1/2-y,1/2+z
loop_
_atom_site_type_symbol
_atom_site_label
_atom_site_fract_x
_atom_site_fract_y
_atom_site_fract_z
Si Si1 0.250426 0.932219 0.681840
Si Si2 0.000000 0.782992 0.750000
Si Si3 0.770318 0.411545 0.549549
Si Si4 0.099174 0.706444 0.135479
Si Si5 0.450108 0.272516 0.147779
Si Si6 0.830744 0.147396 0.032829
Si Si7 0.474857 0.277898 0.933963
Si Si8 0.326242 0.175494 0.731979
O O1 0.271915 0.883586 0.625561
O O2 0.367159 0.906557 0.805554
O O3 0.120846 0.879753 0.620993
O O4 0.248529 0.063244 0.677973
O O5 0.058374 0.863238 0.842046
O O6 0.107701 0.703095 0.791895
O O7 0.655560 0.359719 0.437064
O O8 0.896651 0.353672 0.606554
O O9 0.760742 0.542001 0.529823
O O10 0.225683 0.733979 0.182944
O O11 0.058401 0.788701 0.166041
O O12 0.992465 0.709517 0.011470
O O13 0.500000 0.300532 0.250000
O O14 0.895758 0.167533 0.006555
O O15 0.750000 0.250000 0.000000
O O16 0.430147 0.183770 0.855535
#
# Coordination Sequence:
#
# PCOD8147890 Si02
#       8
#     8   4   8   8   8   8   8   8
#     4  11  22  40  65  97 122 169 219 255 326 387
#     4  10  22  46  64  96 134 164 210 270 318 372
#     4  11  24  40  67  98 125 172 221 265 324 390
#     4  11  22  41  64  90 133 164 211 264 319 382
#     4  11  24  43  64  97 134 170 215 270 326 386
#     4  11  24  43  67  95 130 169 223 265 323 390
#     4  10  23  42  62  94 130 168 208 273 319 375
#     4  10  24  40  68  95 129 168 216 263 314 392
#
# _framework density 21.931317
#
# number of rings (size 3 to 8) (size 9 to 14) (size 15 to 20)
#    0.000    1.333    2.667    2.400    2.800    4.800 
#    1.200    5.333    0.000    0.000    0.000    0.000 
#    0.000    0.000    0.000    0.000    0.000    0.000 
#
# Total GULP energy -371762.570955 kJ/mol
# GULP energy per Si atom -12392.085699 kJ/mol
# Density = 2.188140 g / cm^3
# Si number density = 21.931317 Si / 1000 Ang^3
#
#
#
# Elastic Constant Matrix: (Units=GPa)
#
#
# Indices 1 2 3 4 5 6 
#
# 1 129.6448 30.1891 27.5226 0.0000 -4.8444 0.0000
# 2 30.1891 95.7070 37.6494 0.0000 -3.7046 0.0000
# 3 27.5226 37.6494 95.5791 0.0001 -30.6277 0.0000
# 4 0.0000 0.0000 0.0001 29.3996 0.0000 -0.5824
# 5 -4.8444 -3.7046 -30.6277 0.0000 42.4041 0.0000
# 6 0.0000 0.0000 0.0000 -0.5824 0.0000 21.9407
#
#
#
# Elastic Compliance Matrix: (Units=1/GPa)
#
#
# Indices 1 2 3 4 5 6 
#
# 1 0.008549 -0.001990 -0.001848 0.000000 -0.000532 0.000000
# 2 -0.001990 0.013165 -0.005617 0.000000 -0.003134 0.000000
# 3 -0.001848 -0.005617 0.016892 0.000000 0.011499 0.000000
# 4 0.000000 0.000000 0.000000 0.034032 0.000000 0.000903
# 5 -0.000532 -0.003134 0.011499 0.000000 0.031554 0.000000
# 6 0.000000 0.000000 0.000000 0.000903 0.000000 0.045601
#
#
# Mechanical properties :
#
#
# Convention : Reuss Voigt Hill
#
# Bulk Modulus (GPa) = 50.77431 56.85034 53.81233
# Shear Modulus (GPa) = 28.52758 33.78687 31.15723
#
# Velocity S-wave (km/s) = 3.61053 3.92928 3.77327
# Velocity P-wave (km/s) = 6.37048 6.82377 6.60102
#
# Compressibility (1/GPa) = 0.01969500
#
# Stress axis : x y z
#
# Youngs Moduli (GPa) = 116.96806 75.96128 59.19918
#
# Poissons Ratio (x) = 0.15118 0.10943
# Poissons Ratio (y) = 0.23279 0.33252
# Poissons Ratio (z) = 0.21621 0.42667
#
# Static dielectric constant tensor:
#      x y z
#    x 4.133240 0.000000 -0.186450 
#    y 0.000000 3.629650 0.000000 
#    z -0.186450 0.000000 4.481190 
# 
# 
# High freq. dielectric constant tensor:
#      x y z
#    x 1.871440 0.000000 -0.008170 
#    y 0.000000 1.827880 0.000000 
#    z -0.008170 0.000000 1.889670 
# 
# From -- ./inp_files/248793.got.cif
#   From: 2010.06.25/outbox.cif.g09.slc.cpg/sg15_125_cif.got.tgz:248793.got - 2010.06.28 07:06:18.
