data_PCOD8147232
_publ_section_title
;
Structure prediction by ZEFSAII (Michael W. Deem and Ramdas Pophale) SiO2 
 PCOD8147232
Probable space group: C 2/C
;
_chemical_formula_sum "Si O2"
_cell_formula_units_Z 28
_cell_length_a 9.579486
_cell_length_b 8.817542
_cell_length_c 24.680669
_cell_angle_alpha 90.000000
_cell_angle_beta 144.759687
_cell_angle_gamma 90.000000
_cell_volume 1202.895328
_symmetry_space_group_name_H-M "C 2/C"
_symmetry_group_IT_number 15
_symmetry_cell_setting 'monoclinic'
loop_
_space_group_symop_operation_xyz
x,y,z
-x,y,1/2-z
-x,-y,-z
x,-y,1/2+z
1/2+x,1/2+y,z
1/2-x,1/2+y,1/2-z
1/2-x,1/2-y,-z
1/2+x,1/2-y,1/2+z
loop_
_atom_site_type_symbol
_atom_site_label
_atom_site_fract_x
_atom_site_fract_y
_atom_site_fract_z
Si Si1 0.546726 0.039193 0.952498
Si Si2 0.795548 0.855523 0.723201
Si Si3 0.409725 0.371029 0.881317
Si Si4 0.000000 0.564013 0.750000
O O1 0.406078 0.195438 0.895660
O O2 0.456927 0.904665 0.884599
O O3 0.828156 0.056984 0.027545
O O4 0.500000 0.000000 0.000000
O O5 0.814616 0.907316 0.790625
O O6 0.841094 0.673548 0.738871
O O7 0.000000 0.934744 0.750000
O O8 0.197322 0.461743 0.846632
#
# Coordination Sequence:
#
# PCOD8147232 Si02
#       4
#     8   8   8   4
#     4  11  23  43  71 100 132 178 225 275 335 395
#     4  10  22  43  64  97 138 173 224 271 329 391
#     4  11  24  43  68  99 136 175 226 275 330 399
#     4  10  24  40  64  98 128 172 220 268 332 392
#
# _framework density 23.277170000000002
#
# number of rings (size 3 to 8) (size 9 to 14) (size 15 to 20)
#    0.857    0.571    2.857    1.714    2.000    3.429 
#    0.000   20.000    0.000    0.000    0.000    0.000 
#    0.000    0.000    0.000    0.000    0.000    0.000 
#
# Total GULP energy -173448.853070 kJ/mol
# GULP energy per Si atom -12389.203791 kJ/mol
# Density = 2.322419 g / cm^3
# Si number density = 23.277170 Si / 1000 Ang^3
#
#
#
# Elastic Constant Matrix: (Units=GPa)
#
#
# Indices 1 2 3 4 5 6 
#
# 1 53.2922 47.1197 46.0251 0.0000 1.1419 0.0000
# 2 47.1197 144.4665 86.4666 0.0000 26.5647 0.0000
# 3 46.0251 86.4666 163.6217 0.0000 5.0520 0.0000
# 4 0.0000 0.0000 0.0000 48.8820 0.0000 17.0210
# 5 1.1419 26.5647 5.0520 0.0000 51.3982 0.0000
# 6 0.0000 0.0000 0.0000 17.0210 0.0000 28.1782
#
#
#
# Elastic Compliance Matrix: (Units=1/GPa)
#
#
# Indices 1 2 3 4 5 6 
#
# 1 0.029116 -0.007618 -0.004279 0.000000 0.003711 0.000000
# 2 -0.007618 0.013405 -0.004747 0.000000 -0.006292 0.000000
# 3 -0.004279 -0.004747 0.009775 0.000000 0.001588 0.000000
# 4 0.000000 0.000000 0.000000 0.025906 0.000000 -0.015649
# 5 0.003711 -0.006292 0.001588 0.000000 0.022470 0.000000
# 6 0.000000 0.000000 0.000000 -0.015649 0.000000 0.044941
#
#
# Mechanical properties :
#
#
# Convention : Reuss Voigt Hill
#
# Bulk Modulus (GPa) = 52.60836 80.06700 66.33768
# Shear Modulus (GPa) = 26.99268 37.80961 32.40114
#
# Velocity S-wave (km/s) = 3.40901 4.03466 3.73496
# Velocity P-wave (km/s) = 6.17617 7.49510 6.86737
#
# Compressibility (1/GPa) = 0.01900839
#
# Stress axis : x y z
#
# Youngs Moduli (GPa) = 34.34551 74.60050 102.30563
#
# Poissons Ratio (x) = 0.56830 0.43775
# Poissons Ratio (y) = 0.26164 0.48561
# Poissons Ratio (z) = 0.14696 0.35410
#
# Static dielectric constant tensor:
#      x y z
#    x 3.940410 0.000000 0.221480 
#    y 0.000000 4.188360 0.000000 
#    z 0.221480 0.000000 4.211460 
# 
# 
# High freq. dielectric constant tensor:
#      x y z
#    x 1.911990 0.000000 0.015180 
#    y 0.000000 1.928280 0.000000 
#    z 0.015180 0.000000 1.921330 
# 
# From -- ./inp_files/131869.got.cif
#   From: 2010.06.25/outbox.cif.g09.slc.cpg/sg15_66_cif.got.tgz:131869.got - 2010.06.28 07:06:18.
