data_PCOD8147364
_publ_section_title
;
Structure prediction by ZEFSAII (Michael W. Deem and Ramdas Pophale) SiO2 
 PCOD8147364
Probable space group: C 2/C
;
_chemical_formula_sum "Si O2"
_cell_formula_units_Z 44
_cell_length_a 11.396517
_cell_length_b 18.016595
_cell_length_c 8.934979
_cell_angle_alpha 90.000000
_cell_angle_beta 68.927681
_cell_angle_gamma 90.000000
_cell_volume 1711.903632
_symmetry_space_group_name_H-M "C 2/C"
_symmetry_group_IT_number 15
_symmetry_cell_setting 'monoclinic'
loop_
_space_group_symop_operation_xyz
x,y,z
-x,y,1/2-z
-x,-y,-z
x,-y,1/2+z
1/2+x,1/2+y,z
1/2-x,1/2+y,1/2-z
1/2-x,1/2-y,-z
1/2+x,1/2-y,1/2+z
loop_
_atom_site_type_symbol
_atom_site_label
_atom_site_fract_x
_atom_site_fract_y
_atom_site_fract_z
Si Si1 0.866721 0.720110 0.537036
Si Si2 0.700792 0.407387 0.108053
Si Si3 0.323444 0.696400 0.357876
Si Si4 0.526976 0.343041 0.441204
Si Si5 0.168760 0.556257 0.410553
Si Si6 0.500000 0.017823 0.750000
O O1 0.750000 0.750000 0.500000
O O2 0.841966 0.631139 0.541753
O O3 0.873563 0.752827 0.701710
O O4 0.994935 0.755924 0.408343
O O5 0.635350 0.376702 0.288987
O O6 0.605253 0.388929 0.014976
O O7 0.724890 0.494656 0.100089
O O8 0.250000 0.750000 0.500000
O O9 0.432909 0.654608 0.403598
O O10 0.231179 0.633362 0.338342
O O11 0.077628 0.568073 0.596328
O O12 0.095413 0.534532 0.294987
#
# Coordination Sequence:
#
# PCOD8147364 Si02
#       6
#     8   8   8   8   8   4
#     4  10  23  44  67 102 142 189 237 290 360 423
#     4  10  22  46  71 102 144 190 235 304 358 435
#     4  12  25  46  69 108 147 187 242 303 357 435
#     4  10  22  43  69 105 138 191 233 298 363 417
#     4  11  26  49  75 106 146 186 243 295 365 431
#     4  10  26  48  72 108 138 196 238 296 358 428
#
# _framework density 25.702382
#
# number of rings (size 3 to 8) (size 9 to 14) (size 15 to 20)
#    0.000    1.455    1.818    1.636    5.091    3.636 
#    9.818    0.000    0.000    0.000    0.000    0.000 
#    0.000    0.000    0.000    0.000    0.000    0.000 
#
# Total GULP energy -272550.272202 kJ/mol
# GULP energy per Si atom -12388.648736 kJ/mol
# Density = 2.564388 g / cm^3
# Si number density = 25.702382 Si / 1000 Ang^3
#
#
#
# Elastic Constant Matrix: (Units=GPa)
#
#
# Indices 1 2 3 4 5 6 
#
# 1 105.5546 14.8240 9.4609 0.0000 25.3773 0.0000
# 2 14.8240 97.7161 -9.2957 0.0000 -12.3704 0.0000
# 3 9.4609 -9.2957 80.1143 0.0000 22.0714 0.0000
# 4 0.0000 0.0000 0.0000 19.4568 0.0000 -2.7922
# 5 25.3773 -12.3704 22.0714 0.0000 48.8053 0.0000
# 6 0.0000 0.0000 0.0000 -2.7922 0.0000 33.3518
#
#
#
# Elastic Compliance Matrix: (Units=1/GPa)
#
#
# Indices 1 2 3 4 5 6 
#
# 1 0.011420 -0.002559 0.000193 0.000000 -0.006674 0.000000
# 2 -0.002559 0.011168 0.000516 0.000000 0.003928 0.000000
# 3 0.000193 0.000516 0.014291 0.000000 -0.006433 0.000000
# 4 0.000000 0.000000 0.000000 0.052021 0.000000 0.004355
# 5 -0.006674 0.003928 -0.006433 0.000000 0.027865 0.000000
# 6 0.000000 0.000000 0.000000 0.004355 0.000000 0.030348
#
#
# Mechanical properties :
#
#
# Convention : Reuss Voigt Hill
#
# Bulk Modulus (GPa) = 30.13858 34.81817 32.47837
# Shear Modulus (GPa) = 30.88820 38.21582 34.55201
#
# Velocity S-wave (km/s) = 3.47041 3.86016 3.67046
# Velocity P-wave (km/s) = 5.27349 5.78307 5.53415
#
# Compressibility (1/GPa) = 0.03318006
#
# Stress axis : x y z
#
# Youngs Moduli (GPa) = 87.56195 89.53897 69.97205
#
# Poissons Ratio (x) = 0.22914 -0.01351
# Poissons Ratio (y) = 0.22408 -0.03610
# Poissons Ratio (z) = -0.01691 -0.04619
#
# Static dielectric constant tensor:
#      x y z
#    x 5.978370 0.000000 -0.430180 
#    y 0.000000 5.839480 0.000000 
#    z -0.430180 0.000000 5.386880 
# 
# 
# High freq. dielectric constant tensor:
#      x y z
#    x 2.044260 0.000000 0.013380 
#    y 0.000000 2.008020 0.000000 
#    z 0.013380 0.000000 2.030820 
# 
# From -- ./inp_files/30707.got.cif
#   From: 2010.06.25/outbox.cif.g09.slc.cpg/sg15_16_cif.got.tgz:30707.got - 2010.06.28 07:06:18.
