data_PCOD8147796
_publ_section_title
;
Structure prediction by ZEFSAII (Michael W. Deem and Ramdas Pophale) SiO2 
 PCOD8147796
Probable space group: C 2/C
;
_chemical_formula_sum "Si O2"
_cell_formula_units_Z 36
_cell_length_a 20.800083
_cell_length_b 8.072390
_cell_length_c 14.773183
_cell_angle_alpha 90.000000
_cell_angle_beta 39.578912
_cell_angle_gamma 90.000000
_cell_volume 1580.434111
_symmetry_space_group_name_H-M "C 2/C"
_symmetry_group_IT_number 15
_symmetry_cell_setting 'monoclinic'
loop_
_space_group_symop_operation_xyz
x,y,z
-x,y,1/2-z
-x,-y,-z
x,-y,1/2+z
1/2+x,1/2+y,z
1/2-x,1/2+y,1/2-z
1/2-x,1/2-y,-z
1/2+x,1/2-y,1/2+z
loop_
_atom_site_type_symbol
_atom_site_label
_atom_site_fract_x
_atom_site_fract_y
_atom_site_fract_z
Si Si1 0.578227 0.042721 0.302932
Si Si2 0.385655 0.845130 0.547558
Si Si3 0.500000 0.260731 0.250000
Si Si4 0.194093 0.209993 0.152471
Si Si5 0.003146 0.973004 0.603707
O O1 0.609292 0.169210 0.348978
O O2 0.588171 0.142492 0.197105
O O3 0.459226 0.995224 0.438712
O O4 0.647454 0.881976 0.238532
O O5 0.270768 0.871751 0.641314
O O6 0.420049 0.676361 0.461211
O O7 0.457622 0.370264 0.380261
O O8 0.105996 0.075237 0.237109
O O9 0.250000 0.250000 0.000000
O O10 0.000000 0.000000 0.500000
#
# Coordination Sequence:
#
# PCOD8147796 Si02
#       5
#     8   8   4   8   8
#     4  10  23  41  69  98 131 185 227 278 342 419
#     4  10  22  45  66  95 138 179 224 280 348 414
#     4  12  22  42  70  96 134 174 236 280 338 420
#     4  11  24  44  68  99 139 179 228 284 356 414
#     4  11  24  44  68 101 137 182 225 293 352 406
#
# _framework density 22.778552000000001
#
# number of rings (size 3 to 8) (size 9 to 14) (size 15 to 20)
#    0.000    1.333    2.222    2.667    3.111    3.556 
#    0.000   10.000    0.000    0.000    0.000    0.000 
#    0.000    0.000    0.000    0.000    0.000    0.000 
#
# Total GULP energy -223142.157393 kJ/mol
# GULP energy per Si atom -12396.786522 kJ/mol
# Density = 2.272671 g / cm^3
# Si number density = 22.778552 Si / 1000 Ang^3
#
#
#
# Elastic Constant Matrix: (Units=GPa)
#
#
# Indices 1 2 3 4 5 6 
#
# 1 141.9321 49.5919 42.6075 0.0004 12.5316 0.0001
# 2 49.5919 85.6954 17.8413 0.0024 -0.2264 -0.0023
# 3 42.6075 17.8413 93.3651 0.0013 5.9205 -0.0011
# 4 0.0004 0.0024 0.0013 27.7122 -0.0008 13.2654
# 5 12.5316 -0.2264 5.9205 -0.0008 47.4917 0.0006
# 6 0.0001 -0.0023 -0.0011 13.2654 0.0006 45.6252
#
#
#
# Elastic Compliance Matrix: (Units=1/GPa)
#
#
# Indices 1 2 3 4 5 6 
#
# 1 0.010074 -0.005112 -0.003478 0.000001 -0.002249 -0.000001
# 2 -0.005112 0.014752 -0.000581 -0.000002 0.001492 0.000001
# 3 -0.003478 -0.000581 0.012449 -0.000001 -0.000637 0.000000
# 4 0.000001 -0.000002 -0.000001 0.041919 0.000001 -0.012188
# 5 -0.002249 0.001492 -0.000637 0.000001 0.021736 0.000000
# 6 -0.000001 0.000001 0.000000 -0.012188 0.000000 0.025461
#
#
# Mechanical properties :
#
#
# Convention : Reuss Voigt Hill
#
# Bulk Modulus (GPa) = 52.81357 60.11934 56.46645
# Shear Modulus (GPa) = 33.10253 38.22928 35.66591
#
# Velocity S-wave (km/s) = 3.81626 4.10115 3.96127
# Velocity P-wave (km/s) = 6.53104 6.99115 6.76501
#
# Compressibility (1/GPa) = 0.01893453
#
# Stress axis : x y z
#
# Youngs Moduli (GPa) = 99.26119 67.78575 80.32625
#
# Poissons Ratio (x) = 0.34651 0.27938
# Poissons Ratio (y) = 0.50741 0.04665
# Poissons Ratio (z) = 0.34523 0.03937
#
# Static dielectric constant tensor:
#      x y z
#    x 4.306920 0.000000 -0.007980 
#    y 0.000000 4.200680 0.000000 
#    z -0.007980 0.000000 4.130160 
# 
# 
# High freq. dielectric constant tensor:
#      x y z
#    x 1.910320 0.000000 0.017600 
#    y 0.000000 1.905040 0.000000 
#    z 0.017600 0.000000 1.873630 
# 
# From -- ./inp_files/159562.got.cif
#   From: 2010.06.25/outbox.cif.g09.slc.cpg/sg15_80_cif.got.tgz:159562.got - 2010.06.28 07:06:18.
