data_PCOD8147102
_publ_section_title
;
Structure prediction by ZEFSAII (Michael W. Deem and Ramdas Pophale) SiO2 
 PCOD8147102
Probable space group: C 2/C
;
_chemical_formula_sum "Si O2"
_cell_formula_units_Z 48
_cell_length_a 30.310124
_cell_length_b 9.018568
_cell_length_c 18.297658
_cell_angle_alpha 90.000000
_cell_angle_beta 152.517154
_cell_angle_gamma 90.000000
_cell_volume 2308.216472
_symmetry_space_group_name_H-M "C 2/C"
_symmetry_group_IT_number 15
_symmetry_cell_setting 'monoclinic'
loop_
_space_group_symop_operation_xyz
x,y,z
-x,y,1/2-z
-x,-y,-z
x,-y,1/2+z
1/2+x,1/2+y,z
1/2-x,1/2+y,1/2-z
1/2-x,1/2-y,-z
1/2+x,1/2-y,1/2+z
loop_
_atom_site_type_symbol
_atom_site_label
_atom_site_fract_x
_atom_site_fract_y
_atom_site_fract_z
Si Si1 0.738213 0.722859 0.897504
Si Si2 0.472518 0.333677 0.475208
Si Si3 0.432128 0.274583 0.580874
Si Si4 0.370628 0.776283 0.395844
Si Si5 0.214605 0.975238 0.641954
Si Si6 0.899675 0.540350 0.065480
O O1 0.630930 0.689522 0.713127
O O2 0.767627 0.873250 0.901207
O O3 0.750000 0.750000 0.000000
O O4 0.809370 0.587226 0.982693
O O5 0.500000 0.500000 0.500000
O O6 0.480062 0.295112 0.571744
O O7 0.554250 0.231595 0.559184
O O8 0.500000 0.270598 0.750000
O O9 0.369326 0.416838 0.504272
O O10 0.372556 0.119861 0.489544
O O11 0.314310 0.622095 0.328598
O O12 0.426234 0.823592 0.550760
O O13 0.303277 0.919392 0.288904
O O14 0.000000 0.509880 0.250000
#
# Coordination Sequence:
#
# PCOD8147102 Si02
#       6
#     8   8   8   8   8   8
#     4  11  26  44  70 104 141 178 239 283 353 424
#     4  12  26  42  68 101 137 180 231 293 348 417
#     4  11  25  44  67 100 138 179 231 283 355 422
#     4  11  23  42  69  94 135 174 232 280 350 408
#     4  11  24  41  68  95 132 182 225 286 346 422
#     4  10  22  42  70  97 138 182 227 279 343 412
#
# _framework density 20.795276999999999
#
# number of rings (size 3 to 8) (size 9 to 14) (size 15 to 20)
#    0.000    1.000    1.667    5.000    4.667    8.000 
#    0.000    1.667    0.000    0.000    0.000    0.000 
#    0.000    0.000    0.000    0.000    0.000    0.000 
#
# Total GULP energy -297373.373561 kJ/mol
# GULP energy per Si atom -12390.557232 kJ/mol
# Density = 2.074795 g / cm^3
# Si number density = 20.795277 Si / 1000 Ang^3
#
#
#
# Elastic Constant Matrix: (Units=GPa)
#
#
# Indices 1 2 3 4 5 6 
#
# 1 179.0035 79.0682 77.7954 0.0000 2.6271 0.0000
# 2 79.0682 161.9024 53.9565 0.0000 16.0999 0.0000
# 3 77.7954 53.9565 111.1003 0.0000 4.7347 0.0000
# 4 0.0000 0.0000 0.0000 34.8791 0.0000 7.0446
# 5 2.6271 16.0999 4.7347 0.0000 36.5201 0.0000
# 6 0.0000 0.0000 0.0000 7.0446 0.0000 34.3546
#
#
#
# Elastic Compliance Matrix: (Units=1/GPa)
#
#
# Indices 1 2 3 4 5 6 
#
# 1 0.008986 -0.002862 -0.004956 0.000000 0.001258 0.000000
# 2 -0.002862 0.008577 -0.002020 0.000000 -0.003313 0.000000
# 3 -0.004956 -0.002020 0.013474 0.000000 -0.000500 0.000000
# 4 0.000000 0.000000 0.000000 0.029909 0.000000 -0.006133
# 5 0.001258 -0.003313 -0.000500 0.000000 0.028817 0.000000
# 6 0.000000 0.000000 0.000000 -0.006133 0.000000 0.030366
#
#
# Mechanical properties :
#
#
# Convention : Reuss Voigt Hill
#
# Bulk Modulus (GPa) = 88.02539 97.07183 92.54861
# Shear Modulus (GPa) = 34.82089 37.22982 36.02535
#
# Velocity S-wave (km/s) = 4.09646 4.23579 4.16670
# Velocity P-wave (km/s) = 8.04960 8.40854 8.23103
#
# Compressibility (1/GPa) = 0.01136036
#
# Stress axis : x y z
#
# Youngs Moduli (GPa) = 111.28350 116.59060 74.21906
#
# Poissons Ratio (x) = 0.33368 0.36783
# Poissons Ratio (y) = 0.31849 0.14994
# Poissons Ratio (z) = 0.55152 0.23554
#
# Static dielectric constant tensor:
#      x y z
#    x 3.976520 0.000000 0.114080 
#    y 0.000000 4.562640 0.000000 
#    z 0.114080 0.000000 3.962280 
# 
# 
# High freq. dielectric constant tensor:
#      x y z
#    x 1.813210 0.000000 0.002250 
#    y 0.000000 1.842320 0.000000 
#    z 0.002250 0.000000 1.820530 
# 
# From -- ./inp_files/224678.got.cif
#   From: 2010.06.25/outbox.cif.g09.slc.cpg/sg15_113_cif.got.tgz:224678.got - 2010.06.28 07:06:18.
