data_PCOD8147718
_publ_section_title
;
Structure prediction by ZEFSAII (Michael W. Deem and Ramdas Pophale) SiO2 
 PCOD8147718
Probable space group: C 2/C
;
_chemical_formula_sum "Si O2"
_cell_formula_units_Z 40
_cell_length_a 14.313395
_cell_length_b 8.699724
_cell_length_c 14.808876
_cell_angle_alpha 90.000000
_cell_angle_beta 111.262017
_cell_angle_gamma 90.000000
_cell_volume 1718.519143
_symmetry_space_group_name_H-M "C 2/C"
_symmetry_group_IT_number 15
_symmetry_cell_setting 'monoclinic'
loop_
_space_group_symop_operation_xyz
x,y,z
-x,y,1/2-z
-x,-y,-z
x,-y,1/2+z
1/2+x,1/2+y,z
1/2-x,1/2+y,1/2-z
1/2-x,1/2-y,-z
1/2+x,1/2-y,1/2+z
loop_
_atom_site_type_symbol
_atom_site_label
_atom_site_fract_x
_atom_site_fract_y
_atom_site_fract_z
Si Si1 0.123416 0.856652 0.032492
Si Si2 0.059924 0.654435 0.502385
Si Si3 0.830274 0.778947 0.643032
Si Si4 0.685096 0.349210 0.664512
Si Si5 0.892527 0.569614 0.173238
O O1 0.210951 0.736323 0.087504
O O2 0.140733 0.017588 0.086730
O O3 0.122061 0.876422 0.922593
O O4 0.017994 0.794572 0.030372
O O5 0.141566 0.688410 0.609794
O O6 0.120169 0.639667 0.430721
O O7 0.000000 0.500000 0.500000
O O8 0.849797 0.867310 0.744024
O O9 0.882776 0.613442 0.665180
O O10 0.806027 0.352550 0.703690
O O11 0.000000 0.616249 0.250000
#
# Coordination Sequence:
#
# PCOD8147718 Si02
#       5
#     8   8   8   8   8
#     4  10  23  45  68 104 138 184 235 287 345 426
#     4  12  23  43  71 102 140 178 233 293 352 418
#     4  10  22  44  71  97 141 187 228 286 358 408
#     4  11  25  44  71 103 142 185 234 288 350 421
#     4  11  23  44  68 103 136 183 237 284 348 420
#
# _framework density 23.275853999999999
#
# number of rings (size 3 to 8) (size 9 to 14) (size 15 to 20)
#    0.000    1.200    2.000    3.600    0.000    1.600 
#   10.800    0.000    0.000    0.000    0.000    0.000 
#    0.000    0.000    0.000    0.000    0.000    0.000 
#
# Total GULP energy -248065.473882 kJ/mol
# GULP energy per Si atom -12403.273694 kJ/mol
# Density = 2.322288 g / cm^3
# Si number density = 23.275854 Si / 1000 Ang^3
#
#
#
# Elastic Constant Matrix: (Units=GPa)
#
#
# Indices 1 2 3 4 5 6 
#
# 1 104.7640 51.6991 46.8291 0.0000 -4.1848 0.0000
# 2 51.6991 72.2354 59.6279 0.0000 -11.2270 0.0000
# 3 46.8291 59.6279 164.7826 0.0000 -32.7802 0.0000
# 4 0.0000 0.0000 0.0000 35.8182 0.0000 -5.3372
# 5 -4.1848 -11.2270 -32.7802 0.0000 56.8560 0.0000
# 6 0.0000 0.0000 0.0000 -5.3372 0.0000 38.3914
#
#
#
# Elastic Compliance Matrix: (Units=1/GPa)
#
#
# Indices 1 2 3 4 5 6 
#
# 1 0.014886 -0.010195 -0.000818 0.000000 -0.001389 0.000000
# 2 -0.010195 0.026726 -0.006634 0.000000 0.000702 0.000000
# 3 -0.000818 -0.006634 0.009521 0.000000 0.004119 0.000000
# 4 0.000000 0.000000 0.000000 0.028509 0.000000 0.003963
# 5 -0.001389 0.000702 0.004119 0.000000 0.020000 0.000000
# 6 0.000000 0.000000 0.000000 0.003963 0.000000 0.026599
#
#
# Mechanical properties :
#
#
# Convention : Reuss Voigt Hill
#
# Bulk Modulus (GPa) = 63.13307 73.12156 68.12732
# Shear Modulus (GPa) = 29.97362 38.45484 34.21423
#
# Velocity S-wave (km/s) = 3.59242 4.06906 3.83815
# Velocity P-wave (km/s) = 6.66259 7.31845 6.99821
#
# Compressibility (1/GPa) = 0.01583956
#
# Stress axis : x y z
#
# Youngs Moduli (GPa) = 67.17536 37.41739 105.03253
#
# Poissons Ratio (x) = 0.38148 0.08587
# Poissons Ratio (y) = 0.68487 0.69677
# Poissons Ratio (z) = 0.05492 0.24822
#
# Static dielectric constant tensor:
#      x y z
#    x 4.481610 0.000000 -0.075570 
#    y 0.000000 3.968340 0.000000 
#    z -0.075570 0.000000 4.399950 
# 
# 
# High freq. dielectric constant tensor:
#      x y z
#    x 1.932820 0.000000 -0.001390 
#    y 0.000000 1.897740 0.000000 
#    z -0.001390 0.000000 1.930900 
# 
# From -- ./inp_files/150779.got.cif
#   From: 2010.06.25/outbox.cif.g09.slc.cpg/sg15_76_cif.got.tgz:150779.got - 2010.06.28 07:06:18.
