data_PCOD8147880
_publ_section_title
;
Structure prediction by ZEFSAII (Michael W. Deem and Ramdas Pophale) SiO2 
 PCOD8147880
Probable space group: C 2/C
;
_chemical_formula_sum "Si O2"
_cell_formula_units_Z 44
_cell_length_a 10.556753
_cell_length_b 14.575111
_cell_length_c 14.345108
_cell_angle_alpha 90.000000
_cell_angle_beta 59.401529
_cell_angle_gamma 90.000000
_cell_volume 1899.878884
_symmetry_space_group_name_H-M "C 2/C"
_symmetry_group_IT_number 15
_symmetry_cell_setting 'monoclinic'
loop_
_space_group_symop_operation_xyz
x,y,z
-x,y,1/2-z
-x,-y,-z
x,-y,1/2+z
1/2+x,1/2+y,z
1/2-x,1/2+y,1/2-z
1/2-x,1/2-y,-z
1/2+x,1/2-y,1/2+z
loop_
_atom_site_type_symbol
_atom_site_label
_atom_site_fract_x
_atom_site_fract_y
_atom_site_fract_z
Si Si1 0.336032 0.006968 0.294681
Si Si2 0.282222 0.182607 0.732741
Si Si3 0.000000 0.907837 0.250000
Si Si4 0.369859 0.188187 0.508602
Si Si5 0.221267 0.997884 0.040114
Si Si6 0.809013 0.644811 0.145800
O O1 0.500000 0.046026 0.250000
O O2 0.358136 0.905181 0.248564
O O3 0.228022 0.003616 0.424978
O O4 0.264953 0.072666 0.243407
O O5 0.120975 0.157429 0.751998
O O6 0.379181 0.223579 0.611237
O O7 0.286673 0.263232 0.807895
O O8 0.938658 0.973432 0.356672
O O9 0.250000 0.250000 0.500000
O O10 0.527764 0.186832 0.401757
O O11 0.328050 0.081716 0.534927
O O12 0.279938 0.095703 0.057470
#
# Coordination Sequence:
#
# PCOD8147880 Si02
#       6
#     8   8   4   8   8   8
#     4  12  24  43  70  97 132 180 225 273 346 409
#     4  11  25  41  64 101 132 174 226 282 335 402
#     4  10  22  46  62  96 136 172 234 282 320 396
#     4  11  21  40  68 100 131 173 230 289 329 389
#     4  11  23  41  68  96 137 182 219 278 339 407
#     4  12  23  44  67 101 137 178 229 279 345 398
#
# _framework density 23.159372000000001
#
# number of rings (size 3 to 8) (size 9 to 14) (size 15 to 20)
#    0.000    0.727    5.455    4.909    1.273    1.455 
#    4.909    0.000    0.000    0.000    0.000    0.000 
#    0.000    0.000    0.000    0.000    0.000    0.000 
#
# Total GULP energy -272654.935159 kJ/mol
# GULP energy per Si atom -12393.406144 kJ/mol
# Density = 2.310666 g / cm^3
# Si number density = 23.159372 Si / 1000 Ang^3
#
#
#
# Elastic Constant Matrix: (Units=GPa)
#
#
# Indices 1 2 3 4 5 6 
#
# 1 20.8777 4.2186 14.9331 0.0000 3.1806 0.0000
# 2 4.2186 103.9582 24.3527 0.0000 -5.5858 0.0000
# 3 14.9331 24.3527 167.8173 0.0000 0.8436 0.0000
# 4 0.0000 0.0000 0.0000 44.3470 0.0000 9.3206
# 5 3.1806 -5.5858 0.8436 0.0000 18.7050 0.0000
# 6 0.0000 0.0000 0.0000 9.3206 0.0000 35.6264
#
#
#
# Elastic Compliance Matrix: (Units=1/GPa)
#
#
# Indices 1 2 3 4 5 6 
#
# 1 0.052793 -0.001605 -0.004418 0.000000 -0.009257 0.000000
# 2 -0.001605 0.010182 -0.001352 0.000000 0.003375 0.000000
# 3 -0.004418 -0.001352 0.006548 0.000000 0.000052 0.000000
# 4 0.000000 0.000000 0.000000 0.023861 0.000000 -0.006243
# 5 -0.009257 0.003375 0.000052 0.000000 0.056041 0.000000
# 6 0.000000 0.000000 0.000000 -0.006243 0.000000 0.029702
#
#
# Mechanical properties :
#
#
# Convention : Reuss Voigt Hill
#
# Bulk Modulus (GPa) = 18.25701 42.18468 30.22084
# Shear Modulus (GPa) = 23.56984 36.34560 29.95772
#
# Velocity S-wave (km/s) = 3.19364 3.96582 3.60049
# Velocity P-wave (km/s) = 4.63675 6.26297 5.51018
#
# Compressibility (1/GPa) = 0.05477349
#
# Stress axis : x y z
#
# Youngs Moduli (GPa) = 18.94196 98.20914 152.72011
#
# Poissons Ratio (x) = 0.15760 0.67477
# Poissons Ratio (y) = 0.03040 0.20644
# Poissons Ratio (z) = 0.08369 0.13276
#
# Static dielectric constant tensor:
#      x y z
#    x 3.691230 0.000000 -0.135560 
#    y 0.000000 4.131120 0.000000 
#    z -0.135560 0.000000 4.956450 
# 
# 
# High freq. dielectric constant tensor:
#      x y z
#    x 1.875800 0.000000 -0.001970 
#    y 0.000000 1.917770 0.000000 
#    z -0.001970 0.000000 1.936210 
# 
# From -- ./inp_files/143349.got.cif
#   From: 2010.06.25/outbox.cif.g09.slc.cpg/sg15_72_cif.got.tgz:143349.got - 2010.06.28 07:06:18.
