data_PCOD8147118
_publ_section_title
;
Structure prediction by ZEFSAII (Michael W. Deem and Ramdas Pophale) SiO2 
 PCOD8147118
Probable space group: C 2/C
;
_chemical_formula_sum "Si O2"
_cell_formula_units_Z 36
_cell_length_a 14.238457
_cell_length_b 14.242855
_cell_length_c 12.672248
_cell_angle_alpha 90.000000
_cell_angle_beta 143.252868
_cell_angle_gamma 90.000000
_cell_volume 1537.522183
_symmetry_space_group_name_H-M "C 2/C"
_symmetry_group_IT_number 15
_symmetry_cell_setting 'monoclinic'
loop_
_space_group_symop_operation_xyz
x,y,z
-x,y,1/2-z
-x,-y,-z
x,-y,1/2+z
1/2+x,1/2+y,z
1/2-x,1/2+y,1/2-z
1/2-x,1/2-y,-z
1/2+x,1/2-y,1/2+z
loop_
_atom_site_type_symbol
_atom_site_label
_atom_site_fract_x
_atom_site_fract_y
_atom_site_fract_z
Si Si1 0.500000 0.556118 0.250000
Si Si2 0.107615 0.876103 0.254456
Si Si3 0.494299 0.318919 0.921777
Si Si4 0.562532 0.928932 0.919072
Si Si5 0.863996 0.624358 0.432085
O O1 0.610101 0.488811 0.277643
O O2 0.410379 0.621407 0.082141
O O3 0.294072 0.855332 0.426639
O O4 0.000000 0.827437 0.250000
O O5 0.040712 0.850177 0.080808
O O6 0.312745 0.338929 0.734146
O O7 0.526495 0.209855 0.931686
O O8 0.500000 0.900888 0.750000
O O9 0.417368 0.910116 0.865229
O O10 0.612656 0.038318 0.966576
#
# Coordination Sequence:
#
# PCOD8147118 Si02
#       5
#     4   8   8   8   8
#     4  10  24  38  74  94 130 178 208 278 316 396
#     4  10  22  42  71  95 129 174 214 270 324 393
#     4  12  24  45  65 103 132 171 227 261 335 381
#     4  11  24  44  67  98 132 174 219 267 334 385
#     4  11  26  41  67  97 135 173 213 282 312 397
#
# _framework density 23.414296
#
# number of rings (size 3 to 8) (size 9 to 14) (size 15 to 20)
#    0.667    0.444    2.222    3.333    1.556    5.333 
#    0.000    4.444    0.000    0.000    0.000    0.000 
#    0.000    0.000    0.000    0.000    0.000    0.000 
#
# Total GULP energy -223006.598495 kJ/mol
# GULP energy per Si atom -12389.255472 kJ/mol
# Density = 2.336100 g / cm^3
# Si number density = 23.414296 Si / 1000 Ang^3
#
#
#
# Elastic Constant Matrix: (Units=GPa)
#
#
# Indices 1 2 3 4 5 6 
#
# 1 46.1345 3.5869 15.2488 0.0000 2.0919 0.0000
# 2 3.5869 63.7640 2.8953 0.0000 15.9942 0.0000
# 3 15.2488 2.8953 93.1435 0.0000 4.3510 0.0000
# 4 0.0000 0.0000 0.0000 26.7389 0.0000 13.2762
# 5 2.0919 15.9942 4.3510 0.0000 47.3730 0.0000
# 6 0.0000 0.0000 0.0000 13.2762 0.0000 13.8312
#
#
#
# Elastic Compliance Matrix: (Units=1/GPa)
#
#
# Indices 1 2 3 4 5 6 
#
# 1 0.023000 -0.001044 -0.003718 0.000000 -0.000322 0.000000
# 2 -0.001044 0.017188 -0.000095 0.000000 -0.005748 0.000000
# 3 -0.003718 -0.000095 0.011387 0.000000 -0.000850 0.000000
# 4 0.000000 0.000000 0.000000 0.071452 0.000000 -0.068585
# 5 -0.000322 -0.005748 -0.000850 0.000000 0.023142 0.000000
# 6 0.000000 0.000000 0.000000 -0.068585 0.000000 0.138133
#
#
# Mechanical properties :
#
#
# Convention : Reuss Voigt Hill
#
# Bulk Modulus (GPa) = 23.88837 27.38932 25.63884
# Shear Modulus (GPa) = 16.23532 29.67600 22.95566
#
# Velocity S-wave (km/s) = 2.63609 3.56396 3.13455
# Velocity P-wave (km/s) = 4.41474 5.35340 4.90657
#
# Compressibility (1/GPa) = 0.04186138
#
# Stress axis : x y z
#
# Youngs Moduli (GPa) = 43.47743 58.18107 87.81603
#
# Poissons Ratio (x) = 0.06076 0.32650
# Poissons Ratio (y) = 0.04541 0.00832
# Poissons Ratio (z) = 0.16165 0.00551
#
# Static dielectric constant tensor:
#      x y z
#    x 4.448840 0.000000 0.035680 
#    y 0.000000 4.349930 0.000000 
#    z 0.035680 0.000000 3.996400 
# 
# 
# High freq. dielectric constant tensor:
#      x y z
#    x 1.942570 0.000000 -0.000920 
#    y 0.000000 1.928670 0.000000 
#    z -0.000920 0.000000 1.911850 
# 
# From -- ./inp_files/96786.got.cif
#   From: 2010.06.25/outbox.cif.g09.slc.cpg/sg15_49_cif.got.tgz:96786.got - 2010.06.28 07:06:18.
