data_PCOD8147774
_publ_section_title
;
Structure prediction by ZEFSAII (Michael W. Deem and Ramdas Pophale) SiO2 
 PCOD8147774
Probable space group: C 2/C
;
_chemical_formula_sum "Si O2"
_cell_formula_units_Z 48
_cell_length_a 29.727377
_cell_length_b 11.437017
_cell_length_c 20.416612
_cell_angle_alpha 90.000000
_cell_angle_beta 20.423216
_cell_angle_gamma 90.000000
_cell_volume 2422.247283
_symmetry_space_group_name_H-M "C 2/C"
_symmetry_group_IT_number 15
_symmetry_cell_setting 'monoclinic'
loop_
_space_group_symop_operation_xyz
x,y,z
-x,y,1/2-z
-x,-y,-z
x,-y,1/2+z
1/2+x,1/2+y,z
1/2-x,1/2+y,1/2-z
1/2-x,1/2-y,-z
1/2+x,1/2-y,1/2+z
loop_
_atom_site_type_symbol
_atom_site_label
_atom_site_fract_x
_atom_site_fract_y
_atom_site_fract_z
Si Si1 0.175837 0.572430 0.767345
Si Si2 0.891869 0.518938 0.348828
Si Si3 0.866762 0.094290 0.736519
Si Si4 0.577976 0.860556 0.824921
Si Si5 0.066827 0.080943 0.003713
Si Si6 0.377092 0.206016 0.792593
O O1 0.141568 0.438352 0.796084
O O2 0.319831 0.574116 0.598267
O O3 0.166694 0.652029 0.716090
O O4 0.076883 0.626105 0.955941
O O5 0.758949 0.523779 0.569518
O O6 0.877484 0.603200 0.307209
O O7 0.933692 0.391317 0.264747
O O8 0.000000 0.565949 0.250000
O O9 0.866820 0.231382 0.747553
O O10 0.876040 0.079970 0.646479
O O11 0.980734 0.035991 0.623904
O O12 0.983332 0.195541 0.134335
O O13 0.250000 0.250000 0.000000
#
# Coordination Sequence:
#
# PCOD8147774 Si02
#       6
#     8   8   8   8   8   8
#     4  10  23  42  66  95 129 178 215 266 338 387
#     4  11  24  40  67  95 128 172 213 267 334 385
#     4  11  23  44  63  98 131 167 223 274 315 400
#     4  10  22  45  63  92 136 167 219 273 323 397
#     4  11  24  40  69  96 131 174 220 269 331 392
#     4  11  23  43  62  95 134 163 216 273 315 390
#
# _framework density 19.816309
#
# number of rings (size 3 to 8) (size 9 to 14) (size 15 to 20)
#    0.000    1.333    3.333    1.500    2.333    2.667 
#    0.000    0.000    0.000    0.000    0.000    0.000 
#    0.000    0.000    0.000    0.000    0.000    0.000 
#
# Total GULP energy -297556.352767 kJ/mol
# GULP energy per Si atom -12398.181365 kJ/mol
# Density = 1.977121 g / cm^3
# Si number density = 19.816309 Si / 1000 Ang^3
#
#
#
# Elastic Constant Matrix: (Units=GPa)
#
#
# Indices 1 2 3 4 5 6 
#
# 1 79.7424 41.1710 58.7150 0.0000 -18.0378 0.0000
# 2 41.1710 117.0959 35.1099 0.0000 -4.2168 0.0000
# 3 58.7150 35.1099 129.7627 0.0000 2.2196 0.0000
# 4 0.0000 0.0000 0.0000 31.6062 0.0000 -0.8920
# 5 -18.0378 -4.2168 2.2196 0.0000 39.9376 0.0000
# 6 0.0000 0.0000 0.0000 -0.8920 0.0000 5.2206
#
#
#
# Elastic Compliance Matrix: (Units=1/GPa)
#
#
# Indices 1 2 3 4 5 6 
#
# 1 0.025543 -0.005486 -0.010270 0.000000 0.011528 0.000000
# 2 -0.005486 0.010523 -0.000342 0.000000 -0.001348 0.000000
# 3 -0.010270 -0.000342 0.012538 0.000000 -0.005371 0.000000
# 4 0.000000 0.000000 0.000000 0.031793 0.000000 0.005432
# 5 0.011528 -0.001348 -0.005371 0.000000 0.030402 0.000000
# 6 0.000000 0.000000 0.000000 0.005432 0.000000 0.192476
#
#
# Mechanical properties :
#
#
# Convention : Reuss Voigt Hill
#
# Bulk Modulus (GPa) = 60.95017 66.28808 63.61912
# Shear Modulus (GPa) = 14.66537 28.12655 21.39596
#
# Velocity S-wave (km/s) = 2.72337 3.77153 3.28947
# Velocity P-wave (km/s) = 6.38070 7.24499 6.82653
#
# Compressibility (1/GPa) = 0.01640685
#
# Stress axis : x y z
#
# Youngs Moduli (GPa) = 39.15021 95.03086 79.75871
#
# Poissons Ratio (x) = 0.52136 0.81915
# Poissons Ratio (y) = 0.21479 0.02725
# Poissons Ratio (z) = 0.40208 0.03247
#
# Static dielectric constant tensor:
#      x y z
#    x 3.656640 -0.000010 0.291940 
#    y -0.000010 23.159200 -0.000020 
#    z 0.291940 -0.000020 3.825310 
# 
# 
# High freq. dielectric constant tensor:
#      x y z
#    x 1.773440 0.000000 0.014330 
#    y 0.000000 1.781100 0.000000 
#    z 0.014330 0.000000 1.783710 
# 
# From -- ./inp_files/103743.got.cif
#   From: 2010.06.25/outbox.cif.g09.slc.cpg/sg15_52_cif.got.tgz:103743.got - 2010.06.28 07:06:18.
