data_PCOD8147418
_publ_section_title
;
Structure prediction by ZEFSAII (Michael W. Deem and Ramdas Pophale) SiO2 
 PCOD8147418
Probable space group: C 2/C
;
_chemical_formula_sum "Si O2"
_cell_formula_units_Z 40
_cell_length_a 8.295747
_cell_length_b 15.281905
_cell_length_c 14.764516
_cell_angle_alpha 90.000000
_cell_angle_beta 105.806791
_cell_angle_gamma 90.000000
_cell_volume 1800.989222
_symmetry_space_group_name_H-M "C 2/C"
_symmetry_group_IT_number 15
_symmetry_cell_setting 'monoclinic'
loop_
_space_group_symop_operation_xyz
x,y,z
-x,y,1/2-z
-x,-y,-z
x,-y,1/2+z
1/2+x,1/2+y,z
1/2-x,1/2+y,1/2-z
1/2-x,1/2-y,-z
1/2+x,1/2-y,1/2+z
loop_
_atom_site_type_symbol
_atom_site_label
_atom_site_fract_x
_atom_site_fract_y
_atom_site_fract_z
Si Si1 0.436754 0.418827 0.049689
Si Si2 0.434899 0.927089 0.558646
Si Si3 0.563975 0.238039 0.003492
Si Si4 0.500000 0.363320 0.250000
Si Si5 0.500000 0.015209 0.750000
Si Si6 0.135174 0.317486 0.200106
O O1 0.470526 0.430328 0.161794
O O2 0.500000 0.500000 0.000000
O O3 0.245183 0.399463 0.003333
O O4 0.531600 0.330602 0.041768
O O5 0.554863 0.841637 0.574266
O O6 0.500000 0.000000 0.500000
O O7 0.414224 0.956882 0.659537
O O8 0.428986 0.213144 0.906599
O O9 0.750000 0.250000 0.000000
O O10 0.335693 0.298753 0.239382
O O11 0.368631 0.077085 0.783775
O O12 0.000000 0.273384 0.250000
#
# Coordination Sequence:
#
# PCOD8147418 Si02
#       6
#     8   8   8   4   4   8
#     4  12  27  45  72 107 145 191 253 300 370 444
#     4  12  22  45  72 103 144 191 235 299 367 431
#     4  12  25  46  70 102 149 191 243 309 362 434
#     4  12  22  45  77  96 152 192 238 311 369 430
#     4  10  22  43  71 106 148 186 240 297 367 440
#     4  10  22  44  70 106 142 191 241 298 368 439
#
# _framework density 22.210014999999999
#
# number of rings (size 3 to 8) (size 9 to 14) (size 15 to 20)
#    0.600    0.000    4.000    4.200    0.000    0.800 
#    5.400    0.000    0.000    0.000    0.000    0.000 
#    0.000    0.000    0.000    0.000    0.000    0.000 
#
# Total GULP energy -247775.815802 kJ/mol
# GULP energy per Si atom -12388.790790 kJ/mol
# Density = 2.215946 g / cm^3
# Si number density = 22.210015 Si / 1000 Ang^3
#
#
#
# Elastic Constant Matrix: (Units=GPa)
#
#
# Indices 1 2 3 4 5 6 
#
# 1 151.4122 31.5133 26.4513 0.0000 12.7997 0.0000
# 2 31.5133 135.9332 35.0419 0.0000 -15.0810 0.0000
# 3 26.4513 35.0419 160.1655 0.0000 -3.1269 0.0000
# 4 0.0000 0.0000 0.0000 32.4647 0.0000 1.6425
# 5 12.7997 -15.0810 -3.1269 0.0000 38.5307 0.0000
# 6 0.0000 0.0000 0.0000 1.6425 0.0000 25.1424
#
#
#
# Elastic Compliance Matrix: (Units=1/GPa)
#
#
# Indices 1 2 3 4 5 6 
#
# 1 0.007421 -0.001855 -0.000883 0.000000 -0.003263 0.000000
# 2 -0.001855 0.008602 -0.001500 0.000000 0.003861 0.000000
# 3 -0.000883 -0.001500 0.006723 0.000000 0.000252 0.000000
# 4 0.000000 0.000000 0.000000 0.030905 0.000000 -0.002019
# 5 -0.003263 0.003861 0.000252 0.000000 0.028569 0.000000
# 6 0.000000 0.000000 0.000000 -0.002019 0.000000 0.039905
#
#
# Mechanical properties :
#
#
# Convention : Reuss Voigt Hill
#
# Bulk Modulus (GPa) = 70.08546 70.39155 70.23850
# Shear Modulus (GPa) = 36.93948 42.86117 39.90033
#
# Velocity S-wave (km/s) = 4.08265 4.39773 4.24311
# Velocity P-wave (km/s) = 7.33814 7.58611 7.46316
#
# Compressibility (1/GPa) = 0.01426830
#
# Stress axis : x y z
#
# Youngs Moduli (GPa) = 134.75955 116.25751 148.75214
#
# Poissons Ratio (x) = 0.21561 0.13142
# Poissons Ratio (y) = 0.24992 0.22317
# Poissons Ratio (z) = 0.11905 0.17442
#
# Static dielectric constant tensor:
#      x y z
#    x 4.136490 0.000000 -0.024270 
#    y 0.000000 3.822070 0.000000 
#    z -0.024270 0.000000 4.146790 
# 
# 
# High freq. dielectric constant tensor:
#      x y z
#    x 1.893000 0.000000 -0.006300 
#    y 0.000000 1.847500 0.000000 
#    z -0.006300 0.000000 1.886080 
# 
# From -- ./inp_files/133319.got.cif
#   From: 2010.06.25/outbox.cif.g09.slc.cpg/sg15_67_cif.got.tgz:133319.got - 2010.06.28 07:06:18.
