data_PCOD8147105
_publ_section_title
;
Structure prediction by ZEFSAII (Michael W. Deem and Ramdas Pophale) SiO2 
 PCOD8147105
Probable space group: C 2/C
;
_chemical_formula_sum "Si O2"
_cell_formula_units_Z 48
_cell_length_a 27.167043
_cell_length_b 13.983859
_cell_length_c 8.379966
_cell_angle_alpha 90.000000
_cell_angle_beta 39.709828
_cell_angle_gamma 90.000000
_cell_volume 2033.969350
_symmetry_space_group_name_H-M "C 2/C"
_symmetry_group_IT_number 15
_symmetry_cell_setting 'monoclinic'
loop_
_space_group_symop_operation_xyz
x,y,z
-x,y,1/2-z
-x,-y,-z
x,-y,1/2+z
1/2+x,1/2+y,z
1/2-x,1/2+y,1/2-z
1/2-x,1/2-y,-z
1/2+x,1/2-y,1/2+z
loop_
_atom_site_type_symbol
_atom_site_label
_atom_site_fract_x
_atom_site_fract_y
_atom_site_fract_z
Si Si1 0.586607 0.964264 0.268569
Si Si2 0.161839 0.198238 0.566463
Si Si3 0.838792 0.304052 0.613839
Si Si4 0.835680 0.115911 0.444237
Si Si5 0.837666 0.614445 0.612238
Si Si6 0.411354 0.459441 0.442839
O O1 0.606468 0.912957 0.383426
O O2 0.500000 0.000000 0.500000
O O3 0.604695 0.891727 0.074731
O O4 0.638306 0.058076 0.109006
O O5 0.131750 0.250752 0.800713
O O6 0.250321 0.161151 0.362730
O O7 0.156256 0.272875 0.434623
O O8 0.105818 0.109209 0.667068
O O9 0.840928 0.228676 0.463597
O O10 0.748495 0.084532 0.628487
O O11 0.868559 0.059501 0.516639
O O12 0.882749 0.092690 0.170683
O O13 0.500000 0.480778 0.250000
#
# Coordination Sequence:
#
# PCOD8147105 Si02
#       6
#     8   8   8   8   8   8
#     4  12  25  42  64  98 142 178 219 277 343 406
#     4  10  22  42  70  98 129 172 224 279 327 394
#     4  10  22  43  70  98 128 173 226 272 329 396
#     4  11  23  42  69  94 128 173 221 275 328 402
#     4  11  23  41  66  95 127 175 226 270 329 401
#     4  12  25  42  64  97 133 167 213 274 343 400
#
# _framework density 23.599174999999999
#
# number of rings (size 3 to 8) (size 9 to 14) (size 15 to 20)
#    0.000    1.000    0.000    7.000    0.000    8.000 
#    0.000    3.333    0.000    0.000    0.000    0.000 
#    0.000    0.000    0.000    0.000    0.000    0.000 
#
# Total GULP energy -297681.175372 kJ/mol
# GULP energy per Si atom -12403.382307 kJ/mol
# Density = 2.354546 g / cm^3
# Si number density = 23.599175 Si / 1000 Ang^3
#
#
#
# Elastic Constant Matrix: (Units=GPa)
#
#
# Indices 1 2 3 4 5 6 
#
# 1 88.5323 2.6726 18.7548 0.0000 -18.9369 0.0000
# 2 2.6726 78.5837 19.0461 0.0000 -23.8323 0.0000
# 3 18.7548 19.0461 103.7040 0.0000 -17.2642 0.0000
# 4 0.0000 0.0000 0.0000 39.1591 0.0000 8.0771
# 5 -18.9369 -23.8323 -17.2642 0.0000 40.7482 0.0000
# 6 0.0000 0.0000 0.0000 8.0771 0.0000 28.5334
#
#
#
# Elastic Compliance Matrix: (Units=1/GPa)
#
#
# Indices 1 2 3 4 5 6 
#
# 1 0.012961 0.001909 -0.001620 0.000000 0.006454 0.000000
# 2 0.001909 0.015952 -0.001694 0.000000 0.009499 0.000000
# 3 -0.001620 -0.001694 0.010712 0.000000 0.002795 0.000000
# 4 0.000000 0.000000 0.000000 0.027120 0.000000 -0.007677
# 5 0.006454 0.009499 0.002795 0.000000 0.034280 0.000000
# 6 0.000000 0.000000 0.000000 -0.007677 0.000000 0.037220
#
#
# Mechanical properties :
#
#
# Convention : Reuss Voigt Hill
#
# Bulk Modulus (GPa) = 27.16222 39.08521 33.12372
# Shear Modulus (GPa) = 32.61005 37.04457 34.82731
#
# Velocity S-wave (km/s) = 3.72133 3.96629 3.84576
# Velocity P-wave (km/s) = 5.47715 6.12971 5.81260
#
# Compressibility (1/GPa) = 0.03681584
#
# Stress axis : x y z
#
# Youngs Moduli (GPa) = 77.15255 62.68921 93.35147
#
# Poissons Ratio (x) = -0.11968 0.15126
# Poissons Ratio (y) = -0.14729 0.15809
# Poissons Ratio (z) = 0.12501 0.10616
#
# Static dielectric constant tensor:
#      x y z
#    x 4.253160 0.000000 0.043020 
#    y 0.000000 4.464250 0.000000 
#    z 0.043020 0.000000 4.227070 
# 
# 
# High freq. dielectric constant tensor:
#      x y z
#    x 1.933970 0.000000 0.015690 
#    y 0.000000 1.947470 0.000000 
#    z 0.015690 0.000000 1.929030 
# 
# From -- ./inp_files/66407.got.cif
#   From: 2010.06.25/outbox.cif.g09.slc.cpg/sg15_34_cif.got.tgz:66407.got - 2010.06.28 07:06:18.
