data_PCOD8147171
_publ_section_title
;
Structure prediction by ZEFSAII (Michael W. Deem and Ramdas Pophale) SiO2 
 PCOD8147171
Probable space group: C 2/C
;
_chemical_formula_sum "Si O2"
_cell_formula_units_Z 28
_cell_length_a 7.466684
_cell_length_b 28.021452
_cell_length_c 5.338739
_cell_angle_alpha 90.000000
_cell_angle_beta 70.053250
_cell_angle_gamma 90.000000
_cell_volume 1050.000751
_symmetry_space_group_name_H-M "C 2/C"
_symmetry_group_IT_number 15
_symmetry_cell_setting 'monoclinic'
loop_
_space_group_symop_operation_xyz
x,y,z
-x,y,1/2-z
-x,-y,-z
x,-y,1/2+z
1/2+x,1/2+y,z
1/2-x,1/2+y,1/2-z
1/2-x,1/2-y,-z
1/2+x,1/2-y,1/2+z
loop_
_atom_site_type_symbol
_atom_site_label
_atom_site_fract_x
_atom_site_fract_y
_atom_site_fract_z
Si Si1 0.000000 0.636231 0.750000
Si Si2 0.294242 0.391176 0.742696
Si Si3 0.288596 0.694970 0.939391
Si Si4 0.282246 0.477068 0.410807
O O1 0.862880 0.672825 0.674118
O O2 0.125493 0.599693 0.521541
O O3 0.500000 0.406853 0.750000
O O4 0.277106 0.334455 0.703603
O O5 0.258017 0.421150 0.502248
O O6 0.500000 0.685816 0.750000
O O7 0.250000 0.750000 0.000000
O O8 0.500000 0.490795 0.250000
O O9 0.189944 0.508272 0.685750
#
# Coordination Sequence:
#
# PCOD8147171 Si02
#       4
#     4   8   8   8
#     4  12  28  48  74 110 158 200 260 324 392 466
#     4  12  25  46  77 109 152 206 259 324 393 472
#     4  12  27  48  77 111 153 203 260 323 393 469
#     4  10  22  42  76 115 154 205 265 327 398 470
#
# _framework density 26.666650000000001
#
# number of rings (size 3 to 8) (size 9 to 14) (size 15 to 20)
#    0.000    0.571    2.857    6.000    6.000    2.286 
#    0.000    1.429    0.000    0.000    0.000    0.000 
#    0.000    0.000    0.000    0.000    0.000    0.000 
#
# Total GULP energy -173485.071182 kJ/mol
# GULP energy per Si atom -12391.790799 kJ/mol
# Density = 2.660596 g / cm^3
# Si number density = 26.666650 Si / 1000 Ang^3
#
#
#
# Elastic Constant Matrix: (Units=GPa)
#
#
# Indices 1 2 3 4 5 6 
#
# 1 127.7133 14.6517 45.1891 0.0000 -33.1750 0.0000
# 2 14.6517 179.2344 59.2369 0.0000 -0.4290 0.0000
# 3 45.1891 59.2369 203.2917 0.0000 -10.6122 0.0000
# 4 0.0000 0.0000 0.0000 124.6092 0.0000 32.0241
# 5 -33.1750 -0.4290 -10.6122 0.0000 30.1278 0.0000
# 6 0.0000 0.0000 0.0000 32.0241 0.0000 18.7321
#
#
#
# Elastic Compliance Matrix: (Units=1/GPa)
#
#
# Indices 1 2 3 4 5 6 
#
# 1 0.011703 -0.000308 -0.001874 0.000000 0.012223 0.000000
# 2 -0.000308 0.006191 -0.001781 0.000000 -0.000879 0.000000
# 3 -0.001874 -0.001781 0.005853 0.000000 -0.000027 0.000000
# 4 0.000000 0.000000 0.000000 0.014314 0.000000 -0.024471
# 5 0.012223 -0.000879 -0.000027 0.000000 0.046629 0.000000
# 6 0.000000 0.000000 0.000000 -0.024471 0.000000 0.095220
#
#
# Mechanical properties :
#
#
# Convention : Reuss Voigt Hill
#
# Bulk Modulus (GPa) = 63.20640 83.15498 73.18069
# Shear Modulus (GPa) = 25.89187 60.77127 43.33157
#
# Velocity S-wave (km/s) = 3.11938 4.77899 4.03542
# Velocity P-wave (km/s) = 6.06036 7.85509 7.01535
#
# Compressibility (1/GPa) = 0.01582118
#
# Stress axis : x y z
#
# Youngs Moduli (GPa) = 85.44583 161.52158 170.84668
#
# Poissons Ratio (x) = 0.04978 0.32011
# Poissons Ratio (y) = 0.02633 0.30434
# Poissons Ratio (z) = 0.16010 0.28773
#
# Static dielectric constant tensor:
#      x y z
#    x 4.861480 0.000000 -0.024840 
#    y 0.000000 4.665120 0.000000 
#    z -0.024840 0.000000 5.514200 
# 
# 
# High freq. dielectric constant tensor:
#      x y z
#    x 2.073580 0.000000 -0.007550 
#    y 0.000000 2.076400 0.000000 
#    z -0.007550 0.000000 2.087030 
# 
# From -- ./inp_files/2273.got.cif
#   From: 2010.06.25/outbox.cif.g09.slc.cpg/sg15_2_cif.got.tgz:2273.got - 2010.06.28 07:06:18.
