data_PCOD8147509
_publ_section_title
;
Structure prediction by ZEFSAII (Michael W. Deem and Ramdas Pophale) SiO2 
 PCOD8147509
Probable space group: C 2/C
;
_chemical_formula_sum "Si O2"
_cell_formula_units_Z 32
_cell_length_a 9.801695
_cell_length_b 9.231270
_cell_length_c 19.968154
_cell_angle_alpha 90.000000
_cell_angle_beta 47.606101
_cell_angle_gamma 90.000000
_cell_volume 1334.341563
_symmetry_space_group_name_H-M "C 2/C"
_symmetry_group_IT_number 15
_symmetry_cell_setting 'monoclinic'
loop_
_space_group_symop_operation_xyz
x,y,z
-x,y,1/2-z
-x,-y,-z
x,-y,1/2+z
1/2+x,1/2+y,z
1/2-x,1/2+y,1/2-z
1/2-x,1/2-y,-z
1/2+x,1/2-y,1/2+z
loop_
_atom_site_type_symbol
_atom_site_label
_atom_site_fract_x
_atom_site_fract_y
_atom_site_fract_z
Si Si1 0.859547 0.345894 0.911027
Si Si2 0.715489 0.321202 0.310092
Si Si3 0.065695 0.909709 0.914514
Si Si4 0.899536 0.673572 0.889615
O O1 0.753706 0.326936 0.874936
O O2 0.070825 0.298618 0.833360
O O3 0.856966 0.515193 0.933791
O O4 0.750000 0.250000 0.000000
O O5 0.616755 0.479108 0.338107
O O6 0.887628 0.317840 0.204223
O O7 0.770254 0.289578 0.369317
O O8 0.898910 0.799338 0.948028
O O9 0.000000 0.000000 0.000000
#
# Coordination Sequence:
#
# PCOD8147509 Si02
#       4
#     8   8   8   8
#     4  11  23  42  65 100 133 169 225 280 333 402
#     4  10  22  44  64  96 131 174 228 274 338 407
#     4  11  23  43  65  97 135 171 221 284 332 397
#     4  10  24  41  68  92 134 181 220 278 342 399
#
# _framework density 23.981864999999999
#
# number of rings (size 3 to 8) (size 9 to 14) (size 15 to 20)
#    0.000    1.500    2.500    1.500    0.000   10.000 
#    0.000    0.000    0.000    0.000    0.000    0.000 
#    0.000    0.000    0.000    0.000    0.000    0.000 
#
# Total GULP energy -198386.012800 kJ/mol
# GULP energy per Si atom -12399.125800 kJ/mol
# Density = 2.392728 g / cm^3
# Si number density = 23.981865 Si / 1000 Ang^3
#
#
#
# Elastic Constant Matrix: (Units=GPa)
#
#
# Indices 1 2 3 4 5 6 
#
# 1 138.9245 80.1088 12.4377 0.0000 -22.2452 0.0000
# 2 80.1088 148.7710 20.6625 0.0000 2.7547 0.0000
# 3 12.4377 20.6625 39.3574 0.0000 -2.7294 0.0000
# 4 0.0000 0.0000 0.0000 33.5086 0.0000 -12.7570
# 5 -22.2452 2.7547 -2.7294 0.0000 37.9959 0.0000
# 6 0.0000 0.0000 0.0000 -12.7570 0.0000 57.8376
#
#
#
# Elastic Compliance Matrix: (Units=1/GPa)
#
#
# Indices 1 2 3 4 5 6 
#
# 1 0.012355 -0.006826 0.000216 0.000000 0.007744 0.000000
# 2 -0.006826 0.011046 -0.003995 0.000000 -0.005084 0.000000
# 3 0.000216 -0.003995 0.027603 0.000000 0.002399 0.000000
# 4 0.000000 0.000000 0.000000 0.032579 0.000000 0.007186
# 5 0.007744 -0.005084 0.002399 0.000000 0.031393 0.000000
# 6 0.000000 0.000000 0.000000 0.007186 0.000000 0.018875
#
#
# Mechanical properties :
#
#
# Convention : Reuss Voigt Hill
#
# Bulk Modulus (GPa) = 33.56191 61.49676 47.52934
# Shear Modulus (GPa) = 30.30435 40.12469 35.21452
#
# Velocity S-wave (km/s) = 3.55862 4.09482 3.83610
# Velocity P-wave (km/s) = 5.55969 6.93221 6.28353
#
# Compressibility (1/GPa) = 0.02979568
#
# Stress axis : x y z
#
# Youngs Moduli (GPa) = 80.93864 90.52689 36.22739
#
# Poissons Ratio (x) = 0.61796 -0.00784
# Poissons Ratio (y) = 0.55251 0.14472
# Poissons Ratio (z) = -0.01751 0.36163
#
# Static dielectric constant tensor:
#      x y z
#    x 5.648590 0.000000 -0.387830 
#    y 0.000000 4.953070 0.000000 
#    z -0.387830 0.000000 4.526720 
# 
# 
# High freq. dielectric constant tensor:
#      x y z
#    x 1.959390 0.000000 -0.038330 
#    y 0.000000 1.951330 0.000000 
#    z -0.038330 0.000000 1.966390 
# 
# From -- ./inp_files/194672.got.cif
#   From: 2010.06.25/outbox.cif.g09.slc.cpg/sg15_98_cif.got.tgz:194672.got - 2010.06.28 07:06:18.
