data_PCOD8147200
_publ_section_title
;
Structure prediction by ZEFSAII (Michael W. Deem and Ramdas Pophale) SiO2 
 PCOD8147200
Probable space group: C 2/C
;
_chemical_formula_sum "Si O2"
_cell_formula_units_Z 48
_cell_length_a 11.512020
_cell_length_b 8.399580
_cell_length_c 23.813328
_cell_angle_alpha 90.000000
_cell_angle_beta 74.676410
_cell_angle_gamma 90.000000
_cell_volume 2220.794276
_symmetry_space_group_name_H-M "C 2/C"
_symmetry_group_IT_number 15
_symmetry_cell_setting 'monoclinic'
loop_
_space_group_symop_operation_xyz
x,y,z
-x,y,1/2-z
-x,-y,-z
x,-y,1/2+z
1/2+x,1/2+y,z
1/2-x,1/2+y,1/2-z
1/2-x,1/2-y,-z
1/2+x,1/2-y,1/2+z
loop_
_atom_site_type_symbol
_atom_site_label
_atom_site_fract_x
_atom_site_fract_y
_atom_site_fract_z
Si Si1 0.770890 0.535205 0.887662
Si Si2 0.974035 0.140216 0.098977
Si Si3 0.672413 0.881914 0.312717
Si Si4 0.898227 0.604594 0.985084
Si Si5 0.720551 0.391336 0.609051
Si Si6 0.870389 0.355526 0.771644
O O1 0.631413 0.476708 0.908519
O O2 0.838038 0.519575 0.938771
O O3 0.777308 0.715616 0.863117
O O4 0.842962 0.419444 0.837167
O O5 0.931034 0.266962 0.151294
O O6 0.034252 0.231471 0.038879
O O7 0.084434 0.046356 0.114489
O O8 0.774461 0.779253 0.268199
O O9 0.721060 0.976367 0.360088
O O10 0.622781 0.001123 0.273248
O O11 0.791429 0.636453 0.042048
O O12 0.000000 0.500000 0.000000
O O13 0.000000 0.271632 0.750000
#
# Coordination Sequence:
#
# PCOD8147200 Si02
#       6
#     8   8   8   8   8   8
#     4  10  23  42  63  95 125 168 211 256 315 367
#     4  10  22  43  63  95 125 163 214 252 312 376
#     4  11  24  42  63  94 124 163 210 255 316 367
#     4  11  22  40  65  93 129 167 206 259 313 371
#     4  11  23  40  65  91 129 166 205 259 310 369
#     4  11  24  42  65  91 125 163 209 259 310 373
#
# _framework density 21.613886999999998
#
# number of rings (size 3 to 8) (size 9 to 14) (size 15 to 20)
#    0.000    1.333    1.667    5.000    0.000    7.333 
#    3.000    0.833    0.000    0.000    0.000    0.000 
#    0.000    0.000    0.000    0.000    0.000    0.000 
#
# Total GULP energy -297572.999667 kJ/mol
# GULP energy per Si atom -12398.874986 kJ/mol
# Density = 2.156469 g / cm^3
# Si number density = 21.613887 Si / 1000 Ang^3
#
#
#
# Elastic Constant Matrix: (Units=GPa)
#
#
# Indices 1 2 3 4 5 6 
#
# 1 130.9300 15.7058 33.2098 0.0000 -17.5439 0.0000
# 2 15.7058 37.5413 1.5186 0.0000 -3.8230 0.0000
# 3 33.2098 1.5186 69.3363 0.0000 -5.7330 0.0000
# 4 0.0000 0.0000 0.0000 25.0707 0.0000 -4.3331
# 5 -17.5439 -3.8230 -5.7330 0.0000 40.4219 0.0000
# 6 0.0000 0.0000 0.0000 -4.3331 0.0000 14.6165
#
#
#
# Elastic Compliance Matrix: (Units=1/GPa)
#
#
# Indices 1 2 3 4 5 6 
#
# 1 0.009564 -0.003502 -0.004238 0.000000 0.003219 0.000000
# 2 -0.003502 0.028189 0.001168 0.000000 0.001312 0.000000
# 3 -0.004238 0.001168 0.016477 0.000000 0.000608 0.000000
# 4 0.000000 0.000000 0.000000 0.042041 0.000000 0.012463
# 5 0.003219 0.001312 0.000608 0.000000 0.026346 0.000000
# 6 0.000000 0.000000 0.000000 0.012463 0.000000 0.072111
#
#
# Mechanical properties :
#
#
# Convention : Reuss Voigt Hill
#
# Bulk Modulus (GPa) = 24.33886 37.63065 30.98475
# Shear Modulus (GPa) = 22.56658 28.51339 25.53999
#
# Velocity S-wave (km/s) = 3.23472 3.63604 3.44124
# Velocity P-wave (km/s) = 5.02359 5.92249 5.49147
#
# Compressibility (1/GPa) = 0.04108657
#
# Stress axis : x y z
#
# Youngs Moduli (GPa) = 104.55899 35.47518 60.69067
#
# Poissons Ratio (x) = 0.12423 0.25721
# Poissons Ratio (y) = 0.36616 -0.07091
# Poissons Ratio (z) = 0.44312 -0.04145
#
# Static dielectric constant tensor:
#      x y z
#    x 4.197750 0.000000 -0.185560 
#    y 0.000000 3.889340 0.000000 
#    z -0.185560 0.000000 3.960500 
# 
# 
# High freq. dielectric constant tensor:
#      x y z
#    x 1.868960 0.000000 -0.013150 
#    y 0.000000 1.838300 0.000000 
#    z -0.013150 0.000000 1.853780 
# 
# From -- ./inp_files/267796.got.cif
#   From: 2010.06.25/outbox.cif.g09.slc.cpg/sg15_134_cif.got.tgz:267796.got - 2010.06.28 07:06:18.
