data_PCOD8147112
_publ_section_title
;
Structure prediction by ZEFSAII (Michael W. Deem and Ramdas Pophale) SiO2 
 PCOD8147112
Probable space group: C 2/C
;
_chemical_formula_sum "Si O2"
_cell_formula_units_Z 52
_cell_length_a 16.996629
_cell_length_b 8.527947
_cell_length_c 24.974720
_cell_angle_alpha 90.000000
_cell_angle_beta 41.647667
_cell_angle_gamma 90.000000
_cell_volume 2405.660531
_symmetry_space_group_name_H-M "C 2/C"
_symmetry_group_IT_number 15
_symmetry_cell_setting 'monoclinic'
loop_
_space_group_symop_operation_xyz
x,y,z
-x,y,1/2-z
-x,-y,-z
x,-y,1/2+z
1/2+x,1/2+y,z
1/2-x,1/2+y,1/2-z
1/2-x,1/2-y,-z
1/2+x,1/2-y,1/2+z
loop_
_atom_site_type_symbol
_atom_site_label
_atom_site_fract_x
_atom_site_fract_y
_atom_site_fract_z
Si Si1 0.460312 0.525796 0.438514
Si Si2 0.159341 0.450203 0.749926
Si Si3 0.359175 0.003059 0.570129
Si Si4 0.000000 0.716576 0.250000
Si Si5 0.189824 0.130825 0.573126
Si Si6 0.654876 0.219172 0.829573
Si Si7 0.145649 0.844777 0.405137
O O1 0.393243 0.482079 0.418791
O O2 0.555902 0.652419 0.373038
O O3 0.524243 0.374587 0.433295
O O4 0.371063 0.607322 0.524786
O O5 0.050976 0.394441 0.769917
O O6 0.219858 0.300910 0.749722
O O7 0.112043 0.571588 0.817230
O O8 0.253585 0.539807 0.665864
O O9 0.315218 0.837094 0.617105
O O10 0.500000 0.000000 0.500000
O O11 0.298586 0.031879 0.543243
O O12 0.321770 0.155509 0.622824
O O13 0.894214 0.809173 0.334757
O O14 0.250000 0.250000 0.500000
#
# Coordination Sequence:
#
# PCOD8147112 Si02
#       7
#     8   8   8   4   8   8   8
#     4  10  23  43  71 100 136 180 236 288 359 415
#     4  11  25  43  68  99 142 180 234 289 363 418
#     4  12  24  44  70 104 142 187 242 285 362 435
#     4  12  28  46  68 106 144 184 240 302 358 430
#     4  12  28  45  73 106 147 192 238 303 367 420
#     4  11  24  43  69 103 134 187 233 289 350 435
#     4  10  22  42  70  99 136 180 231 292 348 434
#
# _framework density 21.615684999999999
#
# number of rings (size 3 to 8) (size 9 to 14) (size 15 to 20)
#    0.000    0.923    3.077    2.769   10.769    3.077 
#    0.000    0.000    0.000    0.000    0.000    0.000 
#    0.000    0.000    0.000    0.000    0.000    0.000 
#
# Total GULP energy -322245.077572 kJ/mol
# GULP energy per Si atom -12394.041445 kJ/mol
# Density = 2.156649 g / cm^3
# Si number density = 21.615685 Si / 1000 Ang^3
#
#
#
# Elastic Constant Matrix: (Units=GPa)
#
#
# Indices 1 2 3 4 5 6 
#
# 1 155.8262 68.2207 19.3979 0.0001 9.9919 0.0003
# 2 68.2207 121.0628 9.7675 0.0001 -3.1447 0.0008
# 3 19.3979 9.7675 67.2855 0.0000 2.1684 0.0000
# 4 0.0001 0.0001 0.0000 31.7742 0.0000 7.7806
# 5 9.9919 -3.1447 2.1684 0.0000 21.9470 0.0000
# 6 0.0003 0.0008 0.0000 7.7806 0.0000 36.6724
#
#
#
# Elastic Compliance Matrix: (Units=1/GPa)
#
#
# Indices 1 2 3 4 5 6 
#
# 1 0.009203 -0.005168 -0.001750 0.000000 -0.004758 0.000000
# 2 -0.005168 0.011299 -0.000279 0.000000 0.004000 0.000000
# 3 -0.001750 -0.000279 0.015432 0.000000 -0.000768 0.000000
# 4 0.000000 0.000000 0.000000 0.033197 0.000000 -0.007043
# 5 -0.004758 0.004000 -0.000768 0.000000 0.048379 0.000000
# 6 0.000000 0.000000 0.000000 -0.007043 0.000000 0.028763
#
#
# Mechanical properties :
#
#
# Convention : Reuss Voigt Hill
#
# Bulk Modulus (GPa) = 46.42621 59.88298 53.15459
# Shear Modulus (GPa) = 29.78904 34.53126 32.16015
#
# Velocity S-wave (km/s) = 3.71633 4.00122 3.86141
# Velocity P-wave (km/s) = 6.31977 7.00785 6.67269
#
# Compressibility (1/GPa) = 0.02153956
#
# Stress axis : x y z
#
# Youngs Moduli (GPa) = 108.65994 88.50264 64.80172
#
# Poissons Ratio (x) = 0.45742 0.11337
# Poissons Ratio (y) = 0.56161 0.01809
# Poissons Ratio (z) = 0.19011 0.02470
#
# Static dielectric constant tensor:
#      x y z
#    x 3.947950 0.000000 0.012000 
#    y 0.000000 4.349370 0.000000 
#    z 0.012000 0.000000 4.093080 
# 
# 
# High freq. dielectric constant tensor:
#      x y z
#    x 1.851880 0.000000 0.004460 
#    y 0.000000 1.859010 0.000000 
#    z 0.004460 0.000000 1.850280 
# 
# From -- ./inp_files/298333.got.cif
#   From: 2010.06.25/outbox.cif.g09.slc.cpg/sg15_150_cif.got.tgz:298333.got - 2010.06.28 07:06:18.
