data_PCOD8147094
_publ_section_title
;
Structure prediction by ZEFSAII (Michael W. Deem and Ramdas Pophale) SiO2 
 PCOD8147094
Probable space group: C 2/C
;
_chemical_formula_sum "Si O2"
_cell_formula_units_Z 48
_cell_length_a 19.271435
_cell_length_b 11.294264
_cell_length_c 14.726790
_cell_angle_alpha 90.000000
_cell_angle_beta 44.010294
_cell_angle_gamma 90.000000
_cell_volume 2227.061149
_symmetry_space_group_name_H-M "C 2/C"
_symmetry_group_IT_number 15
_symmetry_cell_setting 'monoclinic'
loop_
_space_group_symop_operation_xyz
x,y,z
-x,y,1/2-z
-x,-y,-z
x,-y,1/2+z
1/2+x,1/2+y,z
1/2-x,1/2+y,1/2-z
1/2-x,1/2-y,-z
1/2+x,1/2-y,1/2+z
loop_
_atom_site_type_symbol
_atom_site_label
_atom_site_fract_x
_atom_site_fract_y
_atom_site_fract_z
Si Si1 0.112170 0.482078 0.640379
Si Si2 0.738548 0.321774 0.918557
Si Si3 0.280596 0.082444 0.646050
Si Si4 0.389404 0.415786 0.741348
Si Si5 0.885851 0.044796 0.457807
Si Si6 0.687039 0.844100 0.198792
O O1 0.167524 0.409187 0.667667
O O2 0.154560 0.467729 0.498867
O O3 0.125963 0.615509 0.665513
O O4 0.000000 0.438788 0.750000
O O5 0.742218 0.223577 0.837381
O O6 0.750000 0.250000 0.000000
O O7 0.640751 0.405673 0.999582
O O8 0.340147 0.076617 0.685598
O O9 0.175782 0.012947 0.751595
O O10 0.505458 0.426853 0.602658
O O11 0.380586 0.440010 0.855364
O O12 0.343020 0.290720 0.757340
O O13 0.806499 0.138455 0.573176
#
# Coordination Sequence:
#
# PCOD8147094 Si02
#       6
#     8   8   8   8   8   8
#     4  10  23  42  66  90 127 176 219 266 333 393
#     4   9  18  41  61  92 126 164 212 269 322 376
#     4  11  24  42  66  94 136 169 217 283 324 390
#     4  11  23  41  70  98 127 176 226 269 332 394
#     4  10  22  42  70  96 126 177 222 270 331 396
#     4  11  25  42  65  96 136 170 217 280 328 387
#
# _framework density 21.553068
#
# number of rings (size 3 to 8) (size 9 to 14) (size 15 to 20)
#    0.000    1.667    5.000    0.500    7.000    4.000 
#    3.000    0.000    0.000    0.000    0.000    0.000 
#    0.000    0.000    0.000    0.000    0.000    0.000 
#
# Total GULP energy -297355.351159 kJ/mol
# GULP energy per Si atom -12389.806298 kJ/mol
# Density = 2.150401 g / cm^3
# Si number density = 21.553068 Si / 1000 Ang^3
#
#
#
# Elastic Constant Matrix: (Units=GPa)
#
#
# Indices 1 2 3 4 5 6 
#
# 1 77.0355 57.5645 51.2857 0.0000 -7.1815 0.0000
# 2 57.5645 132.3545 49.5370 0.0000 -14.1437 0.0000
# 3 51.2857 49.5370 89.1112 0.0000 -19.3596 0.0000
# 4 0.0000 0.0000 0.0000 16.2590 0.0000 -0.6608
# 5 -7.1815 -14.1437 -19.3596 0.0000 38.2237 0.0000
# 6 0.0000 0.0000 0.0000 -0.6608 0.0000 15.6636
#
#
#
# Elastic Compliance Matrix: (Units=1/GPa)
#
#
# Indices 1 2 3 4 5 6 
#
# 1 0.025801 -0.007272 -0.011616 0.000000 -0.003727 0.000000
# 2 -0.007272 0.011621 -0.001840 0.000000 0.002002 0.000000
# 3 -0.011616 -0.001840 0.020572 0.000000 0.007556 0.000000
# 4 0.000000 0.000000 0.000000 0.061610 0.000000 0.002599
# 5 -0.003727 0.002002 0.007556 0.000000 0.030029 0.000000
# 6 0.000000 0.000000 0.000000 0.002599 0.000000 0.063952
#
#
# Mechanical properties :
#
#
# Convention : Reuss Voigt Hill
#
# Bulk Modulus (GPa) = 60.46976 68.36397 64.41686
# Shear Modulus (GPa) = 19.18989 23.37017 21.28003
#
# Velocity S-wave (km/s) = 2.98712 3.29646 3.14559
# Velocity P-wave (km/s) = 6.32569 6.80269 6.56852
#
# Compressibility (1/GPa) = 0.01653719
#
# Stress axis : x y z
#
# Youngs Moduli (GPa) = 38.75806 86.05224 48.61061
#
# Poissons Ratio (x) = 0.62579 0.56467
# Poissons Ratio (y) = 0.28186 0.08944
# Poissons Ratio (z) = 0.45022 0.15832
#
# Static dielectric constant tensor:
#      x y z
#    x 3.988190 0.000000 0.002590 
#    y 0.000000 7.051270 0.000000 
#    z 0.002590 0.000000 3.896190 
# 
# 
# High freq. dielectric constant tensor:
#      x y z
#    x 1.849150 0.000000 0.012180 
#    y 0.000000 1.853170 0.000000 
#    z 0.012180 0.000000 1.830420 
# 
# From -- ./inp_files/167850.got.cif
#   From: 2010.06.25/outbox.cif.g09.slc.cpg/sg15_84_cif.got.tgz:167850.got - 2010.06.28 07:06:18.
