data_PCOD8147689
_publ_section_title
;
Structure prediction by ZEFSAII (Michael W. Deem and Ramdas Pophale) SiO2 
 PCOD8147689
Probable space group: C 2/C
;
_chemical_formula_sum "Si O2"
_cell_formula_units_Z 36
_cell_length_a 7.964047
_cell_length_b 30.885583
_cell_length_c 8.671089
_cell_angle_alpha 90.000000
_cell_angle_beta 123.530165
_cell_angle_gamma 90.000000
_cell_volume 1777.945430
_symmetry_space_group_name_H-M "C 2/C"
_symmetry_group_IT_number 15
_symmetry_cell_setting 'monoclinic'
loop_
_space_group_symop_operation_xyz
x,y,z
-x,y,1/2-z
-x,-y,-z
x,-y,1/2+z
1/2+x,1/2+y,z
1/2-x,1/2+y,1/2-z
1/2-x,1/2-y,-z
1/2+x,1/2-y,1/2+z
loop_
_atom_site_type_symbol
_atom_site_label
_atom_site_fract_x
_atom_site_fract_y
_atom_site_fract_z
Si Si1 0.254405 0.548341 0.613695
Si Si2 0.291376 0.642325 0.572157
Si Si3 0.042843 0.714683 0.593265
Si Si4 0.841960 0.808512 0.795144
Si Si5 0.500000 0.007980 0.750000
O O1 0.500000 0.542364 0.750000
O O2 0.175368 0.597059 0.532155
O O3 0.146338 0.537311 0.719748
O O4 0.159598 0.519261 0.430917
O O5 0.500000 0.629599 0.750000
O O6 0.220299 0.682971 0.636688
O O7 0.301554 0.653981 0.396883
O O8 0.086567 0.765003 0.581329
O O9 0.000000 0.707862 0.750000
O O10 0.859290 0.702033 0.395033
O O11 0.000000 0.825779 0.750000
#
# Coordination Sequence:
#
# PCOD8147689 Si02
#       5
#     8   8   8   8   4
#     4  10  23  42  68  97 130 165 212 260 327 382
#     4  11  23  39  59  90 124 159 208 256 308 372
#     4  11  22  37  61  84 123 164 207 257 309 369
#     4  11  22  39  58  87 122 166 209 254 312 364
#     4  10  22  44  70  94 130 166 210 260 328 392
#
# _framework density 20.248090000000001
#
# number of rings (size 3 to 8) (size 9 to 14) (size 15 to 20)
#    0.000    1.333    0.000    7.333    4.667    0.000 
#    0.000    1.111    0.000    0.000    0.000    0.000 
#    0.000    0.000    0.000    0.000    0.000    0.000 
#
# Total GULP energy -223110.175309 kJ/mol
# GULP energy per Si atom -12395.009739 kJ/mol
# Density = 2.020200 g / cm^3
# Si number density = 20.248090 Si / 1000 Ang^3
#
#
#
# Elastic Constant Matrix: (Units=GPa)
#
#
# Indices 1 2 3 4 5 6 
#
# 1 118.3930 77.3868 35.7535 0.0000 -19.5867 0.0000
# 2 77.3868 112.9924 50.8709 0.0000 -32.8775 0.0000
# 3 35.7535 50.8709 124.0602 0.0000 -10.3010 0.0000
# 4 0.0000 0.0000 0.0000 25.3975 0.0000 -2.7703
# 5 -19.5867 -32.8775 -10.3010 0.0000 34.8082 0.0000
# 6 0.0000 0.0000 0.0000 -2.7703 0.0000 26.8207
#
#
#
# Elastic Compliance Matrix: (Units=1/GPa)
#
#
# Indices 1 2 3 4 5 6 
#
# 1 0.015373 -0.011018 -0.000060 0.000000 -0.001774 0.000000
# 2 -0.011018 0.022613 -0.004960 0.000000 0.013691 0.000000
# 3 -0.000060 -0.004960 0.009965 0.000000 -0.001770 0.000000
# 4 0.000000 0.000000 0.000000 0.039823 0.000000 0.004113
# 5 -0.001774 0.013691 -0.001770 0.000000 0.040138 0.000000
# 6 0.000000 0.000000 0.000000 0.004113 0.000000 0.037709
#
#
# Mechanical properties :
#
#
# Convention : Reuss Voigt Hill
#
# Bulk Modulus (GPa) = 62.99376 75.94092 69.46734
# Shear Modulus (GPa) = 24.63189 30.16758 27.39974
#
# Velocity S-wave (km/s) = 3.49163 3.86411 3.68258
# Velocity P-wave (km/s) = 6.88722 7.58255 7.24323
#
# Compressibility (1/GPa) = 0.01587459
#
# Stress axis : x y z
#
# Youngs Moduli (GPa) = 65.05013 44.22210 100.35244
#
# Poissons Ratio (x) = 0.48723 0.00600
# Poissons Ratio (y) = 0.71672 0.49779
# Poissons Ratio (z) = 0.00389 0.21936
#
# Static dielectric constant tensor:
#      x y z
#    x 3.837350 0.000000 0.065200 
#    y 0.000000 0.522590 0.000000 
#    z 0.065200 0.000000 3.743000 
# 
# 
# High freq. dielectric constant tensor:
#      x y z
#    x 1.798470 0.000000 0.000450 
#    y 0.000000 1.789970 0.000000 
#    z 0.000450 0.000000 1.809840 
# 
# From -- ./inp_files/24312.got.cif
#   From: 2010.06.25/outbox.cif.g09.slc.cpg/sg15_13_cif.got.tgz:24312.got - 2010.06.28 07:06:18.
