data_PCOD8147109
_publ_section_title
;
Structure prediction by ZEFSAII (Michael W. Deem and Ramdas Pophale) SiO2 
 PCOD8147109
Probable space group: C 2/C
;
_chemical_formula_sum "Si O2"
_cell_formula_units_Z 56
_cell_length_a 23.075253
_cell_length_b 8.758977
_cell_length_c 14.036070
_cell_angle_alpha 90.000000
_cell_angle_beta 118.936332
_cell_angle_gamma 90.000000
_cell_volume 2482.743182
_symmetry_space_group_name_H-M "C 2/C"
_symmetry_group_IT_number 15
_symmetry_cell_setting 'monoclinic'
loop_
_space_group_symop_operation_xyz
x,y,z
-x,y,1/2-z
-x,-y,-z
x,-y,1/2+z
1/2+x,1/2+y,z
1/2-x,1/2+y,1/2-z
1/2-x,1/2-y,-z
1/2+x,1/2-y,1/2+z
loop_
_atom_site_type_symbol
_atom_site_label
_atom_site_fract_x
_atom_site_fract_y
_atom_site_fract_z
Si Si1 0.870243 0.178416 0.373137
Si Si2 0.496548 0.306379 0.095551
Si Si3 0.000000 0.935747 0.750000
Si Si4 0.146189 0.175144 0.665072
Si Si5 0.797573 0.346816 0.972005
Si Si6 0.000000 0.432345 0.750000
Si Si7 0.099516 0.677711 0.793023
Si Si8 0.743908 0.179818 0.598330
O O1 0.860194 0.280025 0.270124
O O2 0.823297 0.251768 0.413690
O O3 0.947177 0.183306 0.466894
O O4 0.848981 0.005991 0.339364
O O5 0.497314 0.466784 0.151486
O O6 0.570851 0.267825 0.119725
O O7 0.468499 0.175957 0.143903
O O8 0.934700 0.833062 0.698498
O O9 0.176616 0.249430 0.595668
O O10 0.191168 0.227770 0.790052
O O11 0.760249 0.496876 0.906193
O O12 0.750000 0.250000 0.000000
O O13 0.857761 0.392095 0.087928
O O14 0.950194 0.540135 0.768795
O O15 0.750000 0.250000 0.500000
#
# Coordination Sequence:
#
# PCOD8147109 Si02
#       8
#     8   8   4   8   8   4   8   8
#     4  12  26  46  74 105 141 184 237 287 351 415
#     4  11  25  43  73 105 140 182 236 290 348 414
#     4  10  22  42  70  98 146 178 228 282 354 406
#     4  12  26  46  75 105 139 183 239 289 347 414
#     4  12  27  46  72  99 141 185 235 286 347 414
#     4  10  26  42  66  98 148 180 226 280 360 406
#     4  11  24  43  69 102 143 182 229 283 351 418
#     4  12  29  48  72 101 143 187 235 287 352 419
#
# _framework density 22.555696999999999
#
# number of rings (size 3 to 8) (size 9 to 14) (size 15 to 20)
#    0.000    0.571    1.429    5.571   12.000    0.571 
#    0.000    0.000    0.000    0.000    0.000    0.000 
#    0.000    0.000    0.000    0.000    0.000    0.000 
#
# Total GULP energy -347326.215449 kJ/mol
# GULP energy per Si atom -12404.507695 kJ/mol
# Density = 2.250436 g / cm^3
# Si number density = 22.555697 Si / 1000 Ang^3
#
#
#
# Elastic Constant Matrix: (Units=GPa)
#
#
# Indices 1 2 3 4 5 6 
#
# 1 143.6216 34.3341 45.4929 0.0000 -14.8508 0.0000
# 2 34.3341 96.8532 18.2149 0.0000 -9.8900 0.0000
# 3 45.4929 18.2149 146.7398 0.0000 0.4584 0.0000
# 4 0.0000 0.0000 0.0000 31.8015 0.0000 -7.7488
# 5 -14.8508 -9.8900 0.4584 0.0000 45.7338 0.0000
# 6 0.0000 0.0000 0.0000 -7.7488 0.0000 35.2829
#
#
#
# Elastic Compliance Matrix: (Units=1/GPa)
#
#
# Indices 1 2 3 4 5 6 
#
# 1 0.008503 -0.002339 -0.002353 0.000000 0.002279 0.000000
# 2 -0.002339 0.011463 -0.000703 0.000000 0.001726 0.000000
# 3 -0.002353 -0.000703 0.007635 0.000000 -0.000993 0.000000
# 4 0.000000 0.000000 0.000000 0.033223 0.000000 0.007296
# 5 0.002279 0.001726 -0.000993 0.000000 0.022989 0.000000
# 6 0.000000 0.000000 0.000000 0.007296 0.000000 0.029945
#
#
# Mechanical properties :
#
#
# Convention : Reuss Voigt Hill
#
# Bulk Modulus (GPa) = 59.48821 64.81093 62.14957
# Shear Modulus (GPa) = 38.41724 41.84181 40.12953
#
# Velocity S-wave (km/s) = 4.13148 4.31169 4.22255
# Velocity P-wave (km/s) = 7.01356 7.32009 7.16846
#
# Compressibility (1/GPa) = 0.01681005
#
# Stress axis : x y z
#
# Youngs Moduli (GPa) = 117.60798 87.24039 130.98254
#
# Poissons Ratio (x) = 0.20406 0.30818
# Poissons Ratio (y) = 0.27509 0.09209
# Poissons Ratio (z) = 0.27671 0.06134
#
# Static dielectric constant tensor:
#      x y z
#    x 4.265580 0.000000 0.258780 
#    y 0.000000 4.184610 0.000000 
#    z 0.258780 0.000000 4.751170 
# 
# 
# High freq. dielectric constant tensor:
#      x y z
#    x 1.898620 0.000000 -0.004060 
#    y 0.000000 1.900170 0.000000 
#    z -0.004060 0.000000 1.898180 
# 
# From -- ./inp_files/172514.got.cif
#   From: 2010.06.25/outbox.cif.g09.slc.cpg/sg15_87_cif.got.tgz:172514.got - 2010.06.28 07:06:18.
