data_PCOD8147267
_publ_section_title
;
Structure prediction by ZEFSAII (Michael W. Deem and Ramdas Pophale) SiO2 
 PCOD8147267
Probable space group: C 2/C
;
_chemical_formula_sum "Si O2"
_cell_formula_units_Z 40
_cell_length_a 22.919976
_cell_length_b 17.391781
_cell_length_c 8.588821
_cell_angle_alpha 90.000000
_cell_angle_beta 30.309094
_cell_angle_gamma 90.000000
_cell_volume 1727.804729
_symmetry_space_group_name_H-M "C 2/C"
_symmetry_group_IT_number 15
_symmetry_cell_setting 'monoclinic'
loop_
_space_group_symop_operation_xyz
x,y,z
-x,y,1/2-z
-x,-y,-z
x,-y,1/2+z
1/2+x,1/2+y,z
1/2-x,1/2+y,1/2-z
1/2-x,1/2-y,-z
1/2+x,1/2-y,1/2+z
loop_
_atom_site_type_symbol
_atom_site_label
_atom_site_fract_x
_atom_site_fract_y
_atom_site_fract_z
Si Si1 0.664493 0.169308 0.853443
Si Si2 0.106127 0.259169 0.163580
Si Si3 0.632453 0.277446 0.187982
Si Si4 0.790814 0.605792 0.237965
Si Si5 0.376495 0.972220 0.847561
O O1 0.801681 0.189027 0.554013
O O2 0.623408 0.187129 0.775125
O O3 0.594983 0.222538 0.133632
O O4 0.627789 0.082341 0.987924
O O5 0.979119 0.220082 0.442254
O O6 0.124266 0.320303 0.981720
O O7 0.750000 0.250000 0.000000
O O8 0.659435 0.361747 0.051240
O O9 0.816069 0.571232 0.347524
O O10 0.803123 0.546737 0.067524
O O11 0.500000 0.000000 0.500000
#
# Coordination Sequence:
#
# PCOD8147267 Si02
#       5
#     8   8   8   8   8
#     4  10  22  43  66 101 128 173 220 269 332 385
#     4  10  23  42  72  96 133 169 220 276 324 388
#     4  11  22  40  66  98 135 170 224 264 326 392
#     4  11  25  41  64  98 130 174 217 271 331 393
#     4  12  24  40  63  93 136 168 219 271 331 388
#
# _framework density 23.150763999999999
#
# number of rings (size 3 to 8) (size 9 to 14) (size 15 to 20)
#    0.000    1.200    2.000    3.600    2.800    4.000 
#    0.000    1.000    0.000    4.800    0.000    0.000 
#    0.000    0.000    0.000    0.000    0.000    0.000 
#
# Total GULP energy -247800.174305 kJ/mol
# GULP energy per Si atom -12390.008715 kJ/mol
# Density = 2.309807 g / cm^3
# Si number density = 23.150764 Si / 1000 Ang^3
#
#
#
# Elastic Constant Matrix: (Units=GPa)
#
#
# Indices 1 2 3 4 5 6 
#
# 1 41.6686 16.0425 34.7004 0.0000 5.1709 0.0000
# 2 16.0425 138.6663 87.3479 0.0000 -1.0282 0.0000
# 3 34.7004 87.3479 195.4316 0.0000 -1.3674 0.0000
# 4 0.0000 0.0000 0.0000 48.4174 0.0000 28.8964
# 5 5.1709 -1.0282 -1.3674 0.0000 37.7560 0.0000
# 6 0.0000 0.0000 0.0000 28.8964 0.0000 34.8731
#
#
#
# Elastic Compliance Matrix: (Units=1/GPa)
#
#
# Indices 1 2 3 4 5 6 
#
# 1 0.028796 -0.000171 -0.005065 0.000000 -0.004132 0.000000
# 2 -0.000171 0.010039 -0.004456 0.000000 0.000135 0.000000
# 3 -0.005065 -0.004456 0.008014 0.000000 0.000863 0.000000
# 4 0.000000 0.000000 0.000000 0.040861 0.000000 -0.033858
# 5 -0.004132 0.000135 0.000863 0.000000 0.027087 0.000000
# 6 0.000000 0.000000 0.000000 -0.033858 0.000000 0.056731
#
#
# Mechanical properties :
#
#
# Convention : Reuss Voigt Hill
#
# Bulk Modulus (GPa) = 36.41109 72.43868 54.42489
# Shear Modulus (GPa) = 24.99178 40.05434 32.52306
#
# Velocity S-wave (km/s) = 3.28917 4.16402 3.75218
# Velocity P-wave (km/s) = 5.49426 7.38083 6.50629
#
# Compressibility (1/GPa) = 0.02746416
#
# Stress axis : x y z
#
# Youngs Moduli (GPa) = 34.72728 99.61156 124.78665
#
# Poissons Ratio (x) = 0.01707 0.63207
# Poissons Ratio (y) = 0.00595 0.55599
# Poissons Ratio (z) = 0.17590 0.44382
#
# Static dielectric constant tensor:
#      x y z
#    x 4.403590 0.000000 0.458910 
#    y 0.000000 4.668500 0.000000 
#    z 0.458910 0.000000 4.827630 
# 
# 
# High freq. dielectric constant tensor:
#      x y z
#    x 1.917650 0.000000 0.036440 
#    y 0.000000 1.902210 0.000000 
#    z 0.036440 0.000000 1.933110 
# 
# From -- ./inp_files/62860.got.cif
#   From: 2010.06.25/outbox.cif.g09.slc.cpg/sg15_32_cif.got.tgz:62860.got - 2010.06.28 07:06:18.
