data_PCOD8147707
_publ_section_title
;
Structure prediction by ZEFSAII (Michael W. Deem and Ramdas Pophale) SiO2 
 PCOD8147707
Probable space group: C 2/C
;
_chemical_formula_sum "Si O2"
_cell_formula_units_Z 48
_cell_length_a 13.526668
_cell_length_b 22.394844
_cell_length_c 10.699415
_cell_angle_alpha 90.000000
_cell_angle_beta 41.893430
_cell_angle_gamma 90.000000
_cell_volume 2164.267722
_symmetry_space_group_name_H-M "C 2/C"
_symmetry_group_IT_number 15
_symmetry_cell_setting 'monoclinic'
loop_
_space_group_symop_operation_xyz
x,y,z
-x,y,1/2-z
-x,-y,-z
x,-y,1/2+z
1/2+x,1/2+y,z
1/2-x,1/2+y,1/2-z
1/2-x,1/2-y,-z
1/2+x,1/2-y,1/2+z
loop_
_atom_site_type_symbol
_atom_site_label
_atom_site_fract_x
_atom_site_fract_y
_atom_site_fract_z
Si Si1 0.730083 0.566193 0.380981
Si Si2 0.000000 0.621879 0.250000
Si Si3 0.500000 0.359953 0.250000
Si Si4 0.872580 0.251865 0.284298
Si Si5 0.726665 0.834029 0.347626
Si Si6 0.649873 0.383073 0.720209
Si Si7 0.334281 0.571695 0.557398
O O1 0.583855 0.597015 0.574785
O O2 0.768745 0.598862 0.212927
O O3 0.711591 0.496166 0.386760
O O4 0.873455 0.576989 0.327153
O O5 0.922317 0.662912 0.428535
O O6 0.374921 0.319867 0.293195
O O7 0.750000 0.250000 0.500000
O O8 0.813291 0.283673 0.215754
O O9 0.912831 0.184155 0.207252
O O10 0.000000 0.282767 0.250000
O O11 0.760353 0.895788 0.245045
O O12 0.722640 0.396936 0.517286
O O13 0.511681 0.425876 0.883964
#
# Coordination Sequence:
#
# PCOD8147707 Si02
#       7
#     8   4   4   8   8   8   8
#     4  11  24  43  69 100 147 179 235 295 348 430
#     4  10  28  46  61 104 148 191 224 274 372 428
#     4  10  22  44  71 100 140 191 238 282 348 430
#     4  12  25  47  75 104 142 178 238 304 351 413
#     4  11  24  46  70 102 144 192 234 285 352 420
#     4  11  22  42  73 111 125 179 238 296 350 404
#     4  11  22  41  73 103 132 178 239 290 350 407
#
# _framework density 22.178401999999998
#
# number of rings (size 3 to 8) (size 9 to 14) (size 15 to 20)
#    0.000    1.000    5.000    1.500    7.000    0.667 
#    1.500    5.000    0.000    0.000    0.000    0.000 
#    0.000    0.000    0.000    0.000    0.000    0.000 
#
# Total GULP energy -297375.209209 kJ/mol
# GULP energy per Si atom -12390.633717 kJ/mol
# Density = 2.212792 g / cm^3
# Si number density = 22.178402 Si / 1000 Ang^3
#
#
#
# Elastic Constant Matrix: (Units=GPa)
#
#
# Indices 1 2 3 4 5 6 
#
# 1 127.1974 63.5427 44.2940 0.0000 17.9296 0.0001
# 2 63.5427 97.3991 18.0777 0.0000 5.7133 0.0000
# 3 44.2940 18.0777 130.3874 0.0000 8.0712 0.0001
# 4 0.0000 0.0000 0.0000 14.2433 0.0000 8.4057
# 5 17.9296 5.7133 8.0712 0.0000 39.9567 -0.0001
# 6 0.0001 0.0000 0.0001 8.4057 -0.0001 22.9152
#
#
#
# Elastic Compliance Matrix: (Units=1/GPa)
#
#
# Indices 1 2 3 4 5 6 
#
# 1 0.013605 -0.008021 -0.003243 0.000000 -0.004303 0.000000
# 2 -0.008021 0.015327 0.000519 0.000000 0.001303 0.000000
# 3 -0.003243 0.000519 0.008723 0.000000 -0.000381 0.000000
# 4 0.000000 0.000000 0.000000 0.089606 0.000000 -0.032869
# 5 -0.004303 0.001303 -0.000381 0.000000 0.026848 0.000000
# 6 0.000000 0.000000 0.000000 -0.032869 0.000000 0.055696
#
#
# Mechanical properties :
#
#
# Convention : Reuss Voigt Hill
#
# Bulk Modulus (GPa) = 61.86505 67.42363 64.64434
# Shear Modulus (GPa) = 21.12518 30.69435 25.90977
#
# Velocity S-wave (km/s) = 3.08963 3.72422 3.42167
# Velocity P-wave (km/s) = 6.37829 6.99712 6.69486
#
# Compressibility (1/GPa) = 0.01616421
#
# Stress axis : x y z
#
# Youngs Moduli (GPa) = 73.50311 65.24287 114.64203
#
# Poissons Ratio (x) = 0.52334 0.37181
# Poissons Ratio (y) = 0.58960 -0.05953
# Poissons Ratio (z) = 0.23839 -0.03388
#
# Static dielectric constant tensor:
#      x y z
#    x 4.494460 0.000000 0.256570 
#    y 0.000000 3.416980 0.000000 
#    z 0.256570 0.000000 4.137280 
# 
# 
# High freq. dielectric constant tensor:
#      x y z
#    x 1.894940 0.000000 0.016850 
#    y 0.000000 1.855800 0.000000 
#    z 0.016850 0.000000 1.873520 
# 
# From -- ./inp_files/100003.got.cif
#   From: 2010.06.25/outbox.cif.g09.slc.cpg/sg15_51_cif.got.tgz:100003.got - 2010.06.28 07:06:18.
