data_PCOD8147658
_publ_section_title
;
Structure prediction by ZEFSAII (Michael W. Deem and Ramdas Pophale) SiO2 
 PCOD8147658
Probable space group: C 2/C
;
_chemical_formula_sum "Si O2"
_cell_formula_units_Z 52
_cell_length_a 24.015433
_cell_length_b 12.722730
_cell_length_c 16.267494
_cell_angle_alpha 90.000000
_cell_angle_beta 29.342802
_cell_angle_gamma 90.000000
_cell_volume 2435.664173
_symmetry_space_group_name_H-M "C 2/C"
_symmetry_group_IT_number 15
_symmetry_cell_setting 'monoclinic'
loop_
_space_group_symop_operation_xyz
x,y,z
-x,y,1/2-z
-x,-y,-z
x,-y,1/2+z
1/2+x,1/2+y,z
1/2-x,1/2+y,1/2-z
1/2-x,1/2-y,-z
1/2+x,1/2-y,1/2+z
loop_
_atom_site_type_symbol
_atom_site_label
_atom_site_fract_x
_atom_site_fract_y
_atom_site_fract_z
Si Si1 0.140714 0.900516 0.856232
Si Si2 0.801079 0.177360 0.865544
Si Si3 0.080111 0.414748 0.577399
Si Si4 0.000000 0.186138 0.250000
Si Si5 0.896558 0.358365 0.494181
Si Si6 0.005088 0.699752 0.466512
Si Si7 0.451244 0.492880 0.689315
O O1 0.274449 0.881110 0.693303
O O2 0.110646 0.967376 0.815547
O O3 0.092591 0.784917 0.910603
O O4 0.082131 0.966651 0.007162
O O5 0.875646 0.247093 0.708596
O O6 0.876357 0.090875 0.818221
O O7 0.750000 0.250000 0.000000
O O8 0.706801 0.126973 0.927456
O O9 0.073753 0.539797 0.597103
O O10 0.000000 0.362593 0.750000
O O11 0.031306 0.390320 0.550082
O O12 0.060166 0.107735 0.237127
O O13 0.907351 0.258337 0.417736
O O14 0.986370 0.345429 0.452528
#
# Coordination Sequence:
#
# PCOD8147658 Si02
#       7
#     8   8   8   4   8   8   8
#     4  10  22  44  69  93 136 177 230 281 336 411
#     4  11  23  44  72  99 132 178 230 286 343 411
#     4  12  24  43  64  98 137 173 220 293 342 402
#     4  12  26  44  72 104 146 186 232 284 352 414
#     4  12  25  44  68 102 139 186 226 283 349 415
#     4  11  24  43  70  99 132 178 234 275 347 419
#     4  10  23  44  68  98 135 179 228 285 341 412
#
# _framework density 21.349412000000001
#
# number of rings (size 3 to 8) (size 9 to 14) (size 15 to 20)
#    0.000    0.923    5.385    1.385    0.000    5.538 
#    2.769    0.000    0.000    0.000    0.000    0.000 
#    0.000    0.000    0.000    0.000    0.000    0.000 
#
# Total GULP energy -322284.206501 kJ/mol
# GULP energy per Si atom -12395.546404 kJ/mol
# Density = 2.130082 g / cm^3
# Si number density = 21.349412 Si / 1000 Ang^3
#
#
#
# Elastic Constant Matrix: (Units=GPa)
#
#
# Indices 1 2 3 4 5 6 
#
# 1 92.9065 41.1370 34.9542 0.0000 4.5064 0.0000
# 2 41.1370 128.1218 44.1609 0.0000 1.0330 0.0000
# 3 34.9542 44.1609 91.2846 0.0000 -0.7929 0.0000
# 4 0.0000 0.0000 0.0000 30.0096 0.0000 9.6524
# 5 4.5064 1.0330 -0.7929 0.0000 20.4440 0.0000
# 6 0.0000 0.0000 0.0000 9.6524 0.0000 32.5065
#
#
#
# Elastic Compliance Matrix: (Units=1/GPa)
#
#
# Indices 1 2 3 4 5 6 
#
# 1 0.013692 -0.003067 -0.003785 0.000000 -0.003010 0.000000
# 2 -0.003067 0.010063 -0.003693 0.000000 0.000024 0.000000
# 3 -0.003785 -0.003693 0.014205 0.000000 0.001572 0.000000
# 4 0.000000 0.000000 0.000000 0.036841 0.000000 -0.010940
# 5 -0.003010 0.000024 0.001572 0.000000 0.049637 0.000000
# 6 0.000000 0.000000 0.000000 -0.010940 0.000000 0.034011
#
#
# Mechanical properties :
#
#
# Convention : Reuss Voigt Hill
#
# Bulk Modulus (GPa) = 59.28515 61.42414 60.35464
# Shear Modulus (GPa) = 27.00330 29.39607 28.19969
#
# Velocity S-wave (km/s) = 3.56030 3.71469 3.63831
# Velocity P-wave (km/s) = 6.68807 6.87255 6.78093
#
# Compressibility (1/GPa) = 0.01686763
#
# Stress axis : x y z
#
# Youngs Moduli (GPa) = 73.03731 99.37677 70.40015
#
# Poissons Ratio (x) = 0.30481 0.26647
# Poissons Ratio (y) = 0.22402 0.26001
# Poissons Ratio (z) = 0.27645 0.36704
#
# Static dielectric constant tensor:
#      x y z
#    x 3.614790 0.000000 -0.035150 
#    y 0.000000 4.083910 0.000000 
#    z -0.035150 0.000000 3.848130 
# 
# 
# High freq. dielectric constant tensor:
#      x y z
#    x 1.822360 0.000000 0.002560 
#    y 0.000000 1.855720 0.000000 
#    z 0.002560 0.000000 1.839010 
# 
# From -- ./inp_files/222447.got.cif
#   From: 2010.06.25/outbox.cif.g09.slc.cpg/sg15_112_cif.got.tgz:222447.got - 2010.06.28 07:06:18.
