data_PCOD8147469
_publ_section_title
;
Structure prediction by ZEFSAII (Michael W. Deem and Ramdas Pophale) SiO2 
 PCOD8147469
Probable space group: C 2/C
;
_chemical_formula_sum "Si O2"
_cell_formula_units_Z 52
_cell_length_a 25.485446
_cell_length_b 8.846311
_cell_length_c 14.087000
_cell_angle_alpha 90.000000
_cell_angle_beta 125.148241
_cell_angle_gamma 90.000000
_cell_volume 2596.859901
_symmetry_space_group_name_H-M "C 2/C"
_symmetry_group_IT_number 15
_symmetry_cell_setting 'monoclinic'
loop_
_space_group_symop_operation_xyz
x,y,z
-x,y,1/2-z
-x,-y,-z
x,-y,1/2+z
1/2+x,1/2+y,z
1/2-x,1/2+y,1/2-z
1/2-x,1/2-y,-z
1/2+x,1/2-y,1/2+z
loop_
_atom_site_type_symbol
_atom_site_label
_atom_site_fract_x
_atom_site_fract_y
_atom_site_fract_z
Si Si1 0.000000 0.774215 0.750000
Si Si2 0.757626 0.490756 0.458437
Si Si3 0.337326 0.646492 0.275696
Si Si4 0.534163 0.504069 0.634061
Si Si5 0.676352 0.684296 0.017630
Si Si6 0.063292 0.704440 0.273825
Si Si7 0.377625 0.097380 0.689433
O O1 0.993828 0.884668 0.653744
O O2 0.064445 0.675027 0.808250
O O3 0.726932 0.592209 0.343697
O O4 0.708758 0.454288 0.493948
O O5 0.779023 0.331745 0.436269
O O6 0.816966 0.590582 0.556408
O O7 0.391405 0.533635 0.296049
O O8 0.330827 0.634478 0.381373
O O9 0.357754 0.815678 0.264720
O O10 0.500000 0.500000 0.500000
O O11 0.533301 0.672803 0.672644
O O12 0.606885 0.718135 0.900322
O O13 0.103132 0.574007 0.260694
O O14 0.000000 0.623693 0.250000
#
# Coordination Sequence:
#
# PCOD8147469 Si02
#       7
#     4   8   8   8   8   8   8
#     4  10  22  44  60  94 132 156 218 268 306 390
#     4  10  22  44  64  91 131 171 208 269 327 385
#     4  11  23  40  64  96 126 163 220 266 314 387
#     4  11  23  40  64  94 123 171 215 258 318 385
#     4  10  23  41  64  95 128 167 218 265 320 392
#     4  11  20  42  66  87 131 174 206 265 329 376
#     4  10  23  41  65  96 129 167 213 265 330 377
#
# _framework density 20.024184999999999
#
# number of rings (size 3 to 8) (size 9 to 14) (size 15 to 20)
#    0.000    1.538    3.077    1.385    2.154    0.000 
#    8.308    2.308    0.000    0.000    0.000    0.000 
#    0.000    0.000    0.000    0.000    0.000    0.000 
#
# Total GULP energy -322390.940339 kJ/mol
# GULP energy per Si atom -12399.651551 kJ/mol
# Density = 1.997861 g / cm^3
# Si number density = 20.024185 Si / 1000 Ang^3
#
#
#
# Elastic Constant Matrix: (Units=GPa)
#
#
# Indices 1 2 3 4 5 6 
#
# 1 86.1953 28.4378 45.8713 0.0000 1.7593 0.0000
# 2 28.4378 88.7947 49.8533 0.0000 1.6427 0.0000
# 3 45.8713 49.8533 126.9329 0.0000 -0.0942 0.0000
# 4 0.0000 0.0000 0.0000 25.1104 0.0000 3.6690
# 5 1.7593 1.6427 -0.0942 0.0000 39.3704 0.0000
# 6 0.0000 0.0000 0.0000 3.6690 0.0000 21.1594
#
#
#
# Elastic Compliance Matrix: (Units=1/GPa)
#
#
# Indices 1 2 3 4 5 6 
#
# 1 0.014708 -0.002201 -0.004451 0.000000 -0.000576 0.000000
# 2 -0.002201 0.014792 -0.005015 0.000000 -0.000531 0.000000
# 3 -0.004451 -0.005015 0.011457 0.000000 0.000436 0.000000
# 4 0.000000 0.000000 0.000000 0.040859 0.000000 -0.007085
# 5 -0.000576 -0.000531 0.000436 0.000000 0.025449 0.000000
# 6 0.000000 0.000000 0.000000 -0.007085 0.000000 0.048489
#
#
# Mechanical properties :
#
#
# Convention : Reuss Voigt Hill
#
# Bulk Modulus (GPa) = 56.74267 61.13864 58.94065
# Shear Modulus (GPa) = 27.03255 28.97873 28.00564
#
# Velocity S-wave (km/s) = 3.67821 3.80832 3.74383
# Velocity P-wave (km/s) = 6.81451 7.06657 6.94169
#
# Compressibility (1/GPa) = 0.01762342
#
# Stress axis : x y z
#
# Youngs Moduli (GPa) = 67.98869 67.60383 87.28493
#
# Poissons Ratio (x) = 0.14877 0.38854
# Poissons Ratio (y) = 0.14962 0.43771
# Poissons Ratio (z) = 0.30265 0.33902
#
# Static dielectric constant tensor:
#      x y z
#    x 3.244050 0.000000 -0.412840 
#    y 0.000000 3.403700 0.000000 
#    z -0.412840 0.000000 2.788920 
# 
# 
# High freq. dielectric constant tensor:
#      x y z
#    x 1.793150 0.000000 0.016240 
#    y 0.000000 1.788740 0.000000 
#    z 0.016240 0.000000 1.771440 
# 
# From -- ./inp_files/122059.got.cif
#   From: 2010.06.25/outbox.cif.g09.slc.cpg/sg15_62_cif.got.tgz:122059.got - 2010.06.28 07:06:18.
