data_PCOD8147452
_publ_section_title
;
Structure prediction by ZEFSAII (Michael W. Deem and Ramdas Pophale) SiO2 
 PCOD8147452
Probable space group: C 2/C
;
_chemical_formula_sum "Si O2"
_cell_formula_units_Z 48
_cell_length_a 16.878225
_cell_length_b 5.212605
_cell_length_c 23.946503
_cell_angle_alpha 90.000000
_cell_angle_beta 99.663797
_cell_angle_gamma 90.000000
_cell_volume 2076.905762
_symmetry_space_group_name_H-M "C 2/C"
_symmetry_group_IT_number 15
_symmetry_cell_setting 'monoclinic'
loop_
_space_group_symop_operation_xyz
x,y,z
-x,y,1/2-z
-x,-y,-z
x,-y,1/2+z
1/2+x,1/2+y,z
1/2-x,1/2+y,1/2-z
1/2-x,1/2-y,-z
1/2+x,1/2-y,1/2+z
loop_
_atom_site_type_symbol
_atom_site_label
_atom_site_fract_x
_atom_site_fract_y
_atom_site_fract_z
Si Si1 0.982634 0.184204 0.682722
Si Si2 0.305029 0.060053 0.539365
Si Si3 0.334142 0.379145 0.636459
Si Si4 0.701826 0.848130 0.255173
Si Si5 0.812410 0.335601 0.427414
Si Si6 0.567403 0.166228 0.654473
O O1 0.002937 0.433721 0.647527
O O2 0.000000 0.237979 0.750000
O O3 0.031242 0.933841 0.669826
O O4 0.889009 0.124493 0.658001
O O5 0.250000 0.250000 0.500000
O O6 0.367325 0.221110 0.585864
O O7 0.248038 0.901945 0.574560
O O8 0.345871 0.896083 0.494410
O O9 0.334932 0.183275 0.688009
O O10 0.241685 0.452028 0.611151
O O11 0.733480 0.574780 0.236456
O O12 0.632497 0.937420 0.205815
O O13 0.892488 0.286441 0.401180
#
# Coordination Sequence:
#
# PCOD8147452 Si02
#       6
#     8   8   8   8   8   8
#     4  12  28  44  63  98 147 187 219 276 352 418
#     4   9  21  41  72 100 129 170 233 289 347 388
#     4  11  24  40  68  95 134 181 228 277 346 413
#     4  12  24  39  68 104 132 174 235 291 335 404
#     4  10  22  43  73  98 131 174 235 289 335 406
#     4  12  26  44  67 101 141 179 227 281 341 405
#
# _framework density 23.111305999999999
#
# number of rings (size 3 to 8) (size 9 to 14) (size 15 to 20)
#    0.000    1.000    3.333    2.500    7.000    0.000 
#    0.000    1.667    0.000    0.000    0.000    0.000 
#    0.000    0.000    0.000    0.000    0.000    0.000 
#
# Total GULP energy -297452.355156 kJ/mol
# GULP energy per Si atom -12393.848132 kJ/mol
# Density = 2.305870 g / cm^3
# Si number density = 23.111306 Si / 1000 Ang^3
#
#
#
# Elastic Constant Matrix: (Units=GPa)
#
#
# Indices 1 2 3 4 5 6 
#
# 1 62.5650 12.2997 33.8245 0.0000 -23.7730 0.0000
# 2 12.2997 90.5658 23.5186 0.0000 -15.1446 0.0000
# 3 33.8245 23.5186 113.5392 0.0000 -21.2682 0.0000
# 4 0.0000 0.0000 0.0000 25.4765 0.0000 -3.9027
# 5 -23.7730 -15.1446 -21.2682 0.0000 33.7127 0.0000
# 6 0.0000 0.0000 0.0000 -3.9027 0.0000 38.2407
#
#
#
# Elastic Compliance Matrix: (Units=1/GPa)
#
#
# Indices 1 2 3 4 5 6 
#
# 1 0.023669 0.000291 -0.004491 0.000000 0.013988 0.000000
# 2 0.000291 0.012226 -0.001760 0.000000 0.004587 0.000000
# 3 -0.004491 -0.001760 0.011078 0.000000 0.003031 0.000000
# 4 0.000000 0.000000 0.000000 0.039875 0.000000 0.004070
# 5 0.013988 0.004587 0.003031 0.000000 0.043499 0.000000
# 6 0.000000 0.000000 0.000000 0.004070 0.000000 0.026565
#
#
# Mechanical properties :
#
#
# Convention : Reuss Voigt Hill
#
# Bulk Modulus (GPa) = 28.52835 45.10615 36.81725
# Shear Modulus (GPa) = 27.69798 32.62112 30.15955
#
# Velocity S-wave (km/s) = 3.46563 3.76104 3.61636
# Velocity P-wave (km/s) = 5.32774 6.19838 5.77948
#
# Compressibility (1/GPa) = 0.03505286
#
# Stress axis : x y z
#
# Youngs Moduli (GPa) = 42.24850 81.79079 90.27016
#
# Poissons Ratio (x) = -0.02380 0.40544
# Poissons Ratio (y) = -0.01229 0.15887
# Poissons Ratio (z) = 0.18975 0.14395
#
# Static dielectric constant tensor:
#      x y z
#    x 3.980630 0.000000 -0.094220 
#    y 0.000000 4.230090 0.000000 
#    z -0.094220 0.000000 5.632800 
# 
# 
# High freq. dielectric constant tensor:
#      x y z
#    x 1.881810 0.000000 -0.005210 
#    y 0.000000 1.929000 0.000000 
#    z -0.005210 0.000000 1.926810 
# 
# From -- ./inp_files/275712.got.cif
#   From: 2010.06.25/outbox.cif.g09.slc.cpg/sg15_138_cif.got.tgz:275712.got - 2010.06.28 07:06:18.
