data_PCOD8147405
_publ_section_title
;
Structure prediction by ZEFSAII (Michael W. Deem and Ramdas Pophale) SiO2 
 PCOD8147405
Probable space group: C 2/C
;
_chemical_formula_sum "Si O2"
_cell_formula_units_Z 56
_cell_length_a 9.021382
_cell_length_b 26.521109
_cell_length_c 17.201694
_cell_angle_alpha 90.000000
_cell_angle_beta 142.831010
_cell_angle_gamma 90.000000
_cell_volume 2486.529608
_symmetry_space_group_name_H-M "C 2/C"
_symmetry_group_IT_number 15
_symmetry_cell_setting 'monoclinic'
loop_
_space_group_symop_operation_xyz
x,y,z
-x,y,1/2-z
-x,-y,-z
x,-y,1/2+z
1/2+x,1/2+y,z
1/2-x,1/2+y,1/2-z
1/2-x,1/2-y,-z
1/2+x,1/2-y,1/2+z
loop_
_atom_site_type_symbol
_atom_site_label
_atom_site_fract_x
_atom_site_fract_y
_atom_site_fract_z
Si Si1 0.753032 0.777708 0.694086
Si Si2 0.425080 0.452151 0.851236
Si Si3 0.295521 0.056838 0.725153
Si Si4 0.474563 0.269724 0.543609
Si Si5 0.031326 0.876489 0.499180
Si Si6 0.024850 0.617512 0.118175
Si Si7 0.556160 0.944993 0.493184
O O1 0.530747 0.754166 0.547142
O O2 0.709849 0.836641 0.685001
O O3 0.000000 0.767170 0.750000
O O4 0.789417 0.757681 0.799923
O O5 0.404388 0.512459 0.849783
O O6 0.169504 0.429756 0.714388
O O7 0.474231 0.428462 0.955686
O O8 0.649203 0.439275 0.887414
O O9 0.500000 0.039273 0.750000
O O10 0.434903 0.067587 0.861895
O O11 0.166044 0.110547 0.650282
O O12 0.250000 0.250000 0.500000
O O13 0.453503 0.329841 0.521014
O O14 0.299503 0.864878 0.577113
O O15 0.935408 0.597505 0.997715
O O16 0.500000 0.000000 0.500000
#
# Coordination Sequence:
#
# PCOD8147405 Si02
#       7
#     8   8   8   8   8   8   8
#     4  10  22  43  70  99 135 180 236 297 362 436
#     4  12  24  44  70  99 141 189 238 284 349 434
#     4  12  26  43  69 101 144 190 245 297 357 426
#     4  10  24  44  70 101 135 180 238 299 366 439
#     4  12  26  45  70 101 141 184 236 293 361 433
#     4  12  25  42  71 101 139 186 238 289 359 426
#     4  12  26  43  66 103 143 189 239 297 355 420
#
# _framework density 22.521348
#
# number of rings (size 3 to 8) (size 9 to 14) (size 15 to 20)
#    0.000    0.571    4.286    3.857    2.000    5.143 
#    0.000    0.000    0.000    0.000    0.000    0.000 
#    0.000    0.000    0.000    0.000    0.000    0.000 
#
# Total GULP energy -347015.037022 kJ/mol
# GULP energy per Si atom -12393.394179 kJ/mol
# Density = 2.247009 g / cm^3
# Si number density = 22.521348 Si / 1000 Ang^3
#
#
#
# Elastic Constant Matrix: (Units=GPa)
#
#
# Indices 1 2 3 4 5 6 
#
# 1 85.4475 33.4571 42.7579 0.0000 -3.6120 0.0000
# 2 33.4571 83.2337 49.4665 0.0000 -11.6674 0.0000
# 3 42.7579 49.4665 145.5182 -0.0005 -36.8881 -0.0001
# 4 0.0000 0.0000 -0.0005 35.8033 -0.0001 -7.2280
# 5 -3.6120 -11.6674 -36.8881 -0.0001 40.3640 0.0000
# 6 0.0000 0.0000 -0.0001 -7.2280 0.0000 39.2878
#
#
#
# Elastic Compliance Matrix: (Units=1/GPa)
#
#
# Indices 1 2 3 4 5 6 
#
# 1 0.015169 -0.004277 -0.003869 0.000000 -0.003415 0.000000
# 2 -0.004277 0.016267 -0.004137 0.000000 0.000539 0.000000
# 3 -0.003869 -0.004137 0.011745 0.000000 0.009192 0.000000
# 4 0.000000 0.000000 0.000000 0.029008 0.000000 0.005337
# 5 -0.003415 0.000539 0.009192 0.000000 0.033025 0.000000
# 6 0.000000 0.000000 0.000000 0.005337 0.000000 0.026435
#
#
# Mechanical properties :
#
#
# Convention : Reuss Voigt Hill
#
# Bulk Modulus (GPa) = 53.71388 62.84027 58.27707
# Shear Modulus (GPa) = 30.78436 35.65888 33.22162
#
# Velocity S-wave (km/s) = 3.70117 3.98343 3.84489
# Velocity P-wave (km/s) = 6.49360 7.00857 6.75600
#
# Compressibility (1/GPa) = 0.01861716
#
# Stress axis : x y z
#
# Youngs Moduli (GPa) = 65.92211 61.47245 85.14250
#
# Poissons Ratio (x) = 0.26291 0.32942
# Poissons Ratio (y) = 0.28194 0.35219
# Poissons Ratio (z) = 0.25505 0.25428
#
# Static dielectric constant tensor:
#      x y z
#    x 4.151130 0.000000 -0.434410 
#    y 0.000000 4.190860 -0.000020 
#    z -0.434410 -0.000020 4.669820 
# 
# 
# High freq. dielectric constant tensor:
#      x y z
#    x 1.881760 0.000000 -0.021880 
#    y 0.000000 1.874650 0.000000 
#    z -0.021880 0.000000 1.904570 
# 
# From -- ./inp_files/193907.got.cif
#   From: 2010.06.25/outbox.cif.g09.slc.cpg/sg15_97_cif.got.tgz:193907.got - 2010.06.28 07:06:18.
