data_PCOD8147583
_publ_section_title
;
Structure prediction by ZEFSAII (Michael W. Deem and Ramdas Pophale) SiO2 
 PCOD8147583
Probable space group: C 2/C
;
_chemical_formula_sum "Si O2"
_cell_formula_units_Z 48
_cell_length_a 11.841883
_cell_length_b 26.059153
_cell_length_c 8.783818
_cell_angle_alpha 90.000000
_cell_angle_beta 127.216734
_cell_angle_gamma 90.000000
_cell_volume 2158.590075
_symmetry_space_group_name_H-M "C 2/C"
_symmetry_group_IT_number 15
_symmetry_cell_setting 'monoclinic'
loop_
_space_group_symop_operation_xyz
x,y,z
-x,y,1/2-z
-x,-y,-z
x,-y,1/2+z
1/2+x,1/2+y,z
1/2-x,1/2+y,1/2-z
1/2-x,1/2-y,-z
1/2+x,1/2-y,1/2+z
loop_
_atom_site_type_symbol
_atom_site_label
_atom_site_fract_x
_atom_site_fract_y
_atom_site_fract_z
Si Si1 0.092640 0.535394 0.682138
Si Si2 0.509647 0.734645 0.078030
Si Si3 0.194321 0.098690 0.808535
Si Si4 0.255397 0.713362 0.647271
Si Si5 0.048237 0.877195 0.619073
Si Si6 0.137101 0.031535 0.048668
O O1 0.151206 0.582877 0.630604
O O2 0.228941 0.504824 0.852444
O O3 0.000000 0.554868 0.750000
O O4 0.000000 0.500000 0.500000
O O5 0.500000 0.741706 0.250000
O O6 0.599069 0.783084 0.092364
O O7 0.591003 0.680613 0.106818
O O8 0.361229 0.732649 0.866965
O O9 0.210719 0.156401 0.886808
O O10 0.082577 0.100105 0.582268
O O11 0.128363 0.058198 0.874487
O O12 0.250000 0.750000 0.500000
O O13 0.000000 0.876201 0.750000
O O14 0.169918 0.920099 0.690331
O O15 0.000000 0.000000 0.000000
#
# Coordination Sequence:
#
# PCOD8147583 Si02
#       6
#     8   8   8   8   8   8
#     4  12  27  47  64  97 144 182 227 287 347 410
#     4  10  22  44  67 102 142 178 228 287 344 415
#     4  11  25  46  68 102 141 183 228 286 348 410
#     4  11  23  44  72 103 140 180 230 289 347 415
#     4  10  23  39  69 105 134 174 238 284 332 403
#     4  12  25  42  72  96 132 186 237 279 336 404
#
# _framework density 22.236737999999999
#
# number of rings (size 3 to 8) (size 9 to 14) (size 15 to 20)
#    0.000    1.000    3.333    2.500    4.667    3.333 
#    9.000    0.000    0.000    0.000    0.000    0.000 
#    0.000    0.000    0.000    0.000    0.000    0.000 
#
# Total GULP energy -297315.276000 kJ/mol
# GULP energy per Si atom -12388.136500 kJ/mol
# Density = 2.218613 g / cm^3
# Si number density = 22.236738 Si / 1000 Ang^3
#
#
#
# Elastic Constant Matrix: (Units=GPa)
#
#
# Indices 1 2 3 4 5 6 
#
# 1 136.8091 48.5094 36.3211 0.0000 -8.2295 0.0000
# 2 48.5094 113.5377 43.7324 0.0000 -7.5042 0.0000
# 3 36.3211 43.7324 111.9742 0.0000 -14.6692 0.0000
# 4 0.0000 0.0000 0.0000 29.2341 0.0000 -6.4509
# 5 -8.2295 -7.5042 -14.6692 0.0000 33.1569 0.0000
# 6 0.0000 0.0000 0.0000 -6.4509 0.0000 38.4014
#
#
#
# Elastic Compliance Matrix: (Units=1/GPa)
#
#
# Indices 1 2 3 4 5 6 
#
# 1 0.008885 -0.003147 -0.001547 0.000000 0.000809 0.000000
# 2 -0.003147 0.011493 -0.003428 0.000000 0.000303 0.000000
# 3 -0.001547 -0.003428 0.011273 0.000000 0.003827 0.000000
# 4 0.000000 0.000000 0.000000 0.035523 0.000000 0.005967
# 5 0.000809 0.000303 0.003827 0.000000 0.032122 0.000000
# 6 0.000000 0.000000 0.000000 0.005967 0.000000 0.027043
#
#
# Mechanical properties :
#
#
# Convention : Reuss Voigt Hill
#
# Bulk Modulus (GPa) = 64.90840 68.82742 66.86791
# Shear Modulus (GPa) = 33.84840 35.74236 34.79538
#
# Velocity S-wave (km/s) = 3.90575 4.01353 3.96001
# Velocity P-wave (km/s) = 7.04222 7.24550 7.14458
#
# Compressibility (1/GPa) = 0.01540633
#
# Stress axis : x y z
#
# Youngs Moduli (GPa) = 112.55519 87.01299 88.70980
#
# Poissons Ratio (x) = 0.27380 0.13723
# Poissons Ratio (y) = 0.35417 0.30410
# Poissons Ratio (z) = 0.17412 0.29829
#
# Static dielectric constant tensor:
#      x y z
#    x -14.131300 0.000000 -12.137800 
#    y 0.000000 4.821830 0.000000 
#    z -12.137800 0.000000 -3.939130 
# 
# 
# High freq. dielectric constant tensor:
#      x y z
#    x 1.877990 0.000000 -0.018950 
#    y 0.000000 1.886430 0.000000 
#    z -0.018950 0.000000 1.875070 
# 
# From -- ./inp_files/33790.got.cif
#   From: 2010.06.25/outbox.cif.g09.slc.cpg/sg15_17_cif.got.tgz:33790.got - 2010.06.28 07:06:18.
