data_PCOD8147497
_publ_section_title
;
Structure prediction by ZEFSAII (Michael W. Deem and Ramdas Pophale) SiO2 
 PCOD8147497
Probable space group: C 2/C
;
_chemical_formula_sum "Si O2"
_cell_formula_units_Z 52
_cell_length_a 5.555291
_cell_length_b 17.307638
_cell_length_c 25.900373
_cell_angle_alpha 90.000000
_cell_angle_beta 56.699406
_cell_angle_gamma 90.000000
_cell_volume 2081.391944
_symmetry_space_group_name_H-M "C 2/C"
_symmetry_group_IT_number 15
_symmetry_cell_setting 'monoclinic'
loop_
_space_group_symop_operation_xyz
x,y,z
-x,y,1/2-z
-x,-y,-z
x,-y,1/2+z
1/2+x,1/2+y,z
1/2-x,1/2+y,1/2-z
1/2-x,1/2-y,-z
1/2+x,1/2-y,1/2+z
loop_
_atom_site_type_symbol
_atom_site_label
_atom_site_fract_x
_atom_site_fract_y
_atom_site_fract_z
Si Si1 0.500000 0.182020 0.750000
Si Si2 0.692790 0.934207 0.000662
Si Si3 0.887420 0.303516 0.081153
Si Si4 0.483957 0.581350 0.672146
Si Si5 0.731351 0.498367 0.395747
Si Si6 0.276609 0.766444 0.621607
Si Si7 0.196501 0.921150 0.681754
O O1 0.592707 0.232376 0.690457
O O2 0.763888 0.125947 0.735880
O O3 0.551971 0.848062 0.014619
O O4 0.712146 0.955369 0.057984
O O5 0.990304 0.935594 0.934155
O O6 0.500000 0.000000 0.000000
O O7 0.774571 0.368850 0.134610
O O8 0.616023 0.256743 0.088281
O O9 0.125938 0.254021 0.084648
O O10 0.358389 0.574629 0.628871
O O11 0.510194 0.493182 0.685078
O O12 0.994802 0.544393 0.338054
O O13 0.252672 0.859245 0.629897
O O14 0.000000 0.883092 0.750000
#
# Coordination Sequence:
#
# PCOD8147497 Si02
#       7
#     4   8   8   8   8   8   8
#     4  10  22  44  64 102 130 198 228 298 338 436
#     4  11  21  41  75 106 137 181 243 316 360 421
#     4  11  24  45  72 103 137 189 236 306 349 436
#     4  11  23  40  71  99 140 175 255 291 355 418
#     4  11  23  41  69 108 140 179 243 304 368 420
#     4  11  27  46  67 101 153 186 241 282 381 428
#     4  12  26  45  67 105 143 199 230 304 356 448
#
# _framework density 24.983283
#
# number of rings (size 3 to 8) (size 9 to 14) (size 15 to 20)
#    0.000    0.923    3.846    2.769    6.462    1.846 
#    0.000    1.538    0.000    0.000    0.000    0.000 
#    0.000    0.000    0.000    0.000    0.000    0.000 
#
# Total GULP energy -322190.937352 kJ/mol
# GULP energy per Si atom -12391.959129 kJ/mol
# Density = 2.492642 g / cm^3
# Si number density = 24.983283 Si / 1000 Ang^3
#
#
#
# Elastic Constant Matrix: (Units=GPa)
#
#
# Indices 1 2 3 4 5 6 
#
# 1 129.5765 18.6632 18.9640 0.0000 -8.4491 0.0000
# 2 18.6632 88.4047 -15.4730 0.0000 -4.4213 0.0000
# 3 18.9640 -15.4730 52.0732 0.0001 -29.7309 -0.0001
# 4 0.0000 0.0000 0.0001 34.5826 -0.0001 6.6139
# 5 -8.4491 -4.4213 -29.7309 -0.0001 41.6403 0.0000
# 6 0.0000 0.0000 -0.0001 6.6139 0.0000 26.5095
#
#
#
# Elastic Compliance Matrix: (Units=1/GPa)
#
#
# Indices 1 2 3 4 5 6 
#
# 1 0.008779 -0.002928 -0.005449 0.000000 -0.002420 0.000000
# 2 -0.002928 0.014017 0.009694 0.000000 0.007815 0.000000
# 3 -0.005449 0.009694 0.040559 0.000000 0.028882 0.000000
# 4 0.000000 0.000000 0.000000 0.030365 0.000000 -0.007576
# 5 -0.002420 0.007815 0.028882 0.000000 0.044976 0.000000
# 6 0.000000 0.000000 0.000000 -0.007576 0.000000 0.039612
#
#
# Mechanical properties :
#
#
# Convention : Reuss Voigt Hill
#
# Bulk Modulus (GPa) = 15.15425 34.92918 25.04172
# Shear Modulus (GPa) = 25.29462 37.07318 31.18390
#
# Velocity S-wave (km/s) = 3.18537 3.85635 3.53681
# Velocity P-wave (km/s) = 4.42806 5.81721 5.16951
#
# Compressibility (1/GPa) = 0.06598808
#
# Stress axis : x y z
#
# Youngs Moduli (GPa) = 113.91048 71.34085 24.65571
#
# Poissons Ratio (x) = 0.20889 0.13434
# Poissons Ratio (y) = 0.33353 -0.23900
# Poissons Ratio (z) = 0.62067 -0.69154
#
# Static dielectric constant tensor:
#      x y z
#    x 4.712070 0.000000 -0.377760 
#    y 0.000000 4.376350 0.000000 
#    z -0.377760 0.000000 4.594990 
# 
# 
# High freq. dielectric constant tensor:
#      x y z
#    x 1.994590 0.000000 -0.017870 
#    y 0.000000 2.001920 0.000000 
#    z -0.017870 0.000000 1.998130 
# 
# From -- ./inp_files/285993.got.cif
#   From: 2010.06.25/outbox.cif.g09.slc.cpg/sg15_143_cif.got.tgz:285993.got - 2010.06.28 07:06:18.
