data_PCOD8147805
_publ_section_title
;
Structure prediction by ZEFSAII (Michael W. Deem and Ramdas Pophale) SiO2 
 PCOD8147805
Probable space group: C 2/C
;
_chemical_formula_sum "Si O2"
_cell_formula_units_Z 48
_cell_length_a 18.666181
_cell_length_b 9.318421
_cell_length_c 12.339003
_cell_angle_alpha 90.000000
_cell_angle_beta 101.057233
_cell_angle_gamma 90.000000
_cell_volume 2106.395392
_symmetry_space_group_name_H-M "C 2/C"
_symmetry_group_IT_number 15
_symmetry_cell_setting 'monoclinic'
loop_
_space_group_symop_operation_xyz
x,y,z
-x,y,1/2-z
-x,-y,-z
x,-y,1/2+z
1/2+x,1/2+y,z
1/2-x,1/2+y,1/2-z
1/2-x,1/2-y,-z
1/2+x,1/2-y,1/2+z
loop_
_atom_site_type_symbol
_atom_site_label
_atom_site_fract_x
_atom_site_fract_y
_atom_site_fract_z
Si Si1 0.500000 0.979026 0.250000
Si Si2 0.140389 0.036732 0.399184
Si Si3 0.000000 0.064083 0.750000
Si Si4 0.739359 0.510322 0.110290
Si Si5 0.575831 0.797713 0.633116
Si Si6 0.129141 0.345070 0.409458
Si Si7 0.214673 0.205487 0.784456
O O1 0.569148 0.886113 0.303800
O O2 0.476973 0.073551 0.346843
O O3 0.056457 0.030321 0.336982
O O4 0.184878 0.904987 0.363919
O O5 0.160253 0.022094 0.533359
O O6 0.167347 0.197596 0.376169
O O7 0.960361 0.151573 0.833793
O O8 0.809910 0.470966 0.054361
O O9 0.733595 0.677098 0.143145
O O10 0.754401 0.397183 0.210778
O O11 0.586424 0.804774 0.507561
O O12 0.653639 0.808193 0.714507
#
# Coordination Sequence:
#
# PCOD8147805 Si02
#       7
#     4   8   4   8   8   8   8
#     4  11  23  44  66 100 136 184 228 278 336 406
#     4  11  24  44  68 101 137 176 226 281 340 400
#     4   9  23  46  68  92 138 176 226 276 340 398
#     4  12  25  44  71 100 139 177 228 277 342 403
#     4  10  22  45  67  93 138 179 223 280 335 396
#     4  12  24  41  69 101 133 177 230 281 334 406
#     4  11  24  46  66 100 138 180 220 281 339 404
#
# _framework density 22.787742000000001
#
# number of rings (size 3 to 8) (size 9 to 14) (size 15 to 20)
#    0.000    1.000    3.333    3.000    2.333    0.667 
#    6.000    0.000    0.000    0.000    0.000    0.000 
#    0.000    0.000    0.000    0.000    0.000    0.000 
#
# Total GULP energy -297373.472838 kJ/mol
# GULP energy per Si atom -12390.561368 kJ/mol
# Density = 2.273588 g / cm^3
# Si number density = 22.787742 Si / 1000 Ang^3
#
#
#
# Elastic Constant Matrix: (Units=GPa)
#
#
# Indices 1 2 3 4 5 6 
#
# 1 65.4542 26.0544 31.8664 0.0000 13.0837 0.0000
# 2 26.0544 145.4979 45.8148 0.0000 9.9011 0.0000
# 3 31.8664 45.8148 85.5081 0.0000 15.2143 0.0000
# 4 0.0000 0.0000 0.0000 29.4618 0.0000 3.9355
# 5 13.0837 9.9011 15.2143 0.0000 43.0199 0.0000
# 6 0.0000 0.0000 0.0000 3.9355 0.0000 34.5238
#
#
#
# Elastic Compliance Matrix: (Units=1/GPa)
#
#
# Indices 1 2 3 4 5 6 
#
# 1 0.019382 -0.001388 -0.005856 0.000000 -0.003504 0.000000
# 2 -0.001388 0.008372 -0.003949 0.000000 -0.000108 0.000000
# 3 -0.005856 -0.003949 0.016556 0.000000 -0.003165 0.000000
# 4 0.000000 0.000000 0.000000 0.034467 0.000000 -0.003929
# 5 -0.003504 -0.000108 -0.003165 0.000000 0.025455 0.000000
# 6 0.000000 0.000000 0.000000 -0.003929 0.000000 0.029413
#
#
# Mechanical properties :
#
#
# Convention : Reuss Voigt Hill
#
# Bulk Modulus (GPa) = 45.61246 55.99238 50.80242
# Shear Modulus (GPa) = 30.61084 34.24940 32.43012
#
# Velocity S-wave (km/s) = 3.66909 3.88103 3.77654
# Velocity P-wave (km/s) = 6.16517 6.68639 6.43106
#
# Compressibility (1/GPa) = 0.02192383
#
# Stress axis : x y z
#
# Youngs Moduli (GPa) = 51.59484 119.43877 60.40007
#
# Poissons Ratio (x) = 0.16583 0.35368
# Poissons Ratio (y) = 0.07163 0.23854
# Poissons Ratio (z) = 0.30212 0.47170
#
# Static dielectric constant tensor:
#      x y z
#    x 4.104420 0.000000 0.070530 
#    y 0.000000 4.169750 0.000000 
#    z 0.070530 0.000000 4.063200 
# 
# 
# High freq. dielectric constant tensor:
#      x y z
#    x 1.888070 0.000000 0.007260 
#    y 0.000000 1.913480 0.000000 
#    z 0.007260 0.000000 1.895340 
# 
# From -- ./inp_files/116487.got.cif
#   From: 2010.06.25/outbox.cif.g09.slc.cpg/sg15_59_cif.got.tgz:116487.got - 2010.06.28 07:06:18.
