data_PCOD8147006
_publ_section_title
;
Structure prediction by ZEFSAII (Michael W. Deem and Ramdas Pophale) SiO2 
 PCOD8147006
Probable space group: C 2/C
;
_chemical_formula_sum "Si O2"
_cell_formula_units_Z 56
_cell_length_a 10.052197
_cell_length_b 23.470979
_cell_length_c 12.285046
_cell_angle_alpha 90.000000
_cell_angle_beta 70.353638
_cell_angle_gamma 90.000000
_cell_volume 2729.738709
_symmetry_space_group_name_H-M "C 2/C"
_symmetry_group_IT_number 15
_symmetry_cell_setting 'monoclinic'
loop_
_space_group_symop_operation_xyz
x,y,z
-x,y,1/2-z
-x,-y,-z
x,-y,1/2+z
1/2+x,1/2+y,z
1/2-x,1/2+y,1/2-z
1/2-x,1/2-y,-z
1/2+x,1/2-y,1/2+z
loop_
_atom_site_type_symbol
_atom_site_label
_atom_site_fract_x
_atom_site_fract_y
_atom_site_fract_z
Si Si1 0.339172 0.299646 0.532647
Si Si2 0.426613 0.594660 0.880476
Si Si3 0.845324 0.778028 0.064973
Si Si4 0.641767 0.179134 0.277657
Si Si5 0.836757 0.544651 0.638877
Si Si6 0.611350 0.076574 0.449245
Si Si7 0.285161 0.592269 0.609641
O O1 0.250000 0.250000 0.500000
O O2 0.345929 0.350372 0.445293
O O3 0.495204 0.279671 0.524202
O O4 0.271396 0.325844 0.659685
O O5 0.500000 0.615424 0.750000
O O6 0.308766 0.546922 0.890095
O O7 0.551365 0.571128 0.924850
O O8 0.847547 0.741374 0.173794
O O9 0.782746 0.839224 0.114322
O O10 0.750000 0.750000 0.000000
O O11 0.500000 0.171040 0.250000
O O12 0.650209 0.131588 0.368542
O O13 0.884511 0.478780 0.629812
O O14 0.813744 0.567797 0.767045
O O15 0.956790 0.582531 0.546378
O O16 0.727195 0.069348 0.511880
#
# Coordination Sequence:
#
# PCOD8147006 Si02
#       7
#     8   8   8   8   8   8   8
#     4  11  24  38  65  96 127 173 213 265 327 391
#     4   9  21  41  64  91 126 168 219 263 318 398
#     4  11  24  44  65  98 135 167 222 270 329 400
#     4  12  25  41  68  96 134 177 218 273 329 396
#     4  10  23  41  69  96 128 177 222 269 330 388
#     4  11  24  43  65  99 134 168 226 276 323 383
#     4  10  22  42  68  95 131 170 218 274 326 394
#
# _framework density 20.514785
#
# number of rings (size 3 to 8) (size 9 to 14) (size 15 to 20)
#    0.000    1.429    2.857    1.286    6.000    4.571 
#    2.571    7.143    0.000    0.000    0.000    0.000 
#    0.000    0.000    0.000    0.000    0.000    0.000 
#
# Total GULP energy -347233.909084 kJ/mol
# GULP energy per Si atom -12401.211039 kJ/mol
# Density = 2.046809 g / cm^3
# Si number density = 20.514785 Si / 1000 Ang^3
#
#
#
# Elastic Constant Matrix: (Units=GPa)
#
#
# Indices 1 2 3 4 5 6 
#
# 1 113.7366 19.4611 54.1406 0.0000 6.9761 0.0000
# 2 19.4611 80.4893 45.6973 0.0000 -7.1308 0.0000
# 3 54.1406 45.6973 121.8414 0.0000 -8.6190 0.0000
# 4 0.0000 0.0000 0.0000 41.1882 0.0000 3.4369
# 5 6.9761 -7.1308 -8.6190 0.0000 34.7639 0.0000
# 6 0.0000 0.0000 0.0000 3.4369 0.0000 42.3857
#
#
#
# Elastic Compliance Matrix: (Units=1/GPa)
#
#
# Indices 1 2 3 4 5 6 
#
# 1 0.011593 -0.000072 -0.005385 0.000000 -0.003676 0.000000
# 2 -0.000072 0.015897 -0.005801 0.000000 0.001837 0.000000
# 3 -0.005385 -0.005801 0.012996 0.000000 0.003113 0.000000
# 4 0.000000 0.000000 0.000000 0.024444 0.000000 -0.001982
# 5 -0.003676 0.001837 0.003113 0.000000 0.030652 0.000000
# 6 0.000000 0.000000 0.000000 -0.001982 0.000000 0.023754
#
#
# Mechanical properties :
#
#
# Convention : Reuss Voigt Hill
#
# Bulk Modulus (GPa) = 55.64035 61.62950 58.63492
# Shear Modulus (GPa) = 33.82024 36.78543 35.30284
#
# Velocity S-wave (km/s) = 4.06467 4.23912 4.15281
# Velocity P-wave (km/s) = 7.01496 7.35302 7.18598
#
# Compressibility (1/GPa) = 0.01797257
#
# Stress axis : x y z
#
# Youngs Moduli (GPa) = 86.25780 62.90358 76.94787
#
# Poissons Ratio (x) = 0.00451 0.41434
# Poissons Ratio (y) = 0.00618 0.44634
# Poissons Ratio (z) = 0.46447 0.36488
#
# Static dielectric constant tensor:
#      x y z
#    x 4.021630 0.000000 -0.269880 
#    y 0.000000 0.700180 0.000000 
#    z -0.269880 0.000000 2.138400 
# 
# 
# High freq. dielectric constant tensor:
#      x y z
#    x 1.818830 0.000000 -0.002050 
#    y 0.000000 1.797550 0.000000 
#    z -0.002050 0.000000 1.803540 
# 
# From -- ./inp_files/81273.got.cif
#   From: 2010.06.25/outbox.cif.g09.slc.cpg/sg15_41_cif.got.tgz:81273.got - 2010.06.28 07:06:18.
