data_PCOD8147642
_publ_section_title
;
Structure prediction by ZEFSAII (Michael W. Deem and Ramdas Pophale) SiO2 
 PCOD8147642
Probable space group: C 2/C
;
_chemical_formula_sum "Si O2"
_cell_formula_units_Z 60
_cell_length_a 9.971842
_cell_length_b 18.096901
_cell_length_c 23.803332
_cell_angle_alpha 90.000000
_cell_angle_beta 142.159334
_cell_angle_gamma 90.000000
_cell_volume 2635.172600
_symmetry_space_group_name_H-M "C 2/C"
_symmetry_group_IT_number 15
_symmetry_cell_setting 'monoclinic'
loop_
_space_group_symop_operation_xyz
x,y,z
-x,y,1/2-z
-x,-y,-z
x,-y,1/2+z
1/2+x,1/2+y,z
1/2-x,1/2+y,1/2-z
1/2-x,1/2-y,-z
1/2+x,1/2-y,1/2+z
loop_
_atom_site_type_symbol
_atom_site_label
_atom_site_fract_x
_atom_site_fract_y
_atom_site_fract_z
Si Si1 0.000000 0.342244 0.750000
Si Si2 0.826947 0.867497 0.059919
Si Si3 0.885028 0.003058 0.155252
Si Si4 0.126870 0.042290 0.125541
Si Si5 0.338388 0.848635 0.892033
Si Si6 0.854327 0.736173 0.594552
Si Si7 0.170164 0.749531 0.213220
Si Si8 0.885700 0.094432 0.942122
O O1 0.785385 0.389702 0.674880
O O2 0.003292 0.290408 0.804889
O O3 0.038800 0.819487 0.146187
O O4 0.884595 0.894929 0.015910
O O5 0.779675 0.932805 0.089275
O O6 0.595188 0.826208 0.980550
O O7 0.706645 0.063439 0.117958
O O8 0.000000 0.974448 0.250000
O O9 0.055384 0.036420 0.166629
O O10 0.239674 0.966989 0.138296
O O11 0.924621 0.061758 0.017238
O O12 0.201483 0.813739 0.896375
O O13 0.248937 0.810165 0.805941
O O14 0.750000 0.750000 0.500000
O O15 0.752608 0.669064 0.597085
O O16 0.116211 0.723891 0.680908
#
# Coordination Sequence:
#
# PCOD8147642 Si02
#       8
#     4   8   8   8   8   8   8   8
#     4  12  24  40  68  94 138 170 238 286 358 422
#     4  11  26  43  70 104 139 188 235 304 360 421
#     4  11  24  44  69 103 147 187 239 289 357 433
#     4  10  23  43  67 100 132 184 227 294 352 429
#     4  12  24  44  71 100 140 189 239 290 363 425
#     4  12  26  42  69 100 140 185 239 295 359 431
#     4  12  27  44  69 103 141 186 239 300 362 429
#     4  10  22  44  68  95 138 174 239 286 357 425
#
# _framework density 22.768906999999999
#
# number of rings (size 3 to 8) (size 9 to 14) (size 15 to 20)
#    0.000    0.800    1.333    6.000    4.667    2.133 
#    0.000    5.333    0.000    0.000    0.000    0.000 
#    0.000    0.000    0.000    0.000    0.000    0.000 
#
# Total GULP energy -371831.622247 kJ/mol
# GULP energy per Si atom -12394.387408 kJ/mol
# Density = 2.271708 g / cm^3
# Si number density = 22.768907 Si / 1000 Ang^3
#
#
#
# Elastic Constant Matrix: (Units=GPa)
#
#
# Indices 1 2 3 4 5 6 
#
# 1 98.1517 21.3029 33.5973 0.0006 -21.3025 0.0000
# 2 21.3029 99.7495 18.9756 -0.0001 -3.7199 0.0005
# 3 33.5973 18.9756 105.0336 0.0018 -2.7095 0.0011
# 4 0.0006 -0.0001 0.0018 20.8536 0.0010 10.0814
# 5 -21.3025 -3.7199 -2.7095 0.0010 37.0901 0.0004
# 6 0.0000 0.0005 0.0011 10.0814 0.0004 48.7465
#
#
#
# Elastic Compliance Matrix: (Units=1/GPa)
#
#
# Indices 1 2 3 4 5 6 
#
# 1 0.013470 -0.001886 -0.003780 0.000000 0.007271 0.000000
# 2 -0.001886 0.010677 -0.001328 0.000000 -0.000110 0.000000
# 3 -0.003780 -0.001328 0.010931 -0.000001 -0.001506 0.000000
# 4 0.000000 0.000000 -0.000001 0.053280 -0.000002 -0.011019
# 5 0.007271 -0.000110 -0.001506 -0.000002 0.031016 0.000000
# 6 0.000000 0.000000 0.000000 -0.011019 0.000000 0.022793
#
#
# Mechanical properties :
#
#
# Convention : Reuss Voigt Hill
#
# Bulk Modulus (GPa) = 47.42119 50.07626 48.74872
# Shear Modulus (GPa) = 30.63981 36.60865 33.62423
#
# Velocity S-wave (km/s) = 3.67234 4.01413 3.84703
# Velocity P-wave (km/s) = 6.23328 6.59737 6.41791
#
# Compressibility (1/GPa) = 0.02108762
#
# Stress axis : x y z
#
# Youngs Moduli (GPa) = 74.24032 93.66311 91.48233
#
# Poissons Ratio (x) = 0.17668 0.34582
# Poissons Ratio (y) = 0.14005 0.12151
# Poissons Ratio (z) = 0.28065 0.12441
#
# Static dielectric constant tensor:
#      x y z
#    x 4.300730 0.000000 -0.326960 
#    y 0.000000 4.314900 0.000000 
#    z -0.326960 0.000000 3.959820 
# 
# 
# High freq. dielectric constant tensor:
#      x y z
#    x 1.906130 0.000000 -0.016370 
#    y 0.000000 1.912700 0.000000 
#    z -0.016370 0.000000 1.886500 
# 
# From -- ./inp_files/266269.got.cif
#   From: 2010.06.25/outbox.cif.g09.slc.cpg/sg15_134_cif.got.tgz:266269.got - 2010.06.28 07:06:18.
