data_PCOD8147420
_publ_section_title
;
Structure prediction by ZEFSAII (Michael W. Deem and Ramdas Pophale) SiO2 
 PCOD8147420
Probable space group: C 2/C
;
_chemical_formula_sum "Si O2"
_cell_formula_units_Z 48
_cell_length_a 8.648418
_cell_length_b 18.029950
_cell_length_c 17.801685
_cell_angle_alpha 90.000000
_cell_angle_beta 122.838795
_cell_angle_gamma 90.000000
_cell_volume 2332.248310
_symmetry_space_group_name_H-M "C 2/C"
_symmetry_group_IT_number 15
_symmetry_cell_setting 'monoclinic'
loop_
_space_group_symop_operation_xyz
x,y,z
-x,y,1/2-z
-x,-y,-z
x,-y,1/2+z
1/2+x,1/2+y,z
1/2-x,1/2+y,1/2-z
1/2-x,1/2-y,-z
1/2+x,1/2-y,1/2+z
loop_
_atom_site_type_symbol
_atom_site_label
_atom_site_fract_x
_atom_site_fract_y
_atom_site_fract_z
Si Si1 0.674412 0.525809 0.590309
Si Si2 0.900224 0.705664 0.995126
Si Si3 0.013687 0.544187 0.427357
Si Si4 0.196697 0.015865 0.764353
Si Si5 0.637004 0.824565 0.182597
Si Si6 0.772522 0.804832 0.373549
O O1 0.500000 0.500000 0.500000
O O2 0.856207 0.499709 0.595779
O O3 0.671587 0.489720 0.672274
O O4 0.649929 0.613605 0.591675
O O5 0.911682 0.625252 0.035276
O O6 0.098741 0.744929 0.051835
O O7 0.750000 0.750000 0.000000
O O8 0.820735 0.703836 0.889613
O O9 0.000000 0.500000 0.500000
O O10 0.808542 0.548737 0.337338
O O11 0.328745 0.087583 0.804276
O O12 0.000000 0.031381 0.750000
O O13 0.764178 0.787767 0.281232
O O14 0.428009 0.802467 0.143521
#
# Coordination Sequence:
#
# PCOD8147420 Si02
#       6
#     8   8   8   8   8   8
#     4  11  22  40  67  99 130 173 224 272 337 397
#     4  12  26  42  66 103 139 171 219 280 339 396
#     4  12  23  44  68 101 134 173 224 279 336 400
#     4  11  23  41  70  96 131 175 230 278 333 401
#     4  10  22  43  71  90 130 180 222 262 337 411
#     4  10  22  44  67  95 128 180 222 266 332 406
#
# _framework density 20.580998999999998
#
# number of rings (size 3 to 8) (size 9 to 14) (size 15 to 20)
#    0.000    1.000    3.333    3.000    4.667    0.000 
#   12.000    0.000    0.000    0.000    0.000    0.000 
#    0.000    0.000    0.000    0.000    0.000    0.000 
#
# Total GULP energy -297585.279539 kJ/mol
# GULP energy per Si atom -12399.386647 kJ/mol
# Density = 2.053416 g / cm^3
# Si number density = 20.580999 Si / 1000 Ang^3
#
#
#
# Elastic Constant Matrix: (Units=GPa)
#
#
# Indices 1 2 3 4 5 6 
#
# 1 119.7312 36.3339 59.5678 0.0000 -11.0975 0.0000
# 2 36.3339 85.1312 53.7367 0.0000 -1.9225 0.0000
# 3 59.5678 53.7367 175.4993 0.0000 -19.3206 0.0000
# 4 0.0000 0.0000 0.0000 31.5251 0.0000 5.4385
# 5 -11.0975 -1.9225 -19.3206 0.0000 44.0124 0.0000
# 6 0.0000 0.0000 0.0000 5.4385 0.0000 34.9894
#
#
#
# Elastic Compliance Matrix: (Units=1/GPa)
#
#
# Indices 1 2 3 4 5 6 
#
# 1 0.010639 -0.002886 -0.002570 0.000000 0.001428 0.000000
# 2 -0.002886 0.015425 -0.003940 0.000000 -0.001783 0.000000
# 3 -0.002570 -0.003940 0.008077 0.000000 0.002725 0.000000
# 4 0.000000 0.000000 0.000000 0.032595 0.000000 -0.005066
# 5 0.001428 -0.001783 0.002725 0.000000 0.024199 0.000000
# 6 0.000000 0.000000 0.000000 -0.005066 0.000000 0.029368
#
#
# Mechanical properties :
#
#
# Convention : Reuss Voigt Hill
#
# Bulk Modulus (GPa) = 65.15229 75.51540 70.33385
# Shear Modulus (GPa) = 34.67154 37.48694 36.07924
#
# Velocity S-wave (km/s) = 4.10889 4.27246 4.19147
# Velocity P-wave (km/s) = 7.36450 7.81729 7.59427
#
# Compressibility (1/GPa) = 0.01534865
#
# Stress axis : x y z
#
# Youngs Moduli (GPa) = 93.99460 64.83008 123.81248
#
# Poissons Ratio (x) = 0.18711 0.31821
# Poissons Ratio (y) = 0.27128 0.48779
# Poissons Ratio (z) = 0.24158 0.25541
#
# Static dielectric constant tensor:
#      x y z
#    x 3.688720 0.000000 -0.026940 
#    y 0.000000 3.410650 0.000000 
#    z -0.026940 0.000000 4.194830 
# 
# 
# High freq. dielectric constant tensor:
#      x y z
#    x 1.813860 0.000000 -0.002330 
#    y 0.000000 1.782740 0.000000 
#    z -0.002330 0.000000 1.832130 
# 
# From -- ./inp_files/190612.got.cif
#   From: 2010.06.25/outbox.cif.g09.slc.cpg/sg15_96_cif.got.tgz:190612.got - 2010.06.28 07:06:18.
