data_PCOD8147077
_publ_section_title
;
Structure prediction by ZEFSAII (Michael W. Deem and Ramdas Pophale) SiO2 
 PCOD8147077
Probable space group: C 2/C
;
_chemical_formula_sum "Si O2"
_cell_formula_units_Z 24
_cell_length_a 5.201238
_cell_length_b 11.829728
_cell_length_c 13.634749
_cell_angle_alpha 90.000000
_cell_angle_beta 95.416091
_cell_angle_gamma 90.000000
_cell_volume 835.190187
_symmetry_space_group_name_H-M "C 2/C"
_symmetry_group_IT_number 15
_symmetry_cell_setting 'monoclinic'
loop_
_space_group_symop_operation_xyz
x,y,z
-x,y,1/2-z
-x,-y,-z
x,-y,1/2+z
1/2+x,1/2+y,z
1/2-x,1/2+y,1/2-z
1/2-x,1/2-y,-z
1/2+x,1/2-y,1/2+z
loop_
_atom_site_type_symbol
_atom_site_label
_atom_site_fract_x
_atom_site_fract_y
_atom_site_fract_z
Si Si1 0.445301 0.125360 0.534487
Si Si2 0.608995 0.762540 0.861239
Si Si3 0.229596 0.001464 0.185668
O O1 0.388004 0.208126 0.438372
O O2 0.704806 0.162800 0.599452
O O3 0.500000 0.000000 0.500000
O O4 0.214495 0.104756 0.606842
O O5 0.500000 0.735277 0.750000
O O6 0.790323 0.875493 0.865145
O O7 0.500000 0.996367 0.250000
O O8 0.000000 0.979635 0.250000
#
# Coordination Sequence:
#
# PCOD8147077 Si02
#       3
#     8   8   8
#     4   9  19  40  72 108 147 195 249 310 376 450
#     4   9  19  40  71 110 151 195 250 311 376 448
#     4  10  22  42  70 106 149 199 250 305 375 450
#
# _framework density 28.735972
#
# number of rings (size 3 to 8) (size 9 to 14) (size 15 to 20)
#    0.000    2.667    0.000    0.000    0.000    2.667 
#    0.000   31.667    0.000   66.000    0.000    0.000 
#    0.000    0.000    0.000    0.000    0.000    0.000 
#
# Total GULP energy -148748.407806 kJ/mol
# GULP energy per Si atom -12395.700651 kJ/mol
# Density = 2.867057 g / cm^3
# Si number density = 28.735972 Si / 1000 Ang^3
#
#
#
# Elastic Constant Matrix: (Units=GPa)
#
#
# Indices 1 2 3 4 5 6 
#
# 1 147.4653 32.6103 90.8094 0.0000 -43.7777 0.0000
# 2 32.6103 163.4805 78.7699 0.0000 10.2793 0.0000
# 3 90.8094 78.7699 241.0272 0.0000 -31.1200 0.0000
# 4 0.0000 0.0000 0.0000 67.3558 0.0000 16.4488
# 5 -43.7777 10.2793 -31.1200 0.0000 71.1565 0.0000
# 6 0.0000 0.0000 0.0000 16.4488 0.0000 25.8731
#
#
#
# Elastic Compliance Matrix: (Units=1/GPa)
#
#
# Indices 1 2 3 4 5 6 
#
# 1 0.010339 -0.000998 -0.002892 0.000000 0.005240 0.000000
# 2 -0.000998 0.007700 -0.002505 0.000000 -0.002822 0.000000
# 3 -0.002892 -0.002505 0.006226 0.000000 0.001305 0.000000
# 4 0.000000 0.000000 0.000000 0.017575 0.000000 -0.011173
# 5 0.005240 -0.002822 0.001305 0.000000 0.018256 0.000000
# 6 0.000000 0.000000 0.000000 -0.011173 0.000000 0.045754
#
#
# Mechanical properties :
#
#
# Convention : Reuss Voigt Hill
#
# Bulk Modulus (GPa) = 87.15346 106.26134 96.70740
# Shear Modulus (GPa) = 40.82799 56.19598 48.51198
#
# Velocity S-wave (km/s) = 3.77344 4.42701 4.11323
# Velocity P-wave (km/s) = 7.02709 7.94921 7.50233
#
# Compressibility (1/GPa) = 0.01147401
#
# Stress axis : x y z
#
# Youngs Moduli (GPa) = 96.72377 129.86347 160.62174
#
# Poissons Ratio (x) = 0.12962 0.46460
# Poissons Ratio (y) = 0.09654 0.40234
# Poissons Ratio (z) = 0.27977 0.32529
#
# Static dielectric constant tensor:
#      x y z
#    x 4.686080 0.000000 -1.030290 
#    y 0.000000 6.355900 0.000000 
#    z -1.030290 0.000000 6.334200 
# 
# 
# High freq. dielectric constant tensor:
#      x y z
#    x 2.141670 0.000000 -0.035140 
#    y 0.000000 2.226490 0.000000 
#    z -0.035140 0.000000 2.190880 
# 
# From -- ./inp_files/127889.got.cif
#   From: 2010.06.25/outbox.cif.g09.slc.cpg/sg15_64_cif.got.tgz:127889.got - 2010.06.28 07:06:18.
