data_PCOD8147374
_publ_section_title
;
Structure prediction by ZEFSAII (Michael W. Deem and Ramdas Pophale) SiO2 
 PCOD8147374
Probable space group: C 2/C
;
_chemical_formula_sum "Si O2"
_cell_formula_units_Z 52
_cell_length_a 8.438011
_cell_length_b 27.526626
_cell_length_c 15.402200
_cell_angle_alpha 90.000000
_cell_angle_beta 41.271972
_cell_angle_gamma 90.000000
_cell_volume 2359.820212
_symmetry_space_group_name_H-M "C 2/C"
_symmetry_group_IT_number 15
_symmetry_cell_setting 'monoclinic'
loop_
_space_group_symop_operation_xyz
x,y,z
-x,y,1/2-z
-x,-y,-z
x,-y,1/2+z
1/2+x,1/2+y,z
1/2-x,1/2+y,1/2-z
1/2-x,1/2-y,-z
1/2+x,1/2-y,1/2+z
loop_
_atom_site_type_symbol
_atom_site_label
_atom_site_fract_x
_atom_site_fract_y
_atom_site_fract_z
Si Si1 0.042413 0.709514 0.944240
Si Si2 0.560773 0.607734 0.946544
Si Si3 0.927315 0.351317 0.907213
Si Si4 0.731777 0.206982 0.611637
Si Si5 0.778681 0.008957 0.658985
Si Si6 0.389638 0.415606 0.701312
Si Si7 0.500000 0.765762 0.750000
O O1 0.291866 0.729283 0.800954
O O2 0.834612 0.696319 0.961276
O O3 0.080469 0.662092 0.987826
O O4 0.946372 0.755653 0.038297
O O5 0.567207 0.596740 0.047797
O O6 0.287816 0.612222 0.026767
O O7 0.702980 0.656879 0.867586
O O8 0.693981 0.566444 0.833660
O O9 0.165641 0.379743 0.782101
O O10 0.907665 0.300414 0.864778
O O11 0.500000 0.231052 0.750000
O O12 0.500000 0.998496 0.750000
O O13 0.820914 0.972901 0.722984
O O14 0.000000 0.000000 0.500000
O O15 0.500000 0.405773 0.750000
#
# Coordination Sequence:
#
# PCOD8147374 Si02
#       7
#     8   8   8   8   8   8   4
#     4  11  25  38  62  97 131 179 224 276 316 403
#     4  11  22  41  63  96 127 175 217 276 339 404
#     4  12  22  40  67  95 132 175 228 267 338 407
#     4  11  23  41  60  89 136 175 220 270 334 385
#     4  10  22  43  69  94 128 168 223 278 344 408
#     4  11  22  41  68  95 126 168 223 280 342 411
#     4  12  22  40  64  92 136 174 224 264 332 382
#
# _framework density 22.035578000000001
#
# number of rings (size 3 to 8) (size 9 to 14) (size 15 to 20)
#    0.000    0.923    3.077    4.615    2.154    3.077 
#    0.000   10.000    0.000    0.000    0.000    0.000 
#    0.000    0.000    0.000    0.000    0.000    0.000 
#
# Total GULP energy -322201.042272 kJ/mol
# GULP energy per Si atom -12392.347780 kJ/mol
# Density = 2.198542 g / cm^3
# Si number density = 22.035578 Si / 1000 Ang^3
#
#
#
# Elastic Constant Matrix: (Units=GPa)
#
#
# Indices 1 2 3 4 5 6 
#
# 1 76.0698 13.1294 11.4521 0.0000 -7.6475 0.0000
# 2 13.1294 94.3695 9.8734 0.0000 -7.3296 0.0000
# 3 11.4521 9.8734 67.6380 0.0000 -19.4293 0.0000
# 4 0.0000 0.0000 0.0000 41.2107 0.0000 1.1341
# 5 -7.6475 -7.3296 -19.4293 0.0000 37.1537 0.0000
# 6 0.0000 0.0000 0.0000 1.1341 0.0000 26.6281
#
#
#
# Elastic Compliance Matrix: (Units=1/GPa)
#
#
# Indices 1 2 3 4 5 6 
#
# 1 0.013840 -0.001625 -0.001624 0.000000 0.001679 0.000000
# 2 -0.001625 0.011026 -0.000948 0.000000 0.001345 0.000000
# 3 -0.001624 -0.000948 0.017708 0.000000 0.008739 0.000000
# 4 0.000000 0.000000 0.000000 0.024294 0.000000 -0.001035
# 5 0.001679 0.001345 0.008739 0.000000 0.032096 0.000000
# 6 0.000000 0.000000 0.000000 -0.001035 0.000000 0.037598
#
#
# Mechanical properties :
#
#
# Convention : Reuss Voigt Hill
#
# Bulk Modulus (GPa) = 29.25664 34.10969 31.68316
# Shear Modulus (GPa) = 31.97949 34.57333 33.27641
#
# Velocity S-wave (km/s) = 3.81368 3.96533 3.89024
# Velocity P-wave (km/s) = 5.71822 6.03971 5.88116
#
# Compressibility (1/GPa) = 0.03418028
#
# Stress axis : x y z
#
# Youngs Moduli (GPa) = 72.25662 90.69139 56.47084
#
# Poissons Ratio (x) = 0.14739 0.09169
# Poissons Ratio (y) = 0.11743 0.05354
# Poissons Ratio (z) = 0.11733 0.08598
#
# Static dielectric constant tensor:
#      x y z
#    x 3.933830 0.000000 -0.190500 
#    y 0.000000 4.286320 0.000000 
#    z -0.190500 0.000000 3.860500 
# 
# 
# High freq. dielectric constant tensor:
#      x y z
#    x 1.858480 0.000000 -0.020320 
#    y 0.000000 1.873220 0.000000 
#    z -0.020320 0.000000 1.859450 
# 
# From -- ./inp_files/193676.got.cif
#   From: 2010.06.25/outbox.cif.g09.slc.cpg/sg15_97_cif.got.tgz:193676.got - 2010.06.28 07:06:18.
