data_PCOD8147167
_publ_section_title
;
Structure prediction by ZEFSAII (Michael W. Deem and Ramdas Pophale) SiO2 
 PCOD8147167
Probable space group: C 2/C
;
_chemical_formula_sum "Si O2"
_cell_formula_units_Z 44
_cell_length_a 20.654109
_cell_length_b 12.703115
_cell_length_c 8.498148
_cell_angle_alpha 90.000000
_cell_angle_beta 118.800499
_cell_angle_gamma 90.000000
_cell_volume 1953.867134
_symmetry_space_group_name_H-M "C 2/C"
_symmetry_group_IT_number 15
_symmetry_cell_setting 'monoclinic'
loop_
_space_group_symop_operation_xyz
x,y,z
-x,y,1/2-z
-x,-y,-z
x,-y,1/2+z
1/2+x,1/2+y,z
1/2-x,1/2+y,1/2-z
1/2-x,1/2-y,-z
1/2+x,1/2-y,1/2+z
loop_
_atom_site_type_symbol
_atom_site_label
_atom_site_fract_x
_atom_site_fract_y
_atom_site_fract_z
Si Si1 0.153421 0.567331 0.351016
Si Si2 0.000000 0.474558 0.250000
Si Si3 0.790426 0.367821 0.269869
Si Si4 0.638928 0.261520 0.100039
Si Si5 0.068538 0.287500 0.186435
Si Si6 0.019419 0.111659 0.591691
O O1 0.074596 0.545644 0.350305
O O2 0.191435 0.464966 0.322670
O O3 0.213052 0.601714 0.551108
O O4 0.145787 0.655481 0.209314
O O5 0.019584 0.396734 0.123791
O O6 0.717177 0.305942 0.132206
O O7 0.858163 0.288208 0.331120
O O8 0.604787 0.356299 0.165488
O O9 0.587734 0.234527 0.891218
O O10 0.023799 0.194425 0.061367
O O11 0.000000 0.117842 0.750000
O O12 0.000000 0.000000 0.500000
#
# Coordination Sequence:
#
# PCOD8147167 Si02
#       6
#     8   4   8   8   8   8
#     4  11  25  42  70 105 139 186 242 295 368 415
#     4  10  22  42  74 104 138 178 238 304 350 424
#     4  11  26  42  67 103 140 189 229 297 362 429
#     4  12  25  45  69 100 147 186 241 296 358 436
#     4  11  23  45  70 103 137 183 239 297 362 420
#     4  12  27  46  70 102 137 188 240 297 358 428
#
# _framework density 22.519442999999999
#
# number of rings (size 3 to 8) (size 9 to 14) (size 15 to 20)
#    0.000    0.727    1.818    5.455    3.818    6.545 
#    0.000    0.000    0.000    0.000    0.000    0.000 
#    0.000    0.000    0.000    0.000    0.000    0.000 
#
# Total GULP energy -272694.746550 kJ/mol
# GULP energy per Si atom -12395.215752 kJ/mol
# Density = 2.246819 g / cm^3
# Si number density = 22.519443 Si / 1000 Ang^3
#
#
#
# Elastic Constant Matrix: (Units=GPa)
#
#
# Indices 1 2 3 4 5 6 
#
# 1 145.4725 54.2179 21.5209 0.0000 2.7316 0.0000
# 2 54.2179 104.5240 13.6196 0.0000 7.6379 0.0000
# 3 21.5209 13.6196 101.2523 0.0000 -16.7275 0.0000
# 4 0.0000 0.0000 0.0000 26.5764 0.0000 -3.0335
# 5 2.7316 7.6379 -16.7275 0.0000 23.9591 0.0000
# 6 0.0000 0.0000 0.0000 -3.0335 0.0000 42.0437
#
#
#
# Elastic Compliance Matrix: (Units=1/GPa)
#
#
# Indices 1 2 3 4 5 6 
#
# 1 0.008684 -0.004284 -0.001365 0.000000 -0.000577 0.000000
# 2 -0.004284 0.012310 -0.001484 0.000000 -0.004472 0.000000
# 3 -0.001365 -0.001484 0.011835 0.000000 0.008891 0.000000
# 4 0.000000 0.000000 0.000000 0.037940 0.000000 0.002737
# 5 -0.000577 -0.004472 0.008891 0.000000 0.049437 0.000000
# 6 0.000000 0.000000 0.000000 0.002737 0.000000 0.023982
#
#
# Mechanical properties :
#
#
# Convention : Reuss Voigt Hill
#
# Bulk Modulus (GPa) = 53.87281 58.88507 56.37894
# Shear Modulus (GPa) = 30.36924 35.97522 33.17223
#
# Velocity S-wave (km/s) = 3.67628 4.00123 3.84220
# Velocity P-wave (km/s) = 6.48034 6.89578 6.69129
#
# Compressibility (1/GPa) = 0.01856224
#
# Stress axis : x y z
#
# Youngs Moduli (GPa) = 115.15884 81.23723 84.49589
#
# Poissons Ratio (x) = 0.34805 0.11531
# Poissons Ratio (y) = 0.49338 0.12538
# Poissons Ratio (z) = 0.15716 0.12055
#
# Static dielectric constant tensor:
#      x y z
#    x 4.541430 0.000000 -0.180980 
#    y 0.000000 3.799030 0.000000 
#    z -0.180980 0.000000 4.048380 
# 
# 
# High freq. dielectric constant tensor:
#      x y z
#    x 1.906560 0.000000 -0.007800 
#    y 0.000000 1.892130 0.000000 
#    z -0.007800 0.000000 1.886890 
# 
# From -- ./inp_files/60938.got.cif
#   From: 2010.06.25/outbox.cif.g09.slc.cpg/sg15_31_cif.got.tgz:60938.got - 2010.06.28 07:06:18.
