data_PCOD8147620
_publ_section_title
;
Structure prediction by ZEFSAII (Michael W. Deem and Ramdas Pophale) SiO2 
 PCOD8147620
Probable space group: C 2/C
;
_chemical_formula_sum "Si O2"
_cell_formula_units_Z 60
_cell_length_a 23.464973
_cell_length_b 21.519480
_cell_length_c 9.751600
_cell_angle_alpha 90.000000
_cell_angle_beta 144.121374
_cell_angle_gamma 90.000000
_cell_volume 2885.873563
_symmetry_space_group_name_H-M "C 2/C"
_symmetry_group_IT_number 15
_symmetry_cell_setting 'monoclinic'
loop_
_space_group_symop_operation_xyz
x,y,z
-x,y,1/2-z
-x,-y,-z
x,-y,1/2+z
1/2+x,1/2+y,z
1/2-x,1/2+y,1/2-z
1/2-x,1/2-y,-z
1/2+x,1/2-y,1/2+z
loop_
_atom_site_type_symbol
_atom_site_label
_atom_site_fract_x
_atom_site_fract_y
_atom_site_fract_z
Si Si1 0.842313 0.659570 0.182900
Si Si2 0.693032 0.173693 0.698761
Si Si3 0.440434 0.843420 0.318777
Si Si4 0.933059 0.478707 0.248078
Si Si5 0.331067 0.437341 0.487509
Si Si6 0.734761 0.539631 0.928540
Si Si7 0.000000 0.141635 0.250000
Si Si8 0.635886 0.748891 0.544246
O O1 0.818574 0.718928 0.232151
O O2 0.948539 0.637711 0.437205
O O3 0.847313 0.677409 0.033664
O O4 0.760734 0.606181 0.048952
O O5 0.606309 0.185377 0.635504
O O6 0.738082 0.106798 0.823675
O O7 0.774517 0.226763 0.875448
O O8 0.394018 0.907924 0.178607
O O9 0.430743 0.793544 0.178668
O O10 0.000000 0.493191 0.250000
O O11 0.000000 0.500000 0.500000
O O12 0.834865 0.517894 0.053559
O O13 0.314468 0.496162 0.553204
O O14 0.340608 0.455880 0.344926
O O15 0.433176 0.401544 0.719934
O O16 0.074313 0.188169 0.475691
#
# Coordination Sequence:
#
# PCOD8147620 Si02
#       8
#     8   8   8   8   8   8   4   8
#     4  11  22  37  62  91 124 162 202 254 315 371
#     4  10  23  39  60  88 126 165 203 256 310 370
#     4  12  22  37  59  92 123 159 202 246 309 373
#     4  12  24  35  57  87 128 162 190 238 301 378
#     4  10  23  41  64  91 122 168 210 257 312 367
#     4  11  23  39  62  93 129 161 205 250 313 381
#     4  10  22  44  68  86 120 166 218 264 306 358
#     4  11  22  42  64  87 118 163 217 257 306 362
#
# _framework density 20.790932000000002
#
# number of rings (size 3 to 8) (size 9 to 14) (size 15 to 20)
#    0.000    1.067    4.000    2.800    3.733    0.533 
#    0.000    0.000    0.000    0.000    0.000    0.000 
#    0.000    0.000    0.000    0.000    0.000    0.000 
#
# Total GULP energy -371835.727287 kJ/mol
# GULP energy per Si atom -12394.524243 kJ/mol
# Density = 2.074361 g / cm^3
# Si number density = 20.790932 Si / 1000 Ang^3
#
#
#
# Elastic Constant Matrix: (Units=GPa)
#
#
# Indices 1 2 3 4 5 6 
#
# 1 100.6842 48.8192 31.4956 0.0000 -13.8077 0.0000
# 2 48.8192 99.3938 41.5314 0.0000 -4.9785 0.0000
# 3 31.4956 41.5314 66.7160 0.0000 -13.8390 0.0000
# 4 0.0000 0.0000 0.0000 23.7694 0.0000 3.1352
# 5 -13.8077 -4.9785 -13.8390 0.0000 28.4410 0.0000
# 6 0.0000 0.0000 0.0000 3.1352 0.0000 38.5699
#
#
#
# Elastic Compliance Matrix: (Units=1/GPa)
#
#
# Indices 1 2 3 4 5 6 
#
# 1 0.014042 -0.005816 -0.002008 0.000000 0.004822 0.000000
# 2 -0.005816 0.016104 -0.008097 0.000000 -0.003945 0.000000
# 3 -0.002008 -0.008097 0.022780 0.000000 0.008692 0.000000
# 4 0.000000 0.000000 0.000000 0.042527 0.000000 -0.003457
# 5 0.004822 -0.003945 0.008692 0.000000 0.041041 0.000000
# 6 0.000000 0.000000 0.000000 -0.003457 0.000000 0.026208
#
#
# Mechanical properties :
#
#
# Convention : Reuss Voigt Hill
#
# Bulk Modulus (GPa) = 47.43173 56.72072 52.07622
# Shear Modulus (GPa) = 24.80512 27.81924 26.31218
#
# Velocity S-wave (km/s) = 3.45784 3.66190 3.56133
# Velocity P-wave (km/s) = 6.22940 6.72459 6.48172
#
# Compressibility (1/GPa) = 0.02108294
#
# Stress axis : x y z
#
# Youngs Moduli (GPa) = 71.21703 62.09816 43.89729
#
# Poissons Ratio (x) = 0.36118 0.08814
# Poissons Ratio (y) = 0.41422 0.35544
# Poissons Ratio (z) = 0.14300 0.50282
#
# Static dielectric constant tensor:
#      x y z
#    x 3.649740 0.000000 0.116750 
#    y 0.000000 4.146110 0.000000 
#    z 0.116750 0.000000 3.781730 
# 
# 
# High freq. dielectric constant tensor:
#      x y z
#    x 1.804770 0.000000 0.004110 
#    y 0.000000 1.822870 0.000000 
#    z 0.004110 0.000000 1.804660 
# 
# From -- ./inp_files/63524.got.cif
#   From: 2010.06.25/outbox.cif.g09.slc.cpg/sg15_32_cif.got.tgz:63524.got - 2010.06.28 07:06:18.
