data_PCOD8147424
_publ_section_title
;
Structure prediction by ZEFSAII (Michael W. Deem and Ramdas Pophale) SiO2 
 PCOD8147424
Probable space group: C 2/C
;
_chemical_formula_sum "Si O2"
_cell_formula_units_Z 36
_cell_length_a 15.015165
_cell_length_b 10.159759
_cell_length_c 11.837409
_cell_angle_alpha 90.000000
_cell_angle_beta 112.864112
_cell_angle_gamma 90.000000
_cell_volume 1663.918404
_symmetry_space_group_name_H-M "C 2/C"
_symmetry_group_IT_number 15
_symmetry_cell_setting 'monoclinic'
loop_
_space_group_symop_operation_xyz
x,y,z
-x,y,1/2-z
-x,-y,-z
x,-y,1/2+z
1/2+x,1/2+y,z
1/2-x,1/2+y,1/2-z
1/2-x,1/2-y,-z
1/2+x,1/2-y,1/2+z
loop_
_atom_site_type_symbol
_atom_site_label
_atom_site_fract_x
_atom_site_fract_y
_atom_site_fract_z
Si Si1 0.802077 0.412748 0.334737
Si Si2 0.500000 0.576211 0.250000
Si Si3 0.364269 0.356174 0.112653
Si Si4 0.340242 0.205405 0.306257
Si Si5 0.025818 0.246018 0.042032
O O1 0.752112 0.385443 0.434956
O O2 0.744682 0.315858 0.218348
O O3 0.792267 0.561973 0.288131
O O4 0.915494 0.378364 0.398416
O O5 0.406668 0.485446 0.193230
O O6 0.511056 0.663711 0.145873
O O7 0.389177 0.231148 0.206982
O O8 0.405988 0.338536 0.008737
O O9 0.421539 0.218960 0.441969
#
# Coordination Sequence:
#
# PCOD8147424 Si02
#       5
#     8   4   8   8   8
#     4  10  23  44  71 104 132 179 225 279 340 402
#     4  12  24  42  70 102 134 186 228 278 334 412
#     4  10  22  43  71  94 137 178 225 272 343 400
#     4  10  23  44  70 102 136 175 228 275 340 405
#     4  12  23  45  69 101 134 180 230 281 337 399
#
# _framework density 21.635677000000001
#
# number of rings (size 3 to 8) (size 9 to 14) (size 15 to 20)
#    1.333    0.000    2.222    3.333    0.000    0.000 
#    8.000    2.222    0.000    0.000    0.000    0.000 
#    0.000    0.000    0.000    0.000    0.000    0.000 
#
# Total GULP energy -223010.339418 kJ/mol
# GULP energy per Si atom -12389.463301 kJ/mol
# Density = 2.158643 g / cm^3
# Si number density = 21.635677 Si / 1000 Ang^3
#
#
#
# Elastic Constant Matrix: (Units=GPa)
#
#
# Indices 1 2 3 4 5 6 
#
# 1 87.7117 60.7205 51.8279 0.0000 12.9426 0.0000
# 2 60.7205 165.0737 58.8586 0.0000 -4.3468 0.0000
# 3 51.8279 58.8586 101.3187 0.0000 0.8969 0.0000
# 4 0.0000 0.0000 0.0000 12.8039 0.0000 5.8258
# 5 12.9426 -4.3468 0.8969 0.0000 35.9816 0.0000
# 6 0.0000 0.0000 0.0000 5.8258 0.0000 42.7075
#
#
#
# Elastic Compliance Matrix: (Units=1/GPa)
#
#
# Indices 1 2 3 4 5 6 
#
# 1 0.020469 -0.005077 -0.007452 0.000000 -0.007790 0.000000
# 2 -0.005077 0.008939 -0.002622 0.000000 0.002971 0.000000
# 3 -0.007452 -0.002622 0.015187 0.000000 0.001985 0.000000
# 4 0.000000 0.000000 0.000000 0.083270 0.000000 -0.011359
# 5 -0.007790 0.002971 0.001985 0.000000 0.030904 0.000000
# 6 0.000000 0.000000 0.000000 -0.011359 0.000000 0.024965
#
#
# Mechanical properties :
#
#
# Convention : Reuss Voigt Hill
#
# Bulk Modulus (GPa) = 69.96652 77.43534 73.70093
# Shear Modulus (GPa) = 22.85210 30.47841 26.66525
#
# Velocity S-wave (km/s) = 3.25348 3.75735 3.51446
# Velocity P-wave (km/s) = 6.82072 7.39539 7.11386
#
# Compressibility (1/GPa) = 0.01429255
#
# Stress axis : x y z
#
# Youngs Moduli (GPa) = 48.85537 111.87487 65.84474
#
# Poissons Ratio (x) = 0.56801 0.49067
# Poissons Ratio (y) = 0.24805 0.17263
# Poissons Ratio (z) = 0.36407 0.29331
#
# Static dielectric constant tensor:
#      x y z
#    x 4.075600 0.000000 0.184690 
#    y 0.000000 3.807120 0.000000 
#    z 0.184690 0.000000 3.677860 
# 
# 
# High freq. dielectric constant tensor:
#      x y z
#    x 1.855430 0.000000 0.014030 
#    y 0.000000 1.847540 0.000000 
#    z 0.014030 0.000000 1.832460 
# 
# From -- ./inp_files/109846.got.cif
#   From: 2010.06.25/outbox.cif.g09.slc.cpg/sg15_55_cif.got.tgz:109846.got - 2010.06.28 07:06:18.
