data_PCOD8147255
_publ_section_title
;
Structure prediction by ZEFSAII (Michael W. Deem and Ramdas Pophale) SiO2 
 PCOD8147255
Probable space group: C 2/C
;
_chemical_formula_sum "Si O2"
_cell_formula_units_Z 40
_cell_length_a 16.366314
_cell_length_b 6.373372
_cell_length_c 17.942963
_cell_angle_alpha 90.000000
_cell_angle_beta 107.823159
_cell_angle_gamma 90.000000
_cell_volume 1781.779187
_symmetry_space_group_name_H-M "C 2/C"
_symmetry_group_IT_number 15
_symmetry_cell_setting 'monoclinic'
loop_
_space_group_symop_operation_xyz
x,y,z
-x,y,1/2-z
-x,-y,-z
x,-y,1/2+z
1/2+x,1/2+y,z
1/2-x,1/2+y,1/2-z
1/2-x,1/2-y,-z
1/2+x,1/2-y,1/2+z
loop_
_atom_site_type_symbol
_atom_site_label
_atom_site_fract_x
_atom_site_fract_y
_atom_site_fract_z
Si Si1 0.911302 0.384876 0.469971
Si Si2 0.749091 0.348755 0.918944
Si Si3 0.118596 0.599586 0.815029
Si Si4 0.901243 0.176116 0.624429
Si Si5 0.975580 0.185037 0.348158
O O1 0.840654 0.554197 0.423248
O O2 0.884788 0.277889 0.539216
O O3 0.922938 0.205229 0.410115
O O4 0.000000 0.500000 0.500000
O O5 0.719141 0.159223 0.855156
O O6 0.678047 0.524845 0.886141
O O7 0.750000 0.250000 0.000000
O O8 0.104529 0.348658 0.810485
O O9 0.084065 0.725178 0.734186
O O10 0.063252 0.676801 0.872279
O O11 0.993742 0.057223 0.654715
#
# Coordination Sequence:
#
# PCOD8147255 Si02
#       5
#     8   8   8   8   8
#     4  12  22  43  66 102 131 173 229 283 325 394
#     4  11  23  42  66  98 135 176 225 266 337 415
#     4  10  22  43  65  94 137 178 220 268 346 409
#     4  11  22  44  72  91 134 185 216 279 344 399
#     4  10  23  41  66 101 130 170 235 275 331 404
#
# _framework density 22.449470999999999
#
# number of rings (size 3 to 8) (size 9 to 14) (size 15 to 20)
#    0.000    1.200    4.000    2.400    0.000    6.400 
#    3.600    0.000    0.000    0.000    0.000    0.000 
#    0.000    0.000    0.000    0.000    0.000    0.000 
#
# Total GULP energy -247832.011148 kJ/mol
# GULP energy per Si atom -12391.600557 kJ/mol
# Density = 2.239837 g / cm^3
# Si number density = 22.449471 Si / 1000 Ang^3
#
#
#
# Elastic Constant Matrix: (Units=GPa)
#
#
# Indices 1 2 3 4 5 6 
#
# 1 97.1691 39.3166 35.6379 0.0000 24.6959 0.0000
# 2 39.3166 139.7934 51.0581 0.0000 22.8255 0.0000
# 3 35.6379 51.0581 100.1230 0.0000 21.1829 0.0000
# 4 0.0000 0.0000 0.0000 33.1882 0.0000 7.1530
# 5 24.6959 22.8255 21.1829 0.0000 35.8043 0.0000
# 6 0.0000 0.0000 0.0000 7.1530 0.0000 37.0417
#
#
#
# Elastic Compliance Matrix: (Units=1/GPa)
#
#
# Indices 1 2 3 4 5 6 
#
# 1 0.013671 -0.001824 -0.002500 0.000000 -0.006788 0.000000
# 2 -0.001824 0.009406 -0.003595 0.000000 -0.002612 0.000000
# 3 -0.002500 -0.003595 0.013558 0.000000 -0.004005 0.000000
# 4 0.000000 0.000000 0.000000 0.031440 0.000000 -0.006071
# 5 -0.006788 -0.002612 -0.004005 0.000000 0.036646 0.000000
# 6 0.000000 0.000000 0.000000 -0.006071 0.000000 0.028169
#
#
# Mechanical properties :
#
#
# Convention : Reuss Voigt Hill
#
# Bulk Modulus (GPa) = 48.08110 65.45674 56.76892
# Shear Modulus (GPa) = 32.12129 35.27836 33.69983
#
# Velocity S-wave (km/s) = 3.78673 3.96846 3.87866
# Velocity P-wave (km/s) = 6.37048 7.08653 6.73803
#
# Compressibility (1/GPa) = 0.02079819
#
# Stress axis : x y z
#
# Youngs Moduli (GPa) = 73.14570 106.31869 73.75607
#
# Poissons Ratio (x) = 0.19388 0.18440
# Poissons Ratio (y) = 0.13338 0.26514
# Poissons Ratio (z) = 0.18287 0.38220
#
# Static dielectric constant tensor:
#      x y z
#    x 4.323050 0.000000 -0.037950 
#    y 0.000000 4.635670 0.000000 
#    z -0.037950 0.000000 4.625270 
# 
# 
# High freq. dielectric constant tensor:
#      x y z
#    x 1.864590 0.000000 0.020980 
#    y 0.000000 1.894510 0.000000 
#    z 0.020980 0.000000 1.881730 
# 
# From -- ./inp_files/246296.got.cif
#   From: 2010.06.25/outbox.cif.g09.slc.cpg/sg15_124_cif.got.tgz:246296.got - 2010.06.28 07:06:18.
