data_PCOD8147101
_publ_section_title
;
Structure prediction by ZEFSAII (Michael W. Deem and Ramdas Pophale) SiO2 
 PCOD8147101
Probable space group: C 2/C
;
_chemical_formula_sum "Si O2"
_cell_formula_units_Z 32
_cell_length_a 7.331558
_cell_length_b 18.392552
_cell_length_c 12.189401
_cell_angle_alpha 90.000000
_cell_angle_beta 55.956826
_cell_angle_gamma 90.000000
_cell_volume 1361.990037
_symmetry_space_group_name_H-M "C 2/C"
_symmetry_group_IT_number 15
_symmetry_cell_setting 'monoclinic'
loop_
_space_group_symop_operation_xyz
x,y,z
-x,y,1/2-z
-x,-y,-z
x,-y,1/2+z
1/2+x,1/2+y,z
1/2-x,1/2+y,1/2-z
1/2-x,1/2-y,-z
1/2+x,1/2-y,1/2+z
loop_
_atom_site_type_symbol
_atom_site_label
_atom_site_fract_x
_atom_site_fract_y
_atom_site_fract_z
Si Si1 0.089488 0.070090 0.604025
Si Si2 0.526925 0.175074 0.010312
Si Si3 0.161246 0.216205 0.287120
Si Si4 0.131976 0.907907 0.541238
O O1 0.304739 0.115942 0.499400
O O2 0.000000 0.098438 0.750000
O O3 0.897729 0.081755 0.579305
O O4 0.155208 0.985750 0.591208
O O5 0.407968 0.211787 0.155344
O O6 0.350639 0.138502 0.988326
O O7 0.656862 0.237354 0.900066
O O8 0.000000 0.251886 0.250000
O O9 0.078870 0.134004 0.338522
#
# Coordination Sequence:
#
# PCOD8147101 Si02
#       4
#     8   8   8   8
#     4  11  25  41  68 102 131 172 231 274 327 407
#     4  11  24  43  70  98 134 180 219 276 338 393
#     4  10  22  42  70  97 137 176 223 274 338 397
#     4  10  23  45  66  96 138 174 217 281 335 396
#
# _framework density 23.495032999999999
#
# number of rings (size 3 to 8) (size 9 to 14) (size 15 to 20)
#    0.000    1.500    0.000    6.000    7.000    2.000 
#    0.000    5.000    0.000    0.000    0.000    0.000 
#    0.000    0.000    0.000    0.000    0.000    0.000 
#
# Total GULP energy -198498.529316 kJ/mol
# GULP energy per Si atom -12406.158082 kJ/mol
# Density = 2.344156 g / cm^3
# Si number density = 23.495033 Si / 1000 Ang^3
#
#
#
# Elastic Constant Matrix: (Units=GPa)
#
#
# Indices 1 2 3 4 5 6 
#
# 1 65.7287 34.1568 36.8321 0.0000 -14.7520 0.0000
# 2 34.1568 139.2893 56.6464 0.0000 -19.8104 0.0000
# 3 36.8321 56.6464 142.4396 0.0000 -15.2089 0.0000
# 4 0.0000 0.0000 0.0000 27.2417 0.0000 -2.3767
# 5 -14.7520 -19.8104 -15.2089 0.0000 30.2167 0.0000
# 6 0.0000 0.0000 0.0000 -2.3767 0.0000 31.8445
#
#
#
# Elastic Compliance Matrix: (Units=1/GPa)
#
#
# Indices 1 2 3 4 5 6 
#
# 1 0.019899 -0.002584 -0.003447 0.000000 0.006286 0.000000
# 2 -0.002584 0.009415 -0.002697 0.000000 0.003554 0.000000
# 3 -0.003447 -0.002697 0.009105 0.000000 0.001132 0.000000
# 4 0.000000 0.000000 0.000000 0.036949 0.000000 0.002758
# 5 0.006286 0.003554 0.001132 0.000000 0.039063 0.000000
# 6 0.000000 0.000000 0.000000 0.002758 0.000000 0.031608
#
#
# Mechanical properties :
#
#
# Convention : Reuss Voigt Hill
#
# Bulk Modulus (GPa) = 47.69947 66.96981 57.33464
# Shear Modulus (GPa) = 29.32856 32.51541 30.92198
#
# Velocity S-wave (km/s) = 3.53694 3.72415 3.63175
# Velocity P-wave (km/s) = 6.08490 6.85989 6.48398
#
# Compressibility (1/GPa) = 0.02096459
#
# Stress axis : x y z
#
# Youngs Moduli (GPa) = 50.25363 106.21283 109.82877
#
# Poissons Ratio (x) = 0.27445 0.37855
# Poissons Ratio (y) = 0.12985 0.29617
# Poissons Ratio (z) = 0.17321 0.28642
#
# Static dielectric constant tensor:
#      x y z
#    x 4.115230 0.000000 0.126080 
#    y 0.000000 4.244060 0.000000 
#    z 0.126080 0.000000 4.147530 
# 
# 
# High freq. dielectric constant tensor:
#      x y z
#    x 1.927110 0.000000 0.012640 
#    y 0.000000 1.935880 0.000000 
#    z 0.012640 0.000000 1.929390 
# 
# From -- ./inp_files/22057.got.cif
#   From: 2010.06.25/outbox.cif.g09.slc.cpg/sg15_12_cif.got.tgz:22057.got - 2010.06.28 07:06:18.
