data_PCOD8147272
_publ_section_title
;
Structure prediction by ZEFSAII (Michael W. Deem and Ramdas Pophale) SiO2 
 PCOD8147272
Probable space group: C 2/C
;
_chemical_formula_sum "Si O2"
_cell_formula_units_Z 52
_cell_length_a 8.330467
_cell_length_b 25.470098
_cell_length_c 14.370204
_cell_angle_alpha 90.000000
_cell_angle_beta 55.869768
_cell_angle_gamma 90.000000
_cell_volume 2523.885462
_symmetry_space_group_name_H-M "C 2/C"
_symmetry_group_IT_number 15
_symmetry_cell_setting 'monoclinic'
loop_
_space_group_symop_operation_xyz
x,y,z
-x,y,1/2-z
-x,-y,-z
x,-y,1/2+z
1/2+x,1/2+y,z
1/2-x,1/2+y,1/2-z
1/2-x,1/2-y,-z
1/2+x,1/2-y,1/2+z
loop_
_atom_site_type_symbol
_atom_site_label
_atom_site_fract_x
_atom_site_fract_y
_atom_site_fract_z
Si Si1 0.500000 0.719783 0.250000
Si Si2 0.000000 0.753906 0.250000
Si Si3 0.297640 0.494752 0.460147
Si Si4 0.915829 0.556793 0.105679
Si Si5 0.414525 0.197374 0.633406
Si Si6 0.585904 0.823542 0.879322
Si Si7 0.000000 0.610181 0.750000
Si Si8 0.275838 0.482664 0.178457
O O1 0.479259 0.755012 0.348966
O O2 0.684878 0.683329 0.197714
O O3 0.183690 0.792031 0.204682
O O4 0.973363 0.714536 0.345259
O O5 0.243424 0.550220 0.426112
O O6 0.505952 0.476835 0.351824
O O7 0.297506 0.490619 0.571386
O O8 0.122910 0.455687 0.488815
O O9 0.937344 0.615317 0.137895
O O10 0.860816 0.517138 0.208868
O O11 0.497505 0.192679 0.505042
O O12 0.473311 0.144339 0.666587
O O13 0.808935 0.574541 0.814228
#
# Coordination Sequence:
#
# PCOD8147272 Si02
#       8
#     4   4   8   8   8   8   4   8
#     4   9  22  42  64  92 122 160 208 263 308 372
#     4  10  24  43  64  98 124 159 204 270 314 368
#     4  10  23  39  61  85 131 166 204 253 311 350
#     4  11  23  40  62  94 129 163 210 259 301 381
#     4  10  22  43  66  89 127 158 213 261 313 371
#     4  11  23  39  66  93 124 166 203 253 324 371
#     4  11  22  41  64  90 120 175 210 257 308 376
#     4  11  22  41  59  89 130 161 211 260 298 369
#
# _framework density 20.603152000000001
#
# number of rings (size 3 to 8) (size 9 to 14) (size 15 to 20)
#    0.000    1.538    1.538    2.308    6.462    1.231 
#    0.000    1.538    0.000    0.000    0.000    0.000 
#    0.000    0.000    0.000    0.000    0.000    0.000 
#
# Total GULP energy -322229.026425 kJ/mol
# GULP energy per Si atom -12393.424093 kJ/mol
# Density = 2.055626 g / cm^3
# Si number density = 20.603152 Si / 1000 Ang^3
#
#
#
# Elastic Constant Matrix: (Units=GPa)
#
#
# Indices 1 2 3 4 5 6 
#
# 1 101.7887 36.9727 30.6588 0.0000 -5.6494 0.0000
# 2 36.9727 114.1202 41.7435 0.0000 -5.3313 0.0000
# 3 30.6588 41.7435 94.7402 0.0000 12.7018 0.0000
# 4 0.0000 0.0000 0.0000 10.3487 0.0000 3.9704
# 5 -5.6494 -5.3313 12.7018 0.0000 43.6254 0.0000
# 6 0.0000 0.0000 0.0000 3.9704 0.0000 40.8104
#
#
#
# Elastic Compliance Matrix: (Units=1/GPa)
#
#
# Indices 1 2 3 4 5 6 
#
# 1 0.011781 -0.002654 -0.002918 0.000000 0.002051 0.000000
# 2 -0.002654 0.011364 -0.004463 0.000000 0.002345 0.000000
# 3 -0.002918 -0.004463 0.014142 0.000000 -0.005041 0.000000
# 4 0.000000 0.000000 0.000000 0.100377 0.000000 -0.009766
# 5 0.002051 0.002345 -0.005041 0.000000 0.024942 0.000000
# 6 0.000000 0.000000 0.000000 -0.009766 0.000000 0.025454
#
#
# Mechanical properties :
#
#
# Convention : Reuss Voigt Hill
#
# Bulk Modulus (GPa) = 58.07952 58.82212 58.45082
# Shear Modulus (GPa) = 23.37890 32.37519 27.87704
#
# Velocity S-wave (km/s) = 3.37222 3.96835 3.68237
# Velocity P-wave (km/s) = 6.58888 7.04337 6.81991
#
# Compressibility (1/GPa) = 0.01721777
#
# Stress axis : x y z
#
# Youngs Moduli (GPa) = 84.88304 87.99427 70.71261
#
# Poissons Ratio (x) = 0.23350 0.20635
# Poissons Ratio (y) = 0.22524 0.31558
# Poissons Ratio (z) = 0.24771 0.39271
#
# Static dielectric constant tensor:
#      x y z
#    x 4.195160 0.000000 -0.169490 
#    y 0.000000 3.641050 0.000000 
#    z -0.169490 0.000000 2.424200 
# 
# 
# High freq. dielectric constant tensor:
#      x y z
#    x 1.826020 0.000000 0.004360 
#    y 0.000000 1.790050 0.000000 
#    z 0.004360 0.000000 1.812740 
# 
# From -- ./inp_files/80719.got.cif
#   From: 2010.06.25/outbox.cif.g09.slc.cpg/sg15_41_cif.got.tgz:80719.got - 2010.06.28 07:06:18.
