data_PCOD8147276
_publ_section_title
;
Structure prediction by ZEFSAII (Michael W. Deem and Ramdas Pophale) SiO2 
 PCOD8147276
Probable space group: C 2/C
;
_chemical_formula_sum "Si O2"
_cell_formula_units_Z 40
_cell_length_a 22.918305
_cell_length_b 5.229098
_cell_length_c 15.720818
_cell_angle_alpha 90.000000
_cell_angle_beta 110.180790
_cell_angle_gamma 90.000000
_cell_volume 1768.353190
_symmetry_space_group_name_H-M "C 2/C"
_symmetry_group_IT_number 15
_symmetry_cell_setting 'monoclinic'
loop_
_space_group_symop_operation_xyz
x,y,z
-x,y,1/2-z
-x,-y,-z
x,-y,1/2+z
1/2+x,1/2+y,z
1/2-x,1/2+y,1/2-z
1/2-x,1/2-y,-z
1/2+x,1/2-y,1/2+z
loop_
_atom_site_type_symbol
_atom_site_label
_atom_site_fract_x
_atom_site_fract_y
_atom_site_fract_z
Si Si1 0.126904 0.852800 0.883016
Si Si2 0.753042 0.224163 0.139380
Si Si3 0.815880 0.776234 0.850244
Si Si4 0.063467 0.653915 0.330090
Si Si5 0.565469 0.401153 0.500107
O O1 0.201483 0.810047 0.919355
O O2 0.093778 0.614408 0.820308
O O3 0.109180 0.114413 0.823696
O O4 0.102933 0.874366 0.968403
O O5 0.800336 0.211369 0.243298
O O6 0.719096 0.495518 0.117662
O O7 0.704215 0.992842 0.118446
O O8 0.890313 0.804188 0.900925
O O9 0.052267 0.671310 0.426555
O O10 0.000000 0.690952 0.250000
O O11 0.500000 0.500000 0.500000
#
# Coordination Sequence:
#
# PCOD8147276 Si02
#       5
#     8   8   8   8   8
#     4  10  23  41  64  93 120 170 209 263 312 370
#     4  10  22  43  66  92 125 166 212 258 319 380
#     4  10  23  41  65  95 125 165 209 263 318 376
#     4  10  23  41  61  94 124 170 211 250 318 374
#     4  10  26  42  63  96 131 166 210 265 314 375
#
# _framework density 22.619917000000001
#
# number of rings (size 3 to 8) (size 9 to 14) (size 15 to 20)
#    1.200    0.800    0.000    1.800    5.600    2.400 
#    0.000    0.000    0.000    0.000    0.000    0.000 
#    0.000    0.000    0.000    0.000    0.000    0.000 
#
# Total GULP energy -247894.249860 kJ/mol
# GULP energy per Si atom -12394.712493 kJ/mol
# Density = 2.256843 g / cm^3
# Si number density = 22.619917 Si / 1000 Ang^3
#
#
#
# Elastic Constant Matrix: (Units=GPa)
#
#
# Indices 1 2 3 4 5 6 
#
# 1 104.6362 -3.7138 19.1408 0.0000 0.2117 0.0000
# 2 -3.7138 117.5017 3.1132 0.0000 -2.1547 0.0000
# 3 19.1408 3.1132 62.9140 0.0000 30.2658 0.0000
# 4 0.0000 0.0000 0.0000 -7.8301 0.0000 0.3321
# 5 0.2117 -2.1547 30.2658 0.0000 39.5247 0.0000
# 6 0.0000 0.0000 0.0000 0.3321 0.0000 29.7086
#
#
#
# Elastic Compliance Matrix: (Units=1/GPa)
#
#
# Indices 1 2 3 4 5 6 
#
# 1 0.010497 0.000537 -0.005078 0.000000 0.003861 0.000000
# 2 0.000537 0.008588 -0.001286 0.000000 0.001450 0.000000
# 3 -0.005078 -0.001286 0.027744 0.000000 -0.021288 0.000000
# 4 0.000000 0.000000 0.000000 -0.127652 0.000000 0.001427
# 5 0.003861 0.001450 -0.021288 0.000000 0.041660 0.000000
# 6 0.000000 0.000000 0.000000 0.001427 0.000000 0.033644
#
#
# Mechanical properties :
#
#
# Convention : Reuss Voigt Hill
#
# Bulk Modulus (GPa) = 28.42842 35.79248 32.11045
# Shear Modulus (GPa) = 279.95819 30.04810 155.00314
#
# Velocity S-wave (km/s) = 11.13710 3.64866 8.28697
# Velocity P-wave (km/s) = 13.34073 5.79725 10.28550
#
# Compressibility (1/GPa) = 0.03517607
#
# Stress axis : x y z
#
# Youngs Moduli (GPa) = 95.26511 116.43952 36.04395
#
# Poissons Ratio (x) = -0.06254 0.18302
# Poissons Ratio (y) = -0.05117 0.04635
# Poissons Ratio (z) = 0.48373 0.14973
#
# Static dielectric constant tensor:
#      x y z
#    x 3.879720 0.000000 0.057630 
#    y 0.000000 4.065100 0.000000 
#    z 0.057630 0.000000 3.867220 
# 
# 
# High freq. dielectric constant tensor:
#      x y z
#    x 1.884760 0.000000 0.015500 
#    y 0.000000 1.896760 0.000000 
#    z 0.015500 0.000000 1.881440 
# 
# From -- ./inp_files/212734.got.cif
#   From: 2010.06.25/outbox.cif.g09.slc.cpg/sg15_107_cif.got.tgz:212734.got - 2010.06.28 07:06:18.
