data_PCOD8147766
_publ_section_title
;
Structure prediction by ZEFSAII (Michael W. Deem and Ramdas Pophale) SiO2 
 PCOD8147766
Probable space group: C 2/C
;
_chemical_formula_sum "Si O2"
_cell_formula_units_Z 44
_cell_length_a 11.116090
_cell_length_b 26.684798
_cell_length_c 8.936697
_cell_angle_alpha 90.000000
_cell_angle_beta 52.701533
_cell_angle_gamma 90.000000
_cell_volume 2108.761990
_symmetry_space_group_name_H-M "C 2/C"
_symmetry_group_IT_number 15
_symmetry_cell_setting 'monoclinic'
loop_
_space_group_symop_operation_xyz
x,y,z
-x,y,1/2-z
-x,-y,-z
x,-y,1/2+z
1/2+x,1/2+y,z
1/2-x,1/2+y,1/2-z
1/2-x,1/2-y,-z
1/2+x,1/2-y,1/2+z
loop_
_atom_site_type_symbol
_atom_site_label
_atom_site_fract_x
_atom_site_fract_y
_atom_site_fract_z
Si Si1 0.500000 0.736476 0.750000
Si Si2 0.162622 0.974585 0.886684
Si Si3 0.746358 0.312357 0.868289
Si Si4 0.351904 0.071016 0.773375
Si Si5 0.331671 0.617400 0.335996
Si Si6 0.150564 0.409055 0.555603
O O1 0.582434 0.704000 0.557845
O O2 0.367531 0.767571 0.766829
O O3 0.180607 0.935988 0.737426
O O4 0.205167 0.944698 0.008690
O O5 0.276976 0.019422 0.782224
O O6 0.000000 0.000000 0.000000
O O7 0.731712 0.336903 0.714825
O O8 0.815314 0.352454 0.928231
O O9 0.500000 0.056321 0.750000
O O10 0.386955 0.096739 0.590030
O O11 0.255747 0.110612 0.942255
O O12 0.500000 0.631732 0.250000
O O13 0.000000 0.429709 0.750000
#
# Coordination Sequence:
#
# PCOD8147766 Si02
#       6
#     4   8   8   8   8   8
#     4  10  22  44  76  96 120 166 218 270 328 420
#     4  11  23  41  61  94 136 181 226 265 310 382
#     4  10  23  43  71  96 127 164 219 262 336 397
#     4  12  25  39  64  94 134 182 221 266 321 373
#     4  11  24  43  64  96 138 167 216 274 322 380
#     4  11  24  42  67  93 133 176 225 270 321 393
#
# _framework density 20.865324000000001
#
# number of rings (size 3 to 8) (size 9 to 14) (size 15 to 20)
#    0.000    1.091    2.727    3.818    2.545    2.182 
#    0.000    0.909    0.000    0.000    0.000    0.000 
#    0.000    0.000    0.000    0.000    0.000    0.000 
#
# Total GULP energy -272748.747867 kJ/mol
# GULP energy per Si atom -12397.670358 kJ/mol
# Density = 2.081783 g / cm^3
# Si number density = 20.865324 Si / 1000 Ang^3
#
#
#
# Elastic Constant Matrix: (Units=GPa)
#
#
# Indices 1 2 3 4 5 6 
#
# 1 138.0946 34.9904 61.4714 0.0000 3.5094 0.0000
# 2 34.9904 76.7157 34.8383 0.0000 3.6785 0.0000
# 3 61.4714 34.8383 140.2221 0.0000 10.2999 0.0000
# 4 0.0000 0.0000 0.0000 32.8600 0.0000 -6.8826
# 5 3.5094 3.6785 10.2999 0.0000 46.2230 0.0000
# 6 0.0000 0.0000 0.0000 -6.8826 0.0000 37.3619
#
#
#
# Elastic Compliance Matrix: (Units=1/GPa)
#
#
# Indices 1 2 3 4 5 6 
#
# 1 0.009488 -0.002753 -0.003496 0.000000 0.000278 0.000000
# 2 -0.002753 0.015498 -0.002611 0.000000 -0.000443 0.000000
# 3 -0.003496 -0.002611 0.009432 0.000000 -0.001629 0.000000
# 4 0.000000 0.000000 0.000000 0.031654 0.000000 0.005831
# 5 0.000278 -0.000443 -0.001629 0.000000 0.022011 0.000000
# 6 0.000000 0.000000 0.000000 0.005831 0.000000 0.027839
#
#
# Mechanical properties :
#
#
# Convention : Reuss Voigt Hill
#
# Bulk Modulus (GPa) = 59.88669 68.62585 64.25627
# Shear Modulus (GPa) = 35.91728 38.20446 37.06087
#
# Velocity S-wave (km/s) = 4.15346 4.28366 4.21906
# Velocity P-wave (km/s) = 7.19482 7.57810 7.38895
#
# Compressibility (1/GPa) = 0.01669820
#
# Stress axis : x y z
#
# Youngs Moduli (GPa) = 105.39502 64.52497 106.01813
#
# Poissons Ratio (x) = 0.17766 0.37062
# Poissons Ratio (y) = 0.29019 0.27680
# Poissons Ratio (z) = 0.36844 0.16847
#
# Static dielectric constant tensor:
#      x y z
#    x 4.113970 0.000000 -0.058890 
#    y 0.000000 6.778340 0.000000 
#    z -0.058890 0.000000 3.788730 
# 
# 
# High freq. dielectric constant tensor:
#      x y z
#    x 1.838180 0.000000 -0.004680 
#    y 0.000000 1.809840 0.000000 
#    z -0.004680 0.000000 1.809800 
# 
# From -- ./inp_files/34008.got.cif
#   From: 2010.06.25/outbox.cif.g09.slc.cpg/sg15_18_cif.got.tgz:34008.got - 2010.06.28 07:06:18.
