data_PCOD8147892
_publ_section_title
;
Structure prediction by ZEFSAII (Michael W. Deem and Ramdas Pophale) SiO2 
 PCOD8147892
Probable space group: C 2/C
;
_chemical_formula_sum "Si O2"
_cell_formula_units_Z 40
_cell_length_a 7.734567
_cell_length_b 21.144112
_cell_length_c 11.819749
_cell_angle_alpha 90.000000
_cell_angle_beta 105.482732
_cell_angle_gamma 90.000000
_cell_volume 1862.861231
_symmetry_space_group_name_H-M "C 2/C"
_symmetry_group_IT_number 15
_symmetry_cell_setting 'monoclinic'
loop_
_space_group_symop_operation_xyz
x,y,z
-x,y,1/2-z
-x,-y,-z
x,-y,1/2+z
1/2+x,1/2+y,z
1/2-x,1/2+y,1/2-z
1/2-x,1/2-y,-z
1/2+x,1/2-y,1/2+z
loop_
_atom_site_type_symbol
_atom_site_label
_atom_site_fract_x
_atom_site_fract_y
_atom_site_fract_z
Si Si1 0.936446 0.364025 0.109945
Si Si2 0.539172 0.393665 0.978456
Si Si3 0.500000 0.525032 0.250000
Si Si4 0.000000 0.805543 0.250000
Si Si5 0.716027 0.418951 0.367589
Si Si6 0.958319 0.756947 0.010312
O O1 0.000000 0.354842 0.250000
O O2 0.071153 0.414618 0.073160
O O3 0.739766 0.394370 0.065309
O O4 0.947012 0.298322 0.042944
O O5 0.517622 0.430604 0.859856
O O6 0.403168 0.427995 0.041002
O O7 0.482706 0.321539 0.944845
O O8 0.672918 0.477960 0.276983
O O9 0.169710 0.850756 0.303602
O O10 0.946960 0.763025 0.349302
O O11 0.750000 0.750000 0.000000
#
# Coordination Sequence:
#
# PCOD8147892 Si02
#       6
#     8   8   4   4   8   8
#     4  12  24  41  70 100 131 179 231 269 337 415
#     4  11  25  42  67 102 132 178 226 278 339 394
#     4  11  24  44  72  96 140 174 231 286 324 403
#     4   9  18  38  64  84 126 176 213 256 342 389
#     4  10  22  46  65  90 135 184 217 272 342 395
#     4  11  22  40  67  94 134 174 213 280 338 398
#
# _framework density 21.472346000000002
#
# number of rings (size 3 to 8) (size 9 to 14) (size 15 to 20)
#    0.000    1.200    4.000    4.800    1.400    2.400 
#    0.000    2.000    0.000    0.000    0.000    0.000 
#    0.000    0.000    0.000    0.000    0.000    0.000 
#
# Total GULP energy -247864.081505 kJ/mol
# GULP energy per Si atom -12393.204075 kJ/mol
# Density = 2.142347 g / cm^3
# Si number density = 21.472346 Si / 1000 Ang^3
#
#
#
# Elastic Constant Matrix: (Units=GPa)
#
#
# Indices 1 2 3 4 5 6 
#
# 1 122.4117 38.1944 43.1787 0.0000 -1.3470 0.0000
# 2 38.1944 107.2192 70.1530 0.0000 -2.3627 0.0000
# 3 43.1787 70.1530 158.9797 0.0000 -13.9070 0.0000
# 4 0.0000 0.0000 0.0000 31.8187 0.0000 -0.4018
# 5 -1.3470 -2.3627 -13.9070 0.0000 23.7888 0.0000
# 6 0.0000 0.0000 0.0000 -0.4018 0.0000 17.0477
#
#
#
# Elastic Compliance Matrix: (Units=1/GPa)
#
#
# Indices 1 2 3 4 5 6 
#
# 1 0.009453 -0.002342 -0.001589 0.000000 -0.000626 0.000000
# 2 -0.002342 0.013802 -0.005634 0.000000 -0.002056 0.000000
# 3 -0.001589 -0.005634 0.009644 0.000000 0.004989 0.000000
# 4 0.000000 0.000000 0.000000 0.031437 0.000000 0.000741
# 5 -0.000626 -0.002056 0.004989 0.000000 0.044713 0.000000
# 6 0.000000 0.000000 0.000000 0.000741 0.000000 0.058677
#
#
# Mechanical properties :
#
#
# Convention : Reuss Voigt Hill
#
# Bulk Modulus (GPa) = 72.62236 76.85141 74.73689
# Shear Modulus (GPa) = 26.11692 30.33667 28.22680
#
# Velocity S-wave (km/s) = 3.49134 3.76283 3.62963
# Velocity P-wave (km/s) = 7.08148 7.39913 7.24205
#
# Compressibility (1/GPa) = 0.01376986
#
# Stress axis : x y z
#
# Youngs Moduli (GPa) = 105.78212 72.45321 103.68844
#
# Poissons Ratio (x) = 0.16966 0.16476
# Poissons Ratio (y) = 0.24771 0.58420
# Poissons Ratio (z) = 0.16809 0.40822
#
# Static dielectric constant tensor:
#      x y z
#    x 4.196310 0.000000 0.177520 
#    y 0.000000 3.989950 0.000000 
#    z 0.177520 0.000000 4.432420 
# 
# 
# High freq. dielectric constant tensor:
#      x y z
#    x 1.848470 0.000000 -0.004850 
#    y 0.000000 1.836380 0.000000 
#    z -0.004850 0.000000 1.840180 
# 
# From -- ./inp_files/77976.got.cif
#   From: 2010.06.25/outbox.cif.g09.slc.cpg/sg15_39_cif.got.tgz:77976.got - 2010.06.28 07:06:18.
