data_PCOD8147781
_publ_section_title
;
Structure prediction by ZEFSAII (Michael W. Deem and Ramdas Pophale) SiO2 
 PCOD8147781
Probable space group: C 2/C
;
_chemical_formula_sum "Si O2"
_cell_formula_units_Z 64
_cell_length_a 17.170459
_cell_length_b 13.778854
_cell_length_c 17.615603
_cell_angle_alpha 90.000000
_cell_angle_beta 132.839423
_cell_angle_gamma 90.000000
_cell_volume 3055.989172
_symmetry_space_group_name_H-M "C 2/C"
_symmetry_group_IT_number 15
_symmetry_cell_setting 'monoclinic'
loop_
_space_group_symop_operation_xyz
x,y,z
-x,y,1/2-z
-x,-y,-z
x,-y,1/2+z
1/2+x,1/2+y,z
1/2-x,1/2+y,1/2-z
1/2-x,1/2-y,-z
1/2+x,1/2-y,1/2+z
loop_
_atom_site_type_symbol
_atom_site_label
_atom_site_fract_x
_atom_site_fract_y
_atom_site_fract_z
Si Si1 0.115142 0.496574 0.321950
Si Si2 0.300615 0.893774 0.485433
Si Si3 0.636872 0.317553 0.492588
Si Si4 0.119500 0.831867 0.845325
Si Si5 0.713043 0.481508 0.798782
Si Si6 0.895094 0.156528 0.849436
Si Si7 0.713959 0.336948 0.069328
Si Si8 0.196542 0.352696 0.769913
O O1 0.134511 0.534130 0.418986
O O2 0.209300 0.425910 0.359566
O O3 0.109080 0.584133 0.257055
O O4 0.000000 0.444293 0.250000
O O5 0.369722 0.798428 0.516035
O O6 0.189624 0.862319 0.451554
O O7 0.288928 0.950144 0.398771
O O8 0.519099 0.356980 0.419514
O O9 0.698216 0.350453 0.608810
O O10 0.209514 0.754965 0.884264
O O11 0.000000 0.792337 0.750000
O O12 0.132792 0.926854 0.802315
O O13 0.141370 0.857798 0.947656
O O14 0.650989 0.551776 0.701335
O O15 0.779440 0.402189 0.795117
O O16 0.870183 0.179868 0.920079
O O17 0.847367 0.243502 0.766941
#
# Coordination Sequence:
#
# PCOD8147781 Si02
#       8
#     8   8   8   8   8   8   8   8
#     4  11  22  42  71  94 127 173 217 267 331 385
#     4  10  22  45  64  98 129 169 219 273 318 392
#     4  10  24  43  68  92 135 171 215 273 329 386
#     4  11  26  44  67  94 130 181 221 266 326 388
#     4  12  24  42  67  94 136 165 214 276 319 386
#     4  12  25  42  67  98 130 176 210 269 342 376
#     4  11  24  45  64  95 138 168 224 271 314 400
#     4  11  24  44  63  99 132 164 220 275 317 390
#
# _framework density 20.942484
#
# number of rings (size 3 to 8) (size 9 to 14) (size 15 to 20)
#    0.000    1.000    5.000    1.125    3.500    0.500 
#    0.000    5.000    0.000    0.000    0.000    0.000 
#    0.000    0.000    0.000    0.000    0.000    0.000 
#
# Total GULP energy -396846.215728 kJ/mol
# GULP energy per Si atom -12401.444241 kJ/mol
# Density = 2.089482 g / cm^3
# Si number density = 20.942484 Si / 1000 Ang^3
#
#
#
# Elastic Constant Matrix: (Units=GPa)
#
#
# Indices 1 2 3 4 5 6 
#
# 1 64.9994 -0.4402 33.1737 0.0000 1.1083 0.0000
# 2 -0.4402 68.5340 9.9740 0.0000 -0.6999 0.0000
# 3 33.1737 9.9740 77.8731 0.0000 4.4905 0.0000
# 4 0.0000 0.0000 0.0000 26.1962 0.0000 -13.1024
# 5 1.1083 -0.6999 4.4905 0.0000 36.1108 0.0000
# 6 0.0000 0.0000 0.0000 -13.1024 0.0000 34.6745
#
#
#
# Elastic Compliance Matrix: (Units=1/GPa)
#
#
# Indices 1 2 3 4 5 6 
#
# 1 0.019795 0.001389 -0.008639 0.000000 0.000494 0.000000
# 2 0.001389 0.014976 -0.002543 0.000000 0.000564 0.000000
# 3 -0.008639 -0.002543 0.016956 0.000000 -0.001893 0.000000
# 4 0.000000 0.000000 0.000000 0.047069 0.000000 0.017786
# 5 0.000494 0.000564 -0.001893 0.000000 0.027924 0.000000
# 6 0.000000 0.000000 0.000000 0.017786 0.000000 0.035561
#
#
# Mechanical properties :
#
#
# Convention : Reuss Voigt Hill
#
# Bulk Modulus (GPa) = 31.11087 32.98015 32.04551
# Shear Modulus (GPa) = 25.96334 30.64290 28.30312
#
# Velocity S-wave (km/s) = 3.52482 3.82932 3.68022
# Velocity P-wave (km/s) = 5.60834 5.94422 5.77872
#
# Compressibility (1/GPa) = 0.03214310
#
# Stress axis : x y z
#
# Youngs Moduli (GPa) = 50.51829 66.77345 58.97495
#
# Poissons Ratio (x) = -0.09278 0.50948
# Poissons Ratio (y) = -0.07019 0.14995
# Poissons Ratio (z) = 0.43642 0.16977
#
# Static dielectric constant tensor:
#      x y z
#    x 3.667950 0.000000 -0.131810 
#    y 0.000000 3.914380 0.000000 
#    z -0.131810 0.000000 3.796110 
# 
# 
# High freq. dielectric constant tensor:
#      x y z
#    x 1.816630 0.000000 -0.011490 
#    y 0.000000 1.833490 0.000000 
#    z -0.011490 0.000000 1.818170 
# 
# From -- ./inp_files/211415.got.cif
#   From: 2010.06.25/outbox.cif.g09.slc.cpg/sg15_106_cif.got.tgz:211415.got - 2010.06.28 07:06:18.
