data_PCOD8147274
_publ_section_title
;
Structure prediction by ZEFSAII (Michael W. Deem and Ramdas Pophale) SiO2 
 PCOD8147274
Probable space group: C 2/C
;
_chemical_formula_sum "Si O2"
_cell_formula_units_Z 28
_cell_length_a 15.271480
_cell_length_b 10.953598
_cell_length_c 11.213587
_cell_angle_alpha 90.000000
_cell_angle_beta 131.174001
_cell_angle_gamma 90.000000
_cell_volume 1411.927240
_symmetry_space_group_name_H-M "C 2/C"
_symmetry_group_IT_number 15
_symmetry_cell_setting 'monoclinic'
loop_
_space_group_symop_operation_xyz
x,y,z
-x,y,1/2-z
-x,-y,-z
x,-y,1/2+z
1/2+x,1/2+y,z
1/2-x,1/2+y,1/2-z
1/2-x,1/2-y,-z
1/2+x,1/2-y,1/2+z
loop_
_atom_site_type_symbol
_atom_site_label
_atom_site_fract_x
_atom_site_fract_y
_atom_site_fract_z
Si Si1 0.916522 0.612695 0.451740
Si Si2 0.016347 0.163093 0.625916
Si Si3 0.351898 0.578539 0.289610
Si Si4 0.500000 0.735350 0.250000
O O1 0.785505 0.566525 0.340210
O O2 0.944981 0.678198 0.601307
O O3 0.000000 0.500000 0.500000
O O4 0.927590 0.706555 0.352576
O O5 0.893454 0.149977 0.445979
O O6 0.000000 0.151050 0.750000
O O7 0.103724 0.059378 0.659374
O O8 0.401019 0.647890 0.216878
#
# Coordination Sequence:
#
# PCOD8147274 Si02
#       4
#     8   8   8   4
#     4  11  26  40  64  96 128 162 207 260 312 365
#     4  10  23  42  64  93 122 165 210 254 311 367
#     4  10  22  43  66  91 124 166 210 252 312 374
#     4  10  22  44  64  92 126 170 204 252 318 366
#
# _framework density 19.831050999999999
#
# number of rings (size 3 to 8) (size 9 to 14) (size 15 to 20)
#    0.000    1.714    1.429    0.857   10.000    3.429 
#    0.000    0.000    0.000    0.000    0.000    0.000 
#    0.000    0.000    0.000    0.000    0.000    0.000 
#
# Total GULP energy -173638.479842 kJ/mol
# GULP energy per Si atom -12402.748560 kJ/mol
# Density = 1.978591 g / cm^3
# Si number density = 19.831051 Si / 1000 Ang^3
#
#
#
# Elastic Constant Matrix: (Units=GPa)
#
#
# Indices 1 2 3 4 5 6 
#
# 1 123.3247 49.8667 64.5096 0.0000 23.3780 0.0000
# 2 49.8667 128.3489 31.0612 0.0000 13.4433 0.0000
# 3 64.5096 31.0612 88.2264 0.0000 7.9108 0.0000
# 4 0.0000 0.0000 0.0000 -43.2414 0.0000 87.6616
# 5 23.3780 13.4433 7.9108 0.0000 47.8962 0.0000
# 6 0.0000 0.0000 0.0000 87.6616 0.0000 -88.7344
#
#
#
# Elastic Compliance Matrix: (Units=1/GPa)
#
#
# Indices 1 2 3 4 5 6 
#
# 1 0.015403 -0.003105 -0.009717 0.000000 -0.005042 0.000000
# 2 -0.003105 0.009321 -0.000927 0.000000 -0.000948 0.000000
# 3 -0.009717 -0.000927 0.018592 0.000000 0.001932 0.000000
# 4 0.000000 0.000000 0.000000 0.023063 0.000000 0.022784
# 5 -0.005042 -0.000948 0.001932 0.000000 0.023286 0.000000
# 6 0.000000 0.000000 0.000000 0.022784 0.000000 0.011239
#
#
# Mechanical properties :
#
#
# Convention : Reuss Voigt Hill
#
# Bulk Modulus (GPa) = 63.21293 70.08611 66.64952
# Shear Modulus (GPa) = 37.40469 -3.85175 16.77647
#
# Velocity S-wave (km/s) = 4.34771 -1.39517 2.91171
# Velocity P-wave (km/s) = 7.55966 5.72914 6.70714
#
# Compressibility (1/GPa) = 0.01581955
#
# Stress axis : x y z
#
# Youngs Moduli (GPa) = 64.92395 107.28474 53.78556
#
# Poissons Ratio (x) = 0.33308 0.52264
# Poissons Ratio (y) = 0.20157 0.04983
# Poissons Ratio (z) = 0.63087 0.09940
#
# Static dielectric constant tensor:
#      x y z
#    x 3.495780 0.000000 -0.109550 
#    y 0.000000 3.801950 0.000000 
#    z -0.109550 0.000000 3.712580 
# 
# 
# High freq. dielectric constant tensor:
#      x y z
#    x 1.766880 0.000000 -0.006200 
#    y 0.000000 1.788930 0.000000 
#    z -0.006200 0.000000 1.781070 
# 
# From -- ./inp_files/36482.got.cif
#   From: 2010.06.25/outbox.cif.g09.slc.cpg/sg15_19_cif.got.tgz:36482.got - 2010.06.28 07:06:18.
