data_PCOD8147339
_publ_section_title
;
Structure prediction by ZEFSAII (Michael W. Deem and Ramdas Pophale) SiO2 
 PCOD8147339
Probable space group: C 2/C
;
_chemical_formula_sum "Si O2"
_cell_formula_units_Z 40
_cell_length_a 10.498804
_cell_length_b 24.091138
_cell_length_c 12.700935
_cell_angle_alpha 90.000000
_cell_angle_beta 34.059004
_cell_angle_gamma 90.000000
_cell_volume 1799.106269
_symmetry_space_group_name_H-M "C 2/C"
_symmetry_group_IT_number 15
_symmetry_cell_setting 'monoclinic'
loop_
_space_group_symop_operation_xyz
x,y,z
-x,y,1/2-z
-x,-y,-z
x,-y,1/2+z
1/2+x,1/2+y,z
1/2-x,1/2+y,1/2-z
1/2-x,1/2-y,-z
1/2+x,1/2-y,1/2+z
loop_
_atom_site_type_symbol
_atom_site_label
_atom_site_fract_x
_atom_site_fract_y
_atom_site_fract_z
Si Si1 0.018576 0.105469 0.438300
Si Si2 0.500000 0.344909 0.250000
Si Si3 0.216942 0.192912 0.174167
Si Si4 0.710049 0.815505 0.256267
Si Si5 0.500000 0.529673 0.250000
Si Si6 0.256035 0.937196 0.968364
O O1 0.186300 0.158639 0.304430
O O2 0.080639 0.065144 0.491692
O O3 0.775910 0.133195 0.634137
O O4 0.043009 0.068609 0.318749
O O5 0.387778 0.309317 0.232779
O O6 0.285882 0.381954 0.434950
O O7 0.233657 0.258492 0.177197
O O8 0.000000 0.177996 0.250000
O O9 0.450599 0.172369 0.962802
O O10 0.286638 0.490366 0.427360
O O11 0.500000 0.940007 0.750000
#
# Coordination Sequence:
#
# PCOD8147339 Si02
#       6
#     8   4   8   8   4   8
#     4  11  24  43  64  98 131 171 218 265 327 390
#     4   9  22  44  64 100 134 170 222 261 328 392
#     4  12  24  41  63  96 136 177 219 259 321 390
#     4  11  24  41  66  94 137 178 212 270 315 387
#     4  11  24  42  66  96 126 170 224 267 332 390
#     4  10  22  43  68  94 130 167 216 279 326 386
#
# _framework density 22.233262
#
# number of rings (size 3 to 8) (size 9 to 14) (size 15 to 20)
#    0.000    1.200    3.000    2.400    0.000    3.200 
#    1.800    0.000    0.000    0.000    0.000    0.000 
#    0.000    0.000    0.000    0.000    0.000    0.000 
#
# Total GULP energy -247858.921195 kJ/mol
# GULP energy per Si atom -12392.946060 kJ/mol
# Density = 2.218266 g / cm^3
# Si number density = 22.233262 Si / 1000 Ang^3
#
#
#
# Elastic Constant Matrix: (Units=GPa)
#
#
# Indices 1 2 3 4 5 6 
#
# 1 76.4153 32.2052 31.4587 0.0001 9.1527 0.0000
# 2 32.2052 81.5148 50.2710 -0.0001 -1.5523 0.0000
# 3 31.4587 50.2710 201.4352 -0.0002 -4.8333 0.0000
# 4 0.0001 -0.0001 -0.0002 2.9581 0.0001 10.4844
# 5 9.1527 -1.5523 -4.8333 0.0001 34.4911 0.0000
# 6 0.0000 0.0000 0.0000 10.4844 0.0000 12.2453
#
#
#
# Elastic Compliance Matrix: (Units=1/GPa)
#
#
# Indices 1 2 3 4 5 6 
#
# 1 0.016673 -0.005912 -0.001245 0.000000 -0.004865 0.000000
# 2 -0.005912 0.016596 -0.003174 0.000000 0.001871 0.000000
# 3 -0.001245 -0.003174 0.005975 0.000000 0.001025 0.000000
# 4 0.000000 0.000000 0.000000 -0.166152 0.000000 0.142258
# 5 -0.004865 0.001871 0.001025 0.000000 0.030512 0.000000
# 6 0.000000 0.000000 0.000000 0.142258 0.000000 -0.040137
#
#
# Mechanical properties :
#
#
# Convention : Reuss Voigt Hill
#
# Bulk Modulus (GPa) = 53.81184 65.24834 59.53009
# Shear Modulus (GPa) = -45.58896 26.30094 -9.64401
#
# Velocity S-wave (km/s) = -4.53314 3.44314 -2.08496
# Velocity P-wave (km/s) = 1.77294 6.72442 4.58664
#
# Compressibility (1/GPa) = 0.01858327
#
# Stress axis : x y z
#
# Youngs Moduli (GPa) = 59.97587 60.25430 167.35097
#
# Poissons Ratio (x) = 0.35623 0.20839
# Poissons Ratio (y) = 0.35458 0.53111
# Poissons Ratio (z) = 0.07468 0.19123
#
# Static dielectric constant tensor:
#      x y z
#    x 4.084620 0.000000 0.274490 
#    y 0.000000 4.151670 0.000000 
#    z 0.274490 0.000000 4.531270 
# 
# 
# High freq. dielectric constant tensor:
#      x y z
#    x 1.859580 0.000000 0.027030 
#    y 0.000000 1.878230 0.000000 
#    z 0.027030 0.000000 1.894300 
# 
# From -- ./inp_files/148003.got.cif
#   From: 2010.06.25/outbox.cif.g09.slc.cpg/sg15_75_cif.got.tgz:148003.got - 2010.06.28 07:06:18.
