data_PCOD8147615
_publ_section_title
;
Structure prediction by ZEFSAII (Michael W. Deem and Ramdas Pophale) SiO2 
 PCOD8147615
Probable space group: C 2/C
;
_chemical_formula_sum "Si O2"
_cell_formula_units_Z 60
_cell_length_a 11.744269
_cell_length_b 8.310415
_cell_length_c 28.155213
_cell_angle_alpha 90.000000
_cell_angle_beta 94.371892
_cell_angle_gamma 90.000000
_cell_volume 2739.945958
_symmetry_space_group_name_H-M "C 2/C"
_symmetry_group_IT_number 15
_symmetry_cell_setting 'monoclinic'
loop_
_space_group_symop_operation_xyz
x,y,z
-x,y,1/2-z
-x,-y,-z
x,-y,1/2+z
1/2+x,1/2+y,z
1/2-x,1/2+y,1/2-z
1/2-x,1/2-y,-z
1/2+x,1/2-y,1/2+z
loop_
_atom_site_type_symbol
_atom_site_label
_atom_site_fract_x
_atom_site_fract_y
_atom_site_fract_z
Si Si1 0.686925 0.384572 0.785708
Si Si2 0.519789 0.911154 0.434799
Si Si3 0.810179 0.580761 0.991998
Si Si4 0.420562 0.551073 0.041290
Si Si5 0.429218 0.952580 0.661790
Si Si6 0.199166 0.081280 0.693012
Si Si7 0.545052 0.419940 0.355224
Si Si8 0.500000 0.136687 0.750000
O O1 0.796173 0.277741 0.805639
O O2 0.714592 0.517824 0.747399
O O3 0.632927 0.464391 0.830720
O O4 0.608835 0.249747 0.758462
O O5 0.389859 0.920659 0.448360
O O6 0.561219 0.731608 0.442802
O O7 0.514557 0.958758 0.380540
O O8 0.608257 0.034162 0.461901
O O9 0.709981 0.454048 0.979992
O O10 0.750000 0.750000 0.000000
O O11 0.443884 0.437247 0.087544
O O12 0.500000 0.500000 0.000000
O O13 0.298273 0.007975 0.663457
O O14 0.510489 0.015247 0.706240
O O15 0.429279 0.761593 0.658233
O O16 0.080542 0.027892 0.665912
#
# Coordination Sequence:
#
# PCOD8147615 Si02
#       8
#     8   8   8   8   8   8   8   4
#     4  11  23  45  70 103 142 185 237 288 353 426
#     4  11  26  47  73 104 144 186 239 295 357 431
#     4  11  24  48  75 105 141 185 238 298 359 429
#     4  12  26  46  75 105 141 187 236 299 365 422
#     4  11  27  44  70 105 141 185 241 286 357 424
#     4  11  25  43  73 102 143 188 233 293 354 424
#     4  12  27  46  70 104 142 188 240 294 357 432
#     4  10  22  44  68 102 140 178 230 292 344 420
#
# _framework density 21.898243000000001
#
# number of rings (size 3 to 8) (size 9 to 14) (size 15 to 20)
#    0.000    0.800    2.667    3.600    9.333    3.200 
#    0.000    0.000    0.000    0.000    0.000    0.000 
#    0.000    0.000    0.000    0.000    0.000    0.000 
#
# Total GULP energy -372053.827186 kJ/mol
# GULP energy per Si atom -12401.794240 kJ/mol
# Density = 2.184840 g / cm^3
# Si number density = 21.898243 Si / 1000 Ang^3
#
#
#
# Elastic Constant Matrix: (Units=GPa)
#
#
# Indices 1 2 3 4 5 6 
#
# 1 100.4068 35.3841 50.8590 0.0000 -12.5874 0.0000
# 2 35.3841 141.0002 50.3444 0.0000 -16.3099 0.0000
# 3 50.8590 50.3444 149.4188 0.0000 -30.4406 0.0000
# 4 0.0000 0.0000 0.0000 30.6768 0.0000 -1.5596
# 5 -12.5874 -16.3099 -30.4406 0.0000 23.0537 0.0000
# 6 0.0000 0.0000 0.0000 -1.5596 0.0000 40.1377
#
#
#
# Elastic Compliance Matrix: (Units=1/GPa)
#
#
# Indices 1 2 3 4 5 6 
#
# 1 0.012453 -0.001783 -0.003433 0.000000 0.001004 0.000000
# 2 -0.001783 0.008461 -0.001673 0.000000 0.002804 0.000000
# 3 -0.003433 -0.001673 0.010673 0.000000 0.011035 0.000000
# 4 0.000000 0.000000 0.000000 0.032662 0.000000 0.001269
# 5 0.001004 0.002804 0.011035 0.000000 0.060479 0.000000
# 6 0.000000 0.000000 0.000000 0.001269 0.000000 0.024964
#
#
# Mechanical properties :
#
#
# Convention : Reuss Voigt Hill
#
# Bulk Modulus (GPa) = 56.15195 73.77786 64.96490
# Shear Modulus (GPa) = 29.51477 35.72287 32.61882
#
# Velocity S-wave (km/s) = 3.67524 4.04333 3.86367
# Velocity P-wave (km/s) = 6.61118 7.45402 7.04522
#
# Compressibility (1/GPa) = 0.01780882
#
# Stress axis : x y z
#
# Youngs Moduli (GPa) = 80.30319 118.18627 93.69530
#
# Poissons Ratio (x) = 0.21072 0.32168
# Poissons Ratio (y) = 0.14318 0.15673
# Poissons Ratio (z) = 0.27570 0.19770
#
# Static dielectric constant tensor:
#      x y z
#    x 4.278720 0.000000 0.179480 
#    y 0.000000 4.119230 0.000000 
#    z 0.179480 0.000000 4.192330 
# 
# 
# High freq. dielectric constant tensor:
#      x y z
#    x 1.871470 0.000000 -0.003780 
#    y 0.000000 1.879590 0.000000 
#    z -0.003780 0.000000 1.863820 
# 
# From -- ./inp_files/310007.got.cif
#   From: 2010.06.25/outbox.cif.g09.slc.cpg/sg15_156_cif.got.tgz:310007.got - 2010.06.28 07:06:18.
