data_PCOD8147040
_publ_section_title
;
Structure prediction by ZEFSAII (Michael W. Deem and Ramdas Pophale) SiO2 
 PCOD8147040
Probable space group: C 2/C
;
_chemical_formula_sum "Si O2"
_cell_formula_units_Z 56
_cell_length_a 8.963283
_cell_length_b 16.111425
_cell_length_c 20.832188
_cell_angle_alpha 90.000000
_cell_angle_beta 121.381375
_cell_angle_gamma 90.000000
_cell_volume 2568.333777
_symmetry_space_group_name_H-M "C 2/C"
_symmetry_group_IT_number 15
_symmetry_cell_setting 'monoclinic'
loop_
_space_group_symop_operation_xyz
x,y,z
-x,y,1/2-z
-x,-y,-z
x,-y,1/2+z
1/2+x,1/2+y,z
1/2-x,1/2+y,1/2-z
1/2-x,1/2-y,-z
1/2+x,1/2-y,1/2+z
loop_
_atom_site_type_symbol
_atom_site_label
_atom_site_fract_x
_atom_site_fract_y
_atom_site_fract_z
Si Si1 0.062757 0.893154 0.568373
Si Si2 0.210243 0.254788 0.300509
Si Si3 0.842075 0.913085 0.764207
Si Si4 0.735757 0.007426 0.484508
Si Si5 0.610123 0.756694 0.523463
Si Si6 0.592612 0.907580 0.065334
Si Si7 0.694087 0.597963 0.767822
O O1 0.096338 0.888192 0.651158
O O2 0.223088 0.938732 0.569334
O O3 0.048312 0.805513 0.528775
O O4 0.874123 0.933947 0.516157
O O5 0.275108 0.166370 0.284603
O O6 0.286923 0.261256 0.388570
O O7 0.291434 0.335472 0.285190
O O8 0.000000 0.260072 0.250000
O O9 0.000000 0.918167 0.750000
O O10 0.749651 0.004147 0.742744
O O11 0.748141 0.056899 0.554989
O O12 0.535682 0.978164 0.435291
O O13 0.750000 0.750000 0.500000
O O14 0.521941 0.846565 0.504070
O O15 0.681832 0.867970 0.147635
O O16 0.500000 0.595255 0.750000
#
# Coordination Sequence:
#
# PCOD8147040 Si02
#       7
#     8   8   8   8   8   8   8
#     4  11  23  42  69 100 132 178 229 282 334 408
#     4  11  26  44  66 100 134 177 234 280 337 411
#     4  10  22  42  69  93 135 180 222 269 349 409
#     4  10  24  39  70  99 133 165 237 277 334 403
#     4  12  24  42  70  98 139 181 225 283 341 410
#     4  11  24  44  69  97 136 181 226 279 348 411
#     4  11  25  44  71  96 137 178 223 281 355 404
#
# _framework density 21.804020999999999
#
# number of rings (size 3 to 8) (size 9 to 14) (size 15 to 20)
#    0.000    1.143    1.429    5.143   10.000    0.571 
#    2.571    0.714    0.000    0.000    0.000    0.000 
#    0.000    0.000    0.000    0.000    0.000    0.000 
#
# Total GULP energy -347057.813502 kJ/mol
# GULP energy per Si atom -12394.921911 kJ/mol
# Density = 2.175439 g / cm^3
# Si number density = 21.804021 Si / 1000 Ang^3
#
#
#
# Elastic Constant Matrix: (Units=GPa)
#
#
# Indices 1 2 3 4 5 6 
#
# 1 81.8285 38.8052 33.9710 0.0000 -14.7556 0.0000
# 2 38.8052 151.8886 46.7014 0.0000 -15.7676 0.0000
# 3 33.9710 46.7014 172.2534 0.0000 -25.3548 0.0000
# 4 0.0000 0.0000 0.0000 34.5245 0.0000 -10.6382
# 5 -14.7556 -15.7676 -25.3548 0.0000 25.8638 0.0000
# 6 0.0000 0.0000 0.0000 -10.6382 0.0000 23.5636
#
#
#
# Elastic Compliance Matrix: (Units=1/GPa)
#
#
# Indices 1 2 3 4 5 6 
#
# 1 0.015159 -0.002869 -0.001398 0.000000 0.005529 0.000000
# 2 -0.002869 0.007915 -0.001298 0.000000 0.001916 0.000000
# 3 -0.001398 -0.001298 0.007245 0.000000 0.005513 0.000000
# 4 0.000000 0.000000 0.000000 0.033645 0.000000 0.015190
# 5 0.005529 0.001916 0.005513 0.000000 0.048391 0.000000
# 6 0.000000 0.000000 0.000000 0.015190 0.000000 0.049296
#
#
# Mechanical properties :
#
#
# Convention : Reuss Voigt Hill
#
# Bulk Modulus (GPa) = 52.11598 71.65839 61.88718
# Shear Modulus (GPa) = 27.90556 35.88993 31.89774
#
# Velocity S-wave (km/s) = 3.58136 4.06152 3.82898
# Velocity P-wave (km/s) = 6.40745 7.41153 6.92770
#
# Compressibility (1/GPa) = 0.01918797
#
# Stress axis : x y z
#
# Youngs Moduli (GPa) = 65.96944 126.34621 138.03574
#
# Poissons Ratio (x) = 0.36249 0.19295
# Poissons Ratio (y) = 0.18927 0.17917
# Poissons Ratio (z) = 0.09221 0.16400
#
# Static dielectric constant tensor:
#      x y z
#    x 3.808360 0.000000 -0.183140 
#    y 0.000000 4.705340 0.000000 
#    z -0.183140 0.000000 3.875060 
# 
# 
# High freq. dielectric constant tensor:
#      x y z
#    x 1.841560 0.000000 -0.014060 
#    y 0.000000 1.873420 0.000000 
#    z -0.014060 0.000000 1.861280 
# 
# From -- ./inp_files/232794.got.cif
#   From: 2010.06.25/outbox.cif.g09.slc.cpg/sg15_117_cif.got.tgz:232794.got - 2010.06.28 07:06:18.
