data_PCOD8147524
_publ_section_title
;
Structure prediction by ZEFSAII (Michael W. Deem and Ramdas Pophale) SiO2 
 PCOD8147524
Probable space group: C 2/C
;
_chemical_formula_sum "Si O2"
_cell_formula_units_Z 40
_cell_length_a 10.865321
_cell_length_b 14.703830
_cell_length_c 12.209338
_cell_angle_alpha 90.000000
_cell_angle_beta 73.972438
_cell_angle_gamma 90.000000
_cell_volume 1874.764961
_symmetry_space_group_name_H-M "C 2/C"
_symmetry_group_IT_number 15
_symmetry_cell_setting 'monoclinic'
loop_
_space_group_symop_operation_xyz
x,y,z
-x,y,1/2-z
-x,-y,-z
x,-y,1/2+z
1/2+x,1/2+y,z
1/2-x,1/2+y,1/2-z
1/2-x,1/2-y,-z
1/2+x,1/2-y,1/2+z
loop_
_atom_site_type_symbol
_atom_site_label
_atom_site_fract_x
_atom_site_fract_y
_atom_site_fract_z
Si Si1 0.401743 0.893914 0.363260
Si Si2 0.473570 0.829573 0.582339
Si Si3 0.453704 0.447927 0.646067
Si Si4 0.825750 0.402861 0.823435
Si Si5 0.115369 0.129115 0.919360
O O1 0.500000 0.851578 0.250000
O O2 0.460715 0.879794 0.469209
O O3 0.264904 0.843844 0.388760
O O4 0.379053 0.998376 0.340664
O O5 0.372956 0.874255 0.691204
O O6 0.616839 0.838657 0.595853
O O7 0.459116 0.721938 0.576303
O O8 0.500000 0.409888 0.750000
O O9 0.327166 0.395150 0.635908
O O10 0.418908 0.555823 0.667069
O O11 0.572342 0.426066 0.538100
#
# Coordination Sequence:
#
# PCOD8147524 Si02
#       5
#     8   8   8   8   8
#     4  11  22  41  64  94 128 177 211 257 326 384
#     4  11  22  40  64  96 132 157 228 268 300 388
#     4  10  22  44  65  87 134 171 212 259 331 384
#     4  10  23  39  66  94 125 174 212 261 330 369
#     4  10  24  40  62  98 124 173 216 263 319 374
#
# _framework density 21.336008
#
# number of rings (size 3 to 8) (size 9 to 14) (size 15 to 20)
#    0.000    1.600    2.000    2.400    2.800    3.200 
#    7.200    0.000    0.000    0.000    0.000    0.000 
#    0.000    0.000    0.000    0.000    0.000    0.000 
#
# Total GULP energy -247940.635893 kJ/mol
# GULP energy per Si atom -12397.031795 kJ/mol
# Density = 2.128745 g / cm^3
# Si number density = 21.336008 Si / 1000 Ang^3
#
#
#
# Elastic Constant Matrix: (Units=GPa)
#
#
# Indices 1 2 3 4 5 6 
#
# 1 152.3179 30.5085 66.8915 0.0000 -0.2397 0.0000
# 2 30.5085 95.8475 27.1544 0.0000 8.0867 0.0000
# 3 66.8915 27.1544 119.6990 0.0000 11.6767 0.0000
# 4 0.0000 0.0000 0.0000 14.8752 0.0000 -9.0262
# 5 -0.2397 8.0867 11.6767 0.0000 35.7715 0.0000
# 6 0.0000 0.0000 0.0000 -9.0262 0.0000 22.6262
#
#
#
# Elastic Compliance Matrix: (Units=1/GPa)
#
#
# Indices 1 2 3 4 5 6 
#
# 1 0.009042 -0.001669 -0.004872 0.000000 0.002028 0.000000
# 2 -0.001669 0.011565 -0.001482 0.000000 -0.002142 0.000000
# 3 -0.004872 -0.001482 0.011758 0.000000 -0.003536 0.000000
# 4 0.000000 0.000000 0.000000 0.088696 0.000000 0.035383
# 5 0.002028 -0.002142 -0.003536 0.000000 0.029607 0.000000
# 6 0.000000 0.000000 0.000000 0.035383 0.000000 0.058312
#
#
# Mechanical properties :
#
#
# Convention : Reuss Voigt Hill
#
# Bulk Modulus (GPa) = 61.27835 68.55257 64.91546
# Shear Modulus (GPa) = 21.69503 30.87525 26.28514
#
# Velocity S-wave (km/s) = 3.19223 3.80820 3.51374
# Velocity P-wave (km/s) = 6.50923 7.17887 6.85224
#
# Compressibility (1/GPa) = 0.01631898
#
# Stress axis : x y z
#
# Youngs Moduli (GPa) = 110.58914 86.46749 85.04628
#
# Poissons Ratio (x) = 0.14431 0.41439
# Poissons Ratio (y) = 0.18457 0.12604
# Poissons Ratio (z) = 0.53884 0.12814
#
# Static dielectric constant tensor:
#      x y z
#    x 4.143250 0.000000 -0.064300 
#    y 0.000000 3.729500 0.000000 
#    z -0.064300 0.000000 3.887590 
# 
# 
# High freq. dielectric constant tensor:
#      x y z
#    x 1.846050 0.000000 -0.000090 
#    y 0.000000 1.830780 0.000000 
#    z -0.000090 0.000000 1.835020 
# 
# From -- ./inp_files/85948.got.cif
#   From: 2010.06.25/outbox.cif.g09.slc.cpg/sg15_43_cif.got.tgz:85948.got - 2010.06.28 07:06:18.
