data_PCOD8147050
_publ_section_title
;
Structure prediction by ZEFSAII (Michael W. Deem and Ramdas Pophale) SiO2 
 PCOD8147050
Probable space group: C 2/C
;
_chemical_formula_sum "Si O2"
_cell_formula_units_Z 56
_cell_length_a 21.037431
_cell_length_b 24.574787
_cell_length_c 11.792353
_cell_angle_alpha 90.000000
_cell_angle_beta 153.860858
_cell_angle_gamma 90.000000
_cell_volume 2685.843281
_symmetry_space_group_name_H-M "C 2/C"
_symmetry_group_IT_number 15
_symmetry_cell_setting 'monoclinic'
loop_
_space_group_symop_operation_xyz
x,y,z
-x,y,1/2-z
-x,-y,-z
x,-y,1/2+z
1/2+x,1/2+y,z
1/2-x,1/2+y,1/2-z
1/2-x,1/2-y,-z
1/2+x,1/2-y,1/2+z
loop_
_atom_site_type_symbol
_atom_site_label
_atom_site_fract_x
_atom_site_fract_y
_atom_site_fract_z
Si Si1 0.500000 0.793888 0.250000
Si Si2 0.097653 0.633619 0.513705
Si Si3 0.720390 0.242158 0.819722
Si Si4 0.270394 0.461390 0.176472
Si Si5 0.514494 0.447919 0.403836
Si Si6 0.934376 0.623227 0.472748
Si Si7 0.500000 0.967423 0.250000
Si Si8 0.876888 0.158931 0.461662
O O1 0.627340 0.755052 0.494923
O O2 0.460056 0.833316 0.293436
O O3 0.172674 0.684194 0.695545
O O4 0.219954 0.589543 0.673700
O O5 0.000000 0.651133 0.250000
O O6 0.988026 0.609506 0.431962
O O7 0.612776 0.289057 0.604385
O O8 0.750000 0.250000 0.000000
O O9 0.351915 0.444940 0.192100
O O10 0.395726 0.496732 0.438084
O O11 0.130421 0.495030 0.915676
O O12 0.500000 0.436846 0.250000
O O13 0.598420 0.393818 0.581037
O O14 0.775620 0.649744 0.218607
O O15 0.939094 0.566596 0.547475
O O16 0.000000 0.169306 0.750000
#
# Coordination Sequence:
#
# PCOD8147050 Si02
#       8
#     4   8   8   8   8   8   4   8
#     4   9  20  44  68  96 120 176 229 268 326 404
#     4  12  27  42  64 106 146 169 226 291 345 399
#     4  11  23  45  67  98 132 177 224 279 337 409
#     4  11  25  42  64 103 137 178 224 285 340 396
#     4  10  24  45  66  94 136 181 232 269 334 416
#     4  10  22  42  69  97 131 176 231 276 333 416
#     4  11  22  42  72  96 132 188 235 274 344 406
#     4  10  22  42  72  93 126 182 223 275 337 406
#
# _framework density 20.850062999999999
#
# number of rings (size 3 to 8) (size 9 to 14) (size 15 to 20)
#    0.000    1.429    3.571    0.429    6.000    1.714 
#    3.857    2.143    0.000    0.000    0.000    0.000 
#    0.000    0.000    0.000    0.000    0.000    0.000 
#
# Total GULP energy -346902.047349 kJ/mol
# GULP energy per Si atom -12389.358834 kJ/mol
# Density = 2.080261 g / cm^3
# Si number density = 20.850063 Si / 1000 Ang^3
#
#
#
# Elastic Constant Matrix: (Units=GPa)
#
#
# Indices 1 2 3 4 5 6 
#
# 1 146.6704 61.2549 54.5062 0.0000 4.9319 0.0000
# 2 61.2549 142.0435 59.0680 0.0000 1.2309 0.0000
# 3 54.5062 59.0680 112.1894 0.0000 5.6395 0.0000
# 4 0.0000 0.0000 0.0000 32.3853 0.0000 2.6796
# 5 4.9319 1.2309 5.6395 0.0000 40.2152 0.0000
# 6 0.0000 0.0000 0.0000 2.6796 0.0000 20.6594
#
#
#
# Elastic Compliance Matrix: (Units=1/GPa)
#
#
# Indices 1 2 3 4 5 6 
#
# 1 0.009054 -0.002666 -0.002964 0.000000 -0.000613 0.000000
# 2 -0.002666 0.009805 -0.003896 0.000000 0.000573 0.000000
# 3 -0.002964 -0.003896 0.012468 0.000000 -0.001266 0.000000
# 4 0.000000 0.000000 0.000000 0.031213 0.000000 -0.004048
# 5 -0.000613 0.000573 -0.001266 0.000000 0.025101 0.000000
# 6 0.000000 0.000000 0.000000 -0.004048 0.000000 0.048929
#
#
# Mechanical properties :
#
#
# Convention : Reuss Voigt Hill
#
# Bulk Modulus (GPa) = 81.46824 83.39575 82.43200
# Shear Modulus (GPa) = 31.30585 33.72359 32.51472
#
# Velocity S-wave (km/s) = 3.87909 4.02610 3.95328
# Velocity P-wave (km/s) = 7.69554 7.85476 7.77556
#
# Compressibility (1/GPa) = 0.01227472
#
# Stress axis : x y z
#
# Youngs Moduli (GPa) = 110.45194 101.98849 80.20387
#
# Poissons Ratio (x) = 0.27195 0.23772
# Poissons Ratio (y) = 0.29452 0.31245
# Poissons Ratio (z) = 0.32737 0.39732
#
# Static dielectric constant tensor:
#      x y z
#    x 3.817220 0.000000 0.133640 
#    y 0.000000 4.222000 0.000000 
#    z 0.133640 0.000000 3.822960 
# 
# 
# High freq. dielectric constant tensor:
#      x y z
#    x 1.810020 0.000000 0.007180 
#    y 0.000000 1.827540 0.000000 
#    z 0.007180 0.000000 1.821530 
# 
# From -- ./inp_files/114775.got.cif
#   From: 2010.06.25/outbox.cif.g09.slc.cpg/sg15_58_cif.got.tgz:114775.got - 2010.06.28 07:06:18.
