data_PCOD8147986
_publ_section_title
;
Structure prediction by ZEFSAII (Michael W. Deem and Ramdas Pophale) SiO2 
 PCOD8147986
Probable space group: C 2/C
;
_chemical_formula_sum "Si O2"
_cell_formula_units_Z 44
_cell_length_a 11.256520
_cell_length_b 7.913567
_cell_length_c 20.316914
_cell_angle_alpha 90.000000
_cell_angle_beta 66.443647
_cell_angle_gamma 90.000000
_cell_volume 1658.998450
_symmetry_space_group_name_H-M "C 2/C"
_symmetry_group_IT_number 15
_symmetry_cell_setting 'monoclinic'
loop_
_space_group_symop_operation_xyz
x,y,z
-x,y,1/2-z
-x,-y,-z
x,-y,1/2+z
1/2+x,1/2+y,z
1/2-x,1/2+y,1/2-z
1/2-x,1/2-y,-z
1/2+x,1/2-y,1/2+z
loop_
_atom_site_type_symbol
_atom_site_label
_atom_site_fract_x
_atom_site_fract_y
_atom_site_fract_z
Si Si1 0.270577 0.951673 0.217428
Si Si2 0.753952 0.616668 0.349222
Si Si3 0.986129 0.382500 0.887847
Si Si4 0.500000 0.606064 0.250000
Si Si5 0.600601 0.750610 0.096147
Si Si6 0.117360 0.149515 0.954422
O O1 0.309469 0.769275 0.178742
O O2 0.283352 0.956299 0.294171
O O3 0.369684 0.097142 0.173126
O O4 0.124479 0.987881 0.228344
O O5 0.646869 0.541774 0.423002
O O6 0.884052 0.683788 0.355808
O O7 0.000052 0.242564 0.941681
O O8 0.931487 0.561998 0.924847
O O9 0.514544 0.716337 0.180144
O O10 0.752716 0.737100 0.079694
O O11 0.573286 0.626077 0.040603
#
# Coordination Sequence:
#
# PCOD8147986 Si02
#       6
#     8   8   8   4   8   8
#     4  12  26  45  70 106 148 193 254 315 376 450
#     4  11  27  44  74 108 148 198 249 316 380 445
#     4  11  23  45  77 108 147 193 247 310 377 453
#     4  12  26  46  74 112 148 202 254 318 376 452
#     4  10  23  44  78 112 152 201 247 313 381 452
#     4  10  22  47  74 111 155 195 253 309 381 461
#
# _framework density 26.522023999999998
#
# number of rings (size 3 to 8) (size 9 to 14) (size 15 to 20)
#    0.000    1.091    1.818    3.273   12.727    0.000 
#    0.000    4.545    0.000    0.000    0.000    0.000 
#    0.000    0.000    0.000    0.000    0.000    0.000 
#
# Total GULP energy -272704.258297 kJ/mol
# GULP energy per Si atom -12395.648104 kJ/mol
# Density = 2.646166 g / cm^3
# Si number density = 26.522024 Si / 1000 Ang^3
#
#
#
# Elastic Constant Matrix: (Units=GPa)
#
#
# Indices 1 2 3 4 5 6 
#
# 1 169.2614 48.4651 47.9813 0.0000 25.3709 0.0000
# 2 48.4651 97.6648 57.3185 0.0000 14.9779 0.0000
# 3 47.9813 57.3185 157.4452 0.0000 28.3522 0.0000
# 4 0.0000 0.0000 0.0000 69.5744 0.0000 48.3311
# 5 25.3709 14.9779 28.3522 0.0000 33.5025 0.0000
# 6 0.0000 0.0000 0.0000 48.3311 0.0000 151.5508
#
#
#
# Elastic Compliance Matrix: (Units=1/GPa)
#
#
# Indices 1 2 3 4 5 6 
#
# 1 0.007447 -0.002767 -0.000554 0.000000 -0.003934 0.000000
# 2 -0.002767 0.014180 -0.004194 0.000000 -0.000695 0.000000
# 3 -0.000554 -0.004194 0.009006 0.000000 -0.005328 0.000000
# 4 0.000000 0.000000 0.000000 0.018463 0.000000 -0.005888
# 5 -0.003934 -0.000695 -0.005328 0.000000 0.037647 0.000000
# 6 0.000000 0.000000 0.000000 -0.005888 0.000000 0.008476
#
#
# Mechanical properties :
#
#
# Convention : Reuss Voigt Hill
#
# Bulk Modulus (GPa) = 64.08681 81.32237 72.70459
# Shear Modulus (GPa) = 43.30846 68.96597 56.13722
#
# Velocity S-wave (km/s) = 4.04533 5.10487 4.60567
# Velocity P-wave (km/s) = 6.78496 8.09167 7.46695
#
# Compressibility (1/GPa) = 0.01560384
#
# Stress axis : x y z
#
# Youngs Moduli (GPa) = 134.28285 70.52056 111.03305
#
# Poissons Ratio (x) = 0.19515 0.06147
# Poissons Ratio (y) = 0.37160 0.46567
# Poissons Ratio (z) = 0.07434 0.29576
#
# Static dielectric constant tensor:
#      x y z
#    x 4.944060 0.000000 0.069860 
#    y 0.000000 4.254320 0.000000 
#    z 0.069860 0.000000 4.848410 
# 
# 
# High freq. dielectric constant tensor:
#      x y z
#    x 2.098900 0.000000 0.000630 
#    y 0.000000 2.042550 0.000000 
#    z 0.000630 0.000000 2.060310 
# 
# From -- ./inp_files/236081.got.cif
#   From: 2010.06.25/outbox.cif.g09.slc.cpg/sg15_119_cif.got.tgz:236081.got - 2010.06.28 07:06:18.
