data_PCOD8147343
_publ_section_title
;
Structure prediction by ZEFSAII (Michael W. Deem and Ramdas Pophale) SiO2 
 PCOD8147343
Probable space group: C 2/C
;
_chemical_formula_sum "Si O2"
_cell_formula_units_Z 32
_cell_length_a 13.887300
_cell_length_b 11.958810
_cell_length_c 8.939467
_cell_angle_alpha 90.000000
_cell_angle_beta 85.855442
_cell_angle_gamma 90.000000
_cell_volume 1480.744706
_symmetry_space_group_name_H-M "C 2/C"
_symmetry_group_IT_number 15
_symmetry_cell_setting 'monoclinic'
loop_
_space_group_symop_operation_xyz
x,y,z
-x,y,1/2-z
-x,-y,-z
x,-y,1/2+z
1/2+x,1/2+y,z
1/2-x,1/2+y,1/2-z
1/2-x,1/2-y,-z
1/2+x,1/2-y,1/2+z
loop_
_atom_site_type_symbol
_atom_site_label
_atom_site_fract_x
_atom_site_fract_y
_atom_site_fract_z
Si Si1 0.915799 0.910020 0.986729
Si Si2 0.028678 0.661411 0.574186
Si Si3 0.152759 0.453127 0.521809
Si Si4 0.213752 0.999161 0.748587
O O1 0.956838 0.786554 0.981780
O O2 0.864271 0.926210 0.832282
O O3 0.839826 0.918317 0.130363
O O4 0.000000 0.000000 0.000000
O O5 0.122712 0.584869 0.533717
O O6 0.000000 0.651924 0.750000
O O7 0.942212 0.621024 0.476828
O O8 0.213500 0.420460 0.663534
O O9 0.222011 0.428876 0.373143
#
# Coordination Sequence:
#
# PCOD8147343 Si02
#       4
#     8   8   8   8
#     4  11  24  46  64  96 137 178 215 269 336 397
#     4  11  22  42  71  97 135 171 220 269 340 382
#     4  10  22  44  67 102 127 171 222 278 323 389
#     4  10  22  43  68  95 134 167 224 268 322 389
#
# _framework density 21.610748000000001
#
# number of rings (size 3 to 8) (size 9 to 14) (size 15 to 20)
#    0.000    1.500    2.500    2.250    0.000    4.000 
#   18.000    3.750    0.000    0.000    0.000    0.000 
#    0.000    0.000    0.000    0.000    0.000    0.000 
#
# Total GULP energy -198402.221224 kJ/mol
# GULP energy per Si atom -12400.138827 kJ/mol
# Density = 2.156156 g / cm^3
# Si number density = 21.610748 Si / 1000 Ang^3
#
#
#
# Elastic Constant Matrix: (Units=GPa)
#
#
# Indices 1 2 3 4 5 6 
#
# 1 138.0537 57.6320 62.9494 0.0000 27.7630 0.0000
# 2 57.6320 142.8482 39.9979 0.0000 11.3800 0.0000
# 3 62.9494 39.9979 143.8726 0.0000 21.4185 0.0000
# 4 0.0000 0.0000 0.0000 18.8491 0.0000 -3.0114
# 5 27.7630 11.3800 21.4185 0.0000 47.4279 0.0000
# 6 0.0000 0.0000 0.0000 -3.0114 0.0000 21.7234
#
#
#
# Elastic Compliance Matrix: (Units=1/GPa)
#
#
# Indices 1 2 3 4 5 6 
#
# 1 0.010879 -0.003144 -0.003270 0.000000 -0.004137 0.000000
# 2 -0.003144 0.008538 -0.001037 0.000000 0.000260 0.000000
# 3 -0.003270 -0.001037 0.008949 0.000000 -0.001879 0.000000
# 4 0.000000 0.000000 0.000000 0.054255 0.000000 0.007521
# 5 -0.004137 0.000260 -0.001879 0.000000 0.024292 0.000000
# 6 0.000000 0.000000 0.000000 0.007521 0.000000 0.047076
#
#
# Mechanical properties :
#
#
# Convention : Reuss Voigt Hill
#
# Bulk Modulus (GPa) = 74.26591 82.88144 78.57368
# Shear Modulus (GPa) = 28.83841 35.21309 32.02575
#
# Velocity S-wave (km/s) = 3.65697 4.04099 3.85377
# Velocity P-wave (km/s) = 7.22988 7.75938 7.49931
#
# Compressibility (1/GPa) = 0.01346513
#
# Stress axis : x y z
#
# Youngs Moduli (GPa) = 91.91925 117.11670 111.74097
#
# Poissons Ratio (x) = 0.36821 0.36540
# Poissons Ratio (y) = 0.28899 0.11586
# Poissons Ratio (z) = 0.30058 0.12144
#
# Static dielectric constant tensor:
#      x y z
#    x 4.285620 0.000000 0.102420 
#    y 0.000000 3.468340 0.000000 
#    z 0.102420 0.000000 4.198450 
# 
# 
# High freq. dielectric constant tensor:
#      x y z
#    x 1.876050 0.000000 0.004270 
#    y 0.000000 1.807990 0.000000 
#    z 0.004270 0.000000 1.868340 
# 
# From -- ./inp_files/36531.got.cif
#   From: 2010.06.25/outbox.cif.g09.slc.cpg/sg15_19_cif.got.tgz:36531.got - 2010.06.28 07:06:18.
