data_PCOD8147698
_publ_section_title
;
Structure prediction by ZEFSAII (Michael W. Deem and Ramdas Pophale) SiO2 
 PCOD8147698
Probable space group: C 2/C
;
_chemical_formula_sum "Si O2"
_cell_formula_units_Z 52
_cell_length_a 16.471830
_cell_length_b 9.167052
_cell_length_c 19.902167
_cell_angle_alpha 90.000000
_cell_angle_beta 57.295045
_cell_angle_gamma 90.000000
_cell_volume 2528.759242
_symmetry_space_group_name_H-M "C 2/C"
_symmetry_group_IT_number 15
_symmetry_cell_setting 'monoclinic'
loop_
_space_group_symop_operation_xyz
x,y,z
-x,y,1/2-z
-x,-y,-z
x,-y,1/2+z
1/2+x,1/2+y,z
1/2-x,1/2+y,1/2-z
1/2-x,1/2-y,-z
1/2+x,1/2-y,1/2+z
loop_
_atom_site_type_symbol
_atom_site_label
_atom_site_fract_x
_atom_site_fract_y
_atom_site_fract_z
Si Si1 0.748830 0.414146 0.067755
Si Si2 0.501345 0.671611 0.006125
Si Si3 0.807108 0.772275 0.663887
Si Si4 0.500000 0.073980 0.250000
Si Si5 0.212574 0.736647 0.442273
Si Si6 0.806210 0.434082 0.291121
Si Si7 0.090626 0.267704 0.584535
O O1 0.750566 0.298829 0.127293
O O2 0.758301 0.574656 0.095283
O O3 0.647260 0.384122 0.075338
O O4 0.833902 0.389250 0.975476
O O5 0.418988 0.716836 0.095065
O O6 0.500000 0.500000 0.000000
O O7 0.598480 0.739179 0.991997
O O8 0.487486 0.738556 0.938189
O O9 0.798400 0.677402 0.733934
O O10 0.758201 0.927272 0.699616
O O11 0.416590 0.973067 0.256842
O O12 0.462722 0.177028 0.325798
O O13 0.250000 0.750000 0.500000
O O14 0.263114 0.859684 0.376104
#
# Coordination Sequence:
#
# PCOD8147698 Si02
#       7
#     8   8   8   4   8   8   8
#     4  10  22  44  70  98 131 184 229 285 342 415
#     4  11  24  44  71 101 135 187 236 289 343 419
#     4  11  25  45  72  98 140 179 234 287 350 415
#     4  12  26  44  70 102 142 184 230 288 352 420
#     4  12  26  43  70 100 142 182 234 291 349 411
#     4  12  27  46  69 104 142 185 227 297 351 416
#     4  10  23  42  71  96 136 181 235 278 347 416
#
# _framework density 20.563445000000002
#
# number of rings (size 3 to 8) (size 9 to 14) (size 15 to 20)
#    0.000    0.923    3.077    2.769   10.769    1.231 
#    2.769    0.000    0.000    0.000    0.000    0.000 
#    0.000    0.000    0.000    0.000    0.000    0.000 
#
# Total GULP energy -322522.341247 kJ/mol
# GULP energy per Si atom -12404.705433 kJ/mol
# Density = 2.051664 g / cm^3
# Si number density = 20.563445 Si / 1000 Ang^3
#
#
#
# Elastic Constant Matrix: (Units=GPa)
#
#
# Indices 1 2 3 4 5 6 
#
# 1 160.8879 58.0985 66.1933 0.0000 -5.1374 0.0000
# 2 58.0985 142.7081 55.1269 0.0000 2.6636 0.0002
# 3 66.1933 55.1269 135.6546 0.0000 16.4141 0.0000
# 4 0.0000 0.0000 0.0000 37.7966 0.0000 6.0110
# 5 -5.1374 2.6636 16.4141 0.0000 30.2279 0.0000
# 6 0.0000 0.0002 0.0000 6.0110 0.0000 36.4111
#
#
#
# Elastic Compliance Matrix: (Units=1/GPa)
#
#
# Indices 1 2 3 4 5 6 
#
# 1 0.008674 -0.002125 -0.003821 0.000000 0.003736 0.000000
# 2 -0.002125 0.008872 -0.002601 0.000000 0.000269 0.000000
# 3 -0.003821 -0.002601 0.011072 0.000000 -0.006432 0.000000
# 4 0.000000 0.000000 0.000000 0.027171 0.000000 -0.004486
# 5 0.003736 0.000269 -0.006432 0.000000 0.037186 0.000000
# 6 0.000000 0.000000 0.000000 -0.004486 0.000000 0.028205
#
#
# Mechanical properties :
#
#
# Convention : Reuss Voigt Hill
#
# Bulk Modulus (GPa) = 86.78075 88.67644 87.72860
# Shear Modulus (GPa) = 35.18262 38.20924 36.69593
#
# Velocity S-wave (km/s) = 4.14083 4.31526 4.22894
# Velocity P-wave (km/s) = 8.07187 8.24898 8.16090
#
# Compressibility (1/GPa) = 0.01152329
#
# Stress axis : x y z
#
# Youngs Moduli (GPa) = 115.28232 112.71118 90.32148
#
# Poissons Ratio (x) = 0.23952 0.34514
# Poissons Ratio (y) = 0.24499 0.23494
# Poissons Ratio (z) = 0.44052 0.29318
#
# Static dielectric constant tensor:
#      x y z
#    x 4.072870 0.000000 -0.054150 
#    y 0.000000 3.625160 0.000000 
#    z -0.054150 0.000000 3.593830 
# 
# 
# High freq. dielectric constant tensor:
#      x y z
#    x 1.818700 0.000000 0.005000 
#    y 0.000000 1.811050 0.000000 
#    z 0.005000 0.000000 1.810660 
# 
# From -- ./inp_files/247779.got.cif
#   From: 2010.06.25/outbox.cif.g09.slc.cpg/sg15_124_cif.got.tgz:247779.got - 2010.06.28 07:06:18.
