data_PCOD8147068
_publ_section_title
;
Structure prediction by ZEFSAII (Michael W. Deem and Ramdas Pophale) SiO2 
 PCOD8147068
Probable space group: C 2/C
;
_chemical_formula_sum "Si O2"
_cell_formula_units_Z 60
_cell_length_a 15.304990
_cell_length_b 11.848358
_cell_length_c 16.224066
_cell_angle_alpha 90.000000
_cell_angle_beta 114.447780
_cell_angle_gamma 90.000000
_cell_volume 2678.267796
_symmetry_space_group_name_H-M "C 2/C"
_symmetry_group_IT_number 15
_symmetry_cell_setting 'monoclinic'
loop_
_space_group_symop_operation_xyz
x,y,z
-x,y,1/2-z
-x,-y,-z
x,-y,1/2+z
1/2+x,1/2+y,z
1/2-x,1/2+y,1/2-z
1/2-x,1/2-y,-z
1/2+x,1/2-y,1/2+z
loop_
_atom_site_type_symbol
_atom_site_label
_atom_site_fract_x
_atom_site_fract_y
_atom_site_fract_z
Si Si1 0.000000 0.885737 0.750000
Si Si2 0.368878 0.192010 0.261292
Si Si3 0.421836 0.032797 0.849726
Si Si4 0.926775 0.242479 0.604782
Si Si5 0.057071 0.996850 0.938611
Si Si6 0.762157 0.132399 0.960754
Si Si7 0.380438 0.973448 0.517252
Si Si8 0.324550 0.230599 0.728877
O O1 0.000372 0.962444 0.832746
O O2 0.099829 0.815483 0.784884
O O3 0.456662 0.250139 0.345799
O O4 0.373532 0.238597 0.170836
O O5 0.263904 0.210299 0.259127
O O6 0.386113 0.057147 0.267720
O O7 0.385299 0.157786 0.817249
O O8 0.537067 0.034918 0.896698
O O9 0.385334 0.990859 0.924114
O O10 0.886658 0.337933 0.527359
O O11 0.896769 0.120317 0.558881
O O12 0.127373 0.896572 0.991027
O O13 0.000000 0.000000 0.000000
O O14 0.721856 0.143631 0.853369
O O15 0.717228 0.024741 0.988503
O O16 0.750000 0.250000 0.000000
#
# Coordination Sequence:
#
# PCOD8147068 Si02
#       8
#     4   8   8   8   8   8   8   8
#     4  12  28  48  72 110 146 202 250 306 372 460
#     4  10  22  42  70 100 142 186 246 303 367 439
#     4  10  23  41  69 104 135 188 234 300 367 440
#     4  10  23  45  69 103 143 191 239 304 372 444
#     4  12  29  48  75 107 156 197 250 308 384 448
#     4  12  25  46  70 105 145 187 242 311 366 431
#     4  10  23  43  70 101 145 180 238 299 368 436
#     4  12  25  43  74 101 144 190 253 302 374 449
#
# _framework density 22.402539000000001
#
# number of rings (size 3 to 8) (size 9 to 14) (size 15 to 20)
#    0.000    1.067    1.333    4.000    3.733    6.933 
#    0.000    0.000    0.000    0.000    0.000    0.000 
#    0.000    0.000    0.000    0.000    0.000    0.000 
#
# Total GULP energy -371934.864840 kJ/mol
# GULP energy per Si atom -12397.828828 kJ/mol
# Density = 2.235155 g / cm^3
# Si number density = 22.402539 Si / 1000 Ang^3
#
#
#
# Elastic Constant Matrix: (Units=GPa)
#
#
# Indices 1 2 3 4 5 6 
#
# 1 126.1841 38.2519 39.3086 0.0000 -14.4419 0.0000
# 2 38.2519 113.7802 49.2091 0.0000 -0.8566 0.0000
# 3 39.3086 49.2091 97.3563 0.0000 -11.2336 0.0000
# 4 0.0000 0.0000 0.0000 38.4647 0.0000 2.3139
# 5 -14.4419 -0.8566 -11.2336 0.0000 30.2999 0.0000
# 6 0.0000 0.0000 0.0000 2.3139 0.0000 31.5414
#
#
#
# Elastic Compliance Matrix: (Units=1/GPa)
#
#
# Indices 1 2 3 4 5 6 
#
# 1 0.009768 -0.002221 -0.002394 0.000000 0.003705 0.000000
# 2 -0.002221 0.011855 -0.005410 0.000000 -0.002729 0.000000
# 3 -0.002394 -0.005410 0.014441 0.000000 0.004060 0.000000
# 4 0.000000 0.000000 0.000000 0.026113 0.000000 -0.001916
# 5 0.003705 -0.002729 0.004060 0.000000 0.036198 0.000000
# 6 0.000000 0.000000 0.000000 -0.001916 0.000000 0.031845
#
#
# Mechanical properties :
#
#
# Convention : Reuss Voigt Hill
#
# Bulk Modulus (GPa) = 62.44460 65.65108 64.04784
# Shear Modulus (GPa) = 32.13211 34.09795 33.11503
#
# Velocity S-wave (km/s) = 3.79133 3.90559 3.84888
# Velocity P-wave (km/s) = 6.86294 7.05032 6.95726
#
# Compressibility (1/GPa) = 0.01601419
#
# Stress axis : x y z
#
# Youngs Moduli (GPa) = 102.37577 84.35376 69.24586
#
# Poissons Ratio (x) = 0.18732 0.16577
# Poissons Ratio (y) = 0.22734 0.37465
# Poissons Ratio (z) = 0.24508 0.45639
#
# Static dielectric constant tensor:
#      x y z
#    x 4.145460 0.000000 0.163090 
#    y 0.000000 4.083150 0.000000 
#    z 0.163090 0.000000 4.267890 
# 
# 
# High freq. dielectric constant tensor:
#      x y z
#    x 1.885640 0.000000 -0.005500 
#    y 0.000000 1.886730 0.000000 
#    z -0.005500 0.000000 1.885670 
# 
# From -- ./inp_files/204503.got.cif
#   From: 2010.06.25/outbox.cif.g09.slc.cpg/sg15_103_cif.got.tgz:204503.got - 2010.06.28 07:06:18.
