data_PCOD8147574
_publ_section_title
;
Structure prediction by ZEFSAII (Michael W. Deem and Ramdas Pophale) SiO2 
 PCOD8147574
Probable space group: C 2/C
;
_chemical_formula_sum "Si O2"
_cell_formula_units_Z 32
_cell_length_a 27.974455
_cell_length_b 5.501523
_cell_length_c 10.052979
_cell_angle_alpha 90.000000
_cell_angle_beta 129.777311
_cell_angle_gamma 90.000000
_cell_volume 1189.060884
_symmetry_space_group_name_H-M "C 2/C"
_symmetry_group_IT_number 15
_symmetry_cell_setting 'monoclinic'
loop_
_space_group_symop_operation_xyz
x,y,z
-x,y,1/2-z
-x,-y,-z
x,-y,1/2+z
1/2+x,1/2+y,z
1/2-x,1/2+y,1/2-z
1/2-x,1/2-y,-z
1/2+x,1/2-y,1/2+z
loop_
_atom_site_type_symbol
_atom_site_label
_atom_site_fract_x
_atom_site_fract_y
_atom_site_fract_z
Si Si1 0.325539 0.259540 0.789837
Si Si2 0.543329 0.013310 0.204569
Si Si3 0.929212 0.012432 0.327675
Si Si4 0.790551 0.554090 0.996894
O O1 0.380535 0.455519 0.863867
O O2 0.255724 0.360031 0.652980
O O3 0.333175 0.152832 0.951669
O O4 0.335070 0.061354 0.688917
O O5 0.500000 0.069287 0.250000
O O6 0.577967 0.750501 0.282318
O O7 0.588229 0.253726 0.271994
O O8 0.500000 0.000000 0.000000
O O9 0.000000 0.000000 0.500000
O O10 0.750000 0.750000 0.000000
#
# Coordination Sequence:
#
# PCOD8147574 Si02
#       4
#     8   8   8   8
#     4  11  25  45  77 111 151 202 258 331 392 472
#     4  10  22  44  66  97 144 191 243 297 364 448
#     4  10  24  45  73 109 149 196 251 313 383 467
#     4  11  24  47  72 111 150 198 263 321 395 462
#
# _framework density 26.911995000000001
#
# number of rings (size 3 to 8) (size 9 to 14) (size 15 to 20)
#    0.000    1.500    2.500    0.750    3.500    4.000 
#    9.000    0.000    0.000    0.000    0.000    0.000 
#    0.000    0.000    0.000    0.000    0.000    0.000 
#
# Total GULP energy -198263.792405 kJ/mol
# GULP energy per Si atom -12391.487025 kJ/mol
# Density = 2.685074 g / cm^3
# Si number density = 26.911995 Si / 1000 Ang^3
#
#
#
# Elastic Constant Matrix: (Units=GPa)
#
#
# Indices 1 2 3 4 5 6 
#
# 1 172.2888 59.9035 53.5107 0.0000 -42.8938 0.0000
# 2 59.9035 234.3842 34.2710 0.0000 -35.5323 0.0000
# 3 53.5107 34.2710 126.8282 0.0000 -34.7480 0.0000
# 4 0.0000 0.0000 0.0000 24.2616 0.0000 -4.6323
# 5 -42.8938 -35.5323 -34.7480 0.0000 57.6865 0.0000
# 6 0.0000 0.0000 0.0000 -4.6323 0.0000 54.5554
#
#
#
# Elastic Compliance Matrix: (Units=1/GPa)
#
#
# Indices 1 2 3 4 5 6 
#
# 1 0.007760 -0.001108 -0.001893 0.000000 0.003947 0.000000
# 2 -0.001108 0.004899 -0.000306 0.000000 0.002009 0.000000
# 3 -0.001893 -0.000306 0.009975 0.000000 0.004412 0.000000
# 4 0.000000 0.000000 0.000000 0.041897 0.000000 0.003557
# 5 0.003947 0.002009 0.004412 0.000000 0.024166 0.000000
# 6 0.000000 0.000000 0.000000 0.003557 0.000000 0.018632
#
#
# Mechanical properties :
#
#
# Convention : Reuss Voigt Hill
#
# Bulk Modulus (GPa) = 62.42161 92.09686 77.25923
# Shear Modulus (GPa) = 41.91711 53.02176 47.46943
#
# Velocity S-wave (km/s) = 3.95088 4.44350 4.20441
# Velocity P-wave (km/s) = 6.63759 7.78601 7.23463
#
# Compressibility (1/GPa) = 0.01602009
#
# Stress axis : x y z
#
# Youngs Moduli (GPa) = 128.86167 204.12137 100.25066
#
# Poissons Ratio (x) = 0.22619 0.18980
# Poissons Ratio (y) = 0.14279 0.03065
# Poissons Ratio (z) = 0.24397 0.06240
#
# Static dielectric constant tensor:
#      x y z
#    x 5.143060 0.000000 0.173660 
#    y 0.000000 7.224790 0.000000 
#    z 0.173660 0.000000 4.742890 
# 
# 
# High freq. dielectric constant tensor:
#      x y z
#    x 2.103120 0.000000 0.003640 
#    y 0.000000 2.100920 0.000000 
#    z 0.003640 0.000000 2.063780 
# 
# From -- ./inp_files/68047.got.cif
#   From: 2010.06.25/outbox.cif.g09.slc.cpg/sg15_35_cif.got.tgz:68047.got - 2010.06.28 07:06:18.
