data_PCOD8147262
_publ_section_title
;
Structure prediction by ZEFSAII (Michael W. Deem and Ramdas Pophale) SiO2 
 PCOD8147262
Probable space group: C 2/C
;
_chemical_formula_sum "Si O2"
_cell_formula_units_Z 48
_cell_length_a 9.684075
_cell_length_b 11.247889
_cell_length_c 24.634102
_cell_angle_alpha 90.000000
_cell_angle_beta 60.210560
_cell_angle_gamma 90.000000
_cell_volume 2328.702929
_symmetry_space_group_name_H-M "C 2/C"
_symmetry_group_IT_number 15
_symmetry_cell_setting 'monoclinic'
loop_
_space_group_symop_operation_xyz
x,y,z
-x,y,1/2-z
-x,-y,-z
x,-y,1/2+z
1/2+x,1/2+y,z
1/2-x,1/2+y,1/2-z
1/2-x,1/2-y,-z
1/2+x,1/2-y,1/2+z
loop_
_atom_site_type_symbol
_atom_site_label
_atom_site_fract_x
_atom_site_fract_y
_atom_site_fract_z
Si Si1 0.971596 0.150621 0.869369
Si Si2 0.630962 0.413375 0.995738
Si Si3 0.035153 0.587827 0.327690
Si Si4 0.236306 0.054071 0.311174
Si Si5 0.160839 0.263245 0.393385
Si Si6 0.549394 0.966176 0.049903
O O1 0.929097 0.162385 0.941283
O O2 0.804163 0.138021 0.868485
O O3 0.046833 0.270180 0.830431
O O4 0.095818 0.042891 0.838869
O O5 0.500000 0.500000 0.000000
O O6 0.692555 0.322887 0.938464
O O7 0.765931 0.507888 0.983974
O O8 0.188186 0.548678 0.263164
O O9 0.874567 0.537716 0.329818
O O10 0.049644 0.536209 0.384948
O O11 0.160666 0.184421 0.338475
O O12 0.990129 0.326998 0.431896
O O13 0.500000 0.000000 0.000000
#
# Coordination Sequence:
#
# PCOD8147262 Si02
#       6
#     8   8   8   8   8   8
#     4  11  20  41  68  88 132 170 208 273 321 385
#     4  12  22  43  65  98 132 172 218 267 330 392
#     4  10  23  42  67  94 128 178 217 270 328 387
#     4  10  22  43  65  96 126 174 227 262 328 391
#     4  11  23  40  67  95 132 172 217 269 334 387
#     4  12  23  40  67 101 134 168 218 275 330 391
#
# _framework density 20.612334000000001
#
# number of rings (size 3 to 8) (size 9 to 14) (size 15 to 20)
#    0.000    1.000    6.667    1.500    2.333    0.667 
#    0.000    3.333    0.000    0.000    0.000    0.000 
#    0.000    0.000    0.000    0.000    0.000    0.000 
#
# Total GULP energy -297405.672046 kJ/mol
# GULP energy per Si atom -12391.903002 kJ/mol
# Density = 2.056542 g / cm^3
# Si number density = 20.612334 Si / 1000 Ang^3
#
#
#
# Elastic Constant Matrix: (Units=GPa)
#
#
# Indices 1 2 3 4 5 6 
#
# 1 111.8255 71.2824 44.2442 0.0000 -12.2931 0.0000
# 2 71.2824 94.5489 31.9740 0.0000 -5.5064 0.0000
# 3 44.2442 31.9740 141.1984 0.0000 -1.6981 0.0000
# 4 0.0000 0.0000 0.0000 33.1293 0.0000 -7.3256
# 5 -12.2931 -5.5064 -1.6981 0.0000 27.8576 0.0000
# 6 0.0000 0.0000 0.0000 -7.3256 0.0000 49.0318
#
#
#
# Elastic Compliance Matrix: (Units=1/GPa)
#
#
# Indices 1 2 3 4 5 6 
#
# 1 0.019029 -0.013021 -0.002946 0.000000 0.005644 0.000000
# 2 -0.013021 0.020489 -0.000580 0.000000 -0.001732 0.000000
# 3 -0.002946 -0.000580 0.008126 0.000000 -0.000919 0.000000
# 4 0.000000 0.000000 0.000000 0.031216 0.000000 0.004664
# 5 0.005644 -0.001732 -0.000919 0.000000 0.037989 0.000000
# 6 0.000000 0.000000 0.000000 0.004664 0.000000 0.021092
#
#
# Mechanical properties :
#
#
# Convention : Reuss Voigt Hill
#
# Bulk Modulus (GPa) = 68.73739 71.39711 70.06725
# Shear Modulus (GPa) = 28.42758 35.34188 31.88473
#
# Velocity S-wave (km/s) = 3.71772 4.14526 3.93730
# Velocity P-wave (km/s) = 7.20061 7.59106 7.39841
#
# Compressibility (1/GPa) = 0.01454812
#
# Stress axis : x y z
#
# Youngs Moduli (GPa) = 52.55144 48.80662 123.06555
#
# Poissons Ratio (x) = 0.63553 0.36257
# Poissons Ratio (y) = 0.68429 0.07141
# Poissons Ratio (z) = 0.15482 0.02832
#
# Static dielectric constant tensor:
#      x y z
#    x 3.708580 0.000000 -0.027200 
#    y 0.000000 3.437960 0.000000 
#    z -0.027200 0.000000 4.918620 
# 
# 
# High freq. dielectric constant tensor:
#      x y z
#    x 1.793930 0.000000 -0.009380 
#    y 0.000000 1.797670 0.000000 
#    z -0.009380 0.000000 1.825220 
# 
# From -- ./inp_files/263498.got.cif
#   From: 2010.06.25/outbox.cif.g09.slc.cpg/sg15_132_cif.got.tgz:263498.got - 2010.06.28 07:06:18.
