data_PCOD8147630
_publ_section_title
;
Structure prediction by ZEFSAII (Michael W. Deem and Ramdas Pophale) SiO2 
 PCOD8147630
Probable space group: C 2/C
;
_chemical_formula_sum "Si O2"
_cell_formula_units_Z 60
_cell_length_a 21.059907
_cell_length_b 16.749377
_cell_length_c 18.948679
_cell_angle_alpha 90.000000
_cell_angle_beta 25.981939
_cell_angle_gamma 90.000000
_cell_volume 2928.162727
_symmetry_space_group_name_H-M "C 2/C"
_symmetry_group_IT_number 15
_symmetry_cell_setting 'monoclinic'
loop_
_space_group_symop_operation_xyz
x,y,z
-x,y,1/2-z
-x,-y,-z
x,-y,1/2+z
1/2+x,1/2+y,z
1/2-x,1/2+y,1/2-z
1/2-x,1/2-y,-z
1/2+x,1/2-y,1/2+z
loop_
_atom_site_type_symbol
_atom_site_label
_atom_site_fract_x
_atom_site_fract_y
_atom_site_fract_z
Si Si1 0.226421 0.424580 0.191146
Si Si2 0.468124 0.180372 0.962398
Si Si3 0.751330 0.912473 0.724020
Si Si4 0.753061 0.852809 0.562538
Si Si5 0.760086 0.674680 0.043632
Si Si6 0.500000 0.247729 0.250000
Si Si7 0.476775 0.350815 0.603041
Si Si8 0.838795 0.484479 0.388252
O O1 0.229569 0.491900 0.248449
O O2 0.140149 0.464300 0.214001
O O3 0.135635 0.346278 0.302151
O O4 0.388179 0.402342 0.004864
O O5 0.462196 0.271000 0.994866
O O6 0.380557 0.125567 0.102630
O O7 0.406892 0.178711 0.943145
O O8 0.762301 0.875339 0.635484
O O9 0.897487 0.899163 0.621439
O O10 0.603325 0.805157 0.697349
O O11 0.895789 0.801944 0.402464
O O12 0.754136 0.933396 0.513018
O O13 0.620818 0.675625 0.233244
O O14 0.750000 0.750000 0.000000
O O15 0.759832 0.589185 0.005415
O O16 0.000000 0.503132 0.250000
#
# Coordination Sequence:
#
# PCOD8147630 Si02
#       8
#     8   8   8   8   8   4   8   8
#     4  11  22  40  63  88 125 167 216 269 306 381
#     4  11  22  41  63  93 127 172 216 252 315 391
#     4  10  24  41  63  89 129 167 212 260 323 378
#     4  10  23  42  68  97 126 164 213 270 327 387
#     4  11  24  40  65  97 135 174 210 262 322 390
#     4  10  22  44  68  94 128 154 212 274 336 380
#     4  11  24  41  61  96 132 167 216 263 319 380
#     4  11  21  39  64  91 129 167 216 260 325 379
#
# _framework density 20.490665
#
# number of rings (size 3 to 8) (size 9 to 14) (size 15 to 20)
#    0.000    1.333    2.000    4.000    1.867    3.733 
#    0.000    0.667    0.000    0.000    0.000    0.000 
#    0.000    0.000    0.000    0.000    0.000    0.000 
#
# Total GULP energy -371902.105890 kJ/mol
# GULP energy per Si atom -12396.736863 kJ/mol
# Density = 2.044403 g / cm^3
# Si number density = 20.490665 Si / 1000 Ang^3
#
#
#
# Elastic Constant Matrix: (Units=GPa)
#
#
# Indices 1 2 3 4 5 6 
#
# 1 111.4928 49.2227 52.7229 0.0043 -7.6654 -0.0015
# 2 49.2227 132.8111 41.1705 0.0063 -1.1863 -0.0032
# 3 52.7229 41.1705 99.4537 0.0067 -17.6623 -0.0054
# 4 0.0043 0.0063 0.0067 38.7329 -0.0062 0.0377
# 5 -7.6654 -1.1863 -17.6623 -0.0062 26.2510 0.0026
# 6 -0.0015 -0.0032 -0.0054 0.0377 0.0026 39.0238
#
#
#
# Elastic Compliance Matrix: (Units=1/GPa)
#
#
# Indices 1 2 3 4 5 6 
#
# 1 0.012977 -0.003064 -0.005636 0.000000 -0.000141 -0.000001
# 2 -0.003064 0.009484 -0.002708 -0.000001 -0.002288 0.000000
# 3 -0.005636 -0.002708 0.015730 0.000000 0.008815 0.000001
# 4 0.000000 -0.000001 0.000000 0.025818 0.000006 -0.000025
# 5 -0.000141 -0.002288 0.008815 0.000006 0.043880 -0.000002
# 6 -0.000001 0.000000 0.000001 -0.000025 -0.000002 0.025625
#
#
# Mechanical properties :
#
#
# Convention : Reuss Voigt Hill
#
# Bulk Modulus (GPa) = 65.04452 69.99886 67.52169
# Shear Modulus (GPa) = 30.96814 34.17763 32.57289
#
# Velocity S-wave (km/s) = 3.89180 4.08850 3.99136
# Velocity P-wave (km/s) = 7.21160 7.51820 7.36649
#
# Compressibility (1/GPa) = 0.01537409
#
# Stress axis : x y z
#
# Youngs Moduli (GPa) = 77.05672 105.43967 63.57441
#
# Poissons Ratio (x) = 0.32304 0.35834
# Poissons Ratio (y) = 0.23608 0.17218
# Poissons Ratio (z) = 0.43433 0.28557
#
# Static dielectric constant tensor:
#      x y z
#    x 3.810390 0.000000 -0.218220 
#    y 0.000000 4.085920 0.000010 
#    z -0.218220 0.000010 3.585290 
# 
# 
# High freq. dielectric constant tensor:
#      x y z
#    x 1.801370 0.000000 -0.019060 
#    y 0.000000 1.822730 0.000000 
#    z -0.019060 0.000000 1.795480 
# 
# From -- ./inp_files/211745.got.cif
#   From: 2010.06.25/outbox.cif.g09.slc.cpg/sg15_106_cif.got.tgz:211745.got - 2010.06.28 07:06:18.
