data_PCOD8147739
_publ_section_title
;
Structure prediction by ZEFSAII (Michael W. Deem and Ramdas Pophale) SiO2 
 PCOD8147739
Probable space group: C 2/C
;
_chemical_formula_sum "Si O2"
_cell_formula_units_Z 60
_cell_length_a 15.354115
_cell_length_b 15.160718
_cell_length_c 26.482135
_cell_angle_alpha 90.000000
_cell_angle_beta 152.672304
_cell_angle_gamma 90.000000
_cell_volume 2829.990807
_symmetry_space_group_name_H-M "C 2/C"
_symmetry_group_IT_number 15
_symmetry_cell_setting 'monoclinic'
loop_
_space_group_symop_operation_xyz
x,y,z
-x,y,1/2-z
-x,-y,-z
x,-y,1/2+z
1/2+x,1/2+y,z
1/2-x,1/2+y,1/2-z
1/2-x,1/2-y,-z
1/2+x,1/2-y,1/2+z
loop_
_atom_site_type_symbol
_atom_site_label
_atom_site_fract_x
_atom_site_fract_y
_atom_site_fract_z
Si Si1 0.714406 0.714804 0.220405
Si Si2 0.834826 0.512627 0.541113
Si Si3 0.351743 0.320138 0.587362
Si Si4 0.223731 0.289295 0.864135
Si Si5 0.813438 0.391743 0.243513
Si Si6 0.367908 0.183582 0.025728
Si Si7 0.079638 0.044864 0.991792
Si Si8 0.000000 0.290732 0.250000
O O1 0.557131 0.656931 0.168677
O O2 0.704227 0.698482 0.155569
O O3 0.665829 0.817319 0.203387
O O4 0.913112 0.690529 0.347804
O O5 0.768815 0.589856 0.468944
O O6 0.803489 0.417409 0.500020
O O7 0.700804 0.523758 0.521310
O O8 0.051869 0.526924 0.670922
O O9 0.250000 0.250000 0.500000
O O10 0.365348 0.274194 0.648804
O O11 0.000000 0.272724 0.750000
O O12 0.328770 0.208422 0.946976
O O13 0.273796 0.377466 0.920136
O O14 0.596687 0.421470 0.131812
O O15 0.870442 0.352824 0.218269
O O16 0.250000 0.250000 0.000000
O O17 0.000000 0.000000 0.000000
#
# Coordination Sequence:
#
# PCOD8147739 Si02
#       8
#     8   8   8   8   8   8   8   4
#     4  11  23  44  70  97 135 180 229 279 358 400
#     4  12  25  45  67 100 143 178 235 284 349 406
#     4  11  24  44  70 100 138 179 220 293 339 414
#     4  12  25  43  71  96 134 187 229 280 351 409
#     4  11  24  44  70 100 136 178 223 293 341 415
#     4  12  24  48  66  97 143 184 226 288 339 420
#     4  12  26  37  67 103 135 169 232 289 344 405
#     4  10  22  44  72  96 138 172 228 276 358 398
#
# _framework density 21.201481999999999
#
# number of rings (size 3 to 8) (size 9 to 14) (size 15 to 20)
#    0.000    0.533    6.667    1.600    7.467    0.000 
#    1.200    0.667    0.000    0.000    0.000    0.000 
#    0.000    0.000    0.000    0.000    0.000    0.000 
#
# Total GULP energy -372071.631114 kJ/mol
# GULP energy per Si atom -12402.387704 kJ/mol
# Density = 2.115323 g / cm^3
# Si number density = 21.201482 Si / 1000 Ang^3
#
#
#
# Elastic Constant Matrix: (Units=GPa)
#
#
# Indices 1 2 3 4 5 6 
#
# 1 38.1052 -1.9469 22.2427 0.0002 -0.7203 0.0000
# 2 -1.9469 107.5390 35.3667 0.0007 -5.8540 0.0000
# 3 22.2427 35.3667 136.5546 0.0012 -3.6172 -0.0004
# 4 0.0002 0.0007 0.0012 37.7638 -0.0001 3.1076
# 5 -0.7203 -5.8540 -3.6172 -0.0001 35.8025 -0.0002
# 6 0.0000 0.0000 -0.0004 3.1076 -0.0002 28.7853
#
#
#
# Elastic Compliance Matrix: (Units=1/GPa)
#
#
# Indices 1 2 3 4 5 6 
#
# 1 0.029524 0.002335 -0.005402 0.000000 0.000430 0.000000
# 2 0.002335 0.010420 -0.003041 0.000000 0.001443 0.000000
# 3 -0.005402 -0.003041 0.008999 0.000000 0.000303 0.000000
# 4 0.000000 0.000000 0.000000 0.026718 0.000000 -0.002884
# 5 0.000430 0.001443 0.000303 0.000000 0.028206 0.000000
# 6 0.000000 0.000000 0.000000 -0.002884 0.000000 0.035051
#
#
# Mechanical properties :
#
#
# Convention : Reuss Voigt Hill
#
# Bulk Modulus (GPa) = 27.22900 43.72487 35.47694
# Shear Modulus (GPa) = 30.60421 35.57276 33.08848
#
# Velocity S-wave (km/s) = 3.80346 4.10059 3.95482
# Velocity P-wave (km/s) = 5.67091 6.56415 6.13381
#
# Compressibility (1/GPa) = 0.03672555
#
# Stress axis : x y z
#
# Youngs Moduli (GPa) = 33.87084 95.97119 111.12862
#
# Poissons Ratio (x) = -0.22405 0.60035
# Poissons Ratio (y) = -0.07907 0.33791
# Poissons Ratio (z) = 0.18298 0.29182
#
# Static dielectric constant tensor:
#      x y z
#    x 4.129460 0.000000 0.442860 
#    y 0.000000 4.033240 0.000000 
#    z 0.442860 0.000000 4.529150 
# 
# 
# High freq. dielectric constant tensor:
#      x y z
#    x 1.821900 0.000000 0.008350 
#    y 0.000000 1.828710 0.000000 
#    z 0.008350 0.000000 1.849950 
# 
# From -- ./inp_files/296730.got.cif
#   From: 2010.06.25/outbox.cif.g09.slc.cpg/sg15_149_cif.got.tgz:296730.got - 2010.06.28 07:06:18.
