data_PCOD8147127
_publ_section_title
;
Structure prediction by ZEFSAII (Michael W. Deem and Ramdas Pophale) SiO2 
 PCOD8147127
Probable space group: C 2/C
;
_chemical_formula_sum "Si O2"
_cell_formula_units_Z 56
_cell_length_a 13.720975
_cell_length_b 18.666495
_cell_length_c 11.532125
_cell_angle_alpha 90.000000
_cell_angle_beta 120.052617
_cell_angle_gamma 90.000000
_cell_volume 2556.567216
_symmetry_space_group_name_H-M "C 2/C"
_symmetry_group_IT_number 15
_symmetry_cell_setting 'monoclinic'
loop_
_space_group_symop_operation_xyz
x,y,z
-x,y,1/2-z
-x,-y,-z
x,-y,1/2+z
1/2+x,1/2+y,z
1/2-x,1/2+y,1/2-z
1/2-x,1/2-y,-z
1/2+x,1/2-y,1/2+z
loop_
_atom_site_type_symbol
_atom_site_label
_atom_site_fract_x
_atom_site_fract_y
_atom_site_fract_z
Si Si1 0.582454 0.799916 0.899472
Si Si2 0.548974 0.920985 0.050475
Si Si3 0.118462 0.023252 0.025839
Si Si4 0.697152 0.319500 0.613958
Si Si5 0.000000 0.062237 0.750000
Si Si6 0.299070 0.402247 0.283970
Si Si7 0.777830 0.733448 0.648147
Si Si8 0.000000 0.651554 0.750000
O O1 0.500000 0.770485 0.750000
O O2 0.697111 0.825323 0.907957
O O3 0.521432 0.867171 0.927556
O O4 0.608533 0.737900 0.008851
O O5 0.685762 0.914284 0.141364
O O6 0.482164 0.897977 0.126710
O O7 0.500000 0.000000 0.000000
O O8 0.142916 0.102613 0.085136
O O9 0.209127 0.967327 0.128082
O O10 0.098197 0.017766 0.875241
O O11 0.000000 0.000000 0.000000
O O12 0.730924 0.299534 0.766615
O O13 0.082081 0.106304 0.713538
O O14 0.304320 0.328184 0.355596
O O15 0.750000 0.750000 0.500000
O O16 0.902082 0.704405 0.724586
#
# Coordination Sequence:
#
# PCOD8147127 Si02
#       8
#     8   8   8   8   4   8   8   4
#     4  11  26  43  74 107 139 185 238 302 360 418
#     4  11  25  45  71 102 144 189 239 293 358 434
#     4  10  24  39  68 102 136 179 227 290 351 415
#     4  11  25  47  69 108 139 181 247 295 352 436
#     4  10  22  42  71  99 138 182 234 300 350 424
#     4  10  23  46  66 104 139 184 236 294 360 413
#     4  11  26  45  70  98 142 190 229 290 356 430
#     4  10  24  44  61 101 142 180 234 284 350 426
#
# _framework density 21.904371999999999
#
# number of rings (size 3 to 8) (size 9 to 14) (size 15 to 20)
#    0.000    1.429    2.857    0.857    8.000    9.143 
#    0.000    0.714    0.000    0.000    0.000    0.000 
#    0.000    0.000    0.000    0.000    0.000    0.000 
#
# Total GULP energy -346870.386825 kJ/mol
# GULP energy per Si atom -12388.228101 kJ/mol
# Density = 2.185452 g / cm^3
# Si number density = 21.904372 Si / 1000 Ang^3
#
#
#
# Elastic Constant Matrix: (Units=GPa)
#
#
# Indices 1 2 3 4 5 6 
#
# 1 93.7188 27.1015 15.0411 0.0000 -17.1366 0.0000
# 2 27.1015 133.0876 57.9338 0.0000 -9.6256 0.0000
# 3 15.0411 57.9338 146.3958 0.0000 -23.8050 0.0000
# 4 0.0000 0.0000 0.0000 33.5700 0.0000 0.0078
# 5 -17.1366 -9.6256 -23.8050 0.0000 33.9928 0.0000
# 6 0.0000 0.0000 0.0000 0.0078 0.0000 27.5224
#
#
#
# Elastic Compliance Matrix: (Units=1/GPa)
#
#
# Indices 1 2 3 4 5 6 
#
# 1 0.012348 -0.002359 0.000642 0.000000 0.006006 0.000000
# 2 -0.002359 0.009529 -0.003705 0.000000 -0.001086 0.000000
# 3 0.000642 -0.003705 0.009156 0.000000 0.005686 0.000000
# 4 0.000000 0.000000 0.000000 0.029789 0.000000 -0.000008
# 5 0.006006 -0.001086 0.005686 0.000000 0.036120 0.000000
# 6 0.000000 0.000000 0.000000 -0.000008 0.000000 0.036334
#
#
# Mechanical properties :
#
#
# Convention : Reuss Voigt Hill
#
# Bulk Modulus (GPa) = 49.53770 63.70611 56.62191
# Shear Modulus (GPa) = 33.14576 37.22542 35.18559
#
# Velocity S-wave (km/s) = 3.89421 4.12691 4.01225
# Velocity P-wave (km/s) = 6.54862 7.20107 6.88258
#
# Compressibility (1/GPa) = 0.02018664
#
# Stress axis : x y z
#
# Youngs Moduli (GPa) = 80.98652 104.94773 109.22246
#
# Poissons Ratio (x) = 0.24761 -0.07009
# Poissons Ratio (y) = 0.19108 0.40466
# Poissons Ratio (z) = -0.05197 0.38882
#
# Static dielectric constant tensor:
#      x y z
#    x 3.833920 0.000000 0.382020 
#    y 0.000000 4.108740 0.000000 
#    z 0.382020 0.000000 2.688260 
# 
# 
# High freq. dielectric constant tensor:
#      x y z
#    x 1.866740 0.000000 -0.006510 
#    y 0.000000 1.855490 0.000000 
#    z -0.006510 0.000000 1.875120 
# 
# From -- ./inp_files/98867.got.cif
#   From: 2010.06.25/outbox.cif.g09.slc.cpg/sg15_50_cif.got.tgz:98867.got - 2010.06.28 07:06:18.
