data_PCOD8147428
_publ_section_title
;
Structure prediction by ZEFSAII (Michael W. Deem and Ramdas Pophale) SiO2 
 PCOD8147428
Probable space group: C 2/C
;
_chemical_formula_sum "Si O2"
_cell_formula_units_Z 44
_cell_length_a 12.190421
_cell_length_b 24.238583
_cell_length_c 8.189417
_cell_angle_alpha 90.000000
_cell_angle_beta 123.601682
_cell_angle_gamma 90.000000
_cell_volume 2015.460930
_symmetry_space_group_name_H-M "C 2/C"
_symmetry_group_IT_number 15
_symmetry_cell_setting 'monoclinic'
loop_
_space_group_symop_operation_xyz
x,y,z
-x,y,1/2-z
-x,-y,-z
x,-y,1/2+z
1/2+x,1/2+y,z
1/2-x,1/2+y,1/2-z
1/2-x,1/2-y,-z
1/2+x,1/2-y,1/2+z
loop_
_atom_site_type_symbol
_atom_site_label
_atom_site_fract_x
_atom_site_fract_y
_atom_site_fract_z
Si Si1 0.460187 0.668860 0.527730
Si Si2 0.635403 0.759205 0.274548
Si Si3 0.804498 0.534040 0.851468
Si Si4 0.274648 0.363229 0.373620
Si Si5 0.132641 0.073488 0.255245
Si Si6 0.000000 0.500197 0.750000
O O1 0.500000 0.675252 0.750000
O O2 0.363362 0.717865 0.382346
O O3 0.593654 0.673175 0.532319
O O4 0.396677 0.609020 0.432310
O O5 0.500000 0.750480 0.250000
O O6 0.750000 0.750000 0.500000
O O7 0.651807 0.823035 0.233070
O O8 0.719097 0.588869 0.758029
O O9 0.706395 0.481862 0.758696
O O10 0.926562 0.537091 0.823935
O O11 0.879837 0.536942 0.084755
O O12 0.269081 0.390930 0.548799
O O13 0.000000 0.059258 0.250000
#
# Coordination Sequence:
#
# PCOD8147428 Si02
#       6
#     8   8   8   8   8   4
#     4  11  25  43  69 106 140 168 235 299 345 406
#     4  12  23  47  75  96 134 188 236 284 346 425
#     4  11  23  43  64  98 140 179 231 282 345 415
#     4  11  24  43  70  99 133 186 229 278 348 426
#     4  10  22  43  71  97 135 184 228 274 351 426
#     4  10  24  40  60  90 142 180 226 282 330 420
#
# _framework density 21.831233999999998
#
# number of rings (size 3 to 8) (size 9 to 14) (size 15 to 20)
#    0.000    1.091    5.455    0.545    3.818    4.364 
#    1.636    0.000    0.000    0.000    0.000    0.000 
#    0.000    0.000    0.000    0.000    0.000    0.000 
#
# Total GULP energy -272568.670264 kJ/mol
# GULP energy per Si atom -12389.485012 kJ/mol
# Density = 2.178155 g / cm^3
# Si number density = 21.831234 Si / 1000 Ang^3
#
#
#
# Elastic Constant Matrix: (Units=GPa)
#
#
# Indices 1 2 3 4 5 6 
#
# 1 61.8764 38.3061 11.5973 0.0000 10.8905 0.0000
# 2 38.3061 156.3778 74.4983 0.0000 4.0965 0.0000
# 3 11.5973 74.4983 151.9473 0.0000 11.2760 0.0000
# 4 0.0000 0.0000 0.0000 29.5780 0.0000 0.4556
# 5 10.8905 4.0965 11.2760 0.0000 25.8230 0.0000
# 6 0.0000 0.0000 0.0000 0.4556 0.0000 28.9474
#
#
#
# Elastic Compliance Matrix: (Units=1/GPa)
#
#
# Indices 1 2 3 4 5 6 
#
# 1 0.020936 -0.005802 0.001895 0.000000 -0.008737 0.000000
# 2 -0.005802 0.009958 -0.004654 0.000000 0.002900 0.000000
# 3 0.001895 -0.004654 0.009015 0.000000 -0.003998 0.000000
# 4 0.000000 0.000000 0.000000 0.033817 0.000000 -0.000532
# 5 -0.008737 0.002900 -0.003998 0.000000 0.043695 0.000000
# 6 0.000000 0.000000 0.000000 -0.000532 0.000000 0.034554
#
#
# Mechanical properties :
#
#
# Convention : Reuss Voigt Hill
#
# Bulk Modulus (GPa) = 43.88759 68.77833 56.33296
# Shear Modulus (GPa) = 28.29764 33.25633 30.77698
#
# Velocity S-wave (km/s) = 3.60418 3.90723 3.75876
# Velocity P-wave (km/s) = 6.12102 7.20612 6.68562
#
# Compressibility (1/GPa) = 0.02278548
#
# Stress axis : x y z
#
# Youngs Moduli (GPa) = 47.76493 100.42641 110.92319
#
# Poissons Ratio (x) = 0.58272 -0.21024
# Poissons Ratio (y) = 0.27716 0.51628
# Poissons Ratio (z) = -0.09053 0.46743
#
# Static dielectric constant tensor:
#      x y z
#    x 3.977900 0.000000 0.490540 
#    y 0.000000 4.165760 0.000000 
#    z 0.490540 0.000000 5.129340 
# 
# 
# High freq. dielectric constant tensor:
#      x y z
#    x 1.840560 0.000000 0.011920 
#    y 0.000000 1.854410 0.000000 
#    z 0.011920 0.000000 1.869760 
# 
# From -- ./inp_files/42373.got.cif
#   From: 2010.06.25/outbox.cif.g09.slc.cpg/sg15_22_cif.got.tgz:42373.got - 2010.06.28 07:06:18.
