data_PCOD8147022
_publ_section_title
;
Structure prediction by ZEFSAII (Michael W. Deem and Ramdas Pophale) SiO2 
 PCOD8147022
Probable space group: C 2/C
;
_chemical_formula_sum "Si O2"
_cell_formula_units_Z 56
_cell_length_a 7.906719
_cell_length_b 26.300389
_cell_length_c 13.688249
_cell_angle_alpha 90.000000
_cell_angle_beta 122.171748
_cell_angle_gamma 90.000000
_cell_volume 2409.409778
_symmetry_space_group_name_H-M "C 2/C"
_symmetry_group_IT_number 15
_symmetry_cell_setting 'monoclinic'
loop_
_space_group_symop_operation_xyz
x,y,z
-x,y,1/2-z
-x,-y,-z
x,-y,1/2+z
1/2+x,1/2+y,z
1/2-x,1/2+y,1/2-z
1/2-x,1/2-y,-z
1/2+x,1/2-y,1/2+z
loop_
_atom_site_type_symbol
_atom_site_label
_atom_site_fract_x
_atom_site_fract_y
_atom_site_fract_z
Si Si1 0.442317 0.552867 0.930115
Si Si2 0.886154 0.747002 0.411464
Si Si3 0.500000 0.196622 0.250000
Si Si4 0.850057 0.156067 0.482135
Si Si5 0.319342 0.497416 0.146381
Si Si6 0.942737 0.552926 0.592552
Si Si7 0.584574 0.841227 0.081722
Si Si8 0.500000 0.205078 0.750000
O O1 0.541722 0.549394 0.853324
O O2 0.196018 0.559332 0.852730
O O3 0.500000 0.500000 0.000000
O O4 0.532411 0.604042 0.007425
O O5 0.917522 0.734368 0.307174
O O6 0.654985 0.760295 0.356628
O O7 0.016901 0.794011 0.489779
O O8 0.927280 0.698194 0.489433
O O9 0.667954 0.159952 0.348978
O O10 0.779758 0.157287 0.573856
O O11 0.500000 0.531695 0.250000
O O12 0.150926 0.477817 0.171928
O O13 0.208146 0.524569 0.025738
O O14 0.983551 0.604176 0.547571
O O15 0.625140 0.828399 0.208982
#
# Coordination Sequence:
#
# PCOD8147022 Si02
#       8
#     8   8   4   8   8   8   8   4
#     4  10  22  43  66  95 132 176 218 284 334 396
#     4  11  23  41  65  96 140 172 231 281 335 414
#     4  10  22  42  68  99 126 191 220 268 364 412
#     4  11  22  44  67  96 141 177 226 288 340 408
#     4  10  22  43  67  95 130 175 220 272 342 407
#     4  10  22  43  65  93 138 166 220 285 330 391
#     4  11  23  41  65  96 137 176 221 288 335 407
#     4  12  24  38  62  97 130 183 226 270 346 398
#
# _framework density 23.242208000000002
#
# number of rings (size 3 to 8) (size 9 to 14) (size 15 to 20)
#    0.000    1.429    1.429    4.714    0.000    4.000 
#   12.857    0.000    0.000    0.000    0.000    0.000 
#    0.000    0.000    0.000    0.000    0.000    0.000 
#
# Total GULP energy -346867.487807 kJ/mol
# GULP energy per Si atom -12388.124565 kJ/mol
# Density = 2.318931 g / cm^3
# Si number density = 23.242208 Si / 1000 Ang^3
#
#
#
# Elastic Constant Matrix: (Units=GPa)
#
#
# Indices 1 2 3 4 5 6 
#
# 1 88.3039 13.4262 -0.3334 0.0000 23.4693 0.0000
# 2 13.4262 76.7020 -9.0255 0.0000 3.8889 0.0000
# 3 -0.3334 -9.0255 35.0728 0.0000 -2.4837 0.0000
# 4 0.0000 0.0000 0.0000 5.2161 0.0000 -2.5364
# 5 23.4693 3.8889 -2.4837 0.0000 43.0167 0.0000
# 6 0.0000 0.0000 0.0000 -2.5364 0.0000 31.8922
#
#
#
# Elastic Compliance Matrix: (Units=1/GPa)
#
#
# Indices 1 2 3 4 5 6 
#
# 1 0.013575 -0.002117 -0.000930 0.000000 -0.007268 0.000000
# 2 -0.002117 0.013819 0.003544 0.000000 0.000110 0.000000
# 3 -0.000930 0.003544 0.029549 0.000000 0.001893 0.000000
# 4 0.000000 0.000000 0.000000 0.199424 0.000000 0.015860
# 5 -0.007268 0.000110 0.001893 0.000000 0.027312 0.000000
# 6 0.000000 0.000000 0.000000 0.015860 0.000000 0.032617
#
#
# Mechanical properties :
#
#
# Convention : Reuss Voigt Hill
#
# Bulk Modulus (GPa) = 17.26040 23.13482 20.19761
# Shear Modulus (GPa) = 14.94250 29.09243 22.01747
#
# Velocity S-wave (km/s) = 2.53831 3.54179 3.08117
# Velocity P-wave (km/s) = 4.00414 5.16731 4.62245
#
# Compressibility (1/GPa) = 0.05793607
#
# Stress axis : x y z
#
# Youngs Moduli (GPa) = 73.66633 72.36162 33.84175
#
# Poissons Ratio (x) = 0.15320 0.03149
# Poissons Ratio (y) = 0.15596 -0.11993
# Poissons Ratio (z) = 0.06855 -0.25644
#
# Static dielectric constant tensor:
#      x y z
#    x 5.288280 0.000000 -0.086570 
#    y 0.000000 4.047550 0.000000 
#    z -0.086570 0.000000 4.185100 
# 
# 
# High freq. dielectric constant tensor:
#      x y z
#    x 1.944800 0.000000 -0.002320 
#    y 0.000000 1.906990 0.000000 
#    z -0.002320 0.000000 1.916300 
# 
# From -- ./inp_files/138715.got.cif
#   From: 2010.06.25/outbox.cif.g09.slc.cpg/sg15_70_cif.got.tgz:138715.got - 2010.06.28 07:06:18.
