data_PCOD8147893
_publ_section_title
;
Structure prediction by ZEFSAII (Michael W. Deem and Ramdas Pophale) SiO2 
 PCOD8147893
Probable space group: C 2/C
;
_chemical_formula_sum "Si O2"
_cell_formula_units_Z 52
_cell_length_a 18.836420
_cell_length_b 9.147964
_cell_length_c 26.197829
_cell_angle_alpha 90.000000
_cell_angle_beta 31.887205
_cell_angle_gamma 90.000000
_cell_volume 2384.660620
_symmetry_space_group_name_H-M "C 2/C"
_symmetry_group_IT_number 15
_symmetry_cell_setting 'monoclinic'
loop_
_space_group_symop_operation_xyz
x,y,z
-x,y,1/2-z
-x,-y,-z
x,-y,1/2+z
1/2+x,1/2+y,z
1/2-x,1/2+y,1/2-z
1/2-x,1/2-y,-z
1/2+x,1/2-y,1/2+z
loop_
_atom_site_type_symbol
_atom_site_label
_atom_site_fract_x
_atom_site_fract_y
_atom_site_fract_z
Si Si1 0.837036 0.923678 0.498911
Si Si2 0.388170 0.479506 0.713032
Si Si3 0.948205 0.397650 0.487268
Si Si4 0.500000 0.453662 0.250000
Si Si5 0.731975 0.111217 0.957071
Si Si6 0.297025 0.173145 0.729777
Si Si7 0.138457 0.913128 0.422026
O O1 0.730294 0.928385 0.518119
O O2 0.860360 0.752210 0.498392
O O3 0.976733 0.003205 0.401754
O O4 0.777348 0.010961 0.583625
O O5 0.427969 0.452782 0.748358
O O6 0.301469 0.343584 0.743325
O O7 0.299217 0.628972 0.759840
O O8 0.817962 0.470690 0.542213
O O9 0.899071 0.251443 0.543170
O O10 0.000000 0.500000 0.500000
O O11 0.053695 0.375274 0.376995
O O12 0.613955 0.354194 0.153808
O O13 0.235785 0.078007 0.813688
O O14 0.000000 0.000000 0.500000
#
# Coordination Sequence:
#
# PCOD8147893 Si02
#       7
#     8   8   8   4   8   8   8
#     4  10  22  46  65  93 138 180 223 291 348 403
#     4  11  24  44  70  98 139 180 234 286 350 418
#     4  12  25  42  68 103 137 179 232 286 349 421
#     4  10  22  46  70  98 134 186 228 278 360 422
#     4  10  23  43  70  96 135 181 228 284 347 427
#     4  12  24  42  68 106 134 188 231 286 352 418
#     4  12  23  42  66  98 139 176 227 292 343 404
#
# _framework density 21.806038000000001
#
# number of rings (size 3 to 8) (size 9 to 14) (size 15 to 20)
#    0.000    0.923    3.077    3.692    2.154    1.846 
#    8.308    0.000    0.000    0.923    0.000    0.000 
#    0.000    0.000    0.000    0.000    0.000    0.000 
#
# Total GULP energy -322254.415566 kJ/mol
# GULP energy per Si atom -12394.400599 kJ/mol
# Density = 2.175641 g / cm^3
# Si number density = 21.806038 Si / 1000 Ang^3
#
#
#
# Elastic Constant Matrix: (Units=GPa)
#
#
# Indices 1 2 3 4 5 6 
#
# 1 128.0042 71.4369 28.7155 0.0061 9.6360 -0.0132
# 2 71.4369 125.4251 17.5164 0.0089 2.1107 -0.0186
# 3 28.7155 17.5164 110.7329 -0.0005 21.1378 -0.0035
# 4 0.0061 0.0089 -0.0005 32.1907 -0.0023 -1.0793
# 5 9.6360 2.1107 21.1378 -0.0023 29.6234 0.0068
# 6 -0.0132 -0.0186 -0.0035 -1.0793 0.0068 38.8105
#
#
#
# Elastic Compliance Matrix: (Units=1/GPa)
#
#
# Indices 1 2 3 4 5 6 
#
# 1 0.012025 -0.006581 -0.001644 -0.000001 -0.002269 0.000001
# 2 -0.006581 0.011759 -0.000466 -0.000002 0.001635 0.000003
# 3 -0.001644 -0.000466 0.010908 0.000000 -0.007216 0.000001
# 4 -0.000001 -0.000002 0.000000 0.031094 0.000002 0.000865
# 5 -0.002269 0.001635 -0.007216 0.000002 0.039527 -0.000008
# 6 0.000001 0.000003 0.000001 0.000865 -0.000008 0.025790
#
#
# Mechanical properties :
#
#
# Convention : Reuss Voigt Hill
#
# Bulk Modulus (GPa) = 57.76930 66.61109 62.19020
# Shear Modulus (GPa) = 32.41406 36.55780 34.48593
#
# Velocity S-wave (km/s) = 3.85966 4.09895 3.98110
# Velocity P-wave (km/s) = 6.81267 7.28116 7.05081
#
# Compressibility (1/GPa) = 0.01731023
#
# Stress axis : x y z
#
# Youngs Moduli (GPa) = 83.16293 85.04408 91.67506
#
# Poissons Ratio (x) = 0.55967 0.15072
# Poissons Ratio (y) = 0.54729 0.04268
# Poissons Ratio (z) = 0.13672 0.03959
#
# Static dielectric constant tensor:
#      x y z
#    x 4.338010 0.000000 0.265780 
#    y 0.000000 3.987070 0.000010 
#    z 0.265780 0.000010 4.165570 
# 
# 
# High freq. dielectric constant tensor:
#      x y z
#    x 1.866290 0.000000 0.018130 
#    y 0.000000 1.844850 0.000000 
#    z 0.018130 0.000000 1.862590 
# 
# From -- ./inp_files/317350.got.cif
#   From: 2010.06.25/outbox.cif.g09.slc.cpg/sg15_159_cif.got.tgz:317350.got - 2010.06.28 07:06:18.
