data_PCOD8147185
_publ_section_title
;
Structure prediction by ZEFSAII (Michael W. Deem and Ramdas Pophale) SiO2 
 PCOD8147185
Probable space group: C 2/C
;
_chemical_formula_sum "Si O2"
_cell_formula_units_Z 36
_cell_length_a 21.043678
_cell_length_b 10.172255
_cell_length_c 8.722800
_cell_angle_alpha 90.000000
_cell_angle_beta 109.804952
_cell_angle_gamma 90.000000
_cell_volume 1756.773929
_symmetry_space_group_name_H-M "C 2/C"
_symmetry_group_IT_number 15
_symmetry_cell_setting 'monoclinic'
loop_
_space_group_symop_operation_xyz
x,y,z
-x,y,1/2-z
-x,-y,-z
x,-y,1/2+z
1/2+x,1/2+y,z
1/2-x,1/2+y,1/2-z
1/2-x,1/2-y,-z
1/2+x,1/2-y,1/2+z
loop_
_atom_site_type_symbol
_atom_site_label
_atom_site_fract_x
_atom_site_fract_y
_atom_site_fract_z
Si Si1 0.638455 0.638158 0.359086
Si Si2 0.188582 0.105588 0.071529
Si Si3 0.840667 0.624919 0.109463
Si Si4 0.000000 0.244798 0.250000
Si Si5 0.391936 0.123921 0.484183
O O1 0.686886 0.617419 0.253889
O O2 0.644000 0.516621 0.479776
O O3 0.560576 0.651998 0.236272
O O4 0.657601 0.771350 0.468950
O O5 0.265505 0.079209 0.089004
O O6 0.158550 0.235550 0.971997
O O7 0.885683 0.635183 0.297601
O O8 0.873725 0.522490 0.020136
O O9 0.030378 0.338948 0.409045
#
# Coordination Sequence:
#
# PCOD8147185 Si02
#       5
#     8   8   8   4   8
#     4  10  22  43  62  90 127 166 207 258 305 370
#     4  11  23  39  64  97 126 162 209 260 319 366
#     4  11  23  39  64  97 126 162 209 260 319 366
#     4   8  24  44  62  88 128 168 220 238 308 376
#     4  10  22  43  62  90 127 166 207 258 305 370
#
# _framework density 20.492107000000001
#
# number of rings (size 3 to 8) (size 9 to 14) (size 15 to 20)
#    1.333    0.444    0.000    4.000    0.000    8.889 
#    0.000    0.000    0.000    0.000    0.000    0.000 
#    0.000    0.000    0.000    0.000    0.000    0.000 
#
# Total GULP energy -223161.054739 kJ/mol
# GULP energy per Si atom -12397.836374 kJ/mol
# Density = 2.044547 g / cm^3
# Si number density = 20.492107 Si / 1000 Ang^3
#
#
#
# Elastic Constant Matrix: (Units=GPa)
#
#
# Indices 1 2 3 4 5 6 
#
# 1 23.5295 7.4815 -6.6633 0.0000 12.7767 0.0000
# 2 7.4815 89.4075 24.6441 0.0000 15.8818 0.0000
# 3 -6.6633 24.6441 91.7704 0.0000 0.0117 0.0000
# 4 0.0000 0.0000 0.0000 32.4922 0.0000 7.2163
# 5 12.7767 15.8818 0.0117 0.0000 35.2202 0.0000
# 6 0.0000 0.0000 0.0000 7.2163 0.0000 33.5847
#
#
#
# Elastic Compliance Matrix: (Units=1/GPa)
#
#
# Indices 1 2 3 4 5 6 
#
# 1 0.054803 -0.002544 0.004665 0.000000 -0.018735 0.000000
# 2 -0.002544 0.013340 -0.003766 0.000000 -0.005091 0.000000
# 3 0.004665 -0.003766 0.012247 0.000000 0.000002 0.000000
# 4 0.000000 0.000000 0.000000 0.032319 0.000000 -0.006944
# 5 -0.018735 -0.005091 0.000002 0.000000 0.037485 0.000000
# 6 0.000000 0.000000 0.000000 -0.006944 0.000000 0.031268
#
#
# Mechanical properties :
#
#
# Convention : Reuss Voigt Hill
#
# Bulk Modulus (GPa) = 12.97030 28.40354 20.68692
# Shear Modulus (GPa) = 23.75838 32.20910 27.98374
#
# Velocity S-wave (km/s) = 3.40868 3.96887 3.69939
# Velocity P-wave (km/s) = 4.67282 5.90706 5.32582
#
# Compressibility (1/GPa) = 0.07709920
#
# Stress axis : x y z
#
# Youngs Moduli (GPa) = 18.24722 74.96155 81.65339
#
# Poissons Ratio (x) = 0.19067 -0.38088
# Poissons Ratio (y) = 0.04641 0.30754
# Poissons Ratio (z) = -0.08512 0.28234
#
# Static dielectric constant tensor:
#      x y z
#    x 3.417680 0.000000 0.098170 
#    y 0.000000 3.753160 0.000000 
#    z 0.098170 0.000000 3.638690 
# 
# 
# High freq. dielectric constant tensor:
#      x y z
#    x 1.780870 0.000000 0.005820 
#    y 0.000000 1.811260 0.000000 
#    z 0.005820 0.000000 1.806730 
# 
# From -- ./inp_files/59791.got.cif
#   From: 2010.06.25/outbox.cif.g09.slc.cpg/sg15_30_cif.got.tgz:59791.got - 2010.06.28 07:06:18.
