data_PCOD8147822
_publ_section_title
;
Structure prediction by ZEFSAII (Michael W. Deem and Ramdas Pophale) SiO2 
 PCOD8147822
Probable space group: C 2/C
;
_chemical_formula_sum "Si O2"
_cell_formula_units_Z 48
_cell_length_a 8.927669
_cell_length_b 23.815947
_cell_length_c 11.510150
_cell_angle_alpha 90.000000
_cell_angle_beta 59.942587
_cell_angle_gamma 90.000000
_cell_volume 2118.195331
_symmetry_space_group_name_H-M "C 2/C"
_symmetry_group_IT_number 15
_symmetry_cell_setting 'monoclinic'
loop_
_space_group_symop_operation_xyz
x,y,z
-x,y,1/2-z
-x,-y,-z
x,-y,1/2+z
1/2+x,1/2+y,z
1/2-x,1/2+y,1/2-z
1/2-x,1/2-y,-z
1/2+x,1/2-y,1/2+z
loop_
_atom_site_type_symbol
_atom_site_label
_atom_site_fract_x
_atom_site_fract_y
_atom_site_fract_z
Si Si1 0.215435 0.139184 0.892700
Si Si2 0.738342 0.201767 0.865745
Si Si3 0.674225 0.457841 0.256253
Si Si4 0.864400 0.175931 0.054860
Si Si5 0.325814 0.927712 0.756161
Si Si6 0.997609 0.388798 0.464416
O O1 0.245398 0.176599 0.767586
O O2 0.139454 0.079260 0.883279
O O3 0.392359 0.128175 0.890393
O O4 0.060701 0.168227 0.026957
O O5 0.720194 0.268337 0.858886
O O6 0.570921 0.170241 0.985925
O O7 0.883880 0.185176 0.905842
O O8 0.500000 0.455029 0.250000
O O9 0.696166 0.520460 0.296320
O O10 0.846521 0.433478 0.122732
O O11 0.750554 0.122822 0.137389
O O12 0.500000 0.948774 0.750000
O O13 0.362523 0.911584 0.609254
#
# Coordination Sequence:
#
# PCOD8147822 Si02
#       6
#     8   8   8   8   8   8
#     4  11  24  45  71  99 140 181 232 279 348 410
#     4  10  22  45  69 100 137 184 234 274 340 401
#     4  11  25  45  74 101 133 182 228 281 345 419
#     4  11  25  41  73 103 137 186 228 287 332 410
#     4  12  26  45  67 102 141 177 229 284 344 404
#     4  11  24  47  70 100 138 184 222 286 345 407
#
# _framework density 22.660799999999998
#
# number of rings (size 3 to 8) (size 9 to 14) (size 15 to 20)
#    0.000    1.000    1.667    6.000    4.667    1.333 
#    3.000    0.000    0.000    0.000    0.000    0.000 
#    0.000    0.000    0.000    0.000    0.000    0.000 
#
# Total GULP energy -297365.653161 kJ/mol
# GULP energy per Si atom -12390.235548 kJ/mol
# Density = 2.260922 g / cm^3
# Si number density = 22.660800 Si / 1000 Ang^3
#
#
#
# Elastic Constant Matrix: (Units=GPa)
#
#
# Indices 1 2 3 4 5 6 
#
# 1 127.8415 22.6392 10.9583 0.0000 -1.2385 0.0000
# 2 22.6392 89.1026 -2.2153 0.0000 0.5580 0.0000
# 3 10.9583 -2.2153 59.8563 0.0000 4.7083 0.0000
# 4 0.0000 0.0000 0.0000 10.0988 0.0000 4.8144
# 5 -1.2385 0.5580 4.7083 0.0000 30.1875 0.0000
# 6 0.0000 0.0000 0.0000 4.8144 0.0000 31.8437
#
#
#
# Elastic Compliance Matrix: (Units=1/GPa)
#
#
# Indices 1 2 3 4 5 6 
#
# 1 0.008355 -0.002168 -0.001660 0.000000 0.000642 0.000000
# 2 -0.002168 0.011798 0.000868 0.000000 -0.000442 0.000000
# 3 -0.001660 0.000868 0.017261 0.000000 -0.002776 0.000000
# 4 0.000000 0.000000 0.000000 0.106713 0.000000 -0.016134
# 5 0.000642 -0.000442 -0.002776 0.000000 0.033594 0.000000
# 6 0.000000 0.000000 0.000000 -0.016134 0.000000 0.033843
#
#
# Mechanical properties :
#
#
# Convention : Reuss Voigt Hill
#
# Bulk Modulus (GPa) = 31.75191 37.72943 34.74067
# Shear Modulus (GPa) = 21.93166 30.78722 26.35944
#
# Velocity S-wave (km/s) = 3.11436 3.68993 3.41430
# Velocity P-wave (km/s) = 5.19370 5.90254 5.55943
#
# Compressibility (1/GPa) = 0.03149417
#
# Stress axis : x y z
#
# Youngs Moduli (GPa) = 119.69375 84.75840 57.93351
#
# Poissons Ratio (x) = 0.18376 0.09619
# Poissons Ratio (y) = 0.25950 -0.05031
# Poissons Ratio (z) = 0.19872 -0.07360
#
# Static dielectric constant tensor:
#      x y z
#    x 4.212200 0.000000 -0.078280 
#    y 0.000000 4.306140 0.000000 
#    z -0.078280 0.000000 3.922780 
# 
# 
# High freq. dielectric constant tensor:
#      x y z
#    x 1.906200 0.000000 -0.003640 
#    y 0.000000 1.902360 0.000000 
#    z -0.003640 0.000000 1.880540 
# 
# From -- ./inp_files/80544.got.cif
#   From: 2010.06.25/outbox.cif.g09.slc.cpg/sg15_41_cif.got.tgz:80544.got - 2010.06.28 07:06:18.
