data_PCOD8147797
_publ_section_title
;
Structure prediction by ZEFSAII (Michael W. Deem and Ramdas Pophale) SiO2 
 PCOD8147797
Probable space group: C 2/C
;
_chemical_formula_sum "Si O2"
_cell_formula_units_Z 44
_cell_length_a 19.371502
_cell_length_b 8.801414
_cell_length_c 12.756197
_cell_angle_alpha 90.000000
_cell_angle_beta 89.322941
_cell_angle_gamma 90.000000
_cell_volume 2174.736483
_symmetry_space_group_name_H-M "C 2/C"
_symmetry_group_IT_number 15
_symmetry_cell_setting 'monoclinic'
loop_
_space_group_symop_operation_xyz
x,y,z
-x,y,1/2-z
-x,-y,-z
x,-y,1/2+z
1/2+x,1/2+y,z
1/2-x,1/2+y,1/2-z
1/2-x,1/2-y,-z
1/2+x,1/2-y,1/2+z
loop_
_atom_site_type_symbol
_atom_site_label
_atom_site_fract_x
_atom_site_fract_y
_atom_site_fract_z
Si Si1 0.617737 0.353374 0.249813
Si Si2 0.817851 0.165890 0.963383
Si Si3 0.058994 0.352069 0.593303
Si Si4 0.680119 0.333345 0.468021
Si Si5 0.948236 0.699737 0.931938
Si Si6 0.000000 0.903617 0.750000
O O1 0.677222 0.383127 0.160055
O O2 0.566269 0.221290 0.208362
O O3 0.656959 0.290439 0.350986
O O4 0.569532 0.500013 0.269491
O O5 0.881672 0.281352 0.984824
O O6 0.817256 0.014899 0.032799
O O7 0.750000 0.250000 0.000000
O O8 0.065884 0.531184 0.609395
O O9 0.986019 0.306695 0.543842
O O10 0.750000 0.250000 0.500000
O O11 0.624406 0.281153 0.553576
O O12 0.993270 0.797040 0.851018
#
# Coordination Sequence:
#
# PCOD8147797 Si02
#       6
#     8   8   8   8   8   4
#     4  10  24  42  68  96 132 177 215 273 340 391
#     4  10  22  45  66  96 133 177 220 274 335 397
#     4   9  22  42  66  98 131 175 213 277 334 383
#     4  12  25  43  67  97 134 175 227 275 330 398
#     4  11  22  42  66 101 133 170 227 277 325 399
#     4  12  22  40  70 102 130 176 224 272 338 396
#
# _framework density 20.232337000000001
#
# number of rings (size 3 to 8) (size 9 to 14) (size 15 to 20)
#    1.091    0.364    1.818    3.273    0.000    7.273 
#    3.273    0.000    0.000    0.000    0.000    0.000 
#    0.000    0.000    0.000    0.000    0.000    0.000 
#
# Total GULP energy -272671.472261 kJ/mol
# GULP energy per Si atom -12394.157830 kJ/mol
# Density = 2.018629 g / cm^3
# Si number density = 20.232337 Si / 1000 Ang^3
#
#
#
# Elastic Constant Matrix: (Units=GPa)
#
#
# Indices 1 2 3 4 5 6 
#
# 1 124.2339 66.8511 39.3014 0.0000 -10.7300 0.0000
# 2 66.8511 155.2266 50.9273 0.0000 6.8025 0.0000
# 3 39.3014 50.9273 116.6505 0.0000 6.7246 0.0000
# 4 0.0000 0.0000 0.0000 28.0209 0.0000 -5.7220
# 5 -10.7300 6.8025 6.7246 0.0000 33.8985 0.0000
# 6 0.0000 0.0000 0.0000 -5.7220 0.0000 45.7945
#
#
#
# Elastic Compliance Matrix: (Units=1/GPa)
#
#
# Indices 1 2 3 4 5 6 
#
# 1 0.011603 -0.004482 -0.002242 0.000000 0.005017 0.000000
# 2 -0.004482 0.009275 -0.002378 0.000000 -0.002808 0.000000
# 3 -0.002242 -0.002378 0.010500 0.000000 -0.002315 0.000000
# 4 0.000000 0.000000 0.000000 0.036622 0.000000 0.004576
# 5 0.005017 -0.002808 -0.002315 0.000000 0.032111 0.000000
# 6 0.000000 0.000000 0.000000 0.004576 0.000000 0.022408
#
#
# Mechanical properties :
#
#
# Convention : Reuss Voigt Hill
#
# Bulk Modulus (GPa) = 75.89632 78.91893 77.40763
# Shear Modulus (GPa) = 34.45567 37.47819 35.96693
#
# Velocity S-wave (km/s) = 4.13122 4.30861 4.22085
# Velocity P-wave (km/s) = 7.76851 7.99019 7.88013
#
# Compressibility (1/GPa) = 0.01317587
#
# Stress axis : x y z
#
# Youngs Moduli (GPa) = 86.18126 107.81240 95.24248
#
# Poissons Ratio (x) = 0.48316 0.21354
# Poissons Ratio (y) = 0.38622 0.22645
# Poissons Ratio (z) = 0.19322 0.25634
#
# Static dielectric constant tensor:
#      x y z
#    x 3.572640 0.000000 -0.095120 
#    y 0.000000 4.087770 0.000000 
#    z -0.095120 0.000000 3.398440 
# 
# 
# High freq. dielectric constant tensor:
#      x y z
#    x 1.790540 0.000000 -0.008210 
#    y 0.000000 1.799160 0.000000 
#    z -0.008210 0.000000 1.780380 
# 
# From -- ./inp_files/110102.got.cif
#   From: 2010.06.25/outbox.cif.g09.slc.cpg/sg15_56_cif.got.tgz:110102.got - 2010.06.28 07:06:18.
