data_PCOD8147994
_publ_section_title
;
Structure prediction by ZEFSAII (Michael W. Deem and Ramdas Pophale) SiO2 
 PCOD8147994
Probable space group: C 2/C
;
_chemical_formula_sum "Si O2"
_cell_formula_units_Z 56
_cell_length_a 8.461230
_cell_length_b 11.483064
_cell_length_c 28.654902
_cell_angle_alpha 90.000000
_cell_angle_beta 68.912688
_cell_angle_gamma 90.000000
_cell_volume 2597.690020
_symmetry_space_group_name_H-M "C 2/C"
_symmetry_group_IT_number 15
_symmetry_cell_setting 'monoclinic'
loop_
_space_group_symop_operation_xyz
x,y,z
-x,y,1/2-z
-x,-y,-z
x,-y,1/2+z
1/2+x,1/2+y,z
1/2-x,1/2+y,1/2-z
1/2-x,1/2-y,-z
1/2+x,1/2-y,1/2+z
loop_
_atom_site_type_symbol
_atom_site_label
_atom_site_fract_x
_atom_site_fract_y
_atom_site_fract_z
Si Si1 0.000000 0.713978 0.750000
Si Si2 0.185635 0.654572 0.313218
Si Si3 0.689082 0.885344 0.316128
Si Si4 0.396158 0.761548 0.082139
Si Si5 0.000000 0.754467 0.250000
Si Si6 0.026135 0.222971 0.586046
Si Si7 0.597433 0.881202 0.985675
Si Si8 0.473302 0.526298 0.448859
O O1 0.124725 0.795424 0.706694
O O2 0.097657 0.632577 0.776297
O O3 0.190309 0.521234 0.328810
O O4 0.111554 0.667851 0.269295
O O5 0.066163 0.730262 0.358759
O O6 0.595041 0.817985 0.367731
O O7 0.880613 0.838368 0.293396
O O8 0.227434 0.788243 0.071011
O O9 0.397653 0.621753 0.085108
O O10 0.562092 0.807574 0.036551
O O11 0.974666 0.305249 0.549028
O O12 0.974010 0.089555 0.583974
O O13 0.790668 0.917313 0.958105
O O14 0.500000 0.000000 0.000000
O O15 0.500000 0.500000 0.500000
#
# Coordination Sequence:
#
# PCOD8147994 Si02
#       8
#     4   8   8   8   4   8   8   8
#     4  10  26  44  70 104 132 178 230 282 346 414
#     4  11  24  44  72  99 138 177 228 285 346 408
#     4  11  24  45  70 101 136 176 227 284 347 404
#     4  12  25  45  69 102 138 185 233 282 345 409
#     4  10  22  48  66 100 132 178 228 280 352 408
#     4  12  26  45  68 103 139 185 230 283 345 408
#     4  12  24  44  71  97 142 181 229 283 342 411
#     4  12  27  46  69 100 143 186 230 286 338 417
#
# _framework density 21.557614999999998
#
# number of rings (size 3 to 8) (size 9 to 14) (size 15 to 20)
#    0.000    0.571    4.286    3.429    2.000    1.143 
#   10.286    0.000    0.000    0.000    0.000    0.000 
#    0.000    0.000    0.000    0.000    0.000    0.000 
#
# Total GULP energy -347263.988361 kJ/mol
# GULP energy per Si atom -12402.285299 kJ/mol
# Density = 2.150855 g / cm^3
# Si number density = 21.557615 Si / 1000 Ang^3
#
#
#
# Elastic Constant Matrix: (Units=GPa)
#
#
# Indices 1 2 3 4 5 6 
#
# 1 49.7197 8.4518 3.0584 0.0000 6.6235 0.0000
# 2 8.4518 164.7897 33.3905 0.0000 3.5331 0.0000
# 3 3.0584 33.3905 91.4021 0.0000 -1.0585 0.0000
# 4 0.0000 0.0000 0.0000 40.2318 0.0000 -4.5018
# 5 6.6235 3.5331 -1.0585 0.0000 30.2139 0.0000
# 6 0.0000 0.0000 0.0000 -4.5018 0.0000 31.5165
#
#
#
# Elastic Compliance Matrix: (Units=1/GPa)
#
#
# Indices 1 2 3 4 5 6 
#
# 1 0.020888 -0.000889 -0.000426 0.000000 -0.004490 0.000000
# 2 -0.000889 0.006613 -0.002394 0.000000 -0.000662 0.000000
# 3 -0.000426 -0.002394 0.011839 0.000000 0.000788 0.000000
# 4 0.000000 0.000000 0.000000 0.025260 0.000000 0.003608
# 5 -0.004490 -0.000662 0.000788 0.000000 0.034187 0.000000
# 6 0.000000 0.000000 0.000000 0.003608 0.000000 0.032245
#
#
# Mechanical properties :
#
#
# Convention : Reuss Voigt Hill
#
# Bulk Modulus (GPa) = 31.32600 43.96809 37.64704
# Shear Modulus (GPa) = 33.53691 37.79317 35.66504
#
# Velocity S-wave (km/s) = 3.94850 4.19157 4.07185
# Velocity P-wave (km/s) = 5.94562 6.62311 6.29349
#
# Compressibility (1/GPa) = 0.03192237
#
# Stress axis : x y z
#
# Youngs Moduli (GPa) = 47.87390 151.21348 84.46982
#
# Poissons Ratio (x) = 0.13438 0.03601
# Poissons Ratio (y) = 0.04254 0.20221
# Poissons Ratio (z) = 0.02041 0.36198
#
# Static dielectric constant tensor:
#      x y z
#    x 4.206140 0.000000 -0.077670 
#    y 0.000000 4.076940 0.000000 
#    z -0.077670 0.000000 3.912060 
# 
# 
# High freq. dielectric constant tensor:
#      x y z
#    x 1.853170 0.000000 0.000680 
#    y 0.000000 1.864600 0.000000 
#    z 0.000680 0.000000 1.848590 
# 
# From -- ./inp_files/288004.got.cif
#   From: 2010.06.25/outbox.cif.g09.slc.cpg/sg15_145_cif.got.tgz:288004.got - 2010.06.28 07:06:18.
