data_PCOD8147324
_publ_section_title
;
Structure prediction by ZEFSAII (Michael W. Deem and Ramdas Pophale) SiO2 
 PCOD8147324
Probable space group: C 2/C
;
_chemical_formula_sum "Si O2"
_cell_formula_units_Z 24
_cell_length_a 8.390908
_cell_length_b 13.962646
_cell_length_c 7.537042
_cell_angle_alpha 90.000000
_cell_angle_beta 97.349641
_cell_angle_gamma 90.000000
_cell_volume 875.779372
_symmetry_space_group_name_H-M "C 2/C"
_symmetry_group_IT_number 15
_symmetry_cell_setting 'monoclinic'
loop_
_space_group_symop_operation_xyz
x,y,z
-x,y,1/2-z
-x,-y,-z
x,-y,1/2+z
1/2+x,1/2+y,z
1/2-x,1/2+y,1/2-z
1/2-x,1/2-y,-z
1/2+x,1/2-y,1/2+z
loop_
_atom_site_type_symbol
_atom_site_label
_atom_site_fract_x
_atom_site_fract_y
_atom_site_fract_z
Si Si1 0.680910 0.977757 0.476036
Si Si2 0.688835 0.692934 0.316331
Si Si3 0.316792 0.636245 0.675512
O O1 0.751988 0.915662 0.651993
O O2 0.700112 0.919556 0.297759
O O3 0.500000 0.000000 0.500000
O O4 0.780455 0.080073 0.485707
O O5 0.500000 0.696521 0.250000
O O6 0.750000 0.750000 0.500000
O O7 0.771516 0.751060 0.164473
O O8 0.500000 0.622120 0.750000
#
# Coordination Sequence:
#
# PCOD8147324 Si02
#       3
#     8   8   8
#     4  11  23  43  67  95 133 182 230 280 336 404
#     4  10  22  43  67  97 135 177 225 278 335 406
#     4  11  23  40  64  98 135 177 224 278 337 402
#
# _framework density 27.404164000000002
#
# number of rings (size 3 to 8) (size 9 to 14) (size 15 to 20)
#    0.000    1.333    0.000    7.000    0.000    5.333 
#    0.000   10.000    0.000    0.000    0.000    0.000 
#    0.000    0.000    0.000    0.000    0.000    0.000 
#
# Total GULP energy -148710.991580 kJ/mol
# GULP energy per Si atom -12392.582632 kJ/mol
# Density = 2.734179 g / cm^3
# Si number density = 27.404164 Si / 1000 Ang^3
#
#
#
# Elastic Constant Matrix: (Units=GPa)
#
#
# Indices 1 2 3 4 5 6 
#
# 1 184.0920 8.6058 0.2814 0.0000 39.5508 0.0000
# 2 8.6058 138.4800 -9.2314 0.0000 21.1996 0.0000
# 3 0.2814 -9.2314 64.9922 0.0000 17.7936 0.0000
# 4 0.0000 0.0000 0.0000 24.8318 0.0000 10.4297
# 5 39.5508 21.1996 17.7936 0.0000 55.9082 0.0000
# 6 0.0000 0.0000 0.0000 10.4297 0.0000 52.5898
#
#
#
# Elastic Compliance Matrix: (Units=1/GPa)
#
#
# Indices 1 2 3 4 5 6 
#
# 1 0.006544 0.000504 0.001493 0.000000 -0.005295 0.000000
# 2 0.000504 0.007967 0.002250 0.000000 -0.004093 0.000000
# 3 0.001493 0.002250 0.017771 0.000000 -0.007565 0.000000
# 4 0.000000 0.000000 0.000000 0.043930 0.000000 -0.008712
# 5 -0.005295 -0.004093 -0.007565 0.000000 0.025592 0.000000
# 6 0.000000 0.000000 0.000000 -0.008712 0.000000 0.020743
#
#
# Mechanical properties :
#
#
# Convention : Reuss Voigt Hill
#
# Bulk Modulus (GPa) = 24.52536 42.98623 33.75579
# Shear Modulus (GPa) = 39.17111 52.52651 45.84881
#
# Velocity S-wave (km/s) = 3.78482 4.38280 4.09474
# Velocity P-wave (km/s) = 5.29800 6.42900 5.89070
#
# Compressibility (1/GPa) = 0.04077413
#
# Stress axis : x y z
#
# Youngs Moduli (GPa) = 152.81353 125.52474 56.27226
#
# Poissons Ratio (x) = -0.06320 -0.08401
# Poissons Ratio (y) = -0.07694 -0.12661
# Poissons Ratio (z) = -0.22814 -0.28243
#
# Static dielectric constant tensor:
#      x y z
#    x 4.572290 0.000000 0.022470 
#    y 0.000000 6.643730 0.000000 
#    z 0.022470 0.000000 5.726780 
# 
# 
# High freq. dielectric constant tensor:
#      x y z
#    x 2.092040 0.000000 0.015660 
#    y 0.000000 2.144390 0.000000 
#    z 0.015660 0.000000 2.131450 
# 
# From -- ./inp_files/21000.got.cif
#   From: 2010.06.25/outbox.cif.g09.slc.cpg/sg15_11_cif.got.tgz:21000.got - 2010.06.28 07:06:18.
