data_PCOD8147720
_publ_section_title
;
Structure prediction by ZEFSAII (Michael W. Deem and Ramdas Pophale) SiO2 
 PCOD8147720
Probable space group: C 2/C
;
_chemical_formula_sum "Si O2"
_cell_formula_units_Z 56
_cell_length_a 13.584949
_cell_length_b 18.167667
_cell_length_c 10.452105
_cell_angle_alpha 90.000000
_cell_angle_beta 79.574021
_cell_angle_gamma 90.000000
_cell_volume 2537.059621
_symmetry_space_group_name_H-M "C 2/C"
_symmetry_group_IT_number 15
_symmetry_cell_setting 'monoclinic'
loop_
_space_group_symop_operation_xyz
x,y,z
-x,y,1/2-z
-x,-y,-z
x,-y,1/2+z
1/2+x,1/2+y,z
1/2-x,1/2+y,1/2-z
1/2-x,1/2-y,-z
1/2+x,1/2-y,1/2+z
loop_
_atom_site_type_symbol
_atom_site_label
_atom_site_fract_x
_atom_site_fract_y
_atom_site_fract_z
Si Si1 0.222990 0.168216 0.967948
Si Si2 0.547347 0.913559 0.607906
Si Si3 0.387229 0.296513 0.250909
Si Si4 0.391935 0.409618 0.476338
Si Si5 0.571085 0.429872 0.609141
Si Si6 0.425927 0.081975 0.881856
Si Si7 0.774551 0.318018 0.905602
O O1 0.138758 0.166890 0.877332
O O2 0.321102 0.124814 0.896353
O O3 0.250000 0.250000 0.000000
O O4 0.163934 0.127450 0.098894
O O5 0.500000 0.883435 0.750000
O O6 0.468886 0.904321 0.512589
O O7 0.639589 0.863883 0.543559
O O8 0.589936 0.994917 0.625928
O O9 0.500000 0.269550 0.250000
O O10 0.368511 0.358990 0.360685
O O11 0.317115 0.222926 0.269741
O O12 0.502891 0.404255 0.506026
O O13 0.374007 0.493215 0.436262
O O14 0.315398 0.376128 0.601621
O O15 0.500000 0.435539 0.750000
O O16 0.500000 0.109334 0.750000
O O17 0.750000 0.250000 0.000000
#
# Coordination Sequence:
#
# PCOD8147720 Si02
#       7
#     8   8   8   8   8   8   8
#     4  12  29  45  67 105 144 185 231 294 355 428
#     4  10  22  44  71  98 131 177 235 287 343 419
#     4  11  23  45  69  99 140 183 232 285 356 427
#     4  10  23  44  69 101 128 182 238 287 352 419
#     4  11  25  44  71 100 141 181 235 299 353 419
#     4  10  25  46  70 100 136 181 229 297 357 406
#     4  10  23  37  68  98 129 175 228 281 339 422
#
# _framework density 22.072797000000001
#
# number of rings (size 3 to 8) (size 9 to 14) (size 15 to 20)
#    0.000    1.429    1.429    1.714   12.000    0.571 
#    2.571    0.000    0.000    0.000    0.000    0.000 
#    0.000    0.000    0.000    0.000    0.000    0.000 
#
# Total GULP energy -346883.561682 kJ/mol
# GULP energy per Si atom -12388.698632 kJ/mol
# Density = 2.202256 g / cm^3
# Si number density = 22.072797 Si / 1000 Ang^3
#
#
#
# Elastic Constant Matrix: (Units=GPa)
#
#
# Indices 1 2 3 4 5 6 
#
# 1 98.2118 81.3854 54.0435 0.0000 -25.2284 0.0000
# 2 81.3854 147.8468 49.2739 0.0000 -27.1012 0.0000
# 3 54.0435 49.2739 102.7322 0.0000 -12.0968 0.0000
# 4 0.0000 0.0000 0.0000 27.3146 0.0000 -13.4398
# 5 -25.2284 -27.1012 -12.0968 0.0000 40.8129 0.0000
# 6 0.0000 0.0000 0.0000 -13.4398 0.0000 45.6918
#
#
#
# Elastic Compliance Matrix: (Units=1/GPa)
#
#
# Indices 1 2 3 4 5 6 
#
# 1 0.023492 -0.009435 -0.007109 0.000000 0.006149 0.000000
# 2 -0.009435 0.012663 -0.000836 0.000000 0.002329 0.000000
# 3 -0.007109 -0.000836 0.013772 0.000000 -0.000867 0.000000
# 4 0.000000 0.000000 0.000000 0.042806 0.000000 0.012591
# 5 0.006149 0.002329 -0.000867 0.000000 0.029592 0.000000
# 6 0.000000 0.000000 0.000000 0.012591 0.000000 0.025589
#
#
# Mechanical properties :
#
#
# Convention : Reuss Voigt Hill
#
# Bulk Modulus (GPa) = 65.92928 79.79962 72.86445
# Shear Modulus (GPa) = 26.63380 33.70307 30.16843
#
# Velocity S-wave (km/s) = 3.47743 3.91180 3.70100
# Velocity P-wave (km/s) = 6.78655 7.52558 7.16560
#
# Compressibility (1/GPa) = 0.01516777
#
# Stress axis : x y z
#
# Youngs Moduli (GPa) = 42.56697 78.96954 72.60849
#
# Poissons Ratio (x) = 0.74512 0.51616
# Poissons Ratio (y) = 0.40164 0.06069
# Poissons Ratio (z) = 0.30260 0.06601
#
# Static dielectric constant tensor:
#      x y z
#    x 4.104890 0.000000 -0.425570 
#    y 0.000000 4.289930 0.000000 
#    z -0.425570 0.000000 3.970010 
# 
# 
# High freq. dielectric constant tensor:
#      x y z
#    x 1.868960 0.000000 -0.015190 
#    y 0.000000 1.884980 0.000000 
#    z -0.015190 0.000000 1.862780 
# 
# From -- ./inp_files/98236.got.cif
#   From: 2010.06.25/outbox.cif.g09.slc.cpg/sg15_50_cif.got.tgz:98236.got - 2010.06.28 07:06:18.
