data_PCOD8147594
_publ_section_title
;
Structure prediction by ZEFSAII (Michael W. Deem and Ramdas Pophale) SiO2 
 PCOD8147594
Probable space group: C 2/C
;
_chemical_formula_sum "Si O2"
_cell_formula_units_Z 48
_cell_length_a 17.138985
_cell_length_b 11.469910
_cell_length_c 12.070921
_cell_angle_alpha 90.000000
_cell_angle_beta 70.108543
_cell_angle_gamma 90.000000
_cell_volume 2231.361340
_symmetry_space_group_name_H-M "C 2/C"
_symmetry_group_IT_number 15
_symmetry_cell_setting 'monoclinic'
loop_
_space_group_symop_operation_xyz
x,y,z
-x,y,1/2-z
-x,-y,-z
x,-y,1/2+z
1/2+x,1/2+y,z
1/2-x,1/2+y,1/2-z
1/2-x,1/2-y,-z
1/2+x,1/2-y,1/2+z
loop_
_atom_site_type_symbol
_atom_site_label
_atom_site_fract_x
_atom_site_fract_y
_atom_site_fract_z
Si Si1 0.094354 0.831394 0.680146
Si Si2 0.161541 0.560148 0.024252
Si Si3 0.893906 0.761270 0.590419
Si Si4 0.081043 0.675551 0.492492
Si Si5 0.904943 0.280211 0.765627
Si Si6 0.848935 0.927467 0.426439
O O1 0.141293 0.796288 0.771297
O O2 0.128240 0.754834 0.560983
O O3 0.000000 0.799435 0.750000
O O4 0.098746 0.966375 0.647550
O O5 0.103115 0.458015 0.006655
O O6 0.122170 0.601006 0.159673
O O7 0.166549 0.666503 0.934463
O O8 0.256813 0.523594 0.996131
O O9 0.892736 0.879236 0.517022
O O10 0.983620 0.700554 0.547045
O O11 0.112738 0.706641 0.355287
O O12 0.848220 0.174012 0.834881
O O13 0.000000 0.252655 0.750000
#
# Coordination Sequence:
#
# PCOD8147594 Si02
#       6
#     8   8   8   8   8   8
#     4  10  25  41  69  97 131 170 225 270 326 395
#     4  11  25  41  66  96 135 173 222 276 341 389
#     4  10  22  44  67  94 132 171 220 275 329 397
#     4  11  24  42  67  99 126 172 226 281 323 395
#     4  11  22  41  70  92 126 176 228 270 334 402
#     4  11  24  43  64  96 133 179 218 274 337 402
#
# _framework density 21.511531999999999
#
# number of rings (size 3 to 8) (size 9 to 14) (size 15 to 20)
#    0.000    1.333    3.333    3.000    4.667    5.333 
#    0.000    0.000    0.000    0.000    0.000    0.000 
#    0.000    0.000    0.000    0.000    0.000    0.000 
#
# Total GULP energy -297577.435070 kJ/mol
# GULP energy per Si atom -12399.059795 kJ/mol
# Density = 2.146257 g / cm^3
# Si number density = 21.511532 Si / 1000 Ang^3
#
#
#
# Elastic Constant Matrix: (Units=GPa)
#
#
# Indices 1 2 3 4 5 6 
#
# 1 64.9566 19.7028 40.6456 0.0000 -3.6103 0.0000
# 2 19.7028 108.9645 69.0862 0.0000 23.2594 0.0000
# 3 40.6456 69.0862 183.7084 0.0000 44.6396 0.0000
# 4 0.0000 0.0000 0.0000 30.9831 0.0000 4.5209
# 5 -3.6103 23.2594 44.6396 0.0000 35.5542 0.0000
# 6 0.0000 0.0000 0.0000 4.5209 0.0000 19.3414
#
#
#
# Elastic Compliance Matrix: (Units=1/GPa)
#
#
# Indices 1 2 3 4 5 6 
#
# 1 0.020910 -0.002045 -0.006761 0.000000 0.011950 0.000000
# 2 -0.002045 0.012502 -0.003182 0.000000 -0.004391 0.000000
# 3 -0.006761 -0.003182 0.011220 0.000000 -0.012692 0.000000
# 4 0.000000 0.000000 0.000000 0.033415 0.000000 -0.007811
# 5 0.011950 -0.004391 -0.012692 0.000000 0.048147 0.000000
# 6 0.000000 0.000000 0.000000 -0.007811 0.000000 0.053528
#
#
# Mechanical properties :
#
#
# Convention : Reuss Voigt Hill
#
# Bulk Modulus (GPa) = 48.41277 68.49985 58.45631
# Shear Modulus (GPa) = 23.74349 32.38874 28.06611
#
# Velocity S-wave (km/s) = 3.32589 3.88447 3.61598
# Velocity P-wave (km/s) = 6.10762 7.21327 6.68335
#
# Compressibility (1/GPa) = 0.02065571
#
# Stress axis : x y z
#
# Youngs Moduli (GPa) = 47.82414 79.98782 89.12693
#
# Poissons Ratio (x) = 0.16358 0.60258
# Poissons Ratio (y) = 0.09780 0.28360
# Poissons Ratio (z) = 0.32334 0.25452
#
# Static dielectric constant tensor:
#      x y z
#    x 3.721400 0.000000 0.328430 
#    y 0.000000 3.799150 0.000000 
#    z 0.328430 0.000000 4.340400 
# 
# 
# High freq. dielectric constant tensor:
#      x y z
#    x 1.831990 0.000000 0.009200 
#    y 0.000000 1.843150 0.000000 
#    z 0.009200 0.000000 1.855370 
# 
# From -- ./inp_files/104198.got.cif
#   From: 2010.06.25/outbox.cif.g09.slc.cpg/sg15_53_cif.got.tgz:104198.got - 2010.06.28 07:06:18.
