data_PCOD8147410
_publ_section_title
;
Structure prediction by ZEFSAII (Michael W. Deem and Ramdas Pophale) SiO2 
 PCOD8147410
Probable space group: C 2/C
;
_chemical_formula_sum "Si O2"
_cell_formula_units_Z 44
_cell_length_a 7.930772
_cell_length_b 17.377734
_cell_length_c 14.973471
_cell_angle_alpha 90.000000
_cell_angle_beta 76.144160
_cell_angle_gamma 90.000000
_cell_volume 2003.577744
_symmetry_space_group_name_H-M "C 2/C"
_symmetry_group_IT_number 15
_symmetry_cell_setting 'monoclinic'
loop_
_space_group_symop_operation_xyz
x,y,z
-x,y,1/2-z
-x,-y,-z
x,-y,1/2+z
1/2+x,1/2+y,z
1/2-x,1/2+y,1/2-z
1/2-x,1/2-y,-z
1/2+x,1/2-y,1/2+z
loop_
_atom_site_type_symbol
_atom_site_label
_atom_site_fract_x
_atom_site_fract_y
_atom_site_fract_z
Si Si1 0.865066 0.284748 0.188970
Si Si2 0.068830 0.410443 0.078082
Si Si3 0.768350 0.884000 0.683437
Si Si4 0.500000 0.636300 0.750000
Si Si5 0.421430 0.468088 0.102666
Si Si6 0.444028 0.072562 0.122696
O O1 0.868239 0.196019 0.158957
O O2 0.669439 0.309870 0.238781
O O3 0.000000 0.300294 0.250000
O O4 0.952640 0.334194 0.099713
O O5 0.249386 0.416671 0.108327
O O6 0.949364 0.480005 0.130588
O O7 0.120023 0.411494 0.968170
O O8 0.682920 0.887010 0.791774
O O9 0.634951 0.893327 0.617929
O O10 0.898312 0.955098 0.663524
O O11 0.466008 0.586137 0.845171
O O12 0.500000 0.500000 0.000000
#
# Coordination Sequence:
#
# PCOD8147410 Si02
#       6
#     8   8   8   4   8   8
#     4  12  26  46  66 104 139 182 223 287 351 408
#     4  10  22  43  71 101 137 176 237 285 342 410
#     4  10  23  43  67  99 139 177 228 278 353 407
#     4  12  26  46  74  96 144 180 232 286 340 418
#     4  11  26  44  69 106 134 184 236 284 339 416
#     4   9  20  41  73  97 127 185 230 282 338 418
#
# _framework density 21.960716999999999
#
# number of rings (size 3 to 8) (size 9 to 14) (size 15 to 20)
#    0.000    1.455    1.818    2.182   14.000    0.727 
#    3.273    1.818    0.000    0.000    0.000    0.000 
#    0.000    0.000    0.000    0.000    0.000    0.000 
#
# Total GULP energy -272627.474046 kJ/mol
# GULP energy per Si atom -12392.157911 kJ/mol
# Density = 2.191073 g / cm^3
# Si number density = 21.960717 Si / 1000 Ang^3
#
#
#
# Elastic Constant Matrix: (Units=GPa)
#
#
# Indices 1 2 3 4 5 6 
#
# 1 95.4253 50.0997 22.5898 0.0000 3.9513 0.0000
# 2 50.0997 115.1286 26.5577 0.0000 -2.7505 0.0000
# 3 22.5898 26.5577 56.6190 0.0000 15.7284 0.0000
# 4 0.0000 0.0000 0.0000 17.5374 0.0000 -3.1057
# 5 3.9513 -2.7505 15.7284 0.0000 31.1338 0.0000
# 6 0.0000 0.0000 0.0000 -3.1057 0.0000 36.3707
#
#
#
# Elastic Compliance Matrix: (Units=1/GPa)
#
#
# Indices 1 2 3 4 5 6 
#
# 1 0.014061 -0.005495 -0.002794 0.000000 -0.000858 0.000000
# 2 -0.005495 0.012265 -0.004717 0.000000 0.004164 0.000000
# 3 -0.002794 -0.004717 0.024436 0.000000 -0.012407 0.000000
# 4 0.000000 0.000000 0.000000 0.057897 0.000000 0.004944
# 5 -0.000858 0.004164 -0.012407 0.000000 0.038864 0.000000
# 6 0.000000 0.000000 0.000000 0.004944 0.000000 0.027917
#
#
# Mechanical properties :
#
#
# Convention : Reuss Voigt Hill
#
# Bulk Modulus (GPa) = 40.40545 51.74083 46.07314
# Shear Modulus (GPa) = 23.84334 28.20343 26.02338
#
# Velocity S-wave (km/s) = 3.29861 3.58756 3.44611
# Velocity P-wave (km/s) = 5.73992 6.38534 6.07121
#
# Compressibility (1/GPa) = 0.02474914
#
# Stress axis : x y z
#
# Youngs Moduli (GPa) = 71.11699 81.53434 40.92326
#
# Poissons Ratio (x) = 0.44802 0.11435
# Poissons Ratio (y) = 0.39078 0.19305
# Poissons Ratio (z) = 0.19872 0.38462
#
# Static dielectric constant tensor:
#      x y z
#    x 4.037140 0.000000 0.080470 
#    y 0.000000 3.969800 0.000000 
#    z 0.080470 0.000000 3.869860 
# 
# 
# High freq. dielectric constant tensor:
#      x y z
#    x 1.867460 0.000000 0.013740 
#    y 0.000000 1.861550 0.000000 
#    z 0.013740 0.000000 1.858770 
# 
# From -- ./inp_files/134317.got.cif
#   From: 2010.06.25/outbox.cif.g09.slc.cpg/sg15_68_cif.got.tgz:134317.got - 2010.06.28 07:06:18.
