data_PCOD8147677
_publ_section_title
;
Structure prediction by ZEFSAII (Michael W. Deem and Ramdas Pophale) SiO2 
 PCOD8147677
Probable space group: C 2/C
;
_chemical_formula_sum "Si O2"
_cell_formula_units_Z 36
_cell_length_a 7.752375
_cell_length_b 12.796356
_cell_length_c 19.254498
_cell_angle_alpha 90.000000
_cell_angle_beta 60.680060
_cell_angle_gamma 90.000000
_cell_volume 1665.403292
_symmetry_space_group_name_H-M "C 2/C"
_symmetry_group_IT_number 15
_symmetry_cell_setting 'monoclinic'
loop_
_space_group_symop_operation_xyz
x,y,z
-x,y,1/2-z
-x,-y,-z
x,-y,1/2+z
1/2+x,1/2+y,z
1/2-x,1/2+y,1/2-z
1/2-x,1/2-y,-z
1/2+x,1/2-y,1/2+z
loop_
_atom_site_type_symbol
_atom_site_label
_atom_site_fract_x
_atom_site_fract_y
_atom_site_fract_z
Si Si1 0.500000 0.709748 0.750000
Si Si2 0.686917 0.001931 0.414306
Si Si3 0.103590 0.389067 0.299470
Si Si4 0.598534 0.704680 0.586260
Si Si5 0.287675 0.734638 0.412314
O O1 0.666918 0.640156 0.755767
O O2 0.594660 0.767810 0.662687
O O3 0.595598 0.982973 0.356083
O O4 0.841838 0.913705 0.406942
O O5 0.500000 0.000000 0.500000
O O6 0.797458 0.112378 0.392409
O O7 0.000000 0.429815 0.250000
O O8 0.994436 0.285373 0.349707
O O9 0.750000 0.750000 0.500000
O O10 0.383538 0.705817 0.595267
O O11 0.250000 0.750000 0.500000
#
# Coordination Sequence:
#
# PCOD8147677 Si02
#       5
#     4   8   8   8   8
#     4  10  22  44  70 100 140 176 238 290 336 428
#     4  11  23  44  68 101 139 178 240 285 342 431
#     4  11  23  46  70  98 145 181 228 298 349 410
#     4  11  22  42  72  97 140 185 224 291 350 403
#     4  12  23  44  72 101 138 186 234 287 352 419
#
# _framework density 21.616387
#
# number of rings (size 3 to 8) (size 9 to 14) (size 15 to 20)
#    0.000    0.889    6.667    1.333    0.000    0.889 
#   10.000    0.000    0.000    0.000    0.000    0.000 
#    0.000    0.000    0.000    0.000    0.000    0.000 
#
# Total GULP energy -223030.361963 kJ/mol
# GULP energy per Si atom -12390.575665 kJ/mol
# Density = 2.156719 g / cm^3
# Si number density = 21.616387 Si / 1000 Ang^3
#
#
#
# Elastic Constant Matrix: (Units=GPa)
#
#
# Indices 1 2 3 4 5 6 
#
# 1 148.2259 47.9196 48.5240 0.0001 21.2530 -0.0001
# 2 47.9196 136.2389 39.7983 0.0000 13.5929 0.0000
# 3 48.5240 39.7983 169.9127 0.0000 33.2994 0.0000
# 4 0.0001 0.0000 0.0000 30.3734 0.0000 2.0350
# 5 21.2530 13.5929 33.2994 0.0000 54.2317 0.0000
# 6 -0.0001 0.0000 0.0000 2.0350 0.0000 41.5183
#
#
#
# Elastic Compliance Matrix: (Units=1/GPa)
#
#
# Indices 1 2 3 4 5 6 
#
# 1 0.008217 -0.002287 -0.001469 0.000000 -0.001745 0.000000
# 2 -0.002287 0.008560 -0.001258 0.000000 -0.000477 0.000000
# 3 -0.001469 -0.001258 0.007304 0.000000 -0.003594 0.000000
# 4 0.000000 0.000000 0.000000 0.033032 0.000000 -0.001619
# 5 -0.001745 -0.000477 -0.003594 0.000000 0.021449 0.000000
# 6 0.000000 0.000000 0.000000 -0.001619 0.000000 0.024165
#
#
# Mechanical properties :
#
#
# Convention : Reuss Voigt Hill
#
# Bulk Modulus (GPa) = 71.16521 80.76237 75.96379
# Shear Modulus (GPa) = 42.57517 46.43371 44.50444
#
# Velocity S-wave (km/s) = 4.44281 4.63977 4.54235
# Velocity P-wave (km/s) = 7.70139 8.13302 7.92014
#
# Compressibility (1/GPa) = 0.01405181
#
# Stress axis : x y z
#
# Youngs Moduli (GPa) = 121.70081 116.82815 136.91278
#
# Poissons Ratio (x) = 0.26718 0.20112
# Poissons Ratio (y) = 0.27832 0.17229
# Poissons Ratio (z) = 0.17877 0.14702
#
# Static dielectric constant tensor:
#      x y z
#    x 4.193150 0.000000 0.142500 
#    y 0.000000 3.708740 0.000000 
#    z 0.142500 0.000000 4.561750 
# 
# 
# High freq. dielectric constant tensor:
#      x y z
#    x 1.868060 0.000000 0.005790 
#    y 0.000000 1.807280 0.000000 
#    z 0.005790 0.000000 1.884890 
# 
# From -- ./inp_files/187656.got.cif
#   From: 2010.06.25/outbox.cif.g09.slc.cpg/sg15_94_cif.got.tgz:187656.got - 2010.06.28 07:06:18.
