data_PCOD8147316
_publ_section_title
;
Structure prediction by ZEFSAII (Michael W. Deem and Ramdas Pophale) SiO2 
 PCOD8147316
Probable space group: C 2/C
;
_chemical_formula_sum "Si O2"
_cell_formula_units_Z 52
_cell_length_a 14.009662
_cell_length_b 15.603699
_cell_length_c 15.762859
_cell_angle_alpha 90.000000
_cell_angle_beta 133.892472
_cell_angle_gamma 90.000000
_cell_volume 2483.189762
_symmetry_space_group_name_H-M "C 2/C"
_symmetry_group_IT_number 15
_symmetry_cell_setting 'monoclinic'
loop_
_space_group_symop_operation_xyz
x,y,z
-x,y,1/2-z
-x,-y,-z
x,-y,1/2+z
1/2+x,1/2+y,z
1/2-x,1/2+y,1/2-z
1/2-x,1/2-y,-z
1/2+x,1/2-y,1/2+z
loop_
_atom_site_type_symbol
_atom_site_label
_atom_site_fract_x
_atom_site_fract_y
_atom_site_fract_z
Si Si1 0.748970 0.861608 0.800286
Si Si2 0.295768 0.000395 0.006976
Si Si3 0.221861 0.955366 0.275783
Si Si4 0.143194 0.299308 0.225692
Si Si5 0.055749 0.940238 0.463152
Si Si6 0.500000 0.096373 0.250000
Si Si7 0.639153 0.183701 0.919692
O O1 0.767752 0.782644 0.746293
O O2 0.608064 0.848690 0.762420
O O3 0.755089 0.952253 0.754249
O O4 0.867690 0.859984 0.944564
O O5 0.420849 0.040359 0.132722
O O6 0.327891 0.902219 0.009390
O O7 0.265000 0.045103 0.899539
O O8 0.162458 0.004782 0.978621
O O9 0.318703 0.885355 0.297879
O O10 0.070837 0.918502 0.174152
O O11 0.139679 0.330619 0.319981
O O12 0.990314 0.275629 0.115274
O O13 0.000000 0.000000 0.500000
O O14 0.750000 0.250000 0.000000
#
# Coordination Sequence:
#
# PCOD8147316 Si02
#       7
#     8   8   8   8   8   4   8
#     4  10  22  43  67  94 133 178 218 274 333 390
#     4  11  22  41  66  95 127 174 222 273 337 393
#     4  11  23  40  67  98 131 174 225 273 328 405
#     4  11  25  42  63 102 132 172 223 268 336 394
#     4   9  20  39  65  89 129 173 213 270 324 387
#     4  10  22  44  66  86 128 176 222 274 324 388
#     4  11  24  39  64  96 136 170 213 277 333 399
#
# _framework density 20.940808000000001
#
# number of rings (size 3 to 8) (size 9 to 14) (size 15 to 20)
#    0.000    1.538    0.000    6.000    6.462    3.692 
#    2.769    1.538    0.000    0.000    0.000    0.000 
#    0.000    0.000    0.000    0.000    0.000    0.000 
#
# Total GULP energy -322133.589060 kJ/mol
# GULP energy per Si atom -12389.753425 kJ/mol
# Density = 2.089315 g / cm^3
# Si number density = 20.940808 Si / 1000 Ang^3
#
#
#
# Elastic Constant Matrix: (Units=GPa)
#
#
# Indices 1 2 3 4 5 6 
#
# 1 144.4657 50.8914 58.6550 0.0000 17.7504 0.0000
# 2 50.8914 99.5527 29.8022 0.0000 -3.0761 0.0000
# 3 58.6550 29.8022 143.8769 0.0000 10.2075 0.0000
# 4 0.0000 0.0000 0.0000 23.2405 0.0000 -2.2219
# 5 17.7504 -3.0761 10.2075 0.0000 26.7961 0.0000
# 6 0.0000 0.0000 0.0000 -2.2219 0.0000 37.1278
#
#
#
# Elastic Compliance Matrix: (Units=1/GPa)
#
#
# Indices 1 2 3 4 5 6 
#
# 1 0.010541 -0.004731 -0.002861 0.000000 -0.006436 0.000000
# 2 -0.004731 0.012952 -0.001112 0.000000 0.005044 0.000000
# 3 -0.002861 -0.001112 0.008450 0.000000 -0.001452 0.000000
# 4 0.000000 0.000000 0.000000 0.043276 0.000000 0.002590
# 5 -0.006436 0.005044 -0.001452 0.000000 0.042714 0.000000
# 6 0.000000 0.000000 0.000000 0.002590 0.000000 0.027089
#
#
# Mechanical properties :
#
#
# Convention : Reuss Voigt Hill
#
# Bulk Modulus (GPa) = 68.79682 74.06584 71.43133
# Shear Modulus (GPa) = 29.89092 34.00265 31.94679
#
# Velocity S-wave (km/s) = 3.78219 4.03395 3.91010
# Velocity P-wave (km/s) = 7.21094 7.55929 7.38717
#
# Compressibility (1/GPa) = 0.01453556
#
# Stress axis : x y z
#
# Youngs Moduli (GPa) = 94.86831 77.20695 118.34396
#
# Poissons Ratio (x) = 0.36527 0.33855
# Poissons Ratio (y) = 0.44882 0.13160
# Poissons Ratio (z) = 0.27139 0.08586
#
# Static dielectric constant tensor:
#      x y z
#    x 3.899110 0.000000 -0.198990 
#    y 0.000000 3.366790 0.000000 
#    z -0.198990 0.000000 5.413250 
# 
# 
# High freq. dielectric constant tensor:
#      x y z
#    x 1.839900 0.000000 0.009810 
#    y 0.000000 1.793260 0.000000 
#    z 0.009810 0.000000 1.833280 
# 
# From -- ./inp_files/205795.got.cif
#   From: 2010.06.25/outbox.cif.g09.slc.cpg/sg15_103_cif.got.tgz:205795.got - 2010.06.28 07:06:18.
