data_PCOD8147124
_publ_section_title
;
Structure prediction by ZEFSAII (Michael W. Deem and Ramdas Pophale) SiO2 
 PCOD8147124
Probable space group: C 2/C
;
_chemical_formula_sum "Si O2"
_cell_formula_units_Z 48
_cell_length_a 8.073467
_cell_length_b 28.354529
_cell_length_c 10.648935
_cell_angle_alpha 90.000000
_cell_angle_beta 119.154796
_cell_angle_gamma 90.000000
_cell_volume 2128.901086
_symmetry_space_group_name_H-M "C 2/C"
_symmetry_group_IT_number 15
_symmetry_cell_setting 'monoclinic'
loop_
_space_group_symop_operation_xyz
x,y,z
-x,y,1/2-z
-x,-y,-z
x,-y,1/2+z
1/2+x,1/2+y,z
1/2-x,1/2+y,1/2-z
1/2-x,1/2-y,-z
1/2+x,1/2-y,1/2+z
loop_
_atom_site_type_symbol
_atom_site_label
_atom_site_fract_x
_atom_site_fract_y
_atom_site_fract_z
Si Si1 0.568268 0.075726 0.024722
Si Si2 0.333601 0.007187 0.090432
Si Si3 0.682930 0.157565 0.645083
Si Si4 0.617975 0.427276 0.675510
Si Si5 0.471137 0.744616 0.097989
Si Si6 0.984613 0.845233 0.040997
O O1 0.390863 0.043223 0.000357
O O2 0.682014 0.091780 0.191996
O O3 0.488551 0.120068 0.917982
O O4 0.707988 0.044240 0.986181
O O5 0.500000 0.999434 0.250000
O O6 0.150940 0.028494 0.094324
O O7 0.587931 0.208557 0.609347
O O8 0.811657 0.152231 0.816088
O O9 0.809820 0.147819 0.570053
O O10 0.500000 0.445920 0.750000
O O11 0.514494 0.384908 0.565740
O O12 0.500000 0.727567 0.250000
O O13 0.250000 0.750000 0.000000
O O14 0.548960 0.705318 0.033105
#
# Coordination Sequence:
#
# PCOD8147124 Si02
#       6
#     8   8   8   8   8   8
#     4  10  22  42  71  97 134 187 232 289 345 417
#     4   9  20  43  66  98 137 182 234 286 352 417
#     4  11  25  45  73 101 138 190 236 284 353 423
#     4  11  24  41  69 103 140 180 236 294 354 417
#     4  12  26  47  69 104 145 181 232 287 353 428
#     4  11  25  46  68 105 142 183 236 291 351 418
#
# _framework density 22.546844
#
# number of rings (size 3 to 8) (size 9 to 14) (size 15 to 20)
#    0.000    1.333    3.333    1.000    4.667    2.667 
#    0.000    3.333    0.000    0.000    0.000    0.000 
#    0.000    0.000    0.000    0.000    0.000    0.000 
#
# Total GULP energy -297637.818519 kJ/mol
# GULP energy per Si atom -12401.575772 kJ/mol
# Density = 2.249553 g / cm^3
# Si number density = 22.546844 Si / 1000 Ang^3
#
#
#
# Elastic Constant Matrix: (Units=GPa)
#
#
# Indices 1 2 3 4 5 6 
#
# 1 91.9301 45.4429 31.2893 0.0000 -13.6622 0.0000
# 2 45.4429 146.3034 75.4232 0.0000 -5.6067 0.0000
# 3 31.2893 75.4232 135.2470 0.0000 4.7554 0.0000
# 4 0.0000 0.0000 0.0000 43.2416 0.0000 -2.0248
# 5 -13.6622 -5.6067 4.7554 0.0000 38.4842 0.0000
# 6 0.0000 0.0000 0.0000 -2.0248 0.0000 40.6853
#
#
#
# Elastic Compliance Matrix: (Units=1/GPa)
#
#
# Indices 1 2 3 4 5 6 
#
# 1 0.013699 -0.003317 -0.001480 0.000000 0.004563 0.000000
# 2 -0.003317 0.010563 -0.005158 0.000000 0.000999 0.000000
# 3 -0.001480 -0.005158 0.010704 0.000000 -0.002600 0.000000
# 4 0.000000 0.000000 0.000000 0.023180 0.000000 0.001154
# 5 0.004563 0.000999 -0.002600 0.000000 0.028071 0.000000
# 6 0.000000 0.000000 0.000000 0.001154 0.000000 0.024636
#
#
# Mechanical properties :
#
#
# Convention : Reuss Voigt Hill
#
# Bulk Modulus (GPa) = 66.41982 75.31014 70.86498
# Shear Modulus (GPa) = 36.82321 39.23722 38.03021
#
# Velocity S-wave (km/s) = 4.04565 4.17616 4.11143
# Velocity P-wave (km/s) = 7.16559 7.53179 7.35097
#
# Compressibility (1/GPa) = 0.01505575
#
# Stress axis : x y z
#
# Youngs Moduli (GPa) = 72.99545 94.66969 93.42067
#
# Poissons Ratio (x) = 0.31406 0.13824
# Poissons Ratio (y) = 0.24216 0.48189
# Poissons Ratio (z) = 0.10802 0.48834
#
# Static dielectric constant tensor:
#      x y z
#    x 4.059030 0.000000 -0.048120 
#    y 0.000000 4.081820 0.000000 
#    z -0.048120 0.000000 4.349320 
# 
# 
# High freq. dielectric constant tensor:
#      x y z
#    x 1.892650 0.000000 -0.003320 
#    y 0.000000 1.884560 0.000000 
#    z -0.003320 0.000000 1.904450 
# 
# From -- ./inp_files/80910.got.cif
#   From: 2010.06.25/outbox.cif.g09.slc.cpg/sg15_41_cif.got.tgz:80910.got - 2010.06.28 07:06:18.
