data_PCOD8147697
_publ_section_title
;
Structure prediction by ZEFSAII (Michael W. Deem and Ramdas Pophale) SiO2 
 PCOD8147697
Probable space group: C 2/C
;
_chemical_formula_sum "Si O2"
_cell_formula_units_Z 64
_cell_length_a 11.220656
_cell_length_b 14.425411
_cell_length_c 27.960359
_cell_angle_alpha 90.000000
_cell_angle_beta 42.329479
_cell_angle_gamma 90.000000
_cell_volume 3047.598593
_symmetry_space_group_name_H-M "C 2/C"
_symmetry_group_IT_number 15
_symmetry_cell_setting 'monoclinic'
loop_
_space_group_symop_operation_xyz
x,y,z
-x,y,1/2-z
-x,-y,-z
x,-y,1/2+z
1/2+x,1/2+y,z
1/2-x,1/2+y,1/2-z
1/2-x,1/2-y,-z
1/2+x,1/2-y,1/2+z
loop_
_atom_site_type_symbol
_atom_site_label
_atom_site_fract_x
_atom_site_fract_y
_atom_site_fract_z
Si Si1 0.638504 0.021561 0.822740
Si Si2 0.791014 0.174236 0.310835
Si Si3 0.634088 0.773939 0.672814
Si Si4 0.194728 0.756315 0.438562
Si Si5 0.615120 0.655262 0.810785
Si Si6 0.019226 0.075855 0.937845
Si Si7 0.224036 0.552953 0.093386
Si Si8 0.488288 0.812108 0.089054
O O1 0.760376 0.078831 0.750143
O O2 0.584139 0.082969 0.884865
O O3 0.728703 0.926377 0.811968
O O4 0.454814 0.004732 0.850172
O O5 0.719789 0.190948 0.385361
O O6 0.724292 0.254059 0.294591
O O7 0.000000 0.177399 0.250000
O O8 0.500000 0.822846 0.750000
O O9 0.538253 0.681943 0.681025
O O10 0.676022 0.840498 0.616373
O O11 0.815350 0.751683 0.646356
O O12 0.092647 0.849133 0.453886
O O13 0.381482 0.784383 0.406475
O O14 0.078178 0.698944 0.510883
O O15 0.514842 0.610262 0.885332
O O16 0.144517 0.985567 0.904601
O O17 0.820141 0.048303 0.012954
#
# Coordination Sequence:
#
# PCOD8147697 Si02
#       8
#     8   8   8   8   8   8   8   8
#     4  12  25  44  65 100 135 174 220 275 331 400
#     4  11  26  44  68  97 135 174 228 274 333 400
#     4  12  25  42  67  99 132 177 220 277 332 396
#     4  10  22  44  70  98 131 184 215 270 337 402
#     4  11  26  45  69  97 134 177 222 278 337 389
#     4  10  23  43  68 100 130 168 226 282 322 394
#     4  11  24  43  67 100 129 169 230 274 327 389
#     4  11  23  43  71  94 141 177 219 265 339 403
#
# _framework density 21.000140999999999
#
# number of rings (size 3 to 8) (size 9 to 14) (size 15 to 20)
#    0.000    1.000    5.000    0.750    5.250    2.000 
#    2.250    0.000    0.000    0.000    0.000    0.000 
#    0.000    0.000    0.000    0.000    0.000    0.000 
#
# Total GULP energy -396806.783340 kJ/mol
# GULP energy per Si atom -12400.211979 kJ/mol
# Density = 2.095234 g / cm^3
# Si number density = 21.000141 Si / 1000 Ang^3
#
#
#
# Elastic Constant Matrix: (Units=GPa)
#
#
# Indices 1 2 3 4 5 6 
#
# 1 71.0088 22.5571 40.3217 0.0003 4.8593 -0.0002
# 2 22.5571 111.4062 44.8994 0.0002 7.7649 -0.0002
# 3 40.3217 44.8994 71.3940 0.0008 1.7926 -0.0007
# 4 0.0003 0.0002 0.0008 42.8473 -0.0004 4.1084
# 5 4.8593 7.7649 1.7926 -0.0004 30.7546 0.0003
# 6 -0.0002 -0.0002 -0.0007 4.1084 0.0003 18.6128
#
#
#
# Elastic Compliance Matrix: (Units=1/GPa)
#
#
# Indices 1 2 3 4 5 6 
#
# 1 0.021012 0.000934 -0.012383 0.000000 -0.002834 0.000000
# 2 0.000934 0.012276 -0.008178 0.000000 -0.002770 0.000000
# 3 -0.012383 -0.008178 0.026081 0.000000 0.002501 0.000001
# 4 0.000000 0.000000 0.000000 0.023843 0.000000 -0.005263
# 5 -0.002834 -0.002770 0.002501 0.000000 0.033517 0.000000
# 6 0.000000 0.000000 0.000001 -0.005263 0.000000 0.054888
#
#
# Mechanical properties :
#
#
# Convention : Reuss Voigt Hill
#
# Bulk Modulus (GPa) = 49.71716 52.15170 50.93443
# Shear Modulus (GPa) = 22.98041 28.17835 25.57938
#
# Velocity S-wave (km/s) = 3.31161 3.66706 3.49385
# Velocity P-wave (km/s) = 6.19261 6.54352 6.37048
#
# Compressibility (1/GPa) = 0.02011378
#
# Stress axis : x y z
#
# Youngs Moduli (GPa) = 47.59269 81.45825 38.34225
#
# Poissons Ratio (x) = -0.07607 0.47479
# Poissons Ratio (y) = -0.04444 0.31357
# Poissons Ratio (z) = 0.58934 0.66619
#
# Static dielectric constant tensor:
#      x y z
#    x 3.845750 0.000000 -0.105160 
#    y 0.000000 3.962780 0.000000 
#    z -0.105160 0.000000 3.985840 
# 
# 
# High freq. dielectric constant tensor:
#      x y z
#    x 1.816770 0.000000 -0.011250 
#    y 0.000000 1.824160 0.000000 
#    z -0.011250 0.000000 1.840550 
# 
# From -- ./inp_files/311165.got.cif
#   From: 2010.06.25/outbox.cif.g09.slc.cpg/sg15_156_cif.got.tgz:311165.got - 2010.06.28 07:06:18.
