data_PCOD8147716
_publ_section_title
;
Structure prediction by ZEFSAII (Michael W. Deem and Ramdas Pophale) SiO2 
 PCOD8147716
Probable space group: C 2/C
;
_chemical_formula_sum "Si O2"
_cell_formula_units_Z 64
_cell_length_a 17.015376
_cell_length_b 14.449633
_cell_length_c 15.716292
_cell_angle_alpha 90.000000
_cell_angle_beta 134.020280
_cell_angle_gamma 90.000000
_cell_volume 2778.651293
_symmetry_space_group_name_H-M "C 2/C"
_symmetry_group_IT_number 15
_symmetry_cell_setting 'monoclinic'
loop_
_space_group_symop_operation_xyz
x,y,z
-x,y,1/2-z
-x,-y,-z
x,-y,1/2+z
1/2+x,1/2+y,z
1/2-x,1/2+y,1/2-z
1/2-x,1/2-y,-z
1/2+x,1/2-y,1/2+z
loop_
_atom_site_type_symbol
_atom_site_label
_atom_site_fract_x
_atom_site_fract_y
_atom_site_fract_z
Si Si1 0.500658 0.599599 0.155481
Si Si2 0.876825 0.484891 0.624646
Si Si3 0.995683 0.117535 0.842493
Si Si4 0.872993 0.486185 0.421194
Si Si5 0.773185 0.144767 0.000407
Si Si6 0.230323 0.816417 0.257022
Si Si7 0.728370 0.318330 0.561123
Si Si8 0.275260 0.350147 0.692742
O O1 0.500000 0.643139 0.250000
O O2 0.513358 0.490921 0.168632
O O3 0.601526 0.640203 0.175471
O O4 0.382826 0.627551 0.026435
O O5 0.862913 0.468317 0.513906
O O6 0.826393 0.584903 0.614047
O O7 0.809826 0.404648 0.620357
O O8 0.000000 0.482072 0.750000
O O9 0.891986 0.150774 0.818415
O O10 0.000000 0.159510 0.750000
O O11 0.104621 0.147502 0.971323
O O12 0.819735 0.397835 0.332448
O O13 0.814079 0.577708 0.337635
O O14 0.000000 0.500000 0.500000
O O15 0.750000 0.250000 0.000000
O O16 0.790575 0.108049 0.109492
O O17 0.255097 0.731976 0.338058
O O18 0.239343 0.759381 0.173299
O O19 0.750000 0.250000 0.500000
#
# Coordination Sequence:
#
# PCOD8147716 Si02
#       8
#     8   8   8   8   8   8   8   8
#     4   9  18  40  70  90 119 165 222 274 322 389
#     4  11  25  43  68 102 137 173 226 288 341 398
#     4  11  20  40  69  93 127 172 223 278 332 394
#     4  11  25  45  65  96 142 181 219 277 346 410
#     4  10  22  44  71  96 127 174 231 276 326 400
#     4  12  26  42  68 101 138 178 225 275 351 411
#     4  12  24  39  67 104 131 169 227 282 339 405
#     4  10  24  43  66  97 132 176 220 273 343 403
#
# _framework density 23.032758000000001
#
# number of rings (size 3 to 8) (size 9 to 14) (size 15 to 20)
#    0.000    1.250    5.000    0.000    5.250    4.500 
#    0.000    0.625    0.000    0.000    0.000    0.000 
#    0.000    0.000    0.000    0.000    0.000    0.000 
#
# Total GULP energy -396542.151610 kJ/mol
# GULP energy per Si atom -12391.942238 kJ/mol
# Density = 2.298033 g / cm^3
# Si number density = 23.032758 Si / 1000 Ang^3
#
#
#
# Elastic Constant Matrix: (Units=GPa)
#
#
# Indices 1 2 3 4 5 6 
#
# 1 89.3838 39.5894 45.9754 0.0000 57.7336 0.0000
# 2 39.5894 152.6435 50.6121 0.0000 45.5992 0.0000
# 3 45.9754 50.6121 105.3095 0.0000 57.5770 0.0000
# 4 0.0000 0.0000 0.0000 29.7339 0.0000 10.3718
# 5 57.7336 45.5992 57.5770 0.0000 57.0899 0.0000
# 6 0.0000 0.0000 0.0000 10.3718 0.0000 40.4469
#
#
#
# Elastic Compliance Matrix: (Units=1/GPa)
#
#
# Indices 1 2 3 4 5 6 
#
# 1 0.036262 0.001668 0.009240 0.000000 -0.047322 0.000000
# 2 0.001668 0.008715 -0.000420 0.000000 -0.008223 0.000000
# 3 0.009240 -0.000420 0.023605 0.000000 -0.032815 0.000000
# 4 0.000000 0.000000 0.000000 0.036936 0.000000 -0.009471
# 5 -0.047322 -0.008223 -0.032815 0.000000 0.105035 0.000000
# 6 0.000000 0.000000 0.000000 -0.009471 0.000000 0.027153
#
#
# Mechanical properties :
#
#
# Convention : Reuss Voigt Hill
#
# Bulk Modulus (GPa) = 11.16611 68.85450 40.01030
# Shear Modulus (GPa) = 20.27731 39.53147 29.90439
#
# Velocity S-wave (km/s) = 2.97032 4.14734 3.60716
# Velocity P-wave (km/s) = 4.07703 7.27275 5.89555
#
# Compressibility (1/GPa) = 0.08955674
#
# Stress axis : x y z
#
# Youngs Moduli (GPa) = 27.57741 114.75049 42.36339
#
# Poissons Ratio (x) = -0.19139 -0.39145
# Poissons Ratio (y) = -0.04600 0.01781
# Poissons Ratio (z) = -0.25482 0.04825
#
# Static dielectric constant tensor:
#      x y z
#    x -50.266410 0.000000 36.854160 
#    y 0.000000 4.480510 0.000000 
#    z 36.854160 0.000000 -20.367890 
# 
# 
# High freq. dielectric constant tensor:
#      x y z
#    x 1.914180 0.000000 0.019560 
#    y 0.000000 1.917300 0.000000 
#    z 0.019560 0.000000 1.909620 
# 
# From -- ./inp_files/211414.got.cif
#   From: 2010.06.25/outbox.cif.g09.slc.cpg/sg15_106_cif.got.tgz:211414.got - 2010.06.28 07:06:18.
