data_PCOD8147550
_publ_section_title
;
Structure prediction by ZEFSAII (Michael W. Deem and Ramdas Pophale) SiO2 
 PCOD8147550
Probable space group: C 2/C
;
_chemical_formula_sum "Si O2"
_cell_formula_units_Z 44
_cell_length_a 25.051212
_cell_length_b 11.738050
_cell_length_c 24.025190
_cell_angle_alpha 90.000000
_cell_angle_beta 162.302716
_cell_angle_gamma 90.000000
_cell_volume 2147.572468
_symmetry_space_group_name_H-M "C 2/C"
_symmetry_group_IT_number 15
_symmetry_cell_setting 'monoclinic'
loop_
_space_group_symop_operation_xyz
x,y,z
-x,y,1/2-z
-x,-y,-z
x,-y,1/2+z
1/2+x,1/2+y,z
1/2-x,1/2+y,1/2-z
1/2-x,1/2-y,-z
1/2+x,1/2-y,1/2+z
loop_
_atom_site_type_symbol
_atom_site_label
_atom_site_fract_x
_atom_site_fract_y
_atom_site_fract_z
Si Si1 0.834517 0.356467 0.051363
Si Si2 0.175944 0.025295 0.743008
Si Si3 0.500000 0.770359 0.750000
Si Si4 0.222674 0.905623 0.409949
Si Si5 0.455546 0.843307 0.047646
Si Si6 0.162109 0.111006 0.609695
O O1 0.902973 0.317659 0.059066
O O2 0.000000 0.401946 0.250000
O O3 0.750000 0.250000 0.000000
O O4 0.699648 0.463221 0.909236
O O5 0.226108 0.098479 0.846772
O O6 0.206001 0.101244 0.718462
O O7 0.970549 0.988183 0.542525
O O8 0.313868 0.922276 0.876601
O O9 0.397796 0.855836 0.609518
O O10 0.422320 0.682942 0.716628
O O11 0.654518 0.892906 0.242431
O O12 0.449506 0.725110 0.009294
#
# Coordination Sequence:
#
# PCOD8147550 Si02
#       6
#     8   8   4   8   8   8
#     4  11  24  39  64  98 131 169 219 274 341 402
#     4  10  24  42  63  96 126 171 223 270 330 401
#     4  10  22  44  66  88 128 176 212 274 324 398
#     4  10  23  44  64  94 130 168 224 269 331 399
#     4  11  22  41  64  91 135 168 214 276 337 395
#     4  11  22  41  65  92 129 171 214 270 332 395
#
# _framework density 20.488250000000001
#
# number of rings (size 3 to 8) (size 9 to 14) (size 15 to 20)
#    0.000    1.455    2.727    1.636    3.818    2.909 
#    3.273    0.000    0.000    0.000    0.000    0.000 
#    0.000    0.000    0.000    0.000    0.000    0.000 
#
# Total GULP energy -272614.143339 kJ/mol
# GULP energy per Si atom -12391.551970 kJ/mol
# Density = 2.044162 g / cm^3
# Si number density = 20.488250 Si / 1000 Ang^3
#
#
#
# Elastic Constant Matrix: (Units=GPa)
#
#
# Indices 1 2 3 4 5 6 
#
# 1 143.4158 68.6768 59.3920 -0.2071 -17.5191 0.0149
# 2 68.6768 101.8757 28.9141 1.9119 -4.2787 -0.0089
# 3 59.3920 28.9141 121.1445 1.1315 -4.9937 -0.0062
# 4 -0.2071 1.9119 1.1315 -24.9237 0.2431 -1.6169
# 5 -17.5191 -4.2787 -4.9937 0.2431 46.3257 -0.0324
# 6 0.0149 -0.0089 -0.0062 -1.6169 -0.0324 36.2117
#
#
#
# Elastic Compliance Matrix: (Units=1/GPa)
#
#
# Indices 1 2 3 4 5 6 
#
# 1 0.012613 -0.007105 -0.004330 -0.000808 0.003651 -0.000041
# 2 -0.007105 0.014543 -0.000054 0.001155 -0.001356 0.000057
# 3 -0.004330 -0.000054 0.010364 0.000496 -0.000528 0.000025
# 4 -0.000808 0.001155 0.000496 -0.039889 0.000063 -0.001780
# 5 0.003651 -0.001356 -0.000528 0.000063 0.022785 0.000021
# 6 -0.000041 0.000057 0.000025 -0.001780 0.000021 0.027536
#
#
# Mechanical properties :
#
#
# Convention : Reuss Voigt Hill
#
# Bulk Modulus (GPa) = 68.77144 75.60022 72.18583
# Shear Modulus (GPa) = 65.98281 25.48630 45.73455
#
# Velocity S-wave (km/s) = 5.68112 3.53079 4.72978
# Velocity P-wave (km/s) = 8.75629 7.32130 8.07075
#
# Compressibility (1/GPa) = 0.01454092
#
# Stress axis : x y z
#
# Youngs Moduli (GPa) = 79.28190 68.76352 96.48939
#
# Poissons Ratio (x) = 0.48860 0.41778
# Poissons Ratio (y) = 0.56334 0.00522
# Poissons Ratio (z) = 0.34327 0.00372
#
# Static dielectric constant tensor:
#      x y z
#    x 3.619160 -0.000030 -0.196100 
#    y -0.000030 3.698820 -0.000140 
#    z -0.196100 -0.000140 3.754230 
# 
# 
# High freq. dielectric constant tensor:
#      x y z
#    x 1.800770 -0.000010 -0.014480 
#    y -0.000010 1.801400 -0.000040 
#    z -0.014480 -0.000040 1.813690 
# 
# From -- ./inp_files/281922.got.cif
#   From: 2010.06.25/outbox.cif.g09.slc.cpg/sg15_141_cif.got.tgz:281922.got - 2010.06.28 07:06:18.
