data_PCOD8147326
_publ_section_title
;
Structure prediction by ZEFSAII (Michael W. Deem and Ramdas Pophale) SiO2 
 PCOD8147326
Probable space group: C 2/C
;
_chemical_formula_sum "Si O2"
_cell_formula_units_Z 52
_cell_length_a 10.631025
_cell_length_b 31.477300
_cell_length_c 8.702043
_cell_angle_alpha 90.000000
_cell_angle_beta 57.046358
_cell_angle_gamma 90.000000
_cell_volume 2443.504998
_symmetry_space_group_name_H-M "C 2/C"
_symmetry_group_IT_number 15
_symmetry_cell_setting 'monoclinic'
loop_
_space_group_symop_operation_xyz
x,y,z
-x,y,1/2-z
-x,-y,-z
x,-y,1/2+z
1/2+x,1/2+y,z
1/2-x,1/2+y,1/2-z
1/2-x,1/2-y,-z
1/2+x,1/2-y,1/2+z
loop_
_atom_site_type_symbol
_atom_site_label
_atom_site_fract_x
_atom_site_fract_y
_atom_site_fract_z
Si Si1 0.000000 0.091205 0.750000
Si Si2 0.519245 0.183167 0.056068
Si Si3 0.091197 0.764689 0.542589
Si Si4 0.310213 0.345276 0.186514
Si Si5 0.859875 0.471236 0.539298
Si Si6 0.347035 0.477753 0.545954
Si Si7 0.123103 0.622924 0.554024
O O1 0.076898 0.120655 0.822310
O O2 0.121963 0.061389 0.586727
O O3 0.500000 0.190362 0.250000
O O4 0.499012 0.227225 0.980622
O O5 0.678509 0.162971 0.898765
O O6 0.387450 0.150010 0.096106
O O7 0.250000 0.750000 0.500000
O O8 0.106888 0.801293 0.404842
O O9 0.000000 0.781412 0.750000
O O10 0.274210 0.367586 0.046087
O O11 0.740262 0.460738 0.749509
O O12 0.768854 0.490817 0.458798
O O13 0.919943 0.425881 0.445507
O O14 0.000000 0.500000 0.500000
O O15 0.500000 0.500000 0.500000
O O16 0.000000 0.643123 0.750000
#
# Coordination Sequence:
#
# PCOD8147326 Si02
#       7
#     4   8   8   8   8   8   8
#     4  12  28  44  72 104 144 186 252 296 354 428
#     4  11  25  42  72 105 145 182 236 298 359 425
#     4  12  23  47  74 102 140 190 237 284 365 437
#     4  11  26  46  70 102 145 187 238 301 353 434
#     4  12  26  42  73 107 136 187 245 294 356 427
#     4  12  25  48  69  97 147 191 232 295 363 429
#     4  10  22  43  67  98 143 184 228 287 358 419
#
# _framework density 21.280906999999999
#
# number of rings (size 3 to 8) (size 9 to 14) (size 15 to 20)
#    0.000    0.615    4.615    2.769    7.538    3.077 
#    0.000    0.000    0.000    0.000    0.000    0.000 
#    0.000    0.000    0.000    0.000    0.000    0.000 
#
# Total GULP energy -322353.104642 kJ/mol
# GULP energy per Si atom -12398.196332 kJ/mol
# Density = 2.123247 g / cm^3
# Si number density = 21.280907 Si / 1000 Ang^3
#
#
#
# Elastic Constant Matrix: (Units=GPa)
#
#
# Indices 1 2 3 4 5 6 
#
# 1 102.2888 32.4609 10.6769 0.0000 13.5645 0.0000
# 2 32.4609 124.9445 10.9097 0.0000 12.4746 0.0000
# 3 10.6769 10.9097 107.6502 0.0000 3.9049 0.0000
# 4 0.0000 0.0000 0.0000 37.8935 0.0000 11.3123
# 5 13.5645 12.4746 3.9049 0.0000 33.2099 0.0000
# 6 0.0000 0.0000 0.0000 11.3123 0.0000 31.5930
#
#
#
# Elastic Compliance Matrix: (Units=1/GPa)
#
#
# Indices 1 2 3 4 5 6 
#
# 1 0.011103 -0.002470 -0.000723 0.000000 -0.003522 0.000000
# 2 -0.002470 0.008923 -0.000577 0.000000 -0.002275 0.000000
# 3 -0.000723 -0.000577 0.009441 0.000000 -0.000598 0.000000
# 4 0.000000 0.000000 0.000000 0.029548 0.000000 -0.010580
# 5 -0.003522 -0.002275 -0.000598 0.000000 0.032475 0.000000
# 6 0.000000 0.000000 0.000000 -0.010580 0.000000 0.035441
#
#
# Mechanical properties :
#
#
# Convention : Reuss Voigt Hill
#
# Bulk Modulus (GPa) = 45.60531 49.21983 47.41257
# Shear Modulus (GPa) = 35.26621 39.26168 37.26394
#
# Velocity S-wave (km/s) = 4.07526 4.29992 4.18910
# Velocity P-wave (km/s) = 6.60457 6.91601 6.76208
#
# Compressibility (1/GPa) = 0.02192727
#
# Stress axis : x y z
#
# Youngs Moduli (GPa) = 90.06957 112.07376 105.91852
#
# Poissons Ratio (x) = 0.27679 0.07659
# Poissons Ratio (y) = 0.22244 0.06109
# Poissons Ratio (z) = 0.06513 0.06464
#
# Static dielectric constant tensor:
#      x y z
#    x 1.738660 0.000000 0.034730 
#    y 0.000000 3.958320 0.000000 
#    z 0.034730 0.000000 4.295350 
# 
# 
# High freq. dielectric constant tensor:
#      x y z
#    x 1.839060 0.000000 0.008060 
#    y 0.000000 1.844730 0.000000 
#    z 0.008060 0.000000 1.841250 
# 
# From -- ./inp_files/34072.got.cif
#   From: 2010.06.25/outbox.cif.g09.slc.cpg/sg15_18_cif.got.tgz:34072.got - 2010.06.28 07:06:18.
