data_PCOD8147715
_publ_section_title
;
Structure prediction by ZEFSAII (Michael W. Deem and Ramdas Pophale) SiO2 
 PCOD8147715
Probable space group: C 2/C
;
_chemical_formula_sum "Si O2"
_cell_formula_units_Z 64
_cell_length_a 29.611964
_cell_length_b 11.343631
_cell_length_c 8.708780
_cell_angle_alpha 90.000000
_cell_angle_beta 88.102703
_cell_angle_gamma 90.000000
_cell_volume 2923.738109
_symmetry_space_group_name_H-M "C 2/C"
_symmetry_group_IT_number 15
_symmetry_cell_setting 'monoclinic'
loop_
_space_group_symop_operation_xyz
x,y,z
-x,y,1/2-z
-x,-y,-z
x,-y,1/2+z
1/2+x,1/2+y,z
1/2-x,1/2+y,1/2-z
1/2-x,1/2-y,-z
1/2+x,1/2-y,1/2+z
loop_
_atom_site_type_symbol
_atom_site_label
_atom_site_fract_x
_atom_site_fract_y
_atom_site_fract_z
Si Si1 0.518007 0.322346 0.082076
Si Si2 0.044727 0.584866 0.152784
Si Si3 0.128792 0.214868 0.166146
Si Si4 0.456212 0.430433 0.862297
Si Si5 0.596550 0.088127 0.447252
Si Si6 0.273703 0.638814 0.421103
Si Si7 0.670018 0.098616 0.870907
Si Si8 0.728637 0.955048 0.631926
O O1 0.500000 0.291217 0.250000
O O2 0.542280 0.198747 0.036691
O O3 0.551392 0.436392 0.071318
O O4 0.471816 0.341559 0.993155
O O5 0.083406 0.613765 0.273366
O O6 0.000000 0.550262 0.250000
O O7 0.056069 0.472288 0.047256
O O8 0.089124 0.119677 0.212230
O O9 0.172578 0.148218 0.098474
O O10 0.140878 0.289009 0.318086
O O11 0.110670 0.292721 0.028912
O O12 0.500000 0.439733 0.750000
O O13 0.639045 0.002902 0.442252
O O14 0.250000 0.750000 0.500000
O O15 0.265219 0.524866 0.526194
O O16 0.253059 0.627645 0.252508
O O17 0.697422 0.051492 0.720746
O O18 0.701556 0.129058 0.014514
#
# Coordination Sequence:
#
# PCOD8147715 Si02
#       8
#     8   8   8   8   8   8   8   8
#     4   9  20  44  63  85 121 184 217 264 336 388
#     4  11  23  39  62  92 131 175 224 276 334 396
#     4  12  23  40  68 100 134 172 226 283 341 401
#     4  10  23  42  68  89 130 176 224 276 325 393
#     4  12  23  39  62  97 131 170 221 272 338 406
#     4  11  23  46  71 100 139 176 221 285 340 410
#     4  11  20  41  65  96 133 175 218 269 349 417
#     4  10  22  44  71  94 135 178 219 271 350 413
#
# _framework density 21.889785
#
# number of rings (size 3 to 8) (size 9 to 14) (size 15 to 20)
#    0.000    1.250    3.750    2.625    1.750    1.000 
#    9.000    0.000    0.000    0.000    0.000    0.000 
#    0.000    0.000    0.000    0.000    0.000    0.000 
#
# Total GULP energy -396678.988117 kJ/mol
# GULP energy per Si atom -12396.218379 kJ/mol
# Density = 2.183996 g / cm^3
# Si number density = 21.889785 Si / 1000 Ang^3
#
#
#
# Elastic Constant Matrix: (Units=GPa)
#
#
# Indices 1 2 3 4 5 6 
#
# 1 124.4177 55.5961 27.1954 0.0000 3.3394 0.0000
# 2 55.5961 72.6055 23.7715 0.0000 16.9435 0.0000
# 3 27.1954 23.7715 87.5043 0.0000 17.5996 0.0000
# 4 0.0000 0.0000 0.0000 33.0560 0.0000 6.0110
# 5 3.3394 16.9435 17.5996 0.0000 34.9763 0.0000
# 6 0.0000 0.0000 0.0000 6.0110 0.0000 40.2170
#
#
#
# Elastic Compliance Matrix: (Units=1/GPa)
#
#
# Indices 1 2 3 4 5 6 
#
# 1 0.013039 -0.010406 -0.002213 0.000000 0.004909 0.000000
# 2 -0.010406 0.024579 -0.001389 0.000000 -0.010215 0.000000
# 3 -0.002213 -0.001389 0.013702 0.000000 -0.006011 0.000000
# 4 0.000000 0.000000 0.000000 0.031097 0.000000 -0.004648
# 5 0.004909 -0.010215 -0.006011 0.000000 0.036095 0.000000
# 6 0.000000 0.000000 0.000000 -0.004648 0.000000 0.025560
#
#
# Mechanical properties :
#
#
# Convention : Reuss Voigt Hill
#
# Bulk Modulus (GPa) = 42.90830 55.29482 49.10156
# Shear Modulus (GPa) = 27.80015 33.51416 30.65716
#
# Velocity S-wave (km/s) = 3.56758 3.91710 3.74642
# Velocity P-wave (km/s) = 6.05101 6.76562 6.41827
#
# Compressibility (1/GPa) = 0.02330552
#
# Stress axis : x y z
#
# Youngs Moduli (GPa) = 76.69228 40.68467 72.98198
#
# Poissons Ratio (x) = 0.42335 0.16151
# Poissons Ratio (y) = 0.79802 0.10136
# Poissons Ratio (z) = 0.16973 0.05651
#
# Static dielectric constant tensor:
#      x y z
#    x 3.901480 0.000000 0.055300 
#    y 0.000000 4.013420 0.000000 
#    z 0.055300 0.000000 4.034660 
# 
# 
# High freq. dielectric constant tensor:
#      x y z
#    x 1.855880 0.000000 0.009400 
#    y 0.000000 1.853210 0.000000 
#    z 0.009400 0.000000 1.869030 
# 
# From -- ./inp_files/69380.got.cif
#   From: 2010.06.25/outbox.cif.g09.slc.cpg/sg15_35_cif.got.tgz:69380.got - 2010.06.28 07:06:18.
