data_PCOD8147584
_publ_section_title
;
Structure prediction by ZEFSAII (Michael W. Deem and Ramdas Pophale) SiO2 
 PCOD8147584
Probable space group: C 2/C
;
_chemical_formula_sum "Si O2"
_cell_formula_units_Z 60
_cell_length_a 10.664078
_cell_length_b 9.554305
_cell_length_c 23.542221
_cell_angle_alpha 90.000000
_cell_angle_beta 84.682739
_cell_angle_gamma 90.000000
_cell_volume 2388.344490
_symmetry_space_group_name_H-M "C 2/C"
_symmetry_group_IT_number 15
_symmetry_cell_setting 'monoclinic'
loop_
_space_group_symop_operation_xyz
x,y,z
-x,y,1/2-z
-x,-y,-z
x,-y,1/2+z
1/2+x,1/2+y,z
1/2-x,1/2+y,1/2-z
1/2-x,1/2-y,-z
1/2+x,1/2-y,1/2+z
loop_
_atom_site_type_symbol
_atom_site_label
_atom_site_fract_x
_atom_site_fract_y
_atom_site_fract_z
Si Si1 0.142566 0.990183 0.043674
Si Si2 0.500000 0.123587 0.250000
Si Si3 0.845505 0.150521 0.299941
Si Si4 0.066494 0.909907 0.862712
Si Si5 0.100259 0.352814 0.864508
Si Si6 0.960312 0.224738 0.514931
Si Si7 0.598618 0.874315 0.420226
Si Si8 0.762509 0.450206 0.281856
O O1 0.278081 0.943212 0.058111
O O2 0.086469 0.870999 0.004629
O O3 0.039923 0.009705 0.097864
O O4 0.155888 0.134272 0.006372
O O5 0.446521 0.207045 0.196030
O O6 0.390541 0.034565 0.282882
O O7 0.993003 0.152599 0.310224
O O8 0.753639 0.146843 0.359293
O O9 0.801103 0.290093 0.268334
O O10 0.817570 0.007774 0.267490
O O11 0.127944 0.775488 0.890613
O O12 0.176454 0.020291 0.841603
O O13 0.057045 0.259800 0.918666
O O14 0.050002 0.512751 0.875627
O O15 0.990919 0.357832 0.473449
#
# Coordination Sequence:
#
# PCOD8147584 Si02
#       8
#     8   4   8   8   8   8   8   8
#     4  10  22  44  67 105 144 182 248 301 364 451
#     4  10  26  46  68 108 140 188 248 302 356 454
#     4  11  25  47  71 106 143 196 251 310 368 441
#     4  11  24  45  73 101 145 193 239 304 376 438
#     4  11  23  46  68 105 148 184 249 303 363 445
#     4  10  23  42  70 103 142 189 242 303 374 436
#     4  11  23  42  72 105 142 195 233 307 374 430
#     4  11  26  45  73 101 143 196 245 305 374 430
#
# _framework density 25.122004
#
# number of rings (size 3 to 8) (size 9 to 14) (size 15 to 20)
#    0.000    1.333    1.333    2.800    7.467    0.533 
#   16.800    0.000    0.000    0.000    0.000    0.000 
#    0.000    0.000    0.000    0.000    0.000    0.000 
#
# Total GULP energy -371753.665948 kJ/mol
# GULP energy per Si atom -12391.788865 kJ/mol
# Density = 2.506483 g / cm^3
# Si number density = 25.122004 Si / 1000 Ang^3
#
#
#
# Elastic Constant Matrix: (Units=GPa)
#
#
# Indices 1 2 3 4 5 6 
#
# 1 99.8049 14.9755 21.3294 0.0000 6.3140 0.0000
# 2 14.9755 80.1698 11.2511 0.0000 7.5252 0.0000
# 3 21.3294 11.2511 87.2178 0.0000 5.1185 0.0000
# 4 0.0000 0.0000 0.0000 45.1156 0.0000 2.0773
# 5 6.3140 7.5252 5.1185 0.0000 39.2363 0.0000
# 6 0.0000 0.0000 0.0000 2.0773 0.0000 32.0594
#
#
#
# Elastic Compliance Matrix: (Units=1/GPa)
#
#
# Indices 1 2 3 4 5 6 
#
# 1 0.010837 -0.001584 -0.002380 0.000000 -0.001130 0.000000
# 2 -0.001584 0.013134 -0.001183 0.000000 -0.002110 0.000000
# 3 -0.002380 -0.001183 0.012258 0.000000 -0.000989 0.000000
# 4 0.000000 0.000000 0.000000 0.022232 0.000000 -0.001441
# 5 -0.001130 -0.002110 -0.000989 0.000000 0.026202 0.000000
# 6 0.000000 0.000000 0.000000 -0.001441 0.000000 0.031285
#
#
# Mechanical properties :
#
#
# Convention : Reuss Voigt Hill
#
# Bulk Modulus (GPa) = 38.55782 40.25605 39.40694
# Shear Modulus (GPa) = 37.06806 37.92469 37.49638
#
# Velocity S-wave (km/s) = 3.84542 3.88960 3.86757
# Velocity P-wave (km/s) = 5.92435 6.01922 5.97197
#
# Compressibility (1/GPa) = 0.02593507
#
# Stress axis : x y z
#
# Youngs Moduli (GPa) = 92.27389 76.14103 81.57831
#
# Poissons Ratio (x) = 0.12064 0.19413
# Poissons Ratio (y) = 0.14620 0.09650
# Poissons Ratio (z) = 0.21958 0.09007
#
# Static dielectric constant tensor:
#      x y z
#    x 4.483680 0.000000 -0.037680 
#    y 0.000000 4.553760 0.000000 
#    z -0.037680 0.000000 4.693760 
# 
# 
# High freq. dielectric constant tensor:
#      x y z
#    x 1.994730 0.000000 -0.005470 
#    y 0.000000 2.002250 0.000000 
#    z -0.005470 0.000000 2.009510 
# 
# From -- ./inp_files/291578.got.cif
#   From: 2010.06.25/outbox.cif.g09.slc.cpg/sg15_146_cif.got.tgz:291578.got - 2010.06.28 07:06:18.
