data_PCOD8147416
_publ_section_title
;
Structure prediction by ZEFSAII (Michael W. Deem and Ramdas Pophale) SiO2 
 PCOD8147416
Probable space group: C 2/C
;
_chemical_formula_sum "Si O2"
_cell_formula_units_Z 56
_cell_length_a 11.588671
_cell_length_b 26.387686
_cell_length_c 9.521695
_cell_angle_alpha 90.000000
_cell_angle_beta 117.552694
_cell_angle_gamma 90.000000
_cell_volume 2581.487200
_symmetry_space_group_name_H-M "C 2/C"
_symmetry_group_IT_number 15
_symmetry_cell_setting 'monoclinic'
loop_
_space_group_symop_operation_xyz
x,y,z
-x,y,1/2-z
-x,-y,-z
x,-y,1/2+z
1/2+x,1/2+y,z
1/2-x,1/2+y,1/2-z
1/2-x,1/2-y,-z
1/2+x,1/2-y,1/2+z
loop_
_atom_site_type_symbol
_atom_site_label
_atom_site_fract_x
_atom_site_fract_y
_atom_site_fract_z
Si Si1 0.229992 0.935410 0.646477
Si Si2 0.015032 0.874093 0.914292
Si Si3 0.427700 0.948805 0.003435
Si Si4 0.782335 0.951686 0.393520
Si Si5 0.326673 0.105400 0.917560
Si Si6 0.947288 0.220901 0.879746
Si Si7 0.806560 0.275351 0.395954
O O1 0.314220 0.936155 0.832682
O O2 0.319807 0.918756 0.567601
O O3 0.119138 0.893811 0.598180
O O4 0.166604 0.990874 0.588910
O O5 0.000000 0.850784 0.750000
O O6 0.117291 0.920051 0.956065
O O7 0.065351 0.832556 0.050813
O O8 0.362502 0.953247 0.120238
O O9 0.527944 0.902242 0.059631
O O10 0.500000 0.000000 0.000000
O O11 0.774961 0.925106 0.237148
O O12 0.297704 0.164538 0.903899
O O13 0.796205 0.241491 0.785784
O O14 0.000000 0.214505 0.750000
O O15 0.042677 0.256482 0.029787
O O16 0.750000 0.250000 0.500000
#
# Coordination Sequence:
#
# PCOD8147416 Si02
#       7
#     8   8   8   8   8   8   8
#     4  12  24  41  67  99 137 187 231 282 335 413
#     4  12  26  45  65 100 140 182 231 280 351 421
#     4  12  24  43  65  97 146 183 226 281 335 412
#     4  12  24  45  65  97 143 184 226 279 344 410
#     4  12  25  40  74 103 132 182 233 282 348 407
#     4  10  22  45  74  99 136 175 234 301 349 415
#     4  10  22  43  71 104 134 174 236 299 354 407
#
# _framework density 21.692921999999999
#
# number of rings (size 3 to 8) (size 9 to 14) (size 15 to 20)
#    0.000    0.571    5.714    3.000    0.000    4.571 
#    0.000    2.143    0.000    0.000    0.000    0.000 
#    0.000    0.000    0.000    0.000    0.000    0.000 
#
# Total GULP energy -347137.767402 kJ/mol
# GULP energy per Si atom -12397.777407 kJ/mol
# Density = 2.164355 g / cm^3
# Si number density = 21.692922 Si / 1000 Ang^3
#
#
#
# Elastic Constant Matrix: (Units=GPa)
#
#
# Indices 1 2 3 4 5 6 
#
# 1 69.1772 26.0712 34.5923 0.0000 17.5576 0.0000
# 2 26.0712 89.3849 39.5633 0.0000 13.2309 0.0000
# 3 34.5923 39.5633 88.0235 0.0000 18.7080 0.0000
# 4 0.0000 0.0000 0.0000 38.8250 0.0000 9.8211
# 5 17.5576 13.2309 18.7080 0.0000 48.2257 0.0000
# 6 0.0000 0.0000 0.0000 9.8211 0.0000 30.1657
#
#
#
# Elastic Compliance Matrix: (Units=1/GPa)
#
#
# Indices 1 2 3 4 5 6 
#
# 1 0.019237 -0.002547 -0.005531 0.000000 -0.004159 0.000000
# 2 -0.002547 0.014406 -0.005265 0.000000 -0.000983 0.000000
# 3 -0.005531 -0.005265 0.016529 0.000000 -0.002954 0.000000
# 4 0.000000 0.000000 0.000000 0.028068 0.000000 -0.009138
# 5 -0.004159 -0.000983 -0.002954 0.000000 0.023665 0.000000
# 6 0.000000 0.000000 0.000000 -0.009138 0.000000 0.036125
#
#
# Mechanical properties :
#
#
# Convention : Reuss Voigt Hill
#
# Bulk Modulus (GPa) = 42.58055 49.67102 46.12579
# Shear Modulus (GPa) = 28.97766 33.20053 31.08910
#
# Velocity S-wave (km/s) = 3.65884 3.91638 3.78980
# Velocity P-wave (km/s) = 6.12543 6.58769 6.36076
#
# Compressibility (1/GPa) = 0.02348490
#
# Stress axis : x y z
#
# Youngs Moduli (GPa) = 51.98300 69.41325 60.50112
#
# Poissons Ratio (x) = 0.17680 0.33464
# Poissons Ratio (y) = 0.13241 0.31856
# Poissons Ratio (z) = 0.28753 0.36549
#
# Static dielectric constant tensor:
#      x y z
#    x 3.867870 0.000000 0.264950 
#    y 0.000000 3.923820 0.000000 
#    z 0.264950 0.000000 4.126840 
# 
# 
# High freq. dielectric constant tensor:
#      x y z
#    x 1.847740 0.000000 0.017540 
#    y 0.000000 1.845090 0.000000 
#    z 0.017540 0.000000 1.863890 
# 
# From -- ./inp_files/34348.got.cif
#   From: 2010.06.25/outbox.cif.g09.slc.cpg/sg15_18_cif.got.tgz:34348.got - 2010.06.28 07:06:18.
