data_PCOD8147245
_publ_section_title
;
Structure prediction by ZEFSAII (Michael W. Deem and Ramdas Pophale) SiO2 
 PCOD8147245
Probable space group: C 2/C
;
_chemical_formula_sum "Si O2"
_cell_formula_units_Z 48
_cell_length_a 16.131176
_cell_length_b 11.204836
_cell_length_c 13.778328
_cell_angle_alpha 90.000000
_cell_angle_beta 67.130871
_cell_angle_gamma 90.000000
_cell_volume 2294.636367
_symmetry_space_group_name_H-M "C 2/C"
_symmetry_group_IT_number 15
_symmetry_cell_setting 'monoclinic'
loop_
_space_group_symop_operation_xyz
x,y,z
-x,y,1/2-z
-x,-y,-z
x,-y,1/2+z
1/2+x,1/2+y,z
1/2-x,1/2+y,1/2-z
1/2-x,1/2-y,-z
1/2+x,1/2-y,1/2+z
loop_
_atom_site_type_symbol
_atom_site_label
_atom_site_fract_x
_atom_site_fract_y
_atom_site_fract_z
Si Si1 0.105057 0.023702 0.969334
Si Si2 0.623916 0.303368 0.293993
Si Si3 0.864934 0.567467 0.575210
Si Si4 0.165023 0.977539 0.655385
Si Si5 0.688080 0.687165 0.319657
Si Si6 0.992831 0.587893 0.146108
O O1 0.121341 0.057479 0.073441
O O2 0.138704 0.138023 0.893044
O O3 0.165861 0.909678 0.912960
O O4 0.000000 0.000000 0.000000
O O5 0.611386 0.409719 0.222664
O O6 0.705931 0.215362 0.229335
O O7 0.533007 0.227099 0.333780
O O8 0.768158 0.514490 0.597418
O O9 0.865306 0.692361 0.632028
O O10 0.916744 0.476380 0.619416
O O11 0.911171 0.580764 0.449621
O O12 0.155500 0.863611 0.730626
O O13 0.000000 0.530603 0.250000
#
# Coordination Sequence:
#
# PCOD8147245 Si02
#       6
#     8   8   8   8   8   8
#     4  11  25  42  63  95 127 166 217 264 313 378
#     4  10  23  40  65  93 126 166 213 264 309 383
#     4  10  23  43  63  98 125 166 211 261 315 380
#     4  10  23  42  67  90 128 169 211 260 322 368
#     4  10  22  43  65  92 128 162 216 258 315 383
#     4  11  24  41  67  93 130 163 211 261 317 377
#
# _framework density 20.918347000000001
#
# number of rings (size 3 to 8) (size 9 to 14) (size 15 to 20)
#    0.000    1.667    1.667    1.000    7.000    4.000 
#    9.000    0.000    0.000    0.000    0.000    0.000 
#    0.000    0.000    0.000    0.000    0.000    0.000 
#
# Total GULP energy -297671.900193 kJ/mol
# GULP energy per Si atom -12402.995841 kJ/mol
# Density = 2.087074 g / cm^3
# Si number density = 20.918347 Si / 1000 Ang^3
#
#
#
# Elastic Constant Matrix: (Units=GPa)
#
#
# Indices 1 2 3 4 5 6 
#
# 1 70.2615 18.3982 46.9185 0.0000 9.3608 0.0000
# 2 18.3982 70.0248 38.5192 0.0000 -8.5415 0.0000
# 3 46.9185 38.5192 151.9699 0.0000 14.2117 0.0000
# 4 0.0000 0.0000 0.0000 30.1937 0.0000 -4.3636
# 5 9.3608 -8.5415 14.2117 0.0000 29.1817 0.0000
# 6 0.0000 0.0000 0.0000 -4.3636 0.0000 15.4041
#
#
#
# Elastic Compliance Matrix: (Units=1/GPa)
#
#
# Indices 1 2 3 4 5 6 
#
# 1 0.018685 -0.002949 -0.004589 0.000000 -0.004622 0.000000
# 2 -0.002949 0.018658 -0.004629 0.000000 0.008661 0.000000
# 3 -0.004589 -0.004629 0.009596 0.000000 -0.004556 0.000000
# 4 0.000000 0.000000 0.000000 0.034533 0.000000 0.009782
# 5 -0.004622 0.008661 -0.004556 0.000000 0.040505 0.000000
# 6 0.000000 0.000000 0.000000 0.009782 0.000000 0.067689
#
#
# Mechanical properties :
#
#
# Convention : Reuss Voigt Hill
#
# Bulk Modulus (GPa) = 44.23548 55.54754 49.89151
# Shear Modulus (GPa) = 22.56984 27.51726 25.04355
#
# Velocity S-wave (km/s) = 3.28830 3.63086 3.46382
# Velocity P-wave (km/s) = 5.96740 6.64753 6.31663
#
# Compressibility (1/GPa) = 0.02260629
#
# Stress axis : x y z
#
# Youngs Moduli (GPa) = 53.51921 53.59599 104.20568
#
# Poissons Ratio (x) = 0.15804 0.47821
# Poissons Ratio (y) = 0.15781 0.48235
# Poissons Ratio (z) = 0.24560 0.24809
#
# Static dielectric constant tensor:
#      x y z
#    x 3.570910 0.000000 -0.183480 
#    y 0.000000 3.869570 0.000000 
#    z -0.183480 0.000000 4.108840 
# 
# 
# High freq. dielectric constant tensor:
#      x y z
#    x 1.808890 0.000000 -0.011850 
#    y 0.000000 1.822140 0.000000 
#    z -0.011850 0.000000 1.838280 
# 
# From -- ./inp_files/151825.got.cif
#   From: 2010.06.25/outbox.cif.g09.slc.cpg/sg15_76_cif.got.tgz:151825.got - 2010.06.28 07:06:18.
