data_PCOD8147459
_publ_section_title
;
Structure prediction by ZEFSAII (Michael W. Deem and Ramdas Pophale) SiO2 
 PCOD8147459
Probable space group: C 2/C
;
_chemical_formula_sum "Si O2"
_cell_formula_units_Z 32
_cell_length_a 21.072717
_cell_length_b 12.099840
_cell_length_c 14.951771
_cell_angle_alpha 90.000000
_cell_angle_beta 18.860345
_cell_angle_gamma 90.000000
_cell_volume 1232.390061
_symmetry_space_group_name_H-M "C 2/C"
_symmetry_group_IT_number 15
_symmetry_cell_setting 'monoclinic'
loop_
_space_group_symop_operation_xyz
x,y,z
-x,y,1/2-z
-x,-y,-z
x,-y,1/2+z
1/2+x,1/2+y,z
1/2-x,1/2+y,1/2-z
1/2-x,1/2-y,-z
1/2+x,1/2-y,1/2+z
loop_
_atom_site_type_symbol
_atom_site_label
_atom_site_fract_x
_atom_site_fract_y
_atom_site_fract_z
Si Si1 0.527807 0.729516 0.610603
Si Si2 0.634580 0.623422 0.834219
Si Si3 0.981457 0.467081 0.627889
Si Si4 0.344971 0.630444 0.377160
O O1 0.500000 0.694582 0.750000
O O2 0.456413 0.628562 0.644244
O O3 0.757598 0.759792 0.284847
O O4 0.403257 0.841098 0.750722
O O5 0.798955 0.526280 0.621284
O O6 0.455499 0.600346 0.138543
O O7 0.000000 0.500000 0.500000
O O8 0.834123 0.546906 0.874213
O O9 0.500000 0.620348 0.250000
O O10 0.250000 0.750000 0.500000
#
# Coordination Sequence:
#
# PCOD8147459 Si02
#       4
#     8   8   8   8
#     4  10  22  45  80 116 158 211 270 331 409 482
#     4  10  22  43  81 115 155 208 268 335 399 487
#     4  10  22  43  75 116 165 208 263 331 412 493
#     4  12  23  44  80 117 158 212 267 337 407 483
#
# _framework density 25.965803999999999
#
# number of rings (size 3 to 8) (size 9 to 14) (size 15 to 20)
#    1.500    0.000    2.500    3.750    0.000    1.000 
#    0.000    7.500    0.000    1.500    0.000    0.000 
#    0.000    0.000    0.000    0.000    0.000    0.000 
#
# Total GULP energy -198261.068130 kJ/mol
# GULP energy per Si atom -12391.316758 kJ/mol
# Density = 2.590670 g / cm^3
# Si number density = 25.965804 Si / 1000 Ang^3
#
#
#
# Elastic Constant Matrix: (Units=GPa)
#
#
# Indices 1 2 3 4 5 6 
#
# 1 228.5643 73.2571 98.3904 -0.0019 16.9731 0.0014
# 2 73.2571 95.3763 75.2491 -0.0035 -5.0791 0.0011
# 3 98.3904 75.2491 219.7437 -0.0042 15.9356 0.0015
# 4 -0.0019 -0.0035 -0.0042 39.8336 0.0025 -32.4941
# 5 16.9731 -5.0791 15.9356 0.0025 41.2268 -0.0019
# 6 0.0014 0.0011 0.0015 -32.4941 -0.0019 28.7156
#
#
#
# Elastic Compliance Matrix: (Units=1/GPa)
#
#
# Indices 1 2 3 4 5 6 
#
# 1 0.006430 -0.004055 -0.001299 -0.000003 -0.002645 -0.000004
# 2 -0.004055 0.017519 -0.004590 0.000008 0.005602 0.000009
# 3 -0.001299 -0.004590 0.006900 0.000003 -0.002698 0.000003
# 4 -0.000003 0.000008 0.000003 0.326406 -0.000002 0.369357
# 5 -0.002645 0.005602 -0.002698 -0.000002 0.027078 -0.000001
# 6 -0.000004 0.000009 0.000003 0.369357 -0.000001 0.452784
#
#
# Mechanical properties :
#
#
# Convention : Reuss Voigt Hill
#
# Bulk Modulus (GPa) = 91.22749 115.27526 103.25138
# Shear Modulus (GPa) = 5.80951 41.74104 23.77527
#
# Velocity S-wave (km/s) = 1.49741 4.01376 3.02923
# Velocity P-wave (km/s) = 6.18058 8.12230 7.21704
#
# Compressibility (1/GPa) = 0.01096161
#
# Stress axis : x y z
#
# Youngs Moduli (GPa) = 155.51216 57.08059 144.93613
#
# Poissons Ratio (x) = 0.23148 0.18823
# Poissons Ratio (y) = 0.63065 0.66522
# Poissons Ratio (z) = 0.20196 0.26198
#
# Static dielectric constant tensor:
#      x y z
#    x 4.706500 0.000000 -0.188880 
#    y 0.000000 4.424840 0.000010 
#    z -0.188880 0.000010 4.930300 
# 
# 
# High freq. dielectric constant tensor:
#      x y z
#    x 2.050150 0.000000 -0.009380 
#    y 0.000000 2.025940 0.000000 
#    z -0.009380 0.000000 2.056300 
# 
# From -- ./inp_files/168591.got.cif
#   From: 2010.06.25/outbox.cif.g09.slc.cpg/sg15_85_cif.got.tgz:168591.got - 2010.06.28 07:06:18.
