data_PCOD8147211
_publ_section_title
;
Structure prediction by ZEFSAII (Michael W. Deem and Ramdas Pophale) SiO2 
 PCOD8147211
Probable space group: C 2/C
;
_chemical_formula_sum "Si O2"
_cell_formula_units_Z 36
_cell_length_a 24.510680
_cell_length_b 11.791852
_cell_length_c 13.092579
_cell_angle_alpha 90.000000
_cell_angle_beta 25.742323
_cell_angle_gamma 90.000000
_cell_volume 1643.527522
_symmetry_space_group_name_H-M "C 2/C"
_symmetry_group_IT_number 15
_symmetry_cell_setting 'monoclinic'
loop_
_space_group_symop_operation_xyz
x,y,z
-x,y,1/2-z
-x,-y,-z
x,-y,1/2+z
1/2+x,1/2+y,z
1/2-x,1/2+y,1/2-z
1/2-x,1/2-y,-z
1/2+x,1/2-y,1/2+z
loop_
_atom_site_type_symbol
_atom_site_label
_atom_site_fract_x
_atom_site_fract_y
_atom_site_fract_z
Si Si1 0.859930 0.531904 0.343474
Si Si2 0.500000 0.419910 0.250000
Si Si3 0.679119 0.430403 0.309046
Si Si4 0.380126 0.115924 0.622053
Si Si5 0.909585 0.778396 0.222183
O O1 0.777929 0.491701 0.578380
O O2 0.822245 0.447065 0.317308
O O3 0.818100 0.665262 0.386341
O O4 0.010229 0.532761 0.110825
O O5 0.417581 0.495453 0.464873
O O6 0.408264 0.346101 0.332155
O O7 0.766517 0.357315 0.237460
O O8 0.606869 0.350566 0.352198
O O9 0.446757 0.234090 0.536454
#
# Coordination Sequence:
#
# PCOD8147211 Si02
#       5
#     8   4   8   8   8
#     4   9  20  43  67  91 121 155 209 262 304 359
#     4  12  26  40  58  92 130 172 200 244 306 378
#     4  12  22  39  63  91 129 167 200 251 303 372
#     4   9  21  40  70  94 117 154 212 258 311 355
#     4  10  22  43  64  92 121 164 210 248 314 362
#
# _framework density 21.904105000000001
#
# number of rings (size 3 to 8) (size 9 to 14) (size 15 to 20)
#    1.333    0.444    0.000    4.667    0.000    1.778 
#    0.000    8.889    0.000    0.000    0.000    0.000 
#    0.000    0.000    0.000    0.000    0.000    0.000 
#
# Total GULP energy -223011.093166 kJ/mol
# GULP energy per Si atom -12389.505176 kJ/mol
# Density = 2.185425 g / cm^3
# Si number density = 21.904105 Si / 1000 Ang^3
#
#
#
# Elastic Constant Matrix: (Units=GPa)
#
#
# Indices 1 2 3 4 5 6 
#
# 1 174.8131 59.4720 40.3661 0.0000 4.3240 0.0000
# 2 59.4720 77.1532 42.9711 0.0000 18.9310 0.0000
# 3 40.3661 42.9711 125.3350 0.0000 25.3748 0.0000
# 4 0.0000 0.0000 0.0000 26.3392 0.0000 3.5458
# 5 4.3240 18.9310 25.3748 0.0000 24.1815 0.0000
# 6 0.0000 0.0000 0.0000 3.5458 0.0000 34.0597
#
#
#
# Elastic Compliance Matrix: (Units=1/GPa)
#
#
# Indices 1 2 3 4 5 6 
#
# 1 0.008260 -0.006922 -0.001378 0.000000 0.005388 0.000000
# 2 -0.006922 0.023367 -0.002958 0.000000 -0.013952 0.000000
# 3 -0.001378 -0.002958 0.011323 0.000000 -0.009320 0.000000
# 4 0.000000 0.000000 0.000000 0.038506 0.000000 -0.004009
# 5 0.005388 -0.013952 -0.009320 0.000000 0.061094 0.000000
# 6 0.000000 0.000000 0.000000 -0.004009 0.000000 0.029778
#
#
# Mechanical properties :
#
#
# Convention : Reuss Voigt Hill
#
# Bulk Modulus (GPa) = 48.93193 73.65775 61.29484
# Shear Modulus (GPa) = 24.79489 32.54889 28.67189
#
# Velocity S-wave (km/s) = 3.36813 3.85901 3.62190
# Velocity P-wave (km/s) = 6.12482 7.31822 6.74795
#
# Compressibility (1/GPa) = 0.02043655
#
# Stress axis : x y z
#
# Youngs Moduli (GPa) = 121.06436 42.79483 88.31300
#
# Poissons Ratio (x) = 0.29621 0.12169
# Poissons Ratio (y) = 0.83796 0.26119
# Poissons Ratio (z) = 0.16682 0.12657
#
# Static dielectric constant tensor:
#      x y z
#    x 3.971430 0.000000 -0.065520 
#    y 0.000000 3.661910 0.000000 
#    z -0.065520 0.000000 4.001030 
# 
# 
# High freq. dielectric constant tensor:
#      x y z
#    x 1.872370 0.000000 -0.006520 
#    y 0.000000 1.827650 0.000000 
#    z -0.006520 0.000000 1.866940 
# 
# From -- ./inp_files/118459.got.cif
#   From: 2010.06.25/outbox.cif.g09.slc.cpg/sg15_60_cif.got.tgz:118459.got - 2010.06.28 07:06:18.
