data_PCOD8147838
_publ_section_title
;
Structure prediction by ZEFSAII (Michael W. Deem and Ramdas Pophale) SiO2 
 PCOD8147838
Probable space group: C 2/C
;
_chemical_formula_sum "Si O2"
_cell_formula_units_Z 48
_cell_length_a 25.509350
_cell_length_b 10.881011
_cell_length_c 20.888947
_cell_angle_alpha 90.000000
_cell_angle_beta 21.280132
_cell_angle_gamma 90.000000
_cell_volume 2104.291133
_symmetry_space_group_name_H-M "C 2/C"
_symmetry_group_IT_number 15
_symmetry_cell_setting 'monoclinic'
loop_
_space_group_symop_operation_xyz
x,y,z
-x,y,1/2-z
-x,-y,-z
x,-y,1/2+z
1/2+x,1/2+y,z
1/2-x,1/2+y,1/2-z
1/2-x,1/2-y,-z
1/2+x,1/2-y,1/2+z
loop_
_atom_site_type_symbol
_atom_site_label
_atom_site_fract_x
_atom_site_fract_y
_atom_site_fract_z
Si Si1 0.928169 0.762391 0.656398
Si Si2 0.686456 0.113434 0.361848
Si Si3 0.016857 0.960871 0.805398
Si Si4 0.284133 0.873295 0.998791
Si Si5 0.498836 0.055111 0.346491
Si Si6 0.708493 0.002912 0.704992
O O1 0.848966 0.848484 0.694440
O O2 0.940377 0.833081 0.709806
O O3 0.833876 0.638882 0.771040
O O4 0.090867 0.730742 0.447053
O O5 0.600373 0.062682 0.522219
O O6 0.693184 0.011416 0.298623
O O7 0.000000 0.933895 0.750000
O O8 0.136037 0.062648 0.686084
O O9 0.871220 0.021837 0.998609
O O10 0.379113 0.967641 0.847127
O O11 0.382745 0.845190 0.950457
O O12 0.250000 0.750000 0.000000
O O13 0.594239 0.092092 0.300766
#
# Coordination Sequence:
#
# PCOD8147838 Si02
#       6
#     8   8   8   8   8   8
#     4  11  23  48  72 105 141 187 239 299 359 423
#     4  11  24  49  71 105 143 185 243 291 366 427
#     4  12  25  47  69 107 142 184 248 297 352 439
#     4  11  25  45  69 101 145 185 236 294 359 425
#     4  10  22  45  70  96 143 187 228 294 351 429
#     4  11  25  48  70 104 147 184 240 298 357 437
#
# _framework density 22.810531999999998
#
# number of rings (size 3 to 8) (size 9 to 14) (size 15 to 20)
#    0.000    1.000    5.000    2.000    2.333    1.333 
#   24.000    0.000    0.000    0.000    0.000    0.000 
#    0.000    0.000    0.000    0.000    0.000    0.000 
#
# Total GULP energy -297325.570984 kJ/mol
# GULP energy per Si atom -12388.565458 kJ/mol
# Density = 2.275861 g / cm^3
# Si number density = 22.810532 Si / 1000 Ang^3
#
#
#
# Elastic Constant Matrix: (Units=GPa)
#
#
# Indices 1 2 3 4 5 6 
#
# 1 155.0737 57.8007 70.3633 0.0007 -25.5026 -0.0003
# 2 57.8007 87.9908 49.4060 0.0007 -4.7634 -0.0004
# 3 70.3633 49.4060 118.5629 0.0013 -17.3788 -0.0006
# 4 0.0007 0.0007 0.0013 21.6967 -0.0010 2.3530
# 5 -25.5026 -4.7634 -17.3788 -0.0010 40.4141 0.0004
# 6 -0.0003 -0.0004 -0.0006 2.3530 0.0004 40.3077
#
#
#
# Elastic Compliance Matrix: (Units=1/GPa)
#
#
# Indices 1 2 3 4 5 6 
#
# 1 0.010604 -0.004648 -0.003688 0.000000 0.004558 0.000000
# 2 -0.004648 0.016909 -0.004723 0.000000 -0.002971 0.000000
# 3 -0.003688 -0.004723 0.012987 0.000000 0.002701 0.000000
# 4 0.000000 0.000000 0.000000 0.046384 0.000001 -0.002708
# 5 0.004558 -0.002971 0.002701 0.000001 0.028431 0.000000
# 6 0.000000 0.000000 0.000000 -0.002708 0.000000 0.024967
#
#
# Mechanical properties :
#
#
# Convention : Reuss Voigt Hill
#
# Bulk Modulus (GPa) = 69.53376 79.64084 74.58730
# Shear Modulus (GPa) = 29.20636 32.75418 30.98027
#
# Velocity S-wave (km/s) = 3.58213 3.79347 3.68932
# Velocity P-wave (km/s) = 6.90350 7.36051 7.13566
#
# Compressibility (1/GPa) = 0.01438150
#
# Stress axis : x y z
#
# Youngs Moduli (GPa) = 94.30344 59.13880 76.99866
#
# Poissons Ratio (x) = 0.27488 0.28399
# Poissons Ratio (y) = 0.43833 0.36368
# Poissons Ratio (z) = 0.34781 0.27933
#
# Static dielectric constant tensor:
#      x y z
#    x 4.661420 0.000000 -0.456600 
#    y 0.000000 3.759030 0.000000 
#    z -0.456600 0.000000 4.341830 
# 
# 
# High freq. dielectric constant tensor:
#      x y z
#    x 1.920860 0.000000 -0.030800 
#    y 0.000000 1.860240 0.000000 
#    z -0.030800 0.000000 1.909300 
# 
# From -- ./inp_files/257595.got.cif
#   From: 2010.06.25/outbox.cif.g09.slc.cpg/sg15_129_cif.got.tgz:257595.got - 2010.06.28 07:06:18.
