data_PCOD8147711
_publ_section_title
;
Structure prediction by ZEFSAII (Michael W. Deem and Ramdas Pophale) SiO2 
 PCOD8147711
Probable space group: C 2/C
;
_chemical_formula_sum "Si O2"
_cell_formula_units_Z 36
_cell_length_a 6.978818
_cell_length_b 9.964098
_cell_length_c 26.143295
_cell_angle_alpha 90.000000
_cell_angle_beta 52.477361
_cell_angle_gamma 90.000000
_cell_volume 1441.833505
_symmetry_space_group_name_H-M "C 2/C"
_symmetry_group_IT_number 15
_symmetry_cell_setting 'monoclinic'
loop_
_space_group_symop_operation_xyz
x,y,z
-x,y,1/2-z
-x,-y,-z
x,-y,1/2+z
1/2+x,1/2+y,z
1/2-x,1/2+y,1/2-z
1/2-x,1/2-y,-z
1/2+x,1/2-y,1/2+z
loop_
_atom_site_type_symbol
_atom_site_label
_atom_site_fract_x
_atom_site_fract_y
_atom_site_fract_z
Si Si1 0.857365 0.020975 0.445784
Si Si2 0.520171 0.285669 0.143199
Si Si3 0.500000 0.767228 0.250000
Si Si4 0.869569 0.509571 0.415298
Si Si5 0.076169 0.241988 0.347995
O O1 0.824854 0.899620 0.410514
O O2 0.101801 0.004462 0.437405
O O3 0.635916 0.020331 0.522319
O O4 0.874486 0.161823 0.413186
O O5 0.654142 0.232696 0.172655
O O6 0.251129 0.347114 0.197775
O O7 0.497679 0.153143 0.111573
O O8 0.566404 0.685139 0.291130
O O9 0.016001 0.399530 0.359519
#
# Coordination Sequence:
#
# PCOD8147711 Si02
#       5
#     8   8   4   8   8
#     4  10  22  44  71 103 136 168 220 280 335 395
#     4  11  25  44  68 101 130 179 222 269 336 395
#     4  12  26  48  64  92 144 176 222 280 320 386
#     4  10  22  44  71 103 136 168 220 280 335 395
#     4  11  25  44  68 101 130 179 222 269 336 395
#
# _framework density 24.968205999999999
#
# number of rings (size 3 to 8) (size 9 to 14) (size 15 to 20)
#    0.000    1.333    2.222    2.000    3.111    2.667 
#    0.000    0.000    0.000    0.000    0.000    0.000 
#    0.000    0.000    0.000    0.000    0.000    0.000 
#
# Total GULP energy -223046.782862 kJ/mol
# GULP energy per Si atom -12391.487937 kJ/mol
# Density = 2.491138 g / cm^3
# Si number density = 24.968206 Si / 1000 Ang^3
#
#
#
# Elastic Constant Matrix: (Units=GPa)
#
#
# Indices 1 2 3 4 5 6 
#
# 1 100.1254 14.3858 64.2644 -0.0001 22.9382 0.0000
# 2 14.3858 113.4596 25.1569 0.0000 -2.3737 0.0000
# 3 64.2644 25.1569 138.3280 -0.0003 13.7155 0.0001
# 4 -0.0001 0.0000 -0.0003 16.6338 0.0001 4.5726
# 5 22.9382 -2.3737 13.7155 0.0001 49.8466 -0.0001
# 6 0.0000 0.0000 0.0001 4.5726 -0.0001 21.0371
#
#
#
# Elastic Compliance Matrix: (Units=1/GPa)
#
#
# Indices 1 2 3 4 5 6 
#
# 1 0.015520 -0.000624 -0.006565 0.000000 -0.005365 0.000000
# 2 -0.000624 0.009251 -0.001505 0.000000 0.001142 0.000000
# 3 -0.006565 -0.001505 0.010548 0.000000 0.000047 0.000000
# 4 0.000000 0.000000 0.000000 0.063939 0.000000 -0.013898
# 5 -0.005365 0.001142 0.000047 0.000000 0.022572 0.000000
# 6 0.000000 0.000000 0.000000 -0.013898 0.000000 0.050556
#
#
# Mechanical properties :
#
#
# Convention : Reuss Voigt Hill
#
# Bulk Modulus (GPa) = 55.77451 62.16967 58.97209
# Shear Modulus (GPa) = 25.54261 34.04389 29.79325
#
# Velocity S-wave (km/s) = 3.20192 3.69655 3.45809
# Velocity P-wave (km/s) = 6.00470 6.57061 6.29402
#
# Compressibility (1/GPa) = 0.01792934
#
# Stress axis : x y z
#
# Youngs Moduli (GPa) = 64.43383 108.10127 94.80347
#
# Poissons Ratio (x) = 0.06751 0.62235
# Poissons Ratio (y) = 0.04024 0.14272
# Poissons Ratio (z) = 0.42298 0.16274
#
# Static dielectric constant tensor:
#      x y z
#    x 4.691710 0.000000 0.326550 
#    y 0.000000 4.079420 0.000000 
#    z 0.326550 0.000000 4.679400 
# 
# 
# High freq. dielectric constant tensor:
#      x y z
#    x 2.022850 0.000000 0.011050 
#    y 0.000000 1.957680 0.000000 
#    z 0.011050 0.000000 1.993250 
# 
# From -- ./inp_files/306412.got.cif
#   From: 2010.06.25/outbox.cif.g09.slc.cpg/sg15_154_cif.got.tgz:306412.got - 2010.06.28 07:06:18.
