data_PCOD8147191
_publ_section_title
;
Structure prediction by ZEFSAII (Michael W. Deem and Ramdas Pophale) SiO2 
 PCOD8147191
Probable space group: C 2/C
;
_chemical_formula_sum "Si O2"
_cell_formula_units_Z 40
_cell_length_a 13.079170
_cell_length_b 17.745795
_cell_length_c 8.842150
_cell_angle_alpha 90.000000
_cell_angle_beta 116.724495
_cell_angle_gamma 90.000000
_cell_volume 1833.040797
_symmetry_space_group_name_H-M "C 2/C"
_symmetry_group_IT_number 15
_symmetry_cell_setting 'monoclinic'
loop_
_space_group_symop_operation_xyz
x,y,z
-x,y,1/2-z
-x,-y,-z
x,-y,1/2+z
1/2+x,1/2+y,z
1/2-x,1/2+y,1/2-z
1/2-x,1/2-y,-z
1/2+x,1/2-y,1/2+z
loop_
_atom_site_type_symbol
_atom_site_label
_atom_site_fract_x
_atom_site_fract_y
_atom_site_fract_z
Si Si1 0.457020 0.826616 0.974068
Si Si2 0.878294 0.064254 0.216843
Si Si3 0.824059 0.322135 0.588084
Si Si4 0.500000 0.707671 0.250000
Si Si5 0.762441 0.519970 0.097982
Si Si6 0.500000 0.050318 0.750000
O O1 0.445849 0.756298 0.079581
O O2 0.463014 0.901756 0.079008
O O3 0.350320 0.827464 0.786778
O O4 0.567219 0.816334 0.945172
O O5 0.897857 0.154466 0.247712
O O6 0.829741 0.024682 0.331350
O O7 0.000000 0.025807 0.250000
O O8 0.781769 0.050453 0.027148
O O9 0.750000 0.250000 0.500000
O O10 0.759106 0.400274 0.505380
O O11 0.894233 0.502637 0.232606
#
# Coordination Sequence:
#
# PCOD8147191 Si02
#       6
#     8   8   8   4   8   4
#     4  10  22  43  62  95 132 166 215 259 318 389
#     4  10  24  42  66  95 128 169 213 265 320 379
#     4  11  24  40  64  93 130 172 210 263 321 380
#     4   9  22  42  66  91 128 172 216 261 318 380
#     4  12  23  43  65  99 128 166 216 265 326 380
#     4  11  24  40  72  97 130 168 212 273 322 382
#
# _framework density 21.821662
#
# number of rings (size 3 to 8) (size 9 to 14) (size 15 to 20)
#    0.600    0.800    0.000    5.400    0.000    5.600 
#    3.600    5.000    0.000    0.000    0.000    0.000 
#    0.000    0.000    0.000    0.000    0.000    0.000 
#
# Total GULP energy -247895.468374 kJ/mol
# GULP energy per Si atom -12394.773419 kJ/mol
# Density = 2.177199 g / cm^3
# Si number density = 21.821662 Si / 1000 Ang^3
#
#
#
# Elastic Constant Matrix: (Units=GPa)
#
#
# Indices 1 2 3 4 5 6 
#
# 1 61.6516 22.4211 6.3020 0.0000 21.8453 0.0000
# 2 22.4211 124.6588 32.5619 0.0000 9.2547 0.0000
# 3 6.3020 32.5619 79.1670 0.0000 -0.3969 0.0000
# 4 0.0000 0.0000 0.0000 34.5697 0.0000 0.4135
# 5 21.8453 9.2547 -0.3969 0.0000 27.4581 0.0000
# 6 0.0000 0.0000 0.0000 0.4135 0.0000 45.9581
#
#
#
# Elastic Compliance Matrix: (Units=1/GPa)
#
#
# Indices 1 2 3 4 5 6 
#
# 1 0.023634 -0.002696 -0.000862 0.000000 -0.017906 0.000000
# 2 -0.002696 0.009564 -0.003725 0.000000 -0.001132 0.000000
# 3 -0.000862 -0.003725 0.014243 0.000000 0.002147 0.000000
# 4 0.000000 0.000000 0.000000 0.028930 0.000000 -0.000260
# 5 -0.017906 -0.001132 0.002147 0.000000 0.051078 0.000000
# 6 0.000000 0.000000 0.000000 -0.000260 0.000000 0.021761
#
#
# Mechanical properties :
#
#
# Convention : Reuss Voigt Hill
#
# Bulk Modulus (GPa) = 30.41883 43.11638 36.76760
# Shear Modulus (GPa) = 28.61492 35.21000 31.91246
#
# Velocity S-wave (km/s) = 3.62513 4.02124 3.82831
# Velocity P-wave (km/s) = 5.61178 6.43132 6.03548
#
# Compressibility (1/GPa) = 0.03287438
#
# Stress axis : x y z
#
# Youngs Moduli (GPa) = 42.31244 104.56081 70.21030
#
# Poissons Ratio (x) = 0.28191 0.06053
# Poissons Ratio (y) = 0.11408 0.26151
# Poissons Ratio (z) = 0.03648 0.38946
#
# Static dielectric constant tensor:
#      x y z
#    x 4.136500 0.000000 -0.427160 
#    y 0.000000 3.952440 0.000000 
#    z -0.427160 0.000000 5.016150 
# 
# 
# High freq. dielectric constant tensor:
#      x y z
#    x 1.871210 0.000000 -0.009060 
#    y 0.000000 1.861190 0.000000 
#    z -0.009060 0.000000 1.849130 
# 
# From -- ./inp_files/39441.got.cif
#   From: 2010.06.25/outbox.cif.g09.slc.cpg/sg15_20_cif.got.tgz:39441.got - 2010.06.28 07:06:18.
