data_PCOD8147861
_publ_section_title
;
Structure prediction by ZEFSAII (Michael W. Deem and Ramdas Pophale) SiO2 
 PCOD8147861
Probable space group: C 2/C
;
_chemical_formula_sum "Si O2"
_cell_formula_units_Z 56
_cell_length_a 12.230628
_cell_length_b 8.445758
_cell_length_c 28.177227
_cell_angle_alpha 90.000000
_cell_angle_beta 60.208021
_cell_angle_gamma 90.000000
_cell_volume 2525.938726
_symmetry_space_group_name_H-M "C 2/C"
_symmetry_group_IT_number 15
_symmetry_cell_setting 'monoclinic'
loop_
_space_group_symop_operation_xyz
x,y,z
-x,y,1/2-z
-x,-y,-z
x,-y,1/2+z
1/2+x,1/2+y,z
1/2-x,1/2+y,1/2-z
1/2-x,1/2-y,-z
1/2+x,1/2-y,1/2+z
loop_
_atom_site_type_symbol
_atom_site_label
_atom_site_fract_x
_atom_site_fract_y
_atom_site_fract_z
Si Si1 0.225778 0.499420 0.416987
Si Si2 0.476782 0.284827 0.867591
Si Si3 0.584171 0.031138 0.775013
Si Si4 0.800542 0.356906 0.909257
Si Si5 0.172078 0.598135 0.527352
Si Si6 0.083935 0.656295 0.366691
Si Si7 0.796294 0.983705 0.159715
O O1 0.357161 0.598708 0.384943
O O2 0.242284 0.312001 0.413917
O O3 0.140364 0.533578 0.481800
O O4 0.143617 0.526822 0.388314
O O5 0.517889 0.188203 0.811397
O O6 0.447272 0.152622 0.914468
O O7 0.596510 0.386006 0.856861
O O8 0.500000 0.965893 0.750000
O O9 0.722893 0.062392 0.723585
O O10 0.609359 0.891154 0.806870
O O11 0.738747 0.471915 0.962801
O O12 0.800996 0.454270 0.859664
O O13 0.935436 0.334954 0.904939
O O14 0.250000 0.750000 0.500000
O O15 0.139643 0.823104 0.371174
#
# Coordination Sequence:
#
# PCOD8147861 Si02
#       7
#     8   8   8   8   8   8   8
#     4  11  25  46  73 104 144 186 235 290 354 420
#     4  11  23  45  73 105 143 185 236 291 351 423
#     4  12  23  45  70  99 142 183 233 295 352 410
#     4  12  24  47  71 104 143 186 237 289 348 425
#     4  10  22  45  72 105 143 187 234 289 354 416
#     4  12  25  46  72 103 141 185 236 291 351 419
#     4  12  25  45  71 103 144 184 237 296 348 417
#
# _framework density 22.169975999999998
#
# number of rings (size 3 to 8) (size 9 to 14) (size 15 to 20)
#    0.000    0.571    4.286    4.714    0.000    0.571 
#    2.571    2.857    0.000    0.000    0.000    0.000 
#    0.000    0.000    0.000    0.000    0.000    0.000 
#
# Total GULP energy -346965.709120 kJ/mol
# GULP energy per Si atom -12391.632469 kJ/mol
# Density = 2.211952 g / cm^3
# Si number density = 22.169976 Si / 1000 Ang^3
#
#
#
# Elastic Constant Matrix: (Units=GPa)
#
#
# Indices 1 2 3 4 5 6 
#
# 1 108.3478 53.5301 60.9077 0.0000 18.4153 0.0000
# 2 53.5301 168.8980 63.0897 0.0000 10.9788 0.0000
# 3 60.9077 63.0897 139.0846 0.0000 10.5481 0.0000
# 4 0.0000 0.0000 0.0000 39.5823 0.0000 2.5447
# 5 18.4153 10.9788 10.5481 0.0000 20.4809 0.0000
# 6 0.0000 0.0000 0.0000 2.5447 0.0000 56.7763
#
#
#
# Elastic Compliance Matrix: (Units=1/GPa)
#
#
# Indices 1 2 3 4 5 6 
#
# 1 0.014568 -0.002271 -0.004629 0.000000 -0.009497 0.000000
# 2 -0.002271 0.007583 -0.002385 0.000000 -0.000795 0.000000
# 3 -0.004629 -0.002385 0.010288 0.000000 0.000142 0.000000
# 4 0.000000 0.000000 0.000000 0.025337 0.000000 -0.001136
# 5 -0.009497 -0.000795 0.000142 0.000000 0.057718 0.000000
# 6 0.000000 0.000000 0.000000 -0.001136 0.000000 0.017664
#
#
# Mechanical properties :
#
#
# Convention : Reuss Voigt Hill
#
# Bulk Modulus (GPa) = 72.10238 85.70949 78.90593
# Shear Modulus (GPa) = 31.97932 39.28811 35.63371
#
# Velocity S-wave (km/s) = 3.80209 4.21424 4.01346
# Velocity P-wave (km/s) = 7.20192 7.90087 7.55948
#
# Compressibility (1/GPa) = 0.01386917
#
# Stress axis : x y z
#
# Youngs Moduli (GPa) = 68.64405 131.87507 97.19845
#
# Poissons Ratio (x) = 0.29943 0.44997
# Poissons Ratio (y) = 0.15586 0.23183
# Poissons Ratio (z) = 0.31778 0.31453
#
# Static dielectric constant tensor:
#      x y z
#    x 3.845790 0.000000 -0.467770 
#    y 0.000000 4.354960 0.000000 
#    z -0.467770 0.000000 4.493100 
# 
# 
# High freq. dielectric constant tensor:
#      x y z
#    x 1.869880 0.000000 0.006790 
#    y 0.000000 1.892530 0.000000 
#    z 0.006790 0.000000 1.877850 
# 
# From -- ./inp_files/291491.got.cif
#   From: 2010.06.25/outbox.cif.g09.slc.cpg/sg15_146_cif.got.tgz:291491.got - 2010.06.28 07:06:18.
