data_PCOD8147510
_publ_section_title
;
Structure prediction by ZEFSAII (Michael W. Deem and Ramdas Pophale) SiO2 
 PCOD8147510
Probable space group: C 2/C
;
_chemical_formula_sum "Si O2"
_cell_formula_units_Z 60
_cell_length_a 7.116857
_cell_length_b 16.437951
_cell_length_c 24.525581
_cell_angle_alpha 90.000000
_cell_angle_beta 89.351694
_cell_angle_gamma 90.000000
_cell_volume 2868.979357
_symmetry_space_group_name_H-M "C 2/C"
_symmetry_group_IT_number 15
_symmetry_cell_setting 'monoclinic'
loop_
_space_group_symop_operation_xyz
x,y,z
-x,y,1/2-z
-x,-y,-z
x,-y,1/2+z
1/2+x,1/2+y,z
1/2-x,1/2+y,1/2-z
1/2-x,1/2-y,-z
1/2+x,1/2-y,1/2+z
loop_
_atom_site_type_symbol
_atom_site_label
_atom_site_fract_x
_atom_site_fract_y
_atom_site_fract_z
Si Si1 0.000000 0.277503 0.250000
Si Si2 0.371269 0.429434 0.877134
Si Si3 0.384962 0.319215 0.977911
Si Si4 0.495885 0.400374 0.420162
Si Si5 0.153392 0.368801 0.148235
Si Si6 0.003370 0.470274 0.811891
Si Si7 0.292094 0.336906 0.673740
Si Si8 0.340875 0.219957 0.581780
O O1 0.878374 0.331844 0.291867
O O2 0.842354 0.222205 0.222986
O O3 0.313110 0.359923 0.921376
O O4 0.444564 0.506663 0.910397
O O5 0.208113 0.452969 0.835695
O O6 0.535837 0.397262 0.838219
O O7 0.587469 0.273707 0.969830
O O8 0.250000 0.250000 0.000000
O O9 0.396389 0.391039 0.022656
O O10 0.628017 0.365702 0.370927
O O11 0.304590 0.350847 0.429219
O O12 0.091809 0.463133 0.148646
O O13 0.030297 0.318048 0.106287
O O14 0.000000 0.504214 0.750000
O O15 0.891931 0.386406 0.810807
O O16 0.239027 0.282642 0.622215
#
# Coordination Sequence:
#
# PCOD8147510 Si02
#       8
#     4   8   8   8   8   8   8   8
#     4  10  22  44  64  96 134 174 220 280 336 388
#     4  11  25  44  67  98 135 173 222 276 329 402
#     4  11  24  44  69  99 135 176 220 281 339 398
#     4  12  23  43  69  95 133 180 221 268 340 397
#     4  11  22  42  66  97 137 172 222 275 326 399
#     4  12  24  42  69  98 131 174 223 274 332 395
#     4  10  23  41  64  92 132 168 215 276 329 388
#     4  10  23  42  65  98 133 170 216 277 332 397
#
# _framework density 20.913360999999998
#
# number of rings (size 3 to 8) (size 9 to 14) (size 15 to 20)
#    0.000    1.067    4.667    1.600    1.867    1.067 
#    0.000    6.000    0.000    0.000    0.000    0.000 
#    0.000    0.000    0.000    0.000    0.000    0.000 
#
# Total GULP energy -371952.325595 kJ/mol
# GULP energy per Si atom -12398.410853 kJ/mol
# Density = 2.086576 g / cm^3
# Si number density = 20.913361 Si / 1000 Ang^3
#
#
#
# Elastic Constant Matrix: (Units=GPa)
#
#
# Indices 1 2 3 4 5 6 
#
# 1 72.4559 27.6174 30.8545 0.0000 1.8182 0.0000
# 2 27.6174 93.4907 21.6164 0.0000 -1.6302 0.0000
# 3 30.8545 21.6164 86.5942 0.0000 -6.6059 0.0000
# 4 0.0000 0.0000 0.0000 -13.0268 0.0000 15.2947
# 5 1.8182 -1.6302 -6.6059 0.0000 23.8764 0.0000
# 6 0.0000 0.0000 0.0000 15.2947 0.0000 20.4147
#
#
#
# Elastic Compliance Matrix: (Units=1/GPa)
#
#
# Indices 1 2 3 4 5 6 
#
# 1 0.017788 -0.004021 -0.005576 0.000000 -0.003172 0.000000
# 2 -0.004021 0.012260 -0.001574 0.000000 0.000708 0.000000
# 3 -0.005576 -0.001574 0.014253 0.000000 0.004261 0.000000
# 4 0.000000 0.000000 0.000000 -0.040840 0.000000 0.030598
# 5 -0.003172 0.000708 0.004261 0.000000 0.043351 0.000000
# 6 0.000000 0.000000 0.000000 0.030598 0.000000 0.026061
#
#
# Mechanical properties :
#
#
# Convention : Reuss Voigt Hill
#
# Bulk Modulus (GPa) = 45.53850 45.85747 45.69798
# Shear Modulus (GPa) = 48.76392 17.74967 33.25680
#
# Velocity S-wave (km/s) = 4.83402 2.91645 3.99208
# Velocity P-wave (km/s) = 7.27867 5.77199 6.56867
#
# Compressibility (1/GPa) = 0.02195944
#
# Stress axis : x y z
#
# Youngs Moduli (GPa) = 56.21675 81.56463 70.16066
#
# Poissons Ratio (x) = 0.32794 0.39125
# Poissons Ratio (y) = 0.22603 0.11043
# Poissons Ratio (z) = 0.31349 0.12837
#
# Static dielectric constant tensor:
#      x y z
#    x 3.411640 0.000000 0.026260 
#    y 0.000000 3.929580 0.000000 
#    z 0.026260 0.000000 3.899490 
# 
# 
# High freq. dielectric constant tensor:
#      x y z
#    x 1.808280 0.000000 -0.009490 
#    y 0.000000 1.836130 0.000000 
#    z -0.009490 0.000000 1.823780 
# 
# From -- ./inp_files/286069.got.cif
#   From: 2010.06.25/outbox.cif.g09.slc.cpg/sg15_144_cif.got.tgz:286069.got - 2010.06.28 07:06:18.
