data_PCOD8147966
_publ_section_title
;
Structure prediction by ZEFSAII (Michael W. Deem and Ramdas Pophale) SiO2 
 PCOD8147966
Probable space group: C 2/C
;
_chemical_formula_sum "Si O2"
_cell_formula_units_Z 40
_cell_length_a 16.191813
_cell_length_b 9.721819
_cell_length_c 17.570435
_cell_angle_alpha 90.000000
_cell_angle_beta 140.151864
_cell_angle_gamma 90.000000
_cell_volume 1772.219385
_symmetry_space_group_name_H-M "C 2/C"
_symmetry_group_IT_number 15
_symmetry_cell_setting 'monoclinic'
loop_
_space_group_symop_operation_xyz
x,y,z
-x,y,1/2-z
-x,-y,-z
x,-y,1/2+z
1/2+x,1/2+y,z
1/2-x,1/2+y,1/2-z
1/2-x,1/2-y,-z
1/2+x,1/2-y,1/2+z
loop_
_atom_site_type_symbol
_atom_site_label
_atom_site_fract_x
_atom_site_fract_y
_atom_site_fract_z
Si Si1 0.649527 0.083810 0.368939
Si Si2 0.228604 0.631632 0.592826
Si Si3 0.178202 0.154333 0.508266
Si Si4 0.061434 0.004305 0.660651
Si Si5 0.516793 0.289353 0.512296
O O1 0.500000 0.066617 0.250000
O O2 0.697218 0.225217 0.366750
O O3 0.679701 0.069955 0.479660
O O4 0.721410 0.952683 0.382057
O O5 0.322764 0.520514 0.698135
O O6 0.106161 0.656429 0.562075
O O7 0.250000 0.250000 0.500000
O O8 0.112144 0.245591 0.529330
O O9 0.064278 0.063548 0.386866
O O10 0.021889 0.153182 0.598510
O O11 0.100199 0.905768 0.616872
#
# Coordination Sequence:
#
# PCOD8147966 Si02
#       5
#     8   8   8   8   8
#     4  11  24  40  68 100 135 179 231 279 336 397
#     4  11  21  41  71 104 132 174 233 281 333 410
#     4  10  22  47  65  95 137 181 221 276 347 398
#     4   9  19  40  70  94 133 180 221 272 347 390
#     4   9  19  44  65  93 134 178 213 279 335 394
#
# _framework density 22.57057
#
# number of rings (size 3 to 8) (size 9 to 14) (size 15 to 20)
#    1.200    0.800    2.000    1.200    2.800    0.000 
#   14.400    1.000    0.000    0.000    0.000    0.000 
#    0.000    0.000    0.000    0.000    0.000    0.000 
#
# Total GULP energy -247858.036477 kJ/mol
# GULP energy per Si atom -12392.901824 kJ/mol
# Density = 2.251920 g / cm^3
# Si number density = 22.570570 Si / 1000 Ang^3
#
#
#
# Elastic Constant Matrix: (Units=GPa)
#
#
# Indices 1 2 3 4 5 6 
#
# 1 144.1746 34.8131 57.4423 0.0000 26.6005 0.0000
# 2 34.8131 32.9059 19.6227 0.0000 9.6824 0.0000
# 3 57.4423 19.6227 133.4689 0.0000 6.2750 0.0000
# 4 0.0000 0.0000 0.0000 23.9067 0.0000 15.0819
# 5 26.6005 9.6824 6.2750 0.0000 37.0387 0.0000
# 6 0.0000 0.0000 0.0000 15.0819 0.0000 47.5063
#
#
#
# Elastic Compliance Matrix: (Units=1/GPa)
#
#
# Indices 1 2 3 4 5 6 
#
# 1 0.011285 -0.008351 -0.003378 0.000000 -0.005350 0.000000
# 2 -0.008351 0.041980 -0.002363 0.000000 -0.004576 0.000000
# 3 -0.003378 -0.002363 0.009224 0.000000 0.001481 0.000000
# 4 0.000000 0.000000 0.000000 0.052305 0.000000 -0.016605
# 5 -0.005350 -0.004576 0.001481 0.000000 0.031786 0.000000
# 6 0.000000 0.000000 0.000000 -0.016605 0.000000 0.026322
#
#
# Mechanical properties :
#
#
# Convention : Reuss Voigt Hill
#
# Bulk Modulus (GPa) = 29.14899 59.36728 44.25814
# Shear Modulus (GPa) = 23.52718 34.93512 29.23115
#
# Velocity S-wave (km/s) = 3.23210 3.93850 3.60265
# Velocity P-wave (km/s) = 5.18375 6.85875 6.07921
#
# Compressibility (1/GPa) = 0.03430650
#
# Stress axis : x y z
#
# Youngs Moduli (GPa) = 88.61114 23.82072 108.41517
#
# Poissons Ratio (x) = 0.19893 0.36619
# Poissons Ratio (y) = 0.74000 0.25615
# Poissons Ratio (z) = 0.29930 0.05628
#
# Static dielectric constant tensor:
#      x y z
#    x 4.087100 0.000000 0.147340 
#    y 0.000000 3.804830 0.000000 
#    z 0.147340 0.000000 3.845830 
# 
# 
# High freq. dielectric constant tensor:
#      x y z
#    x 1.894400 0.000000 0.012250 
#    y 0.000000 1.866860 0.000000 
#    z 0.012250 0.000000 1.871900 
# 
# From -- ./inp_files/204255.got.cif
#   From: 2010.06.25/outbox.cif.g09.slc.cpg/sg15_103_cif.got.tgz:204255.got - 2010.06.28 07:06:18.
