data_PCOD8147970
_publ_section_title
;
Structure prediction by ZEFSAII (Michael W. Deem and Ramdas Pophale) SiO2 
 PCOD8147970
Probable space group: C 2/C
;
_chemical_formula_sum "Si O2"
_cell_formula_units_Z 52
_cell_length_a 27.408350
_cell_length_b 12.122783
_cell_length_c 9.616531
_cell_angle_alpha 90.000000
_cell_angle_beta 128.027473
_cell_angle_gamma 90.000000
_cell_volume 2516.940947
_symmetry_space_group_name_H-M "C 2/C"
_symmetry_group_IT_number 15
_symmetry_cell_setting 'monoclinic'
loop_
_space_group_symop_operation_xyz
x,y,z
-x,y,1/2-z
-x,-y,-z
x,-y,1/2+z
1/2+x,1/2+y,z
1/2-x,1/2+y,1/2-z
1/2-x,1/2-y,-z
1/2+x,1/2-y,1/2+z
loop_
_atom_site_type_symbol
_atom_site_label
_atom_site_fract_x
_atom_site_fract_y
_atom_site_fract_z
Si Si1 0.053689 0.049134 0.188971
Si Si2 0.000000 0.753753 0.750000
Si Si3 0.404406 0.898008 0.934046
Si Si4 0.677673 0.280471 0.532596
Si Si5 0.310469 0.288139 0.268275
Si Si6 0.629317 0.511916 0.066629
Si Si7 0.072243 0.609456 0.346152
O O1 0.038536 0.173391 0.207998
O O2 0.068757 0.981488 0.357900
O O3 0.113932 0.042098 0.198259
O O4 0.000000 0.000000 0.000000
O O5 0.959830 0.677669 0.581651
O O6 0.341218 0.830916 0.853341
O O7 0.416245 0.924796 0.793135
O O8 0.402711 0.011314 0.014280
O O9 0.681892 0.311838 0.379895
O O10 0.738492 0.212843 0.686733
O O11 0.679361 0.396878 0.613861
O O12 0.614325 0.215402 0.456836
O O13 0.343529 0.388792 0.405865
O O14 0.000000 0.635451 0.250000
#
# Coordination Sequence:
#
# PCOD8147970 Si02
#       7
#     8   4   8   8   8   8   8
#     4  12  23  39  65 100 133 172 214 265 336 395
#     4  12  24  40  68  96 138 176 210 272 332 392
#     4  11  24  43  67  94 132 174 219 269 330 388
#     4  10  25  42  69  95 130 177 222 271 334 397
#     4  10  22  47  66  93 133 177 218 275 334 391
#     4  12  23  42  67 100 131 169 221 277 331 401
#     4  11  25  43  66  97 132 174 219 272 326 397
#
# _framework density 20.660001000000001
#
# number of rings (size 3 to 8) (size 9 to 14) (size 15 to 20)
#    0.000    0.923    5.385    0.462    6.462    0.000 
#    0.000    0.769    0.000    0.000    0.000    0.000 
#    0.000    0.000    0.000    0.000    0.000    0.000 
#
# Total GULP energy -322347.835676 kJ/mol
# GULP energy per Si atom -12397.993680 kJ/mol
# Density = 2.061298 g / cm^3
# Si number density = 20.660001 Si / 1000 Ang^3
#
#
#
# Elastic Constant Matrix: (Units=GPa)
#
#
# Indices 1 2 3 4 5 6 
#
# 1 99.9136 57.6109 41.3209 0.0000 14.4933 0.0000
# 2 57.6109 100.8945 33.3116 0.0000 -0.4555 0.0000
# 3 41.3209 33.3116 94.0116 0.0000 -2.3715 0.0000
# 4 0.0000 0.0000 0.0000 33.5656 0.0000 -3.1182
# 5 14.4933 -0.4555 -2.3715 0.0000 30.0178 0.0000
# 6 0.0000 0.0000 0.0000 -3.1182 0.0000 23.0800
#
#
#
# Elastic Compliance Matrix: (Units=1/GPa)
#
#
# Indices 1 2 3 4 5 6 
#
# 1 0.018811 -0.009031 -0.005311 0.000000 -0.009639 0.000000
# 2 -0.009031 0.015561 -0.001431 0.000000 0.004483 0.000000
# 3 -0.005311 -0.001431 0.013570 0.000000 0.003615 0.000000
# 4 0.000000 0.000000 0.000000 0.030171 0.000000 0.004076
# 5 -0.009639 0.004483 0.003615 0.000000 0.038321 0.000000
# 6 0.000000 0.000000 0.000000 0.004076 0.000000 0.043878
#
#
# Mechanical properties :
#
#
# Convention : Reuss Voigt Hill
#
# Bulk Modulus (GPa) = 60.99539 62.14516 61.57028
# Shear Modulus (GPa) = 25.33922 28.17109 26.75515
#
# Velocity S-wave (km/s) = 3.50592 3.69664 3.60255
# Velocity P-wave (km/s) = 6.78057 6.95453 6.86810
#
# Compressibility (1/GPa) = 0.01639468
#
# Stress axis : x y z
#
# Youngs Moduli (GPa) = 53.16170 64.26417 73.69381
#
# Poissons Ratio (x) = 0.58036 0.39139
# Poissons Ratio (y) = 0.48010 0.10548
# Poissons Ratio (z) = 0.28234 0.09198
#
# Static dielectric constant tensor:
#      x y z
#    x 4.108880 0.000000 -0.276360 
#    y 0.000000 3.734760 0.000000 
#    z -0.276360 0.000000 4.118080 
# 
# 
# High freq. dielectric constant tensor:
#      x y z
#    x 1.803340 0.000000 -0.000830 
#    y 0.000000 1.808970 0.000000 
#    z -0.000830 0.000000 1.816490 
# 
# From -- ./inp_files/65601.got.cif
#   From: 2010.06.25/outbox.cif.g09.slc.cpg/sg15_33_cif.got.tgz:65601.got - 2010.06.28 07:06:18.
