data_PCOD8147404
_publ_section_title
;
Structure prediction by ZEFSAII (Michael W. Deem and Ramdas Pophale) SiO2 
 PCOD8147404
Probable space group: C 2/C
;
_chemical_formula_sum "Si O2"
_cell_formula_units_Z 40
_cell_length_a 6.701943
_cell_length_b 13.227661
_cell_length_c 21.672147
_cell_angle_alpha 90.000000
_cell_angle_beta 116.060276
_cell_angle_gamma 90.000000
_cell_volume 1725.928403
_symmetry_space_group_name_H-M "C 2/C"
_symmetry_group_IT_number 15
_symmetry_cell_setting 'monoclinic'
loop_
_space_group_symop_operation_xyz
x,y,z
-x,y,1/2-z
-x,-y,-z
x,-y,1/2+z
1/2+x,1/2+y,z
1/2-x,1/2+y,1/2-z
1/2-x,1/2-y,-z
1/2+x,1/2-y,1/2+z
loop_
_atom_site_type_symbol
_atom_site_label
_atom_site_fract_x
_atom_site_fract_y
_atom_site_fract_z
Si Si1 0.046218 0.886606 0.067905
Si Si2 0.342295 0.541697 0.785575
Si Si3 0.000000 0.367538 0.750000
Si Si4 0.125288 0.480595 0.954333
Si Si5 0.120279 0.309663 0.639839
Si Si6 0.000000 0.288897 0.250000
O O1 0.026060 0.937134 0.132770
O O2 0.033014 0.765916 0.075173
O O3 0.282369 0.919598 0.068272
O O4 0.842641 0.912686 0.995787
O O5 0.500000 0.522218 0.750000
O O6 0.216780 0.436866 0.779321
O O7 0.184698 0.636413 0.746296
O O8 0.004978 0.293599 0.691209
O O9 0.941491 0.424026 0.887361
O O10 0.000000 0.500000 0.000000
O O11 0.384236 0.284477 0.683316
#
# Coordination Sequence:
#
# PCOD8147404 Si02
#       6
#     8   8   4   8   8   4
#     4  10  24  45  68 100 138 180 238 288 347 431
#     4  10  22  43  70  98 140 184 229 293 358 420
#     4  11  24  40  66 105 140 178 232 291 364 427
#     4  11  25  46  70  96 135 190 233 289 354 413
#     4  11  24  46  65 103 142 178 233 296 349 432
#     4   9  24  40  64 103 138 174 232 287 360 419
#
# _framework density 23.175933000000001
#
# number of rings (size 3 to 8) (size 9 to 14) (size 15 to 20)
#    0.000    1.600    2.000    0.600    9.800    0.800 
#    0.000    0.000    0.000    0.000    0.000    0.000 
#    0.000    0.000    0.000    0.000    0.000    0.000 
#
# Total GULP energy -247843.498087 kJ/mol
# GULP energy per Si atom -12392.174904 kJ/mol
# Density = 2.312318 g / cm^3
# Si number density = 23.175933 Si / 1000 Ang^3
#
#
#
# Elastic Constant Matrix: (Units=GPa)
#
#
# Indices 1 2 3 4 5 6 
#
# 1 75.3253 43.7841 21.1471 0.0000 -9.6886 0.0000
# 2 43.7841 86.9543 18.4999 0.0000 2.0235 0.0000
# 3 21.1471 18.4999 78.0411 0.0000 -4.4803 0.0000
# 4 0.0000 0.0000 0.0000 29.2060 0.0000 -4.2609
# 5 -9.6886 2.0235 -4.4803 0.0000 48.9330 0.0000
# 6 0.0000 0.0000 0.0000 -4.2609 0.0000 36.0754
#
#
#
# Elastic Compliance Matrix: (Units=1/GPa)
#
#
# Indices 1 2 3 4 5 6 
#
# 1 0.020259 -0.009667 -0.002960 0.000000 0.004140 0.000000
# 2 -0.009667 0.016753 -0.001509 0.000000 -0.002745 0.000000
# 3 -0.002960 -0.001509 0.014017 0.000000 0.000760 0.000000
# 4 0.000000 0.000000 0.000000 0.034840 0.000000 0.004115
# 5 0.004140 -0.002745 0.000760 0.000000 0.021439 0.000000
# 6 0.000000 0.000000 0.000000 0.004115 0.000000 0.028206
#
#
# Mechanical properties :
#
#
# Convention : Reuss Voigt Hill
#
# Bulk Modulus (GPa) = 43.94606 45.24253 44.59430
# Shear Modulus (GPa) = 29.17622 33.30219 31.23920
#
# Velocity S-wave (km/s) = 3.55195 3.79480 3.67538
# Velocity P-wave (km/s) = 5.98539 6.22610 6.10693
#
# Compressibility (1/GPa) = 0.02275517
#
# Stress axis : x y z
#
# Youngs Moduli (GPa) = 49.36174 59.69045 71.34031
#
# Poissons Ratio (x) = 0.57705 0.21118
# Poissons Ratio (y) = 0.47720 0.10768
# Poissons Ratio (z) = 0.14612 0.09009
#
# Static dielectric constant tensor:
#      x y z
#    x 4.295710 0.000000 0.186520 
#    y 0.000000 4.277870 0.000000 
#    z 0.186520 0.000000 4.557560 
# 
# 
# High freq. dielectric constant tensor:
#      x y z
#    x 1.909060 0.000000 0.004980 
#    y 0.000000 1.916010 0.000000 
#    z 0.004980 0.000000 1.917640 
# 
# From -- ./inp_files/260232.got.cif
#   From: 2010.06.25/outbox.cif.g09.slc.cpg/sg15_131_cif.got.tgz:260232.got - 2010.06.28 07:06:18.
