data_PCOD8147723
_publ_section_title
;
Structure prediction by ZEFSAII (Michael W. Deem and Ramdas Pophale) SiO2 
 PCOD8147723
Probable space group: C 2/C
;
_chemical_formula_sum "Si O2"
_cell_formula_units_Z 60
_cell_length_a 21.460332
_cell_length_b 24.204244
_cell_length_c 8.740130
_cell_angle_alpha 90.000000
_cell_angle_beta 35.052944
_cell_angle_gamma 90.000000
_cell_volume 2607.412345
_symmetry_space_group_name_H-M "C 2/C"
_symmetry_group_IT_number 15
_symmetry_cell_setting 'monoclinic'
loop_
_space_group_symop_operation_xyz
x,y,z
-x,y,1/2-z
-x,-y,-z
x,-y,1/2+z
1/2+x,1/2+y,z
1/2-x,1/2+y,1/2-z
1/2-x,1/2-y,-z
1/2+x,1/2-y,1/2+z
loop_
_atom_site_type_symbol
_atom_site_label
_atom_site_fract_x
_atom_site_fract_y
_atom_site_fract_z
Si Si1 0.755745 0.928028 0.091988
Si Si2 0.506994 0.440243 0.913596
Si Si3 0.843357 0.685072 0.616848
Si Si4 0.272121 0.221090 0.298888
Si Si5 0.966777 0.326015 0.558248
Si Si6 0.884075 0.116314 0.902283
Si Si7 0.717297 0.028722 0.359451
Si Si8 0.500000 0.915047 0.250000
O O1 0.704936 0.868473 0.208940
O O2 0.746313 0.964880 0.264688
O O3 0.875689 0.914520 0.790022
O O4 0.698097 0.965680 0.079213
O O5 0.500000 0.447071 0.750000
O O6 0.500000 0.500000 0.000000
O O7 0.413636 0.399781 0.167354
O O8 0.754745 0.734325 0.779973
O O9 0.886215 0.664383 0.364397
O O10 0.934020 0.706628 0.558034
O O11 0.250000 0.250000 0.500000
O O12 0.399659 0.204148 0.053450
O O13 0.192153 0.169585 0.437298
O O14 0.013513 0.380316 0.381138
O O15 0.000000 0.126393 0.750000
O O16 0.819550 0.065376 0.103120
O O17 0.605421 0.047761 0.506426
#
# Coordination Sequence:
#
# PCOD8147723 Si02
#       8
#     8   8   8   8   8   8   8   4
#     4  12  26  45  71 106 145 188 238 300 359 438
#     4  12  25  42  72 106 145 183 236 295 359 430
#     4  10  24  46  71 104 142 191 243 297 368 427
#     4  10  24  43  75 102 140 192 238 303 366 429
#     4  10  22  44  71  98 146 183 235 303 354 427
#     4  12  25  46  71 106 142 188 242 297 371 431
#     4  12  27  44  71 105 146 190 237 297 364 433
#     4  12  24  44  66 106 142 188 238 284 358 438
#
# _framework density 23.011320999999999
#
# number of rings (size 3 to 8) (size 9 to 14) (size 15 to 20)
#    0.000    0.800    5.333    1.200    9.333    1.600 
#    0.000    5.333    0.000    0.000    0.000    0.000 
#    0.000    0.000    0.000    0.000    0.000    0.000 
#
# Total GULP energy -371701.271122 kJ/mol
# GULP energy per Si atom -12390.042371 kJ/mol
# Density = 2.295895 g / cm^3
# Si number density = 23.011321 Si / 1000 Ang^3
#
#
#
# Elastic Constant Matrix: (Units=GPa)
#
#
# Indices 1 2 3 4 5 6 
#
# 1 129.2697 48.8872 45.5112 -0.0001 -17.6469 0.0000
# 2 48.8872 116.3477 42.4066 0.0000 -9.3082 0.0000
# 3 45.5112 42.4066 86.0974 -0.0001 -8.6696 0.0000
# 4 -0.0001 0.0000 -0.0001 13.4244 0.0000 -3.3994
# 5 -17.6469 -9.3082 -8.6696 0.0000 40.8188 0.0000
# 6 0.0000 0.0000 0.0000 -3.3994 0.0000 31.9858
#
#
#
# Elastic Compliance Matrix: (Units=1/GPa)
#
#
# Indices 1 2 3 4 5 6 
#
# 1 0.010589 -0.002772 -0.003918 0.000000 0.003113 0.000000
# 2 -0.002772 0.011271 -0.004035 0.000000 0.000515 0.000000
# 3 -0.003918 -0.004035 0.015747 0.000000 0.000730 0.000000
# 4 0.000000 0.000000 0.000000 0.076551 0.000000 0.008136
# 5 0.003113 0.000515 0.000730 0.000000 0.026117 0.000000
# 6 0.000000 0.000000 0.000000 0.008136 0.000000 0.032129
#
#
# Mechanical properties :
#
#
# Convention : Reuss Voigt Hill
#
# Bulk Modulus (GPa) = 61.89229 67.25830 64.57529
# Shear Modulus (GPa) = 25.09549 30.23977 27.66763
#
# Velocity S-wave (km/s) = 3.30596 3.62902 3.47125
# Velocity P-wave (km/s) = 6.44417 6.84482 6.64751
#
# Compressibility (1/GPa) = 0.01615710
#
# Stress axis : x y z
#
# Youngs Moduli (GPa) = 94.44159 88.72065 63.50524
#
# Poissons Ratio (x) = 0.24592 0.24884
# Poissons Ratio (y) = 0.26178 0.25621
# Poissons Ratio (z) = 0.37006 0.35795
#
# Static dielectric constant tensor:
#      x y z
#    x 4.567910 0.000000 -0.296100 
#    y 0.000000 4.099040 0.000000 
#    z -0.296100 0.000000 4.459170 
# 
# 
# High freq. dielectric constant tensor:
#      x y z
#    x 1.931020 0.000000 -0.005080 
#    y 0.000000 1.886040 0.000000 
#    z -0.005080 0.000000 1.912270 
# 
# From -- ./inp_files/58729.got.cif
#   From: 2010.06.25/outbox.cif.g09.slc.cpg/sg15_30_cif.got.tgz:58729.got - 2010.06.28 07:06:18.
