data_PCOD8147450
_publ_section_title
;
Structure prediction by ZEFSAII (Michael W. Deem and Ramdas Pophale) SiO2 
 PCOD8147450
Probable space group: C 2/C
;
_chemical_formula_sum "Si O2"
_cell_formula_units_Z 36
_cell_length_a 12.636426
_cell_length_b 13.537679
_cell_length_c 8.396595
_cell_angle_alpha 90.000000
_cell_angle_beta 81.995496
_cell_angle_gamma 90.000000
_cell_volume 1422.393151
_symmetry_space_group_name_H-M "C 2/C"
_symmetry_group_IT_number 15
_symmetry_cell_setting 'monoclinic'
loop_
_space_group_symop_operation_xyz
x,y,z
-x,y,1/2-z
-x,-y,-z
x,-y,1/2+z
1/2+x,1/2+y,z
1/2-x,1/2+y,1/2-z
1/2-x,1/2-y,-z
1/2+x,1/2-y,1/2+z
loop_
_atom_site_type_symbol
_atom_site_label
_atom_site_fract_x
_atom_site_fract_y
_atom_site_fract_z
Si Si1 0.000000 0.835156 0.750000
Si Si2 0.883438 0.636403 0.213961
Si Si3 0.673355 0.447509 0.915129
Si Si4 0.683452 0.640829 0.756107
Si Si5 0.402324 0.148905 0.858162
O O1 0.086180 0.898904 0.822211
O O2 0.059990 0.761855 0.611793
O O3 0.794093 0.578039 0.332884
O O4 0.874124 0.754482 0.230374
O O5 0.000000 0.604942 0.250000
O O6 0.868768 0.601269 0.033333
O O7 0.651463 0.565700 0.906414
O O8 0.656154 0.414168 0.098114
O O9 0.809634 0.657416 0.746659
O O10 0.500000 0.090161 0.750000
#
# Coordination Sequence:
#
# PCOD8147450 Si02
#       5
#     4   8   8   8   8
#     4  10  24  44  70  96 140 172 232 270 342 396
#     4  12  24  45  72 103 136 179 225 281 342 400
#     4  12  27  44  68 104 137 180 228 280 336 407
#     4  12  26  44  69 101 140 178 229 277 340 401
#     4  10  22  43  73  95 137 178 224 273 339 398
#
# _framework density 25.309457999999999
#
# number of rings (size 3 to 8) (size 9 to 14) (size 15 to 20)
#    0.667    0.000    2.222    5.333    4.667    1.778 
#    0.000    4.444    0.000    0.000    0.000    0.000 
#    0.000    0.000    0.000    0.000    0.000    0.000 
#
# Total GULP energy -223122.973601 kJ/mol
# GULP energy per Si atom -12395.720756 kJ/mol
# Density = 2.525185 g / cm^3
# Si number density = 25.309458 Si / 1000 Ang^3
#
#
#
# Elastic Constant Matrix: (Units=GPa)
#
#
# Indices 1 2 3 4 5 6 
#
# 1 96.3107 -23.1231 9.7436 0.0000 38.4193 0.0000
# 2 -23.1231 79.4747 -2.9513 0.0000 -6.7349 0.0000
# 3 9.7436 -2.9513 110.1511 0.0000 5.9437 0.0000
# 4 0.0000 0.0000 0.0000 35.0935 0.0000 3.3046
# 5 38.4193 -6.7349 5.9437 0.0000 33.5456 0.0000
# 6 0.0000 0.0000 0.0000 3.3046 0.0000 -55.2091
#
#
#
# Elastic Compliance Matrix: (Units=1/GPa)
#
#
# Indices 1 2 3 4 5 6 
#
# 1 0.020322 0.003998 -0.000483 0.000000 -0.022386 0.000000
# 2 0.003998 0.013591 0.000111 0.000000 -0.001869 0.000000
# 3 -0.000483 0.000111 0.009181 0.000000 -0.001052 0.000000
# 4 0.000000 0.000000 0.000000 0.028336 0.000000 0.001696
# 5 -0.022386 -0.001869 -0.001052 0.000000 0.055259 0.000000
# 6 0.000000 0.000000 0.000000 0.001696 0.000000 -0.018011
#
#
# Mechanical properties :
#
#
# Convention : Reuss Voigt Hill
#
# Bulk Modulus (GPa) = 19.86224 28.14167 24.00195
# Shear Modulus (GPa) = 42.29876 22.83718 32.56797
#
# Velocity S-wave (km/s) = 4.09254 3.00712 3.59108
# Velocity P-wave (km/s) = 5.49515 4.81666 5.16705
#
# Compressibility (1/GPa) = 0.05034679
#
# Stress axis : x y z
#
# Youngs Moduli (GPa) = 49.20870 73.57581 108.92233
#
# Poissons Ratio (x) = -0.29412 0.05256
# Poissons Ratio (y) = -0.19672 -0.01214
# Poissons Ratio (z) = 0.02375 -0.00820
#
# Static dielectric constant tensor:
#      x y z
#    x 4.648750 0.000000 0.064520 
#    y 0.000000 4.674050 0.000000 
#    z 0.064520 0.000000 4.452640 
# 
# 
# High freq. dielectric constant tensor:
#      x y z
#    x 2.020770 0.000000 0.013030 
#    y 0.000000 2.019300 0.000000 
#    z 0.013030 0.000000 2.006490 
# 
# From -- ./inp_files/38351.got.cif
#   From: 2010.06.25/outbox.cif.g09.slc.cpg/sg15_20_cif.got.tgz:38351.got - 2010.06.28 07:06:18.
