data_PCOD8147492
_publ_section_title
;
Structure prediction by ZEFSAII (Michael W. Deem and Ramdas Pophale) SiO2 
 PCOD8147492
Probable space group: C 2/C
;
_chemical_formula_sum "Si O2"
_cell_formula_units_Z 48
_cell_length_a 10.644670
_cell_length_b 17.440201
_cell_length_c 12.049513
_cell_angle_alpha 90.000000
_cell_angle_beta 100.894479
_cell_angle_gamma 90.000000
_cell_volume 2196.617642
_symmetry_space_group_name_H-M "C 2/C"
_symmetry_group_IT_number 15
_symmetry_cell_setting 'monoclinic'
loop_
_space_group_symop_operation_xyz
x,y,z
-x,y,1/2-z
-x,-y,-z
x,-y,1/2+z
1/2+x,1/2+y,z
1/2-x,1/2+y,1/2-z
1/2-x,1/2-y,-z
1/2+x,1/2-y,1/2+z
loop_
_atom_site_type_symbol
_atom_site_label
_atom_site_fract_x
_atom_site_fract_y
_atom_site_fract_z
Si Si1 0.075871 0.208142 0.361697
Si Si2 0.270364 0.917485 0.971145
Si Si3 0.520097 0.126106 0.378141
Si Si4 0.395630 0.276459 0.032263
Si Si5 0.256599 0.413979 0.071745
Si Si6 0.856260 0.371425 0.212664
O O1 0.176236 0.152129 0.432602
O O2 0.148482 0.282594 0.325859
O O3 0.000000 0.165594 0.250000
O O4 0.968102 0.235314 0.429132
O O5 0.403247 0.902425 0.932404
O O6 0.208137 0.996418 0.917051
O O7 0.289850 0.922612 0.106703
O O8 0.500000 0.094054 0.250000
O O9 0.529779 0.219244 0.371627
O O10 0.648405 0.094882 0.458392
O O11 0.387117 0.366162 0.065511
O O12 0.250000 0.250000 0.000000
O O13 0.214124 0.382093 0.183218
O O14 0.000000 0.401327 0.250000
#
# Coordination Sequence:
#
# PCOD8147492 Si02
#       6
#     8   8   8   8   8   8
#     4  11  24  43  71  95 136 183 232 280 342 416
#     4  12  26  41  68 106 132 183 229 284 346 414
#     4  11  24  39  70 100 134 174 239 281 333 410
#     4  10  22  44  63  97 130 178 225 276 342 403
#     4  11  26  42  67 102 144 176 218 293 359 393
#     4  11  22  44  69  95 137 178 229 281 336 413
#
# _framework density 21.851777999999999
#
# number of rings (size 3 to 8) (size 9 to 14) (size 15 to 20)
#    0.000    1.000    3.333    4.000    9.333    0.667 
#    0.000    0.833    0.000    0.000    0.000    0.000 
#    0.000    0.000    0.000    0.000    0.000    0.000 
#
# Total GULP energy -297512.672615 kJ/mol
# GULP energy per Si atom -12396.361359 kJ/mol
# Density = 2.180204 g / cm^3
# Si number density = 21.851778 Si / 1000 Ang^3
#
#
#
# Elastic Constant Matrix: (Units=GPa)
#
#
# Indices 1 2 3 4 5 6 
#
# 1 13.7140 19.4983 18.7765 0.0000 -7.0113 0.0000
# 2 19.4983 130.4315 28.0631 0.0000 -7.2810 0.0000
# 3 18.7765 28.0631 145.6346 0.0000 -14.3044 0.0000
# 4 0.0000 0.0000 0.0000 21.0094 0.0000 1.1705
# 5 -7.0113 -7.2810 -14.3044 0.0000 20.8046 0.0000
# 6 0.0000 0.0000 0.0000 1.1705 0.0000 29.1334
#
#
#
# Elastic Compliance Matrix: (Units=1/GPa)
#
#
# Indices 1 2 3 4 5 6 
#
# 1 0.122253 -0.014472 -0.010107 0.000000 0.029187 0.000000
# 2 -0.014472 0.009780 -0.000173 0.000000 -0.001574 0.000000
# 3 -0.010107 -0.000173 0.008432 0.000000 0.002331 0.000000
# 4 0.000000 0.000000 0.000000 0.047705 0.000000 -0.001917
# 5 0.029187 -0.001574 0.002331 0.000000 0.058954 0.000000
# 6 0.000000 0.000000 0.000000 -0.001917 0.000000 0.034402
#
#
# Mechanical properties :
#
#
# Convention : Reuss Voigt Hill
#
# Bulk Modulus (GPa) = 10.99367 46.93955 28.96661
# Shear Modulus (GPa) = 13.83701 29.08562 21.46131
#
# Velocity S-wave (km/s) = 2.51912 3.65230 3.13730
# Velocity P-wave (km/s) = 3.67467 6.27003 5.13889
#
# Compressibility (1/GPa) = 0.09096143
#
# Stress axis : x y z
#
# Youngs Moduli (GPa) = 8.17973 102.25264 118.59809
#
# Poissons Ratio (x) = 1.47979 1.19862
# Poissons Ratio (y) = 0.11838 0.02054
# Poissons Ratio (z) = 0.08267 0.01771
#
# Static dielectric constant tensor:
#      x y z
#    x 4.048410 0.000000 -0.099560 
#    y 0.000000 4.457160 0.000000 
#    z -0.099560 0.000000 4.131690 
# 
# 
# High freq. dielectric constant tensor:
#      x y z
#    x 1.840310 0.000000 -0.009390 
#    y 0.000000 1.861650 0.000000 
#    z -0.009390 0.000000 1.868920 
# 
# From -- ./inp_files/87456.got.cif
#   From: 2010.06.25/outbox.cif.g09.slc.cpg/sg15_44_cif.got.tgz:87456.got - 2010.06.28 07:06:18.
