data_PCOD8147064
_publ_section_title
;
Structure prediction by ZEFSAII (Michael W. Deem and Ramdas Pophale) SiO2 
 PCOD8147064
Probable space group: C 2/C
;
_chemical_formula_sum "Si O2"
_cell_formula_units_Z 36
_cell_length_a 10.857277
_cell_length_b 15.484329
_cell_length_c 12.818467
_cell_angle_alpha 90.000000
_cell_angle_beta 137.275176
_cell_angle_gamma 90.000000
_cell_volume 1462.127273
_symmetry_space_group_name_H-M "C 2/C"
_symmetry_group_IT_number 15
_symmetry_cell_setting 'monoclinic'
loop_
_space_group_symop_operation_xyz
x,y,z
-x,y,1/2-z
-x,-y,-z
x,-y,1/2+z
1/2+x,1/2+y,z
1/2-x,1/2+y,1/2-z
1/2-x,1/2-y,-z
1/2+x,1/2-y,1/2+z
loop_
_atom_site_type_symbol
_atom_site_label
_atom_site_fract_x
_atom_site_fract_y
_atom_site_fract_z
Si Si1 0.500000 0.635602 0.750000
Si Si2 0.000000 0.793077 0.750000
Si Si3 0.681671 0.239645 0.575939
Si Si4 0.861951 0.930210 0.959523
Si Si5 0.000000 0.480401 0.250000
Si Si6 0.392440 0.844632 0.013896
O O1 0.364078 0.695130 0.738425
O O2 0.391260 0.574951 0.602464
O O3 0.046594 0.737373 0.879877
O O4 0.817345 0.849475 0.653941
O O5 0.750000 0.250000 0.500000
O O6 0.623446 0.334307 0.583281
O O7 0.519341 0.169456 0.490682
O O8 0.661418 0.961218 0.808970
O O9 0.000000 0.000000 0.000000
O O10 0.064486 0.427871 0.391197
#
# Coordination Sequence:
#
# PCOD8147064 Si02
#       6
#     4   4   8   8   4   8
#     4  10  23  47  68 100 132 188 240 266 343 429
#     4   9  22  37  67 102 131 170 232 279 332 399
#     4  10  23  42  71  99 135 183 228 276 340 427
#     4  11  25  45  69 101 143 178 224 298 355 399
#     4  11  25  46  65 102 143 178 228 299 355 396
#     4  10  22  42  70 100 135 179 235 278 340 423
#
# _framework density 24.621659000000001
#
# number of rings (size 3 to 8) (size 9 to 14) (size 15 to 20)
#    0.000    1.778    0.000    2.000   15.556    0.889 
#    0.000    5.556    0.000    0.000    0.000    0.000 
#    0.000    0.000    0.000    0.000    0.000    0.000 
#
# Total GULP energy -222993.080468 kJ/mol
# GULP energy per Si atom -12388.504470 kJ/mol
# Density = 2.456562 g / cm^3
# Si number density = 24.621659 Si / 1000 Ang^3
#
#
#
# Elastic Constant Matrix: (Units=GPa)
#
#
# Indices 1 2 3 4 5 6 
#
# 1 114.4685 37.9753 47.9147 -0.0005 39.0584 -0.0003
# 2 37.9753 117.5792 43.3935 -0.0003 25.2724 -0.0003
# 3 47.9147 43.3935 146.5434 -0.0009 39.9203 -0.0008
# 4 -0.0005 -0.0003 -0.0009 30.8938 -0.0008 -0.9519
# 5 39.0584 25.2724 39.9203 -0.0008 59.7487 -0.0006
# 6 -0.0003 -0.0003 -0.0008 -0.9519 -0.0006 30.8340
#
#
#
# Elastic Compliance Matrix: (Units=1/GPa)
#
#
# Indices 1 2 3 4 5 6 
#
# 1 0.012161 -0.002002 -0.001771 0.000000 -0.005920 0.000000
# 2 -0.002002 0.010228 -0.001897 0.000000 -0.001750 0.000000
# 3 -0.001771 -0.001897 0.009084 0.000000 -0.004109 0.000000
# 4 0.000000 0.000000 0.000000 0.032400 0.000000 0.001000
# 5 -0.005920 -0.001750 -0.004109 0.000000 0.024093 0.000000
# 6 0.000000 0.000000 0.000000 0.001000 0.000000 0.032463
#
#
# Mechanical properties :
#
#
# Convention : Reuss Voigt Hill
#
# Bulk Modulus (GPa) = 49.66911 70.79535 60.23223
# Shear Modulus (GPa) = 36.10638 40.91580 38.51109
#
# Velocity S-wave (km/s) = 3.83358 4.08092 3.95918
# Velocity P-wave (km/s) = 6.30966 7.14289 6.73917
#
# Compressibility (1/GPa) = 0.02013324
#
# Stress axis : x y z
#
# Youngs Moduli (GPa) = 82.22699 97.77284 110.08125
#
# Poissons Ratio (x) = 0.19572 0.19494
# Poissons Ratio (y) = 0.16460 0.20887
# Poissons Ratio (z) = 0.14562 0.18551
#
# Static dielectric constant tensor:
#      x y z
#    x 4.642970 0.000000 0.749490 
#    y 0.000000 4.682700 0.000000 
#    z 0.749490 0.000000 5.126350 
# 
# 
# High freq. dielectric constant tensor:
#      x y z
#    x 1.978610 0.000000 0.016070 
#    y 0.000000 1.969290 0.000000 
#    z 0.016070 0.000000 1.991810 
# 
# From -- ./inp_files/144467.got.cif
#   From: 2010.06.25/outbox.cif.g09.slc.cpg/sg15_73_cif.got.tgz:144467.got - 2010.06.28 07:06:18.
