data_PCOD8147093
_publ_section_title
;
Structure prediction by ZEFSAII (Michael W. Deem and Ramdas Pophale) SiO2 
 PCOD8147093
Probable space group: C 2/C
;
_chemical_formula_sum "Si O2"
_cell_formula_units_Z 60
_cell_length_a 18.150571
_cell_length_b 11.462441
_cell_length_c 13.969058
_cell_angle_alpha 90.000000
_cell_angle_beta 99.340094
_cell_angle_gamma 90.000000
_cell_volume 2867.730340
_symmetry_space_group_name_H-M "C 2/C"
_symmetry_group_IT_number 15
_symmetry_cell_setting 'monoclinic'
loop_
_space_group_symop_operation_xyz
x,y,z
-x,y,1/2-z
-x,-y,-z
x,-y,1/2+z
1/2+x,1/2+y,z
1/2-x,1/2+y,1/2-z
1/2-x,1/2-y,-z
1/2+x,1/2-y,1/2+z
loop_
_atom_site_type_symbol
_atom_site_label
_atom_site_fract_x
_atom_site_fract_y
_atom_site_fract_z
Si Si1 0.425658 0.490867 0.329363
Si Si2 0.500000 0.943448 0.250000
Si Si3 0.169434 0.682059 0.920294
Si Si4 0.113482 0.250515 0.211476
Si Si5 0.819251 0.913475 0.474400
Si Si6 0.164998 0.276182 0.012328
Si Si7 0.910185 0.076551 0.618420
Si Si8 0.067021 0.489043 0.941570
O O1 0.428571 0.625960 0.297550
O O2 0.362709 0.462808 0.392710
O O3 0.505891 0.461260 0.392770
O O4 0.407114 0.411465 0.232689
O O5 0.556702 0.859131 0.203558
O O6 0.463572 0.038787 0.170848
O O7 0.168074 0.742082 0.815057
O O8 0.230779 0.576708 0.936257
O O9 0.092366 0.622209 0.931137
O O10 0.175372 0.775286 0.006912
O O11 0.162152 0.254711 0.125115
O O12 0.847971 0.982143 0.573462
O O13 0.108157 0.195674 0.940422
O O14 0.135249 0.406222 0.986662
O O15 0.250000 0.250000 0.000000
O O16 0.000000 0.500000 0.000000
#
# Coordination Sequence:
#
# PCOD8147093 Si02
#       8
#     8   4   8   8   8   8   8   8
#     4  11  24  39  69 101 129 169 218 281 338 390
#     4  10  22  42  70  96 126 176 236 278 330 414
#     4  10  25  43  66  97 131 171 228 269 329 407
#     4  11  22  42  71  94 129 173 227 280 334 405
#     4  11  22  43  66  95 131 170 214 278 331 390
#     4  12  27  44  65  97 141 180 219 275 346 405
#     4  11  24  41  65 100 131 165 220 276 331 396
#     4  11  24  44  67  96 131 181 224 276 330 408
#
# _framework density 20.922469
#
# number of rings (size 3 to 8) (size 9 to 14) (size 15 to 20)
#    0.000    1.067    4.000    2.000    5.600    1.067 
#    0.000    0.000    0.000    0.000    0.000    0.000 
#    0.000    0.000    0.000    0.000    0.000    0.000 
#
# Total GULP energy -371758.827372 kJ/mol
# GULP energy per Si atom -12391.960912 kJ/mol
# Density = 2.087485 g / cm^3
# Si number density = 20.922469 Si / 1000 Ang^3
#
#
#
# Elastic Constant Matrix: (Units=GPa)
#
#
# Indices 1 2 3 4 5 6 
#
# 1 104.8226 29.9063 50.2583 0.0000 -1.8718 0.0000
# 2 29.9063 74.0933 39.1310 0.0000 -1.4428 0.0000
# 3 50.2583 39.1310 119.0597 0.0000 -4.1297 0.0000
# 4 0.0000 0.0000 0.0000 39.9141 0.0000 5.7307
# 5 -1.8718 -1.4428 -4.1297 0.0000 33.4776 0.0000
# 6 0.0000 0.0000 0.0000 5.7307 0.0000 33.3715
#
#
#
# Elastic Compliance Matrix: (Units=1/GPa)
#
#
# Indices 1 2 3 4 5 6 
#
# 1 0.012395 -0.002710 -0.004340 0.000000 0.000041 0.000000
# 2 -0.002710 0.016924 -0.004417 0.000000 0.000033 0.000000
# 3 -0.004340 -0.004417 0.011718 0.000000 0.001012 0.000000
# 4 0.000000 0.000000 0.000000 0.025687 0.000000 -0.004411
# 5 0.000041 0.000033 0.001012 0.000000 0.029999 0.000000
# 6 0.000000 0.000000 0.000000 -0.004411 0.000000 0.030723
#
#
# Mechanical properties :
#
#
# Convention : Reuss Voigt Hill
#
# Bulk Modulus (GPa) = 55.24192 59.61854 57.43023
# Shear Modulus (GPa) = 31.96628 33.26463 32.61546
#
# Velocity S-wave (km/s) = 3.91301 3.99168 3.95254
# Velocity P-wave (km/s) = 6.84660 7.05702 6.95261
#
# Compressibility (1/GPa) = 0.01810220
#
# Stress axis : x y z
#
# Youngs Moduli (GPa) = 80.67966 59.08824 85.33796
#
# Poissons Ratio (x) = 0.16013 0.37037
# Poissons Ratio (y) = 0.21864 0.37696
# Poissons Ratio (z) = 0.35015 0.26101
#
# Static dielectric constant tensor:
#      x y z
#    x 4.013850 0.000000 0.320820 
#    y 0.000000 3.805240 0.000000 
#    z 0.320820 0.000000 4.044620 
# 
# 
# High freq. dielectric constant tensor:
#      x y z
#    x 1.821490 0.000000 0.009170 
#    y 0.000000 1.813730 0.000000 
#    z 0.009170 0.000000 1.832480 
# 
# From -- ./inp_files/160933.got.cif
#   From: 2010.06.25/outbox.cif.g09.slc.cpg/sg15_81_cif.got.tgz:160933.got - 2010.06.28 07:06:18.
