data_PCOD8147285
_publ_section_title
;
Structure prediction by ZEFSAII (Michael W. Deem and Ramdas Pophale) SiO2 
 PCOD8147285
Probable space group: C 2/C
;
_chemical_formula_sum "Si O2"
_cell_formula_units_Z 32
_cell_length_a 12.646645
_cell_length_b 7.593906
_cell_length_c 21.883932
_cell_angle_alpha 90.000000
_cell_angle_beta 146.293812
_cell_angle_gamma 90.000000
_cell_volume 1166.292416
_symmetry_space_group_name_H-M "C 2/C"
_symmetry_group_IT_number 15
_symmetry_cell_setting 'monoclinic'
loop_
_space_group_symop_operation_xyz
x,y,z
-x,y,1/2-z
-x,-y,-z
x,-y,1/2+z
1/2+x,1/2+y,z
1/2-x,1/2+y,1/2-z
1/2-x,1/2-y,-z
1/2+x,1/2-y,1/2+z
loop_
_atom_site_type_symbol
_atom_site_label
_atom_site_fract_x
_atom_site_fract_y
_atom_site_fract_z
Si Si1 0.799270 0.473878 0.481983
Si Si2 0.573190 0.355487 0.716380
Si Si3 0.158428 0.343774 0.124734
Si Si4 0.070178 0.545908 0.214874
O O1 0.597054 0.555536 0.404860
O O2 0.773777 0.336282 0.413435
O O3 0.930126 0.637464 0.519188
O O4 0.899723 0.380592 0.588992
O O5 0.500000 0.349166 0.750000
O O6 0.761515 0.477067 0.803710
O O7 0.615140 0.155063 0.714395
O O8 0.237452 0.166562 0.196421
O O9 0.000000 0.550197 0.250000
#
# Coordination Sequence:
#
# PCOD8147285 Si02
#       4
#     8   8   8   8
#     4  10  22  43  66  94 136 171 208 276 327 370
#     4   9  20  41  65  92 132 168 210 264 324 382
#     4  10  23  42  65  97 131 170 216 265 323 387
#     4  11  23  40  66  96 125 172 220 261 319 387
#
# _framework density 27.437372
#
# number of rings (size 3 to 8) (size 9 to 14) (size 15 to 20)
#    0.000    2.000    0.000    3.000    3.500    4.000 
#    0.000   22.500    0.000    0.000    0.000    0.000 
#    0.000    0.000    0.000    0.000    0.000    0.000 
#
# Total GULP energy -198477.907226 kJ/mol
# GULP energy per Si atom -12404.869202 kJ/mol
# Density = 2.737492 g / cm^3
# Si number density = 27.437372 Si / 1000 Ang^3
#
#
#
# Elastic Constant Matrix: (Units=GPa)
#
#
# Indices 1 2 3 4 5 6 
#
# 1 64.5203 24.7800 33.5872 0.0000 -16.4979 0.0000
# 2 24.7800 89.7189 47.4615 0.0000 -14.9137 0.0000
# 3 33.5872 47.4615 174.7053 0.0001 -11.7455 0.0000
# 4 0.0000 0.0000 0.0001 50.2946 0.0000 -8.6429
# 5 -16.4979 -14.9137 -11.7455 0.0000 55.7336 0.0000
# 6 0.0000 0.0000 0.0000 -8.6429 0.0000 46.4293
#
#
#
# Elastic Compliance Matrix: (Units=1/GPa)
#
#
# Indices 1 2 3 4 5 6 
#
# 1 0.019146 -0.003250 -0.002511 0.000000 0.004269 0.000000
# 2 -0.003250 0.014006 -0.003036 0.000000 0.002146 0.000000
# 3 -0.002511 -0.003036 0.007026 0.000000 -0.000075 0.000000
# 4 0.000000 0.000000 0.000000 0.020540 0.000000 0.003824
# 5 0.004269 0.002146 -0.000075 0.000000 0.019765 0.000000
# 6 0.000000 0.000000 0.000000 0.003824 0.000000 0.022250
#
#
# Mechanical properties :
#
#
# Convention : Reuss Voigt Hill
#
# Bulk Modulus (GPa) = 44.27797 60.06690 52.17243
# Shear Modulus (GPa) = 39.10677 45.36586 42.23631
#
# Velocity S-wave (km/s) = 3.77942 4.07065 3.92774
# Velocity P-wave (km/s) = 5.93450 6.63578 6.29491
#
# Compressibility (1/GPa) = 0.02258459
#
# Stress axis : x y z
#
# Youngs Moduli (GPa) = 52.23067 71.39610 142.32112
#
# Poissons Ratio (x) = 0.23205 0.35735
# Poissons Ratio (y) = 0.16976 0.43208
# Poissons Ratio (z) = 0.13114 0.21675
#
# Static dielectric constant tensor:
#      x y z
#    x 5.306320 0.000000 -0.310390 
#    y 0.000000 4.938990 0.000000 
#    z -0.310390 0.000000 5.193440 
# 
# 
# High freq. dielectric constant tensor:
#      x y z
#    x 2.167730 0.000000 -0.024420 
#    y 0.000000 2.086600 0.000000 
#    z -0.024420 0.000000 2.113060 
# 
# From -- ./inp_files/150442.got.cif
#   From: 2010.06.25/outbox.cif.g09.slc.cpg/sg15_76_cif.got.tgz:150442.got - 2010.06.28 07:06:18.
