data_PCOD8147178
_publ_section_title
;
Structure prediction by ZEFSAII (Michael W. Deem and Ramdas Pophale) SiO2 
 PCOD8147178
Probable space group: C 2/C
;
_chemical_formula_sum "Si O2"
_cell_formula_units_Z 44
_cell_length_a 14.135785
_cell_length_b 19.211815
_cell_length_c 14.259863
_cell_angle_alpha 90.000000
_cell_angle_beta 146.160233
_cell_angle_gamma 90.000000
_cell_volume 2156.548591
_symmetry_space_group_name_H-M "C 2/C"
_symmetry_group_IT_number 15
_symmetry_cell_setting 'monoclinic'
loop_
_space_group_symop_operation_xyz
x,y,z
-x,y,1/2-z
-x,-y,-z
x,-y,1/2+z
1/2+x,1/2+y,z
1/2-x,1/2+y,1/2-z
1/2-x,1/2-y,-z
1/2+x,1/2-y,1/2+z
loop_
_atom_site_type_symbol
_atom_site_label
_atom_site_fract_x
_atom_site_fract_y
_atom_site_fract_z
Si Si1 0.591210 0.825459 0.032788
Si Si2 0.500000 0.464383 0.750000
Si Si3 0.735044 0.321880 0.641033
Si Si4 0.871090 0.699768 0.722897
Si Si5 0.010273 0.156359 0.119941
Si Si6 0.813769 0.902452 0.081865
O O1 0.691315 0.757334 0.078297
O O2 0.587790 0.833620 0.142143
O O3 0.691312 0.890023 0.069701
O O4 0.398472 0.823271 0.841259
O O5 0.458356 0.416955 0.804751
O O6 0.662418 0.513782 0.907560
O O7 0.574288 0.352553 0.566085
O O8 0.770455 0.369072 0.579694
O O9 0.684301 0.679239 0.536940
O O10 0.000000 0.671047 0.750000
O O11 0.880937 0.783685 0.738275
O O12 0.000000 0.867354 0.250000
#
# Coordination Sequence:
#
# PCOD8147178 Si02
#       6
#     8   4   8   8   8   8
#     4  11  22  39  65 104 125 162 216 275 323 370
#     4  10  26  40  68  84 138 178 214 244 330 392
#     4  11  22  38  70  96 130 163 216 274 321 367
#     4  11  22  37  69  99 129 158 215 273 321 366
#     4  11  22  41  66  99 127 168 212 268 323 377
#     4  10  22  43  61  88 130 176 214 251 315 390
#
# _framework density 20.402971000000001
#
# number of rings (size 3 to 8) (size 9 to 14) (size 15 to 20)
#    0.545    0.727    0.909    8.182    2.545    0.727 
#    0.000    2.727    0.000    0.000    0.000    0.000 
#    0.000    0.000    0.000    0.000    0.000    0.000 
#
# Total GULP energy -272805.636713 kJ/mol
# GULP energy per Si atom -12400.256214 kJ/mol
# Density = 2.035653 g / cm^3
# Si number density = 20.402971 Si / 1000 Ang^3
#
#
#
# Elastic Constant Matrix: (Units=GPa)
#
#
# Indices 1 2 3 4 5 6 
#
# 1 144.2284 46.6074 29.6891 0.0000 -2.7541 0.0000
# 2 46.6074 80.9118 19.9508 0.0000 -5.8395 0.0000
# 3 29.6891 19.9508 84.7255 0.0000 3.2151 0.0000
# 4 0.0000 0.0000 0.0000 22.6698 0.0000 3.8585
# 5 -2.7541 -5.8395 3.2151 0.0000 38.9661 0.0000
# 6 0.0000 0.0000 0.0000 3.8585 0.0000 30.1505
#
#
#
# Elastic Compliance Matrix: (Units=1/GPa)
#
#
# Indices 1 2 3 4 5 6 
#
# 1 0.008832 -0.004582 -0.002020 0.000000 0.000104 0.000000
# 2 -0.004582 0.015694 -0.002174 0.000000 0.002207 0.000000
# 3 -0.002020 -0.002174 0.013081 0.000000 -0.001548 0.000000
# 4 0.000000 0.000000 0.000000 0.045094 0.000000 -0.005771
# 5 0.000104 0.002207 -0.001548 0.000000 0.026129 0.000000
# 6 0.000000 0.000000 0.000000 -0.005771 0.000000 0.033905
#
#
# Mechanical properties :
#
#
# Convention : Reuss Voigt Hill
#
# Bulk Modulus (GPa) = 49.86049 55.81781 52.83915
# Shear Modulus (GPa) = 29.94530 32.59851 31.27190
#
# Velocity S-wave (km/s) = 3.83520 4.00150 3.91924
# Velocity P-wave (km/s) = 6.64098 6.98330 6.81429
#
# Compressibility (1/GPa) = 0.02005596
#
# Stress axis : x y z
#
# Youngs Moduli (GPa) = 113.22674 63.71990 76.44552
#
# Poissons Ratio (x) = 0.29195 0.15441
# Poissons Ratio (y) = 0.51878 0.16617
# Poissons Ratio (z) = 0.22870 0.13851
#
# Static dielectric constant tensor:
#      x y z
#    x 3.897870 0.000000 0.032340 
#    y 0.000000 3.425070 0.000000 
#    z 0.032340 0.000000 3.616400 
# 
# 
# High freq. dielectric constant tensor:
#      x y z
#    x 1.815060 0.000000 -0.000530 
#    y 0.000000 1.763110 0.000000 
#    z -0.000530 0.000000 1.800080 
# 
# From -- ./inp_files/156282.got.cif
#   From: 2010.06.25/outbox.cif.g09.slc.cpg/sg15_79_cif.got.tgz:156282.got - 2010.06.28 07:06:18.
