data_PCOD8147748
_publ_section_title
;
Structure prediction by ZEFSAII (Michael W. Deem and Ramdas Pophale) SiO2 
 PCOD8147748
Probable space group: C 2/C
;
_chemical_formula_sum "Si O2"
_cell_formula_units_Z 44
_cell_length_a 9.030106
_cell_length_b 22.208567
_cell_length_c 10.224264
_cell_angle_alpha 90.000000
_cell_angle_beta 62.677547
_cell_angle_gamma 90.000000
_cell_volume 1821.680824
_symmetry_space_group_name_H-M "C 2/C"
_symmetry_group_IT_number 15
_symmetry_cell_setting 'monoclinic'
loop_
_space_group_symop_operation_xyz
x,y,z
-x,y,1/2-z
-x,-y,-z
x,-y,1/2+z
1/2+x,1/2+y,z
1/2-x,1/2+y,1/2-z
1/2-x,1/2-y,-z
1/2+x,1/2-y,1/2+z
loop_
_atom_site_type_symbol
_atom_site_label
_atom_site_fract_x
_atom_site_fract_y
_atom_site_fract_z
Si Si1 0.539934 0.282861 0.873212
Si Si2 0.829201 0.635695 0.281551
Si Si3 0.746842 0.321090 0.331317
Si Si4 0.000000 0.107555 0.750000
Si Si5 0.707612 0.954639 0.487367
Si Si6 0.611368 0.088987 0.518634
O O1 0.500000 0.313912 0.750000
O O2 0.674440 0.324180 0.894111
O O3 0.619666 0.217489 0.807219
O O4 0.370719 0.278272 0.028100
O O5 0.840181 0.572098 0.352239
O O6 0.812828 0.624135 0.134946
O O7 0.000000 0.671435 0.250000
O O8 0.624241 0.351715 0.280806
O O9 0.853309 0.369916 0.369715
O O10 0.896511 0.063625 0.884748
O O11 0.584543 0.926435 0.425365
O O12 0.705399 0.026100 0.498697
#
# Coordination Sequence:
#
# PCOD8147748 Si02
#       6
#     8   8   8   4   8   8
#     4  12  26  48  71 104 140 198 245 307 360 434
#     4  10  22  44  73 101 142 192 237 292 370 440
#     4  12  29  47  73 107 149 193 252 304 366 435
#     4  12  28  44  72 112 144 186 242 304 370 442
#     4  10  24  46  73 109 146 190 234 301 372 441
#     4  10  24  47  75 105 146 190 244 300 364 442
#
# _framework density 24.153518999999999
#
# number of rings (size 3 to 8) (size 9 to 14) (size 15 to 20)
#    0.000    1.091    3.636    0.545    6.364    4.364 
#    0.000    0.000    0.000    0.000    0.000    0.000 
#    0.000    0.000    0.000    0.000    0.000    0.000 
#
# Total GULP energy -272726.700259 kJ/mol
# GULP energy per Si atom -12396.668194 kJ/mol
# Density = 2.409854 g / cm^3
# Si number density = 24.153519 Si / 1000 Ang^3
#
#
#
# Elastic Constant Matrix: (Units=GPa)
#
#
# Indices 1 2 3 4 5 6 
#
# 1 98.0365 67.7807 15.6234 0.0000 9.8727 0.0000
# 2 67.7807 137.2283 26.9984 0.0000 2.3275 0.0000
# 3 15.6234 26.9984 64.4904 0.0000 -0.8674 0.0000
# 4 0.0000 0.0000 0.0000 -38.1852 0.0000 -3.9503
# 5 9.8727 2.3275 -0.8674 0.0000 45.6214 0.0000
# 6 0.0000 0.0000 0.0000 -3.9503 0.0000 43.8909
#
#
#
# Elastic Compliance Matrix: (Units=1/GPa)
#
#
# Indices 1 2 3 4 5 6 
#
# 1 0.015929 -0.007681 -0.000685 0.000000 -0.003068 0.000000
# 2 -0.007681 0.011655 -0.003005 0.000000 0.001010 0.000000
# 3 -0.000685 -0.003005 0.016938 0.000000 0.000623 0.000000
# 4 0.000000 0.000000 0.000000 -0.025947 0.000000 -0.002335
# 5 -0.003068 0.001010 0.000623 0.000000 0.022544 0.000000
# 6 0.000000 0.000000 0.000000 -0.002335 0.000000 0.022574
#
#
# Mechanical properties :
#
#
# Convention : Reuss Voigt Hill
#
# Bulk Modulus (GPa) = 45.91087 57.84000 51.87543
# Shear Modulus (GPa) = 53.36498 22.88894 38.12696
#
# Velocity S-wave (km/s) = 4.70553 3.08172 3.97738
# Velocity P-wave (km/s) = 6.96936 6.05487 6.52815
#
# Compressibility (1/GPa) = 0.02178133
#
# Stress axis : x y z
#
# Youngs Moduli (GPa) = 62.77923 85.80009 59.03745
#
# Poissons Ratio (x) = 0.65903 0.04042
# Poissons Ratio (y) = 0.48220 0.17740
# Poissons Ratio (z) = 0.04298 0.25782
#
# Static dielectric constant tensor:
#      x y z
#    x 4.864510 0.000000 -0.323080 
#    y 0.000000 4.110060 0.000000 
#    z -0.323080 0.000000 4.447190 
# 
# 
# High freq. dielectric constant tensor:
#      x y z
#    x 1.980950 0.000000 -0.008470 
#    y 0.000000 1.949730 0.000000 
#    z -0.008470 0.000000 1.960580 
# 
# From -- ./inp_files/78102.got.cif
#   From: 2010.06.25/outbox.cif.g09.slc.cpg/sg15_40_cif.got.tgz:78102.got - 2010.06.28 07:06:18.
