data_PCOD8147611
_publ_section_title
;
Structure prediction by ZEFSAII (Michael W. Deem and Ramdas Pophale) SiO2 
 PCOD8147611
Probable space group: C 2/C
;
_chemical_formula_sum "Si O2"
_cell_formula_units_Z 36
_cell_length_a 22.439261
_cell_length_b 13.673341
_cell_length_c 13.767857
_cell_angle_alpha 90.000000
_cell_angle_beta 22.738094
_cell_angle_gamma 90.000000
_cell_volume 1632.753973
_symmetry_space_group_name_H-M "C 2/C"
_symmetry_group_IT_number 15
_symmetry_cell_setting 'monoclinic'
loop_
_space_group_symop_operation_xyz
x,y,z
-x,y,1/2-z
-x,-y,-z
x,-y,1/2+z
1/2+x,1/2+y,z
1/2-x,1/2+y,1/2-z
1/2-x,1/2-y,-z
1/2+x,1/2-y,1/2+z
loop_
_atom_site_type_symbol
_atom_site_label
_atom_site_fract_x
_atom_site_fract_y
_atom_site_fract_z
Si Si1 0.000000 0.739357 0.250000
Si Si2 0.604048 0.596322 0.343728
Si Si3 0.247721 0.103866 0.327891
Si Si4 0.331648 0.397407 0.970087
Si Si5 0.028203 0.693569 0.998797
O O1 0.848082 0.804962 0.488193
O O2 0.013322 0.671662 0.325886
O O3 0.500000 0.500000 0.500000
O O4 0.731507 0.588153 0.236819
O O5 0.690199 0.610865 0.112523
O O6 0.497401 0.691460 0.524452
O O7 0.186818 0.009499 0.474167
O O8 0.426288 0.124040 0.083540
O O9 0.500000 0.359742 0.750000
O O10 0.207261 0.329550 0.210243
#
# Coordination Sequence:
#
# PCOD8147611 Si02
#       5
#     4   8   8   8   8
#     4  10  22  44  68 100 136 180 224 282 342 404
#     4  11  24  44  70  97 140 182 216 281 347 404
#     4  11  23  45  69  99 136 179 231 273 340 409
#     4  12  24  44  68 100 142 176 226 279 348 402
#     4  11  26  42  71 106 130 180 233 283 332 411
#
# _framework density 22.048636999999999
#
# number of rings (size 3 to 8) (size 9 to 14) (size 15 to 20)
#    0.000    0.889    3.333    3.333    6.222    2.667 
#    0.000    0.000    0.000    0.000    0.000    0.000 
#    0.000    0.000    0.000    0.000    0.000    0.000 
#
# Total GULP energy -223285.419589 kJ/mol
# GULP energy per Si atom -12404.745533 kJ/mol
# Density = 2.199845 g / cm^3
# Si number density = 22.048637 Si / 1000 Ang^3
#
#
#
# Elastic Constant Matrix: (Units=GPa)
#
#
# Indices 1 2 3 4 5 6 
#
# 1 216.1998 53.3452 75.6762 0.0000 21.5080 0.0000
# 2 53.3452 63.5128 31.5835 0.0002 -8.8032 -0.0002
# 3 75.6762 31.5835 119.9894 0.0002 -6.2797 -0.0002
# 4 0.0000 0.0002 0.0002 22.8340 -0.0001 2.9970
# 5 21.5080 -8.8032 -6.2797 -0.0001 46.8777 0.0001
# 6 0.0000 -0.0002 -0.0002 2.9970 0.0001 34.9071
#
#
#
# Elastic Compliance Matrix: (Units=1/GPa)
#
#
# Indices 1 2 3 4 5 6 
#
# 1 0.007766 -0.005360 -0.003753 0.000000 -0.005072 0.000000
# 2 -0.005360 0.022183 -0.002127 0.000000 0.006340 0.000000
# 3 -0.003753 -0.002127 0.011410 0.000000 0.002851 0.000000
# 4 0.000000 0.000000 0.000000 0.044294 0.000000 -0.003803
# 5 -0.005072 0.006340 0.002851 0.000000 0.025232 0.000000
# 6 0.000000 0.000000 0.000000 -0.003803 0.000000 0.028974
#
#
# Mechanical properties :
#
#
# Convention : Reuss Voigt Hill
#
# Bulk Modulus (GPa) = 52.96503 80.10130 66.53316
# Shear Modulus (GPa) = 29.65080 36.86357 33.25719
#
# Velocity S-wave (km/s) = 3.67112 4.09335 3.88797
# Velocity P-wave (km/s) = 6.48410 7.66478 7.09903
#
# Compressibility (1/GPa) = 0.01888038
#
# Stress axis : x y z
#
# Youngs Moduli (GPa) = 128.76809 45.07987 87.64381
#
# Poissons Ratio (x) = 0.24161 0.32889
# Poissons Ratio (y) = 0.69015 0.18641
# Poissons Ratio (z) = 0.48321 0.09588
#
# Static dielectric constant tensor:
#      x y z
#    x 4.351220 0.000000 0.106390 
#    y 0.000000 3.941670 0.000000 
#    z 0.106390 0.000000 3.771350 
# 
# 
# High freq. dielectric constant tensor:
#      x y z
#    x 1.885400 0.000000 0.008640 
#    y 0.000000 1.866200 0.000000 
#    z 0.008640 0.000000 1.854950 
# 
# From -- ./inp_files/84393.got.cif
#   From: 2010.06.25/outbox.cif.g09.slc.cpg/sg15_43_cif.got.tgz:84393.got - 2010.06.28 07:06:18.
