data_PCOD8147319
_publ_section_title
;
Structure prediction by ZEFSAII (Michael W. Deem and Ramdas Pophale) SiO2 
 PCOD8147319
Probable space group: C 2/C
;
_chemical_formula_sum "Si O2"
_cell_formula_units_Z 40
_cell_length_a 17.601440
_cell_length_b 7.374321
_cell_length_c 14.447292
_cell_angle_alpha 90.000000
_cell_angle_beta 61.158629
_cell_angle_gamma 90.000000
_cell_volume 1642.631956
_symmetry_space_group_name_H-M "C 2/C"
_symmetry_group_IT_number 15
_symmetry_cell_setting 'monoclinic'
loop_
_space_group_symop_operation_xyz
x,y,z
-x,y,1/2-z
-x,-y,-z
x,-y,1/2+z
1/2+x,1/2+y,z
1/2-x,1/2+y,1/2-z
1/2-x,1/2-y,-z
1/2+x,1/2-y,1/2+z
loop_
_atom_site_type_symbol
_atom_site_label
_atom_site_fract_x
_atom_site_fract_y
_atom_site_fract_z
Si Si1 0.908386 0.544836 0.504792
Si Si2 0.903359 0.715632 0.840786
Si Si3 0.935684 0.943270 0.418867
Si Si4 0.619366 0.555799 0.858286
Si Si5 0.799277 0.677723 0.724854
O O1 0.884205 0.391883 0.445949
O O2 0.903512 0.738333 0.453002
O O3 0.835537 0.533667 0.628218
O O4 0.000000 0.500000 0.500000
O O5 0.835372 0.640010 0.806274
O O6 0.000000 0.670147 0.750000
O O7 0.891085 0.935221 0.863915
O O8 0.038986 0.932688 0.334451
O O9 0.921561 0.076807 0.515660
O O10 0.694875 0.696743 0.787906
O O11 0.666317 0.365627 0.831487
#
# Coordination Sequence:
#
# PCOD8147319 Si02
#       5
#     8   8   8   8   8
#     4  11  23  44  72 101 141 184 235 289 355 423
#     4  12  23  45  69 106 140 185 242 289 350 428
#     4  10  23  45  68  96 137 189 228 285 359 421
#     4  10  22  43  67  95 136 182 227 287 357 411
#     4  11  25  43  67 105 138 182 240 291 352 423
#
# _framework density 24.351163
#
# number of rings (size 3 to 8) (size 9 to 14) (size 15 to 20)
#    0.000    1.200    4.000    2.400    5.600    1.600 
#    3.600    2.000    0.000    0.000    0.000    0.000 
#    0.000    0.000    0.000    0.000    0.000    0.000 
#
# Total GULP energy -247816.732471 kJ/mol
# GULP energy per Si atom -12390.836624 kJ/mol
# Density = 2.429574 g / cm^3
# Si number density = 24.351163 Si / 1000 Ang^3
#
#
#
# Elastic Constant Matrix: (Units=GPa)
#
#
# Indices 1 2 3 4 5 6 
#
# 1 95.6249 25.5047 55.3917 0.0000 -12.6078 0.0002
# 2 25.5047 107.3113 46.2327 -0.0002 15.8099 -0.0028
# 3 55.3917 46.2327 95.8132 -0.0001 5.9919 -0.0019
# 4 0.0000 -0.0002 -0.0001 39.4700 0.0000 -46.1077
# 5 -12.6078 15.8099 5.9919 0.0000 41.8005 0.0009
# 6 0.0002 -0.0028 -0.0019 -46.1077 0.0009 -806.9285
#
#
#
# Elastic Compliance Matrix: (Units=1/GPa)
#
#
# Indices 1 2 3 4 5 6 
#
# 1 0.017486 -0.000818 -0.010154 0.000000 0.007039 0.000000
# 2 -0.000818 0.012388 -0.005243 0.000000 -0.004181 0.000000
# 3 -0.010154 -0.005243 0.019076 0.000000 -0.003814 0.000000
# 4 0.000000 0.000000 0.000000 0.023750 0.000000 -0.001357
# 5 0.007039 -0.004181 -0.003814 0.000000 0.028174 0.000000
# 6 0.000000 0.000000 0.000000 -0.001357 0.000000 -0.001162
#
#
# Mechanical properties :
#
#
# Convention : Reuss Voigt Hill
#
# Bulk Modulus (GPa) = 60.53840 61.44529 60.99185
# Shear Modulus (GPa) = 36.32400 -133.69025 -48.68312
#
# Velocity S-wave (km/s) = 3.86641 -7.41756 -4.47610
# Velocity P-wave (km/s) = 6.69677 6.93343 1.26998
#
# Compressibility (1/GPa) = 0.01651844
#
# Stress axis : x y z
#
# Youngs Moduli (GPa) = 57.18907 80.72375 52.42200
#
# Poissons Ratio (x) = 0.06604 0.53231
# Poissons Ratio (y) = 0.04679 0.27486
# Poissons Ratio (z) = 0.58072 0.42325
#
# Static dielectric constant tensor:
#      x y z
#    x 4.860420 0.000000 -0.869690 
#    y 0.000000 4.294410 0.000000 
#    z -0.869690 0.000000 5.422570 
# 
# 
# High freq. dielectric constant tensor:
#      x y z
#    x 1.937290 0.000000 -0.007130 
#    y 0.000000 1.971860 0.000000 
#    z -0.007130 0.000000 1.986700 
# 
# From -- ./inp_files/150595.got.cif
#   From: 2010.06.25/outbox.cif.g09.slc.cpg/sg15_76_cif.got.tgz:150595.got - 2010.06.28 07:06:18.
