data_PCOD8147153
_publ_section_title
;
Structure prediction by ZEFSAII (Michael W. Deem and Ramdas Pophale) SiO2 
 PCOD8147153
Probable space group: C 2/C
;
_chemical_formula_sum "Si O2"
_cell_formula_units_Z 56
_cell_length_a 10.999426
_cell_length_b 21.557281
_cell_length_c 11.507981
_cell_angle_alpha 90.000000
_cell_angle_beta 72.814259
_cell_angle_gamma 90.000000
_cell_volume 2606.912917
_symmetry_space_group_name_H-M "C 2/C"
_symmetry_group_IT_number 15
_symmetry_cell_setting 'monoclinic'
loop_
_space_group_symop_operation_xyz
x,y,z
-x,y,1/2-z
-x,-y,-z
x,-y,1/2+z
1/2+x,1/2+y,z
1/2-x,1/2+y,1/2-z
1/2-x,1/2-y,-z
1/2+x,1/2-y,1/2+z
loop_
_atom_site_type_symbol
_atom_site_label
_atom_site_fract_x
_atom_site_fract_y
_atom_site_fract_z
Si Si1 0.682131 0.412091 0.415397
Si Si2 0.463294 0.629172 0.134283
Si Si3 0.871902 0.542472 0.033145
Si Si4 0.395258 0.815728 0.537833
Si Si5 0.366443 0.250141 0.553630
Si Si6 0.858443 0.983360 0.742744
Si Si7 0.288877 0.214084 0.826809
O O1 0.590565 0.405570 0.552247
O O2 0.814462 0.445596 0.419880
O O3 0.621944 0.454764 0.335206
O O4 0.693782 0.344131 0.356693
O O5 0.500000 0.658948 0.250000
O O6 0.417955 0.680861 0.057829
O O7 0.344345 0.580238 0.172142
O O8 0.896486 0.612015 0.073484
O O9 0.762070 0.508004 0.138353
O O10 0.000000 0.500000 0.000000
O O11 0.527156 0.788287 0.546299
O O12 0.390858 0.800830 0.399850
O O13 0.277227 0.780726 0.631520
O O14 0.250000 0.250000 0.500000
O O15 0.343597 0.216163 0.682434
O O16 0.000000 0.969880 0.750000
#
# Coordination Sequence:
#
# PCOD8147153 Si02
#       7
#     8   8   8   8   8   8   8
#     4  11  23  43  71 101 131 180 236 291 339 412
#     4  11  21  43  72  96 129 183 243 276 333 423
#     4  11  25  43  66 101 140 176 227 289 353 412
#     4  10  22  45  69  96 129 183 232 278 337 422
#     4  12  26  40  65 103 141 175 216 290 359 410
#     4  11  24  42  71  98 132 182 232 280 342 417
#     4  10  22  42  72  96 130 178 240 273 335 417
#
# _framework density 21.481345999999998
#
# number of rings (size 3 to 8) (size 9 to 14) (size 15 to 20)
#    0.000    1.143    4.286    2.571    4.000    3.429 
#    0.000    1.429    0.000    0.000    0.000    0.000 
#    0.000    0.000    0.000    0.000    0.000    0.000 
#
# Total GULP energy -346953.907480 kJ/mol
# GULP energy per Si atom -12391.210981 kJ/mol
# Density = 2.143245 g / cm^3
# Si number density = 21.481346 Si / 1000 Ang^3
#
#
#
# Elastic Constant Matrix: (Units=GPa)
#
#
# Indices 1 2 3 4 5 6 
#
# 1 110.3173 44.8061 30.8417 0.0000 -16.8135 0.0000
# 2 44.8061 136.8553 25.8261 0.0000 -5.2405 0.0000
# 3 30.8417 25.8261 66.9749 0.0000 -14.6940 0.0000
# 4 0.0000 0.0000 0.0000 31.5361 0.0000 -3.1908
# 5 -16.8135 -5.2405 -14.6940 0.0000 26.9282 0.0000
# 6 0.0000 0.0000 0.0000 -3.1908 0.0000 41.9168
#
#
#
# Elastic Compliance Matrix: (Units=1/GPa)
#
#
# Indices 1 2 3 4 5 6 
#
# 1 0.012016 -0.003134 -0.003195 0.000000 0.005149 0.000000
# 2 -0.003134 0.008698 -0.002237 0.000000 -0.001484 0.000000
# 3 -0.003195 -0.002237 0.019007 0.000000 0.007941 0.000000
# 4 0.000000 0.000000 0.000000 0.031956 0.000000 0.002433
# 5 0.005149 -0.001484 0.007941 0.000000 0.044395 0.000000
# 6 0.000000 0.000000 0.000000 0.002433 0.000000 0.024042
#
#
# Mechanical properties :
#
#
# Convention : Reuss Voigt Hill
#
# Bulk Modulus (GPa) = 44.26764 57.45504 50.86134
# Shear Modulus (GPa) = 30.34441 34.25445 32.29943
#
# Velocity S-wave (km/s) = 3.76253 3.99759 3.88184
# Velocity P-wave (km/s) = 6.28710 6.93630 6.61966
#
# Compressibility (1/GPa) = 0.02258986
#
# Stress axis : x y z
#
# Youngs Moduli (GPa) = 83.22534 114.96597 52.61190
#
# Poissons Ratio (x) = 0.36028 0.16810
# Poissons Ratio (y) = 0.26081 0.11768
# Poissons Ratio (z) = 0.26591 0.25714
#
# Static dielectric constant tensor:
#      x y z
#    x 3.877870 0.000000 -0.134630 
#    y 0.000000 4.138080 0.000000 
#    z -0.134630 0.000000 3.666320 
# 
# 
# High freq. dielectric constant tensor:
#      x y z
#    x 1.830670 0.000000 -0.018620 
#    y 0.000000 1.859740 0.000000 
#    z -0.018620 0.000000 1.827640 
# 
# From -- ./inp_files/89558.got.cif
#   From: 2010.06.25/outbox.cif.g09.slc.cpg/sg15_45_cif.got.tgz:89558.got - 2010.06.28 07:06:18.
