data_PCOD8147368
_publ_section_title
;
Structure prediction by ZEFSAII (Michael W. Deem and Ramdas Pophale) SiO2 
 PCOD8147368
Probable space group: C 2/C
;
_chemical_formula_sum "Si O2"
_cell_formula_units_Z 64
_cell_length_a 14.148245
_cell_length_b 22.568772
_cell_length_c 9.626266
_cell_angle_alpha 90.000000
_cell_angle_beta 86.174976
_cell_angle_gamma 90.000000
_cell_volume 3066.901710
_symmetry_space_group_name_H-M "C 2/C"
_symmetry_group_IT_number 15
_symmetry_cell_setting 'monoclinic'
loop_
_space_group_symop_operation_xyz
x,y,z
-x,y,1/2-z
-x,-y,-z
x,-y,1/2+z
1/2+x,1/2+y,z
1/2-x,1/2+y,1/2-z
1/2-x,1/2-y,-z
1/2+x,1/2-y,1/2+z
loop_
_atom_site_type_symbol
_atom_site_label
_atom_site_fract_x
_atom_site_fract_y
_atom_site_fract_z
Si Si1 0.200600 0.904713 0.480791
Si Si2 0.895932 0.992535 0.818789
Si Si3 0.085424 0.545633 0.990342
Si Si4 0.895820 0.873419 0.284136
Si Si5 0.202105 0.702026 0.406294
Si Si6 0.667690 0.254689 0.113114
Si Si7 0.506104 0.834424 0.588542
Si Si8 0.201214 0.507992 0.705784
O O1 0.122407 0.950902 0.547368
O O2 0.151684 0.870336 0.361343
O O3 0.237153 0.858925 0.593132
O O4 0.291056 0.939188 0.407968
O O5 0.000000 0.975965 0.750000
O O6 0.893068 0.062294 0.858338
O O7 0.806904 0.982101 0.723611
O O8 0.153069 0.531896 0.851917
O O9 0.045058 0.612247 0.988225
O O10 0.140566 0.541890 0.132784
O O11 0.000000 0.500000 0.000000
O O12 0.846465 0.825188 0.383959
O O13 0.000000 0.849890 0.250000
O O14 0.250000 0.750000 0.500000
O O15 0.203705 0.726847 0.252226
O O16 0.094824 0.686705 0.462036
O O17 0.574320 0.221985 0.067641
O O18 0.750000 0.250000 0.000000
O O19 0.500000 0.855143 0.750000
#
# Coordination Sequence:
#
# PCOD8147368 Si02
#       8
#     8   8   8   8   8   8   8   8
#     4  11  23  43  67 101 136 175 229 280 353 406
#     4  10  24  44  68 101 137 178 229 291 353 422
#     4  12  24  42  66 103 139 180 227 288 347 420
#     4  10  22  43  69  90 133 181 223 276 343 412
#     4  11  23  45  72  92 134 180 223 280 342 409
#     4  11  25  44  67 101 129 177 230 280 339 409
#     4  10  24  41  69  97 132 177 230 279 342 415
#     4  11  24  41  68  96 143 179 223 280 357 412
#
# _framework density 20.867967
#
# number of rings (size 3 to 8) (size 9 to 14) (size 15 to 20)
#    0.000    1.250    2.500    3.000    7.000    4.500 
#    4.500    1.875    0.000    0.000    0.000    0.000 
#    0.000    0.000    0.000    0.000    0.000    0.000 
#
# Total GULP energy -396699.342160 kJ/mol
# GULP energy per Si atom -12396.854442 kJ/mol
# Density = 2.082047 g / cm^3
# Si number density = 20.867967 Si / 1000 Ang^3
#
#
#
# Elastic Constant Matrix: (Units=GPa)
#
#
# Indices 1 2 3 4 5 6 
#
# 1 153.7671 68.8525 56.4757 0.0000 -9.1153 0.0000
# 2 68.8525 127.1650 53.9320 0.0000 -10.1338 0.0000
# 3 56.4757 53.9320 61.6060 0.0000 -23.1141 0.0000
# 4 0.0000 0.0000 0.0000 36.7203 0.0000 -2.7956
# 5 -9.1153 -10.1338 -23.1141 0.0000 35.3478 0.0000
# 6 0.0000 0.0000 0.0000 -2.7956 0.0000 41.2793
#
#
#
# Elastic Compliance Matrix: (Units=1/GPa)
#
#
# Indices 1 2 3 4 5 6 
#
# 1 0.010680 -0.002082 -0.009486 0.000000 -0.004045 0.000000
# 2 -0.002082 0.013542 -0.011517 0.000000 -0.004186 0.000000
# 3 -0.009486 -0.011517 0.043534 0.000000 0.022719 0.000000
# 4 0.000000 0.000000 0.000000 0.027374 0.000000 0.001854
# 5 -0.004045 -0.004186 0.022719 0.000000 0.040904 0.000000
# 6 0.000000 0.000000 0.000000 0.001854 0.000000 0.024351
#
#
# Mechanical properties :
#
#
# Convention : Reuss Voigt Hill
#
# Bulk Modulus (GPa) = 46.32394 77.89539 62.10966
# Shear Modulus (GPa) = 23.39195 33.55465 28.47330
#
# Velocity S-wave (km/s) = 3.35169 4.01428 3.69785
# Velocity P-wave (km/s) = 6.10125 7.67428 6.93253
#
# Compressibility (1/GPa) = 0.02158711
#
# Stress axis : x y z
#
# Youngs Moduli (GPa) = 93.63669 73.84469 22.97034
#
# Poissons Ratio (x) = 0.15373 0.21789
# Poissons Ratio (y) = 0.19494 0.26455
# Poissons Ratio (z) = 0.88820 0.85047
#
# Static dielectric constant tensor:
#      x y z
#    x 4.247240 0.000000 0.353760 
#    y 0.000000 3.979610 0.000000 
#    z 0.353760 0.000000 4.101620 
# 
# 
# High freq. dielectric constant tensor:
#      x y z
#    x 1.834680 0.000000 0.006310 
#    y 0.000000 1.823170 0.000000 
#    z 0.006310 0.000000 1.801500 
# 
# From -- ./inp_files/42635.got.cif
#   From: 2010.06.25/outbox.cif.g09.slc.cpg/sg15_22_cif.got.tgz:42635.got - 2010.06.28 07:06:18.
