data_PCOD8147261
_publ_section_title
;
Structure prediction by ZEFSAII (Michael W. Deem and Ramdas Pophale) SiO2 
 PCOD8147261
Probable space group: C 2/C
;
_chemical_formula_sum "Si O2"
_cell_formula_units_Z 60
_cell_length_a 11.581330
_cell_length_b 27.076437
_cell_length_c 17.625972
_cell_angle_alpha 90.000000
_cell_angle_beta 148.758352
_cell_angle_gamma 90.000000
_cell_volume 2866.660513
_symmetry_space_group_name_H-M "C 2/C"
_symmetry_group_IT_number 15
_symmetry_cell_setting 'monoclinic'
loop_
_space_group_symop_operation_xyz
x,y,z
-x,y,1/2-z
-x,-y,-z
x,-y,1/2+z
1/2+x,1/2+y,z
1/2-x,1/2+y,1/2-z
1/2-x,1/2-y,-z
1/2+x,1/2-y,1/2+z
loop_
_atom_site_type_symbol
_atom_site_label
_atom_site_fract_x
_atom_site_fract_y
_atom_site_fract_z
Si Si1 0.500000 0.216153 0.250000
Si Si2 0.716939 0.519648 0.911342
Si Si3 0.962934 0.806939 0.838704
Si Si4 0.858120 0.336274 0.959496
Si Si5 0.768524 0.216808 0.737403
Si Si6 0.566613 0.656081 0.011688
Si Si7 0.501843 0.546939 0.557510
Si Si8 0.075485 0.563744 0.609593
O O1 0.552562 0.250986 0.208011
O O2 0.297102 0.180347 0.114517
O O3 0.500000 0.494774 0.750000
O O4 0.662374 0.538407 0.964309
O O5 0.797175 0.564112 0.900455
O O6 0.915406 0.482105 0.028784
O O7 0.776248 0.842670 0.694888
O O8 0.860526 0.751905 0.775646
O O9 0.005897 0.822881 0.948354
O O10 0.196804 0.807775 0.927107
O O11 0.085455 0.305231 0.076136
O O12 0.922049 0.388545 0.031414
O O13 0.883002 0.171577 0.846093
O O14 0.586670 0.596907 0.031782
O O15 0.500000 0.500000 0.500000
O O16 0.751846 0.558165 0.724725
#
# Coordination Sequence:
#
# PCOD8147261 Si02
#       8
#     4   8   8   8   8   8   8   8
#     4  10  24  40  68  94 132 178 220 268 334 404
#     4   9  22  41  67  89 130 162 216 268 323 388
#     4  10  24  39  64  98 133 173 214 272 328 395
#     4  11  23  41  67  93 129 174 224 258 330 398
#     4  11  22  44  65  96 134 174 221 271 331 399
#     4  11  24  43  64  99 133 173 219 276 338 388
#     4  11  25  43  65  97 131 170 218 277 335 388
#     4  10  22  43  65  96 119 177 216 265 324 389
#
# _framework density 20.930278000000001
#
# number of rings (size 3 to 8) (size 9 to 14) (size 15 to 20)
#    0.000    1.600    1.333    2.400    3.733    9.600 
#    0.000    0.000    0.000    0.000    0.000    0.000 
#    0.000    0.000    0.000    0.000    0.000    0.000 
#
# Total GULP energy -371968.111877 kJ/mol
# GULP energy per Si atom -12398.937063 kJ/mol
# Density = 2.088264 g / cm^3
# Si number density = 20.930278 Si / 1000 Ang^3
#
#
#
# Elastic Constant Matrix: (Units=GPa)
#
#
# Indices 1 2 3 4 5 6 
#
# 1 84.3528 26.8348 27.1695 -0.0003 3.8535 -0.0003
# 2 26.8348 113.2867 27.8568 -0.0001 -1.5515 -0.0002
# 3 27.1695 27.8568 102.0714 -0.0007 2.6189 -0.0011
# 4 -0.0003 -0.0001 -0.0007 36.6017 -0.0008 -1.5489
# 5 3.8535 -1.5515 2.6189 -0.0008 26.0425 -0.0006
# 6 -0.0003 -0.0002 -0.0011 -1.5489 -0.0006 20.4686
#
#
#
# Elastic Compliance Matrix: (Units=1/GPa)
#
#
# Indices 1 2 3 4 5 6 
#
# 1 0.013687 -0.002556 -0.002897 0.000000 -0.001886 0.000000
# 2 -0.002556 0.009957 -0.002067 0.000000 0.001179 0.000000
# 3 -0.002897 -0.002067 0.011153 0.000000 -0.000816 0.000001
# 4 0.000000 0.000000 0.000000 0.027409 0.000001 0.002074
# 5 -0.001886 0.001179 -0.000816 0.000001 0.038830 0.000001
# 6 0.000000 0.000000 0.000001 0.002074 0.000001 0.049012
#
#
# Mechanical properties :
#
#
# Convention : Reuss Voigt Hill
#
# Bulk Modulus (GPa) = 50.61507 51.49256 51.05381
# Shear Modulus (GPa) = 29.12466 31.14589 30.13527
#
# Velocity S-wave (km/s) = 3.73434 3.86175 3.79858
# Velocity P-wave (km/s) = 6.54438 6.67379 6.60940
#
# Compressibility (1/GPa) = 0.01975696
#
# Stress axis : x y z
#
# Youngs Moduli (GPa) = 73.05999 100.43154 89.65805
#
# Poissons Ratio (x) = 0.25666 0.25978
# Poissons Ratio (y) = 0.18671 0.18536
# Poissons Ratio (z) = 0.21169 0.20764
#
# Static dielectric constant tensor:
#      x y z
#    x 3.832280 0.000000 0.100460 
#    y 0.000000 3.752400 0.000000 
#    z 0.100460 0.000000 3.911520 
# 
# 
# High freq. dielectric constant tensor:
#      x y z
#    x 1.815930 0.000000 0.009640 
#    y 0.000000 1.815580 0.000000 
#    z 0.009640 0.000000 1.833920 
# 
# From -- ./inp_files/201262.got.cif
#   From: 2010.06.25/outbox.cif.g09.slc.cpg/sg15_101_cif.got.tgz:201262.got - 2010.06.28 07:06:18.
