data_PCOD8147136
_publ_section_title
;
Structure prediction by ZEFSAII (Michael W. Deem and Ramdas Pophale) SiO2 
 PCOD8147136
Probable space group: C 2/C
;
_chemical_formula_sum "Si O2"
_cell_formula_units_Z 36
_cell_length_a 9.415295
_cell_length_b 16.731436
_cell_length_c 16.043428
_cell_angle_alpha 90.000000
_cell_angle_beta 144.837995
_cell_angle_gamma 90.000000
_cell_volume 1455.472784
_symmetry_space_group_name_H-M "C 2/C"
_symmetry_group_IT_number 15
_symmetry_cell_setting 'monoclinic'
loop_
_space_group_symop_operation_xyz
x,y,z
-x,y,1/2-z
-x,-y,-z
x,-y,1/2+z
1/2+x,1/2+y,z
1/2-x,1/2+y,1/2-z
1/2-x,1/2-y,-z
1/2+x,1/2-y,1/2+z
loop_
_atom_site_type_symbol
_atom_site_label
_atom_site_fract_x
_atom_site_fract_y
_atom_site_fract_z
Si Si1 0.027738 0.122432 0.568581
Si Si2 0.242605 0.726742 0.093424
Si Si3 0.277485 0.547558 0.300449
Si Si4 0.000000 0.012903 0.250000
Si Si5 0.137927 0.604919 0.511709
O O1 0.203007 0.195590 0.631386
O O2 0.832128 0.109212 0.400209
O O3 0.878897 0.143839 0.582397
O O4 0.199600 0.044263 0.659464
O O5 0.500000 0.689934 0.250000
O O6 0.022710 0.664478 0.008758
O O7 0.250000 0.750000 0.000000
O O8 0.480557 0.564850 0.324813
O O9 0.007694 0.564824 0.134990
O O10 0.255017 0.962096 0.374196
#
# Coordination Sequence:
#
# PCOD8147136 Si02
#       5
#     8   8   8   4   8
#     4  10  24  46  72 103 139 189 234 288 358 434
#     4  12  29  46  72 106 147 189 237 303 356 422
#     4  10  22  42  72 104 136 179 234 293 350 422
#     4  10  24  40  72 102 140 188 226 298 340 428
#     4  11  24  46  69 104 140 191 235 286 357 424
#
# _framework density 24.73423
#
# number of rings (size 3 to 8) (size 9 to 14) (size 15 to 20)
#    0.000    1.333    0.000    3.333   10.889    5.333 
#    4.000    0.000    0.000    0.000    0.000    0.000 
#    0.000    0.000    0.000    0.000    0.000    0.000 
#
# Total GULP energy -223150.996761 kJ/mol
# GULP energy per Si atom -12397.277598 kJ/mol
# Density = 2.467793 g / cm^3
# Si number density = 24.734230 Si / 1000 Ang^3
#
#
#
# Elastic Constant Matrix: (Units=GPa)
#
#
# Indices 1 2 3 4 5 6 
#
# 1 145.6138 15.4278 11.6063 0.0023 8.7155 -0.0005
# 2 15.4278 51.2925 15.7714 0.0023 10.2385 -0.0002
# 3 11.6063 15.7714 94.9186 0.0115 -6.8518 -0.0024
# 4 0.0023 0.0023 0.0115 29.0627 0.0006 8.4545
# 5 8.7155 10.2385 -6.8518 0.0006 44.0708 -0.0001
# 6 -0.0005 -0.0002 -0.0024 8.4545 -0.0001 42.6386
#
#
#
# Elastic Compliance Matrix: (Units=1/GPa)
#
#
# Indices 1 2 3 4 5 6 
#
# 1 0.007171 -0.001727 -0.000671 0.000000 -0.001121 0.000000
# 2 -0.001727 0.022297 -0.003887 0.000000 -0.005443 0.000000
# 3 -0.000671 -0.003887 0.011467 -0.000005 0.002818 0.000002
# 4 0.000000 0.000000 -0.000005 0.036515 -0.000001 -0.007240
# 5 -0.001121 -0.005443 0.002818 -0.000001 0.024615 0.000000
# 6 0.000000 0.000000 0.000002 -0.007240 0.000000 0.024889
#
#
# Mechanical properties :
#
#
# Convention : Reuss Voigt Hill
#
# Bulk Modulus (GPa) = 35.25337 41.93731 38.59534
# Shear Modulus (GPa) = 33.56233 39.75571 36.65902
#
# Velocity S-wave (km/s) = 3.68763 4.01348 3.85400
# Velocity P-wave (km/s) = 5.69345 6.20237 5.95335
#
# Compressibility (1/GPa) = 0.02836608
#
# Stress axis : x y z
#
# Youngs Moduli (GPa) = 139.45012 44.84935 87.20983
#
# Poissons Ratio (x) = 0.07745 0.05851
# Poissons Ratio (y) = 0.24080 0.33894
# Poissons Ratio (z) = 0.09355 0.17431
#
# Static dielectric constant tensor:
#      x y z
#    x 4.672150 0.000000 -0.070340 
#    y 0.000000 4.265210 -0.000010 
#    z -0.070340 -0.000010 4.433920 
# 
# 
# High freq. dielectric constant tensor:
#      x y z
#    x 2.010620 0.000000 -0.004690 
#    y 0.000000 1.968100 0.000000 
#    z -0.004690 0.000000 1.986170 
# 
# From -- ./inp_files/192659.got.cif
#   From: 2010.06.25/outbox.cif.g09.slc.cpg/sg15_97_cif.got.tgz:192659.got - 2010.06.28 07:06:18.
