data_PCOD8147551
_publ_section_title
;
Structure prediction by ZEFSAII (Michael W. Deem and Ramdas Pophale) SiO2 
 PCOD8147551
Probable space group: C 2/C
;
_chemical_formula_sum "Si O2"
_cell_formula_units_Z 56
_cell_length_a 8.856833
_cell_length_b 14.721593
_cell_length_c 20.863384
_cell_angle_alpha 90.000000
_cell_angle_beta 92.966460
_cell_angle_gamma 90.000000
_cell_volume 2716.662385
_symmetry_space_group_name_H-M "C 2/C"
_symmetry_group_IT_number 15
_symmetry_cell_setting 'monoclinic'
loop_
_space_group_symop_operation_xyz
x,y,z
-x,y,1/2-z
-x,-y,-z
x,-y,1/2+z
1/2+x,1/2+y,z
1/2-x,1/2+y,1/2-z
1/2-x,1/2-y,-z
1/2+x,1/2-y,1/2+z
loop_
_atom_site_type_symbol
_atom_site_label
_atom_site_fract_x
_atom_site_fract_y
_atom_site_fract_z
Si Si1 0.505845 0.106111 0.379924
Si Si2 0.233000 0.146245 0.015461
Si Si3 0.259735 0.533989 0.613002
Si Si4 0.251044 0.577675 0.286443
Si Si5 0.743763 0.212768 0.173831
Si Si6 0.825139 0.882990 0.246247
Si Si7 0.504249 0.623225 0.385469
O O1 0.626887 0.112684 0.438904
O O2 0.586863 0.086475 0.314206
O O3 0.413484 0.201828 0.369377
O O4 0.393556 0.023693 0.392928
O O5 0.071632 0.131445 0.046622
O O6 0.250000 0.250000 0.000000
O O7 0.232287 0.091806 0.950415
O O8 0.260395 0.603772 0.673215
O O9 0.408386 0.471745 0.618302
O O10 0.251177 0.619145 0.215417
O O11 0.297233 0.472800 0.286515
O O12 0.374293 0.631766 0.329753
O O13 0.758437 0.300608 0.218850
O O14 0.882509 0.208037 0.126339
O O15 0.000000 0.856827 0.250000
#
# Coordination Sequence:
#
# PCOD8147551 Si02
#       7
#     8   8   8   8   8   8   8
#     4  10  23  42  66  89 135 170 210 272 322 384
#     4  11  26  42  66  93 126 172 227 270 317 377
#     4  11  23  43  64  93 125 177 216 256 330 393
#     4  11  20  41  62  96 131 166 204 263 336 390
#     4  11  23  39  65  98 130 165 212 267 330 380
#     4  12  23  37  68  99 131 165 216 268 329 409
#     4  10  22  44  66  88 131 173 211 267 322 392
#
# _framework density 20.613527999999999
#
# number of rings (size 3 to 8) (size 9 to 14) (size 15 to 20)
#    0.000    1.143    4.286    2.571    6.000    1.143 
#    2.571    2.857    0.000    0.000    0.000    0.000 
#    0.000    0.000    0.000    0.000    0.000    0.000 
#
# Total GULP energy -347237.385818 kJ/mol
# GULP energy per Si atom -12401.335208 kJ/mol
# Density = 2.056661 g / cm^3
# Si number density = 20.613528 Si / 1000 Ang^3
#
#
#
# Elastic Constant Matrix: (Units=GPa)
#
#
# Indices 1 2 3 4 5 6 
#
# 1 113.4313 27.9077 39.8137 0.0000 -17.8068 0.0000
# 2 27.9077 92.6884 24.3841 0.0000 -6.7430 0.0000
# 3 39.8137 24.3841 98.7733 0.0000 -5.3187 0.0000
# 4 0.0000 0.0000 0.0000 42.3861 0.0000 -4.0105
# 5 -17.8068 -6.7430 -5.3187 0.0000 24.2190 0.0000
# 6 0.0000 0.0000 0.0000 -4.0105 0.0000 18.0739
#
#
#
# Elastic Compliance Matrix: (Units=1/GPa)
#
#
# Indices 1 2 3 4 5 6 
#
# 1 0.011812 -0.002008 -0.003874 0.000000 0.007275 0.000000
# 2 -0.002008 0.012046 -0.002088 0.000000 0.001419 0.000000
# 3 -0.003874 -0.002088 0.012160 0.000000 -0.000759 0.000000
# 4 0.000000 0.000000 0.000000 0.024099 0.000000 0.005347
# 5 0.007275 0.001419 -0.000759 0.000000 0.046867 0.000000
# 6 0.000000 0.000000 0.000000 0.005347 0.000000 0.056515
#
#
# Mechanical properties :
#
#
# Convention : Reuss Voigt Hill
#
# Bulk Modulus (GPa) = 49.80467 54.34489 52.07478
# Shear Modulus (GPa) = 26.86294 31.12164 28.99229
#
# Velocity S-wave (km/s) = 3.61386 3.88979 3.75436
# Velocity P-wave (km/s) = 6.45189 6.82604 6.64160
#
# Compressibility (1/GPa) = 0.02007844
#
# Stress axis : x y z
#
# Youngs Moduli (GPa) = 84.66300 83.01532 82.23589
#
# Poissons Ratio (x) = 0.16670 0.31855
# Poissons Ratio (y) = 0.17001 0.17171
# Poissons Ratio (z) = 0.32795 0.17333
#
# Static dielectric constant tensor:
#      x y z
#    x 3.954200 0.000000 -0.164800 
#    y 0.000000 3.419730 0.000000 
#    z -0.164800 0.000000 3.495130 
# 
# 
# High freq. dielectric constant tensor:
#      x y z
#    x 1.823250 0.000000 -0.003890 
#    y 0.000000 1.794550 0.000000 
#    z -0.003890 0.000000 1.809140 
# 
# From -- ./inp_files/231556.got.cif
#   From: 2010.06.25/outbox.cif.g09.slc.cpg/sg15_116_cif.got.tgz:231556.got - 2010.06.28 07:06:18.
