data_PCOD8147635
_publ_section_title
;
Structure prediction by ZEFSAII (Michael W. Deem and Ramdas Pophale) SiO2 
 PCOD8147635
Probable space group: C 2/C
;
_chemical_formula_sum "Si O2"
_cell_formula_units_Z 52
_cell_length_a 10.948656
_cell_length_b 14.915298
_cell_length_c 22.557833
_cell_angle_alpha 90.000000
_cell_angle_beta 44.776029
_cell_angle_gamma 90.000000
_cell_volume 2594.602310
_symmetry_space_group_name_H-M "C 2/C"
_symmetry_group_IT_number 15
_symmetry_cell_setting 'monoclinic'
loop_
_space_group_symop_operation_xyz
x,y,z
-x,y,1/2-z
-x,-y,-z
x,-y,1/2+z
1/2+x,1/2+y,z
1/2-x,1/2+y,1/2-z
1/2-x,1/2-y,-z
1/2+x,1/2-y,1/2+z
loop_
_atom_site_type_symbol
_atom_site_label
_atom_site_fract_x
_atom_site_fract_y
_atom_site_fract_z
Si Si1 0.674327 0.181750 0.978149
Si Si2 0.019965 0.208703 0.425804
Si Si3 0.000000 0.443746 0.250000
Si Si4 0.303827 0.872600 0.635759
Si Si5 0.826415 0.702337 0.889979
Si Si6 0.091939 0.035495 0.658489
Si Si7 0.711268 0.564016 0.293514
O O1 0.616595 0.229775 0.938698
O O2 0.823147 0.114346 0.907798
O O3 0.750000 0.250000 0.000000
O O4 0.511697 0.127667 0.060784
O O5 0.152941 0.128812 0.366623
O O6 0.979789 0.266156 0.380675
O O7 0.839894 0.171290 0.514559
O O8 0.886843 0.383526 0.332841
O O9 0.877788 0.506860 0.253344
O O10 0.220901 0.782603 0.638112
O O11 0.250667 0.876298 0.722353
O O12 0.230996 0.958124 0.625399
O O13 0.000000 0.071486 0.750000
O O14 0.947808 0.001174 0.663427
#
# Coordination Sequence:
#
# PCOD8147635 Si02
#       7
#     8   8   4   8   8   8   8
#     4  11  26  41  66  98 131 167 212 271 321 373
#     4  10  23  43  67  91 127 170 214 262 320 384
#     4  12  28  38  66 100 130 164 212 274 318 378
#     4  10  22  45  69  91 128 172 212 262 317 391
#     4  10  22  44  68  95 122 173 219 258 319 389
#     4  10  23  43  67  95 123 172 214 257 318 389
#     4  11  25  42  64  96 131 168 210 268 325 374
#
# _framework density 20.041606999999999
#
# number of rings (size 3 to 8) (size 9 to 14) (size 15 to 20)
#    0.000    1.538    1.538    1.385   11.846    3.077 
#    0.000    0.000    0.000    0.000    0.000    0.000 
#    0.000    0.000    0.000    0.000    0.000    0.000 
#
# Total GULP energy -322506.410483 kJ/mol
# GULP energy per Si atom -12404.092711 kJ/mol
# Density = 1.999599 g / cm^3
# Si number density = 20.041607 Si / 1000 Ang^3
#
#
#
# Elastic Constant Matrix: (Units=GPa)
#
#
# Indices 1 2 3 4 5 6 
#
# 1 106.0402 42.1352 46.5230 -0.0001 -5.9298 0.0005
# 2 42.1352 96.8589 65.5179 -0.0001 -1.0693 0.0006
# 3 46.5230 65.5179 110.0827 -0.0002 -6.6293 0.0007
# 4 -0.0001 -0.0001 -0.0002 52.0450 0.0000 -9.7177
# 5 -5.9298 -1.0693 -6.6293 0.0000 28.2212 -0.0008
# 6 0.0005 0.0006 0.0007 -9.7177 -0.0008 78.9355
#
#
#
# Elastic Compliance Matrix: (Units=1/GPa)
#
#
# Indices 1 2 3 4 5 6 
#
# 1 0.012160 -0.003120 -0.003180 0.000000 0.001690 0.000000
# 2 -0.003120 0.018171 -0.009631 0.000000 -0.002229 0.000000
# 3 -0.003180 -0.009631 0.016329 0.000000 0.002803 0.000000
# 4 0.000000 0.000000 0.000000 0.019666 0.000000 0.002421
# 5 0.001690 -0.002229 0.002803 0.000000 0.036363 0.000000
# 6 0.000000 0.000000 0.000000 0.002421 0.000000 0.012967
#
#
# Mechanical properties :
#
#
# Convention : Reuss Voigt Hill
#
# Bulk Modulus (GPa) = 67.57613 69.03710 68.30662
# Shear Modulus (GPa) = 32.79738 42.42738 37.61238
#
# Velocity S-wave (km/s) = 4.04971 4.60604 4.33681
# Velocity P-wave (km/s) = 7.46043 7.92522 7.69634
#
# Compressibility (1/GPa) = 0.01479812
#
# Stress axis : x y z
#
# Youngs Moduli (GPa) = 82.23773 55.03150 61.24084
#
# Poissons Ratio (x) = 0.17168 0.19477
# Poissons Ratio (y) = 0.25656 0.58980
# Poissons Ratio (z) = 0.26155 0.53000
#
# Static dielectric constant tensor:
#      x y z
#    x 3.530050 0.000000 0.005850 
#    y 0.000000 3.539340 0.000000 
#    z 0.005850 0.000000 3.830590 
# 
# 
# High freq. dielectric constant tensor:
#      x y z
#    x 1.791620 0.000000 -0.000880 
#    y 0.000000 1.775650 0.000000 
#    z -0.000880 0.000000 1.798030 
# 
# From -- ./inp_files/269898.got.cif
#   From: 2010.06.25/outbox.cif.g09.slc.cpg/sg15_135_cif.got.tgz:269898.got - 2010.06.28 07:06:18.
