data_PCOD8147929
_publ_section_title
;
Structure prediction by ZEFSAII (Michael W. Deem and Ramdas Pophale) SiO2 
 PCOD8147929
Probable space group: C 2/C
;
_chemical_formula_sum "Si O2"
_cell_formula_units_Z 36
_cell_length_a 11.419186
_cell_length_b 18.534644
_cell_length_c 9.258127
_cell_angle_alpha 90.000000
_cell_angle_beta 61.226070
_cell_angle_gamma 90.000000
_cell_volume 1717.541459
_symmetry_space_group_name_H-M "C 2/C"
_symmetry_group_IT_number 15
_symmetry_cell_setting 'monoclinic'
loop_
_space_group_symop_operation_xyz
x,y,z
-x,y,1/2-z
-x,-y,-z
x,-y,1/2+z
1/2+x,1/2+y,z
1/2-x,1/2+y,1/2-z
1/2-x,1/2-y,-z
1/2+x,1/2-y,1/2+z
loop_
_atom_site_type_symbol
_atom_site_label
_atom_site_fract_x
_atom_site_fract_y
_atom_site_fract_z
Si Si1 0.302963 0.814118 0.064165
Si Si2 0.855451 0.953792 0.394935
Si Si3 0.244818 0.930597 0.746272
Si Si4 0.500000 0.889697 0.750000
Si Si5 0.157039 0.224277 0.186494
O O1 0.192957 0.876900 0.135690
O O2 0.333732 0.789266 0.206521
O O3 0.250000 0.750000 0.000000
O O4 0.439762 0.840604 0.911871
O O5 0.859538 0.954891 0.566879
O O6 0.000000 0.971373 0.250000
O O7 0.759891 0.016849 0.388401
O O8 0.388231 0.938551 0.739534
O O9 0.217744 0.848807 0.715410
O O10 0.000000 0.211205 0.250000
O O11 0.250000 0.250000 0.000000
#
# Coordination Sequence:
#
# PCOD8147929 Si02
#       5
#     8   8   8   4   8
#     4  11  24  43  71  97 130 181 219 280 338 412
#     4  11  25  42  70  96 135 175 227 272 339 404
#     4  11  25  44  67  99 132 182 220 284 331 408
#     4  10  22  46  70  96 136 170 238 270 348 402
#     4  12  27  44  69 103 141 175 231 289 341 405
#
# _framework density 20.960191999999999
#
# number of rings (size 3 to 8) (size 9 to 14) (size 15 to 20)
#    0.000    0.889    4.444    2.667    7.778    3.556 
#    2.000    0.000    0.000    0.000    0.000    0.000 
#    0.000    0.000    0.000    0.000    0.000    0.000 
#
# Total GULP energy -223208.134539 kJ/mol
# GULP energy per Si atom -12400.451919 kJ/mol
# Density = 2.091249 g / cm^3
# Si number density = 20.960192 Si / 1000 Ang^3
#
#
#
# Elastic Constant Matrix: (Units=GPa)
#
#
# Indices 1 2 3 4 5 6 
#
# 1 91.9700 21.6963 34.0235 0.0000 -5.6418 0.0000
# 2 21.6963 100.7159 31.6244 0.0000 13.7463 0.0000
# 3 34.0235 31.6244 145.6756 0.0000 6.6604 0.0000
# 4 0.0000 0.0000 0.0000 36.7613 0.0000 14.7330
# 5 -5.6418 13.7463 6.6604 0.0000 38.9855 0.0000
# 6 0.0000 0.0000 0.0000 14.7330 0.0000 28.4645
#
#
#
# Elastic Compliance Matrix: (Units=1/GPa)
#
#
# Indices 1 2 3 4 5 6 
#
# 1 0.012560 -0.002318 -0.002571 0.000000 0.003074 0.000000
# 2 -0.002318 0.011546 -0.001778 0.000000 -0.004103 0.000000
# 3 -0.002571 -0.001778 0.007901 0.000000 -0.001095 0.000000
# 4 0.000000 0.000000 0.000000 0.034322 0.000000 -0.017765
# 5 0.003074 -0.004103 -0.001095 0.000000 0.027729 0.000000
# 6 0.000000 0.000000 0.000000 -0.017765 0.000000 0.044326
#
#
# Mechanical properties :
#
#
# Convention : Reuss Voigt Hill
#
# Bulk Modulus (GPa) = 53.54948 57.00554 55.27751
# Shear Modulus (GPa) = 31.65717 37.57674 34.61695
#
# Velocity S-wave (km/s) = 3.89053 4.23870 4.06834
# Velocity P-wave (km/s) = 6.76649 7.15622 6.96408
#
# Compressibility (1/GPa) = 0.01867432
#
# Stress axis : x y z
#
# Youngs Moduli (GPa) = 79.62091 86.60683 126.56720
#
# Poissons Ratio (x) = 0.20075 0.32537
# Poissons Ratio (y) = 0.18456 0.22499
# Poissons Ratio (z) = 0.20468 0.15395
#
# Static dielectric constant tensor:
#      x y z
#    x 3.975820 0.000000 0.069020 
#    y 0.000000 3.913570 0.000000 
#    z 0.069020 0.000000 3.792620 
# 
# 
# High freq. dielectric constant tensor:
#      x y z
#    x 1.830150 0.000000 0.003440 
#    y 0.000000 1.824540 0.000000 
#    z 0.003440 0.000000 1.833960 
# 
# From -- ./inp_files/30116.got.cif
#   From: 2010.06.25/outbox.cif.g09.slc.cpg/sg15_16_cif.got.tgz:30116.got - 2010.06.28 07:06:18.
