data_PCOD8147312
_publ_section_title
;
Structure prediction by ZEFSAII (Michael W. Deem and Ramdas Pophale) SiO2 
 PCOD8147312
Probable space group: C 2/C
;
_chemical_formula_sum "Si O2"
_cell_formula_units_Z 52
_cell_length_a 26.613479
_cell_length_b 13.425949
_cell_length_c 10.030065
_cell_angle_alpha 90.000000
_cell_angle_beta 137.972787
_cell_angle_gamma 90.000000
_cell_volume 2399.331547
_symmetry_space_group_name_H-M "C 2/C"
_symmetry_group_IT_number 15
_symmetry_cell_setting 'monoclinic'
loop_
_space_group_symop_operation_xyz
x,y,z
-x,y,1/2-z
-x,-y,-z
x,-y,1/2+z
1/2+x,1/2+y,z
1/2-x,1/2+y,1/2-z
1/2-x,1/2-y,-z
1/2+x,1/2-y,1/2+z
loop_
_atom_site_type_symbol
_atom_site_label
_atom_site_fract_x
_atom_site_fract_y
_atom_site_fract_z
Si Si1 0.571884 0.241941 0.827592
Si Si2 0.195048 0.119989 0.670706
Si Si3 0.135053 0.603426 0.515462
Si Si4 0.688030 0.461432 0.868931
Si Si5 0.500000 0.744985 0.750000
Si Si6 0.533325 0.391349 0.546894
Si Si7 0.645267 0.064817 0.828624
O O1 0.500000 0.185237 0.750000
O O2 0.529682 0.336486 0.680528
O O3 0.604825 0.167475 0.783557
O O4 0.640705 0.283062 0.054573
O O5 0.282557 0.152787 0.839739
O O6 0.182053 0.042555 0.519912
O O7 0.178656 0.070734 0.783183
O O8 0.130732 0.540412 0.644803
O O9 0.115607 0.527130 0.358018
O O10 0.074338 0.689566 0.400934
O O11 0.620934 0.395413 0.676248
O O12 0.766398 0.416835 0.971918
O O13 0.511674 0.673048 0.647771
O O14 0.500000 0.500000 0.500000
#
# Coordination Sequence:
#
# PCOD8147312 Si02
#       7
#     8   8   8   8   4   8   8
#     4  11  23  39  64  94 126 169 215 264 330 385
#     4   9  20  39  64  92 129 166 215 262 323 385
#     4  10  23  43  66  97 127 172 218 269 323 382
#     4   9  20  38  65  90 127 169 211 259 321 384
#     4  12  26  40  66  94 126 172 216 258 324 390
#     4  11  25  40  63  94 133 167 211 267 326 392
#     4  10  22  43  67  93 128 170 218 272 322 381
#
# _framework density 21.672702999999998
#
# number of rings (size 3 to 8) (size 9 to 14) (size 15 to 20)
#    0.000    1.846    1.538    0.923    8.615    3.692 
#    0.000    0.000    0.000    6.462    0.000    0.000 
#    0.000    0.000    0.000    0.000    0.000    0.000 
#
# Total GULP energy -322188.154143 kJ/mol
# GULP energy per Si atom -12391.852082 kJ/mol
# Density = 2.162338 g / cm^3
# Si number density = 21.672703 Si / 1000 Ang^3
#
#
#
# Elastic Constant Matrix: (Units=GPa)
#
#
# Indices 1 2 3 4 5 6 
#
# 1 85.7756 28.3879 35.7926 0.0000 3.9460 0.0000
# 2 28.3879 74.5677 35.9429 0.0000 1.3774 0.0000
# 3 35.7926 35.9429 100.5220 0.0000 3.8491 0.0000
# 4 0.0000 0.0000 0.0000 34.4514 0.0000 -2.8079
# 5 3.9460 1.3774 3.8491 0.0000 22.6932 0.0000
# 6 0.0000 0.0000 0.0000 -2.8079 0.0000 34.6869
#
#
#
# Elastic Compliance Matrix: (Units=1/GPa)
#
#
# Indices 1 2 3 4 5 6 
#
# 1 0.014535 -0.003672 -0.003799 0.000000 -0.001660 0.000000
# 2 -0.003672 0.017131 -0.004834 0.000000 0.000419 0.000000
# 3 -0.003799 -0.004834 0.013078 0.000000 -0.001264 0.000000
# 4 0.000000 0.000000 0.000000 0.029219 0.000000 0.002365
# 5 -0.001660 0.000419 -0.001264 0.000000 0.044544 0.000000
# 6 0.000000 0.000000 0.000000 0.002365 0.000000 0.029021
#
#
# Mechanical properties :
#
#
# Convention : Reuss Voigt Hill
#
# Bulk Modulus (GPa) = 49.66688 51.23467 50.45078
# Shear Modulus (GPa) = 27.95669 29.08242 28.51956
#
# Velocity S-wave (km/s) = 3.59548 3.66716 3.63150
# Velocity P-wave (km/s) = 6.34060 6.45153 6.39631
#
# Compressibility (1/GPa) = 0.02013414
#
# Stress axis : x y z
#
# Youngs Moduli (GPa) = 68.79883 58.37461 76.46627
#
# Poissons Ratio (x) = 0.21433 0.29050
# Poissons Ratio (y) = 0.25260 0.36964
# Poissons Ratio (z) = 0.26137 0.28218
#
# Static dielectric constant tensor:
#      x y z
#    x 4.171490 0.000000 0.109750 
#    y 0.000000 3.548310 0.000000 
#    z 0.109750 0.000000 4.187130 
# 
# 
# High freq. dielectric constant tensor:
#      x y z
#    x 1.859730 0.000000 0.012060 
#    y 0.000000 1.822710 0.000000 
#    z 0.012060 0.000000 1.862760 
# 
# From -- ./inp_files/126499.got.cif
#   From: 2010.06.25/outbox.cif.g09.slc.cpg/sg15_64_cif.got.tgz:126499.got - 2010.06.28 07:06:18.
