data_PCOD8147546
_publ_section_title
;
Structure prediction by ZEFSAII (Michael W. Deem and Ramdas Pophale) SiO2 
 PCOD8147546
Probable space group: C 2/C
;
_chemical_formula_sum "Si O2"
_cell_formula_units_Z 60
_cell_length_a 25.121244
_cell_length_b 14.873450
_cell_length_c 13.836686
_cell_angle_alpha 90.000000
_cell_angle_beta 31.174066
_cell_angle_gamma 90.000000
_cell_volume 2676.163217
_symmetry_space_group_name_H-M "C 2/C"
_symmetry_group_IT_number 15
_symmetry_cell_setting 'monoclinic'
loop_
_space_group_symop_operation_xyz
x,y,z
-x,y,1/2-z
-x,-y,-z
x,-y,1/2+z
1/2+x,1/2+y,z
1/2-x,1/2+y,1/2-z
1/2-x,1/2-y,-z
1/2+x,1/2-y,1/2+z
loop_
_atom_site_type_symbol
_atom_site_label
_atom_site_fract_x
_atom_site_fract_y
_atom_site_fract_z
Si Si1 0.162142 0.258053 0.454226
Si Si2 0.000000 0.938777 0.750000
Si Si3 0.697885 0.334873 0.409949
Si Si4 0.047919 0.755328 0.322510
Si Si5 0.714609 0.962382 0.065563
Si Si6 0.386721 0.145758 0.936205
Si Si7 0.418168 0.460000 0.200169
Si Si8 0.159121 0.374779 0.783719
O O1 0.233947 0.336333 0.295068
O O2 0.110050 0.288341 0.635595
O O3 0.228693 0.170574 0.379445
O O4 0.073004 0.236085 0.514113
O O5 0.085793 0.877792 0.562484
O O6 0.055414 0.006685 0.734620
O O7 0.750831 0.383087 0.417058
O O8 0.690741 0.229834 0.449137
O O9 0.087737 0.852981 0.291676
O O10 0.072258 0.692495 0.376179
O O11 0.630741 0.924430 0.122492
O O12 0.664111 0.039477 0.208000
O O13 0.805420 0.999638 0.855389
O O14 0.500000 0.185724 0.750000
O O15 0.376286 0.094764 0.055001
O O16 0.500000 0.500000 0.000000
#
# Coordination Sequence:
#
# PCOD8147546 Si02
#       8
#     8   4   8   8   8   8   8   8
#     4  10  23  43  71 101 138 185 229 287 358 426
#     4  10  22  44  66 108 134 176 234 294 358 424
#     4  10  23  43  74  97 140 185 234 294 356 423
#     4  11  24  45  71 105 144 184 235 289 365 429
#     4  11  26  46  70 103 141 187 241 294 352 428
#     4  11  26  47  69  98 141 186 241 289 359 424
#     4  11  26  38  72 104 140 173 233 296 360 418
#     4  11  26  46  71 102 144 187 235 296 355 428
#
# _framework density 22.420157
#
# number of rings (size 3 to 8) (size 9 to 14) (size 15 to 20)
#    0.000    1.333    2.000    1.600   11.200    1.600 
#    2.400    0.000    0.000    0.000    0.000    0.000 
#    0.000    0.000    0.000    0.000    0.000    0.000 
#
# Total GULP energy -371993.849155 kJ/mol
# GULP energy per Si atom -12399.794972 kJ/mol
# Density = 2.236913 g / cm^3
# Si number density = 22.420157 Si / 1000 Ang^3
#
#
#
# Elastic Constant Matrix: (Units=GPa)
#
#
# Indices 1 2 3 4 5 6 
#
# 1 115.6331 55.9630 24.2305 0.0000 -4.4871 0.0000
# 2 55.9630 116.3133 32.5905 0.0000 10.3992 0.0000
# 3 24.2305 32.5905 90.9414 0.0000 9.0876 0.0000
# 4 0.0000 0.0000 0.0000 25.1215 0.0000 6.4421
# 5 -4.4871 10.3992 9.0876 0.0000 36.8298 0.0000
# 6 0.0000 0.0000 0.0000 6.4421 0.0000 21.8282
#
#
#
# Elastic Compliance Matrix: (Units=1/GPa)
#
#
# Indices 1 2 3 4 5 6 
#
# 1 0.011777 -0.005551 -0.001485 0.000000 0.003369 0.000000
# 2 -0.005551 0.012305 -0.002580 0.000000 -0.003514 0.000000
# 3 -0.001485 -0.002580 0.012571 0.000000 -0.002555 0.000000
# 4 0.000000 0.000000 0.000000 0.043066 0.000000 -0.012710
# 5 0.003369 -0.003514 -0.002555 0.000000 0.029185 0.000000
# 6 0.000000 0.000000 0.000000 -0.012710 0.000000 0.049563
#
#
# Mechanical properties :
#
#
# Convention : Reuss Voigt Hill
#
# Bulk Modulus (GPa) = 57.39956 60.93956 59.16956
# Shear Modulus (GPa) = 27.24696 30.76281 29.00488
#
# Velocity S-wave (km/s) = 3.48988 3.70821 3.60070
# Velocity P-wave (km/s) = 6.47274 6.75086 6.61326
#
# Compressibility (1/GPa) = 0.01742174
#
# Stress axis : x y z
#
# Youngs Moduli (GPa) = 84.91419 81.26503 79.54523
#
# Poissons Ratio (x) = 0.45113 0.11812
# Poissons Ratio (y) = 0.47138 0.20519
# Poissons Ratio (z) = 0.12610 0.20963
#
# Static dielectric constant tensor:
#      x y z
#    x 4.047670 0.000000 -0.002790 
#    y 0.000000 3.850740 0.000000 
#    z -0.002790 0.000000 4.328640 
# 
# 
# High freq. dielectric constant tensor:
#      x y z
#    x 1.886870 0.000000 0.001070 
#    y 0.000000 1.871160 0.000000 
#    z 0.001070 0.000000 1.892840 
# 
# From -- ./inp_files/178522.got.cif
#   From: 2010.06.25/outbox.cif.g09.slc.cpg/sg15_90_cif.got.tgz:178522.got - 2010.06.28 07:06:18.
