data_PCOD8147850
_publ_section_title
;
Structure prediction by ZEFSAII (Michael W. Deem and Ramdas Pophale) SiO2 
 PCOD8147850
Probable space group: C 2/C
;
_chemical_formula_sum "Si O2"
_cell_formula_units_Z 52
_cell_length_a 12.803142
_cell_length_b 20.278476
_cell_length_c 9.385112
_cell_angle_alpha 90.000000
_cell_angle_beta 78.925945
_cell_angle_gamma 90.000000
_cell_volume 2391.268947
_symmetry_space_group_name_H-M "C 2/C"
_symmetry_group_IT_number 15
_symmetry_cell_setting 'monoclinic'
loop_
_space_group_symop_operation_xyz
x,y,z
-x,y,1/2-z
-x,-y,-z
x,-y,1/2+z
1/2+x,1/2+y,z
1/2-x,1/2+y,1/2-z
1/2-x,1/2-y,-z
1/2+x,1/2-y,1/2+z
loop_
_atom_site_type_symbol
_atom_site_label
_atom_site_fract_x
_atom_site_fract_y
_atom_site_fract_z
Si Si1 0.704539 0.773446 0.161898
Si Si2 0.616530 0.354886 0.215291
Si Si3 0.925526 0.999820 0.153770
Si Si4 0.218879 0.187439 0.415405
Si Si5 0.405626 0.029462 0.612321
Si Si6 0.295547 0.944172 0.869569
Si Si7 0.000000 0.646266 0.750000
O O1 0.795099 0.816516 0.216192
O O2 0.672837 0.712974 0.276330
O O3 0.594690 0.811126 0.155563
O O4 0.750000 0.750000 0.000000
O O5 0.500000 0.320384 0.250000
O O6 0.609608 0.427560 0.283254
O O7 0.641718 0.355754 0.038407
O O8 0.000000 0.035574 0.250000
O O9 0.821260 0.042249 0.157465
O O10 0.000000 0.000000 0.000000
O O11 0.250000 0.250000 0.500000
O O12 0.314135 0.135322 0.352756
O O13 0.304479 0.034307 0.533222
O O14 0.440960 0.102436 0.647468
O O15 0.500000 0.000000 0.500000
O O16 0.381853 0.983880 0.754428
#
# Coordination Sequence:
#
# PCOD8147850 Si02
#       7
#     8   8   8   8   8   8   4
#     4  11  27  45  73 106 138 195 240 302 356 424
#     4  10  22  45  71  96 144 187 240 293 360 430
#     4  11  23  41  68 107 136 187 234 297 370 422
#     4  10  23  45  67  98 137 196 238 283 359 435
#     4  12  25  43  70 109 134 189 227 302 378 418
#     4  12  23  43  72  99 148 177 240 296 361 433
#     4  12  26  50  72 102 160 172 254 306 370 440
#
# _framework density 21.745777
#
# number of rings (size 3 to 8) (size 9 to 14) (size 15 to 20)
#    0.000    0.923    1.538    6.462    4.308    1.231 
#    1.385    0.000    0.000    0.000    0.000    0.000 
#    0.000    0.000    0.000    0.000    0.000    0.000 
#
# Total GULP energy -322149.815941 kJ/mol
# GULP energy per Si atom -12390.377536 kJ/mol
# Density = 2.169628 g / cm^3
# Si number density = 21.745777 Si / 1000 Ang^3
#
#
#
# Elastic Constant Matrix: (Units=GPa)
#
#
# Indices 1 2 3 4 5 6 
#
# 1 131.5729 43.2369 51.7461 0.0000 7.2196 0.0000
# 2 43.2369 129.4572 67.3278 0.0000 -7.2121 0.0000
# 3 51.7461 67.3278 180.2170 0.0000 0.8839 0.0000
# 4 0.0000 0.0000 0.0000 28.7851 0.0000 -5.3762
# 5 7.2196 -7.2121 0.8839 0.0000 42.4987 0.0000
# 6 0.0000 0.0000 0.0000 -5.3762 0.0000 41.9832
#
#
#
# Elastic Compliance Matrix: (Units=1/GPa)
#
#
# Indices 1 2 3 4 5 6 
#
# 1 0.009138 -0.002231 -0.001781 0.000000 -0.001894 0.000000
# 2 -0.002231 0.010257 -0.003202 0.000000 0.002186 0.000000
# 3 -0.001781 -0.003202 0.007258 0.000000 -0.000392 0.000000
# 4 0.000000 0.000000 0.000000 0.035591 0.000000 0.004558
# 5 -0.001894 0.002186 -0.000392 0.000000 0.024231 0.000000
# 6 0.000000 0.000000 0.000000 0.004558 0.000000 0.024403
#
#
# Mechanical properties :
#
#
# Convention : Reuss Voigt Hill
#
# Bulk Modulus (GPa) = 81.80022 85.09651 83.44836
# Shear Modulus (GPa) = 38.64544 41.24915 39.94729
#
# Velocity S-wave (km/s) = 4.22020 4.36004 4.29069
# Velocity P-wave (km/s) = 7.83869 8.03517 7.93754
#
# Compressibility (1/GPa) = 0.01222491
#
# Stress axis : x y z
#
# Youngs Moduli (GPa) = 109.43427 97.49621 137.77194
#
# Poissons Ratio (x) = 0.21754 0.24536
# Poissons Ratio (y) = 0.24417 0.44114
# Poissons Ratio (z) = 0.19489 0.31218
#
# Static dielectric constant tensor:
#      x y z
#    x 4.328380 0.000000 0.248140 
#    y 0.000000 4.352970 0.000000 
#    z 0.248140 0.000000 4.639710 
# 
# 
# High freq. dielectric constant tensor:
#      x y z
#    x 1.856730 0.000000 0.002320 
#    y 0.000000 1.855680 0.000000 
#    z 0.002320 0.000000 1.872090 
# 
# From -- ./inp_files/40747.got.cif
#   From: 2010.06.25/outbox.cif.g09.slc.cpg/sg15_21_cif.got.tgz:40747.got - 2010.06.28 07:06:18.
