data_PCOD8147790
_publ_section_title
;
Structure prediction by ZEFSAII (Michael W. Deem and Ramdas Pophale) SiO2 
 PCOD8147790
Probable space group: C 2/C
;
_chemical_formula_sum "Si O2"
_cell_formula_units_Z 40
_cell_length_a 15.330771
_cell_length_b 12.045788
_cell_length_c 9.308960
_cell_angle_alpha 90.000000
_cell_angle_beta 83.997089
_cell_angle_gamma 90.000000
_cell_volume 1709.670450
_symmetry_space_group_name_H-M "C 2/C"
_symmetry_group_IT_number 15
_symmetry_cell_setting 'monoclinic'
loop_
_space_group_symop_operation_xyz
x,y,z
-x,y,1/2-z
-x,-y,-z
x,-y,1/2+z
1/2+x,1/2+y,z
1/2-x,1/2+y,1/2-z
1/2-x,1/2-y,-z
1/2+x,1/2-y,1/2+z
loop_
_atom_site_type_symbol
_atom_site_label
_atom_site_fract_x
_atom_site_fract_y
_atom_site_fract_z
Si Si1 0.312633 0.981006 0.527177
Si Si2 0.543648 0.862052 0.396308
Si Si3 0.623173 0.752011 0.949989
Si Si4 0.603337 0.338738 0.751050
Si Si5 0.699691 0.553461 0.784563
O O1 0.409398 0.037179 0.526060
O O2 0.236890 0.053172 0.616483
O O3 0.315258 0.857241 0.593989
O O4 0.287280 0.962859 0.365719
O O5 0.500000 0.899656 0.250000
O O6 0.474729 0.801704 0.515241
O O7 0.618678 0.770242 0.347361
O O8 0.641041 0.663844 0.819206
O O9 0.649765 0.683800 0.089341
O O10 0.500000 0.354140 0.750000
O O11 0.638086 0.447878 0.822365
#
# Coordination Sequence:
#
# PCOD8147790 Si02
#       5
#     8   8   8   8   8
#     4  12  25  41  72  99 135 170 228 281 333 386
#     4   9  21  43  71  95 133 178 226 265 333 407
#     4  10  22  45  66  90 138 183 211 266 352 395
#     4   9  21  43  69  92 133 183 221 266 338 408
#     4  12  24  41  69 100 135 174 223 277 340 389
#
# _framework density 23.396322000000001
#
# number of rings (size 3 to 8) (size 9 to 14) (size 15 to 20)
#    0.000    2.000    2.000    3.600    2.800    4.000 
#    0.000    1.000    0.000    0.000    0.000    0.000 
#    0.000    0.000    0.000    0.000    0.000    0.000 
#
# Total GULP energy -247836.035880 kJ/mol
# GULP energy per Si atom -12391.801794 kJ/mol
# Density = 2.334307 g / cm^3
# Si number density = 23.396322 Si / 1000 Ang^3
#
#
#
# Elastic Constant Matrix: (Units=GPa)
#
#
# Indices 1 2 3 4 5 6 
#
# 1 68.4143 38.5397 11.3477 0.0000 -3.0744 0.0000
# 2 38.5397 147.8420 14.6799 0.0000 7.5600 0.0000
# 3 11.3477 14.6799 31.7858 0.0000 -16.5750 0.0000
# 4 0.0000 0.0000 0.0000 26.7135 0.0000 -5.9066
# 5 -3.0744 7.5600 -16.5750 0.0000 34.2393 0.0000
# 6 0.0000 0.0000 0.0000 -5.9066 0.0000 28.4404
#
#
#
# Elastic Compliance Matrix: (Units=1/GPa)
#
#
# Indices 1 2 3 4 5 6 
#
# 1 0.017706 -0.004239 -0.004075 0.000000 0.000553 0.000000
# 2 -0.004239 0.008590 -0.004871 0.000000 -0.004635 0.000000
# 3 -0.004075 -0.004871 0.047534 0.000000 0.023720 0.000000
# 4 0.000000 0.000000 0.000000 0.039236 0.000000 0.008149
# 5 0.000553 -0.004635 0.023720 0.000000 0.041762 0.000000
# 6 0.000000 0.000000 0.000000 0.008149 0.000000 0.036854
#
#
# Mechanical properties :
#
#
# Convention : Reuss Voigt Hill
#
# Bulk Modulus (GPa) = 21.07029 41.90854 31.48942
# Shear Modulus (GPa) = 21.37940 30.11030 25.74485
#
# Velocity S-wave (km/s) = 3.02618 3.59132 3.32080
# Velocity P-wave (km/s) = 4.60822 5.92859 5.30961
#
# Compressibility (1/GPa) = 0.04746018
#
# Stress axis : x y z
#
# Youngs Moduli (GPa) = 56.47924 116.41835 21.03762
#
# Poissons Ratio (x) = 0.49352 0.08572
# Poissons Ratio (y) = 0.23943 0.10247
# Poissons Ratio (z) = 0.23013 0.56703
#
# Static dielectric constant tensor:
#      x y z
#    x 4.070090 0.000000 -0.150550 
#    y 0.000000 4.520170 0.000000 
#    z -0.150550 0.000000 3.838590 
# 
# 
# High freq. dielectric constant tensor:
#      x y z
#    x 1.926970 0.000000 -0.028930 
#    y 0.000000 1.940090 0.000000 
#    z -0.028930 0.000000 1.891120 
# 
# From -- ./inp_files/46195.got.cif
#   From: 2010.06.25/outbox.cif.g09.slc.cpg/sg15_24_cif.got.tgz:46195.got - 2010.06.28 07:06:18.
