data_PCOD8147243
_publ_section_title
;
Structure prediction by ZEFSAII (Michael W. Deem and Ramdas Pophale) SiO2 
 PCOD8147243
Probable space group: C 2/C
;
_chemical_formula_sum "Si O2"
_cell_formula_units_Z 52
_cell_length_a 18.033073
_cell_length_b 20.158328
_cell_length_c 8.947298
_cell_angle_alpha 90.000000
_cell_angle_beta 129.350689
_cell_angle_gamma 90.000000
_cell_volume 2515.085085
_symmetry_space_group_name_H-M "C 2/C"
_symmetry_group_IT_number 15
_symmetry_cell_setting 'monoclinic'
loop_
_space_group_symop_operation_xyz
x,y,z
-x,y,1/2-z
-x,-y,-z
x,-y,1/2+z
1/2+x,1/2+y,z
1/2-x,1/2+y,1/2-z
1/2-x,1/2-y,-z
1/2+x,1/2-y,1/2+z
loop_
_atom_site_type_symbol
_atom_site_label
_atom_site_fract_x
_atom_site_fract_y
_atom_site_fract_z
Si Si1 0.583257 0.454777 0.046420
Si Si2 0.504359 0.311664 0.592251
Si Si3 0.104226 0.428259 0.660899
Si Si4 0.000000 0.474876 0.250000
Si Si5 0.836490 0.196913 0.433775
Si Si6 0.624860 0.214143 0.248577
Si Si7 0.678637 0.557828 0.966859
O O1 0.670409 0.445736 0.276728
O O2 0.500000 0.500000 0.000000
O O3 0.535127 0.385846 0.940182
O O4 0.625774 0.491854 0.957030
O O5 0.500000 0.278762 0.750000
O O6 0.611741 0.302936 0.661693
O O7 0.432881 0.272762 0.397152
O O8 0.054903 0.482656 0.698886
O O9 0.070431 0.356162 0.677643
O O10 0.075122 0.432387 0.447115
O O11 0.216179 0.440431 0.829694
O O12 0.721599 0.200851 0.276068
O O13 0.862669 0.262169 0.564506
O O14 0.871915 0.127511 0.552907
#
# Coordination Sequence:
#
# PCOD8147243 Si02
#       7
#     8   8   8   4   8   8   8
#     4  12  23  37  62  93 130 174 212 260 319 388
#     4  12  25  40  62  97 132 169 216 269 328 384
#     4  10  23  42  68  93 126 164 213 268 327 377
#     4  10  22  44  64  98 122 158 218 272 314 390
#     4  10  22  43  65  91 126 169 224 262 314 398
#     4  10  23  42  67  93 123 175 216 265 323 385
#     4  11  22  40  62  92 130 170 212 265 320 384
#
# _framework density 20.675245
#
# number of rings (size 3 to 8) (size 9 to 14) (size 15 to 20)
#    0.000    1.231    3.077    2.769    3.231    0.615 
#    0.000    0.000    0.000    0.000    0.000    0.000 
#    0.000    0.000    0.000    0.000    0.000    0.000 
#
# Total GULP energy -322213.499115 kJ/mol
# GULP energy per Si atom -12392.826889 kJ/mol
# Density = 2.062819 g / cm^3
# Si number density = 20.675245 Si / 1000 Ang^3
#
#
#
# Elastic Constant Matrix: (Units=GPa)
#
#
# Indices 1 2 3 4 5 6 
#
# 1 90.0305 15.7506 15.0366 0.0000 -11.7351 0.0000
# 2 15.7506 80.6693 -6.8540 0.0000 9.6902 0.0000
# 3 15.0366 -6.8540 90.8541 0.0000 -0.6117 0.0000
# 4 0.0000 0.0000 0.0000 -9.4114 0.0000 -71.9435
# 5 -11.7351 9.6902 -0.6117 0.0000 26.0407 0.0000
# 6 0.0000 0.0000 0.0000 -71.9435 0.0000 -110.5666
#
#
#
# Elastic Compliance Matrix: (Units=1/GPa)
#
#
# Indices 1 2 3 4 5 6 
#
# 1 0.013076 -0.003619 -0.002389 0.000000 0.007183 0.000000
# 2 -0.003619 0.014060 0.001614 0.000000 -0.006825 0.000000
# 3 -0.002389 0.001614 0.011514 0.000000 -0.001406 0.000000
# 4 0.000000 0.000000 0.000000 0.026737 0.000000 -0.017397
# 5 0.007183 -0.006825 -0.001406 0.000000 0.044145 0.000000
# 6 0.000000 0.000000 0.000000 -0.017397 0.000000 0.002276
#
#
# Mechanical properties :
#
#
# Convention : Reuss Voigt Hill
#
# Bulk Modulus (GPa) = 33.48740 34.38002 33.93371
# Shear Modulus (GPa) = 38.29964 -2.94608 17.67678
#
# Velocity S-wave (km/s) = 4.30867 -1.19500 2.92716
# Velocity P-wave (km/s) = 6.40194 3.84196 5.27946
#
# Compressibility (1/GPa) = 0.02986198
#
# Stress axis : x y z
#
# Youngs Moduli (GPa) = 76.47794 71.12494 86.84883
#
# Poissons Ratio (x) = 0.25739 0.20746
# Poissons Ratio (y) = 0.27676 -0.14014
# Poissons Ratio (z) = 0.18268 -0.11477
#
# Static dielectric constant tensor:
#      x y z
#    x 10.072250 0.000000 10.674650 
#    y 0.000000 3.854370 0.000000 
#    z 10.674650 0.000000 22.045510 
# 
# 
# High freq. dielectric constant tensor:
#      x y z
#    x 1.796390 0.000000 0.002230 
#    y 0.000000 1.820640 0.000000 
#    z 0.002230 0.000000 1.811080 
# 
# From -- ./inp_files/48954.got.cif
#   From: 2010.06.25/outbox.cif.g09.slc.cpg/sg15_25_cif.got.tgz:48954.got - 2010.06.28 07:06:18.
