data_PCOD8147599
_publ_section_title
;
Structure prediction by ZEFSAII (Michael W. Deem and Ramdas Pophale) SiO2 
 PCOD8147599
Probable space group: C 2/C
;
_chemical_formula_sum "Si O2"
_cell_formula_units_Z 32
_cell_length_a 7.112475
_cell_length_b 11.575521
_cell_length_c 14.728708
_cell_angle_alpha 90.000000
_cell_angle_beta 110.427592
_cell_angle_gamma 90.000000
_cell_volume 1136.366408
_symmetry_space_group_name_H-M "C 2/C"
_symmetry_group_IT_number 15
_symmetry_cell_setting 'monoclinic'
loop_
_space_group_symop_operation_xyz
x,y,z
-x,y,1/2-z
-x,-y,-z
x,-y,1/2+z
1/2+x,1/2+y,z
1/2-x,1/2+y,1/2-z
1/2-x,1/2-y,-z
1/2+x,1/2-y,1/2+z
loop_
_atom_site_type_symbol
_atom_site_label
_atom_site_fract_x
_atom_site_fract_y
_atom_site_fract_z
Si Si1 0.804320 0.596166 0.328908
Si Si2 0.563444 0.460760 0.622602
Si Si3 0.089960 0.390056 0.355737
Si Si4 0.977228 0.761830 0.009215
O O1 0.647920 0.520767 0.362462
O O2 0.709560 0.616735 0.213193
O O3 0.001702 0.517893 0.357609
O O4 0.865909 0.719632 0.385266
O O5 0.672367 0.584679 0.622336
O O6 0.514235 0.395805 0.519847
O O7 0.000000 0.330647 0.250000
O O8 0.048091 0.309995 0.433618
O O9 0.750000 0.750000 0.000000
#
# Coordination Sequence:
#
# PCOD8147599 Si02
#       4
#     8   8   8   8
#     4  10  22  44  67  95 137 180 235 289 348 417
#     4  10  23  44  67  97 138 182 231 294 346 410
#     4  10  23  45  67  97 141 183 227 292 355 411
#     4  12  24  41  71 103 136 183 231 286 350 426
#
# _framework density 28.159931
#
# number of rings (size 3 to 8) (size 9 to 14) (size 15 to 20)
#    0.000    1.500    2.500    1.500    3.500    1.000 
#    4.500    5.000    0.000    0.000    0.000    0.000 
#    0.000    0.000    0.000    0.000    0.000    0.000 
#
# Total GULP energy -198320.954634 kJ/mol
# GULP energy per Si atom -12395.059665 kJ/mol
# Density = 2.809584 g / cm^3
# Si number density = 28.159931 Si / 1000 Ang^3
#
#
#
# Elastic Constant Matrix: (Units=GPa)
#
#
# Indices 1 2 3 4 5 6 
#
# 1 170.6324 19.8319 40.5708 0.0000 3.2521 0.0000
# 2 19.8319 105.7726 18.2808 0.0000 -1.8387 0.0000
# 3 40.5708 18.2808 199.1977 0.0000 20.4230 0.0000
# 4 0.0000 0.0000 0.0000 23.1093 0.0000 9.0970
# 5 3.2521 -1.8387 20.4230 0.0000 41.3602 0.0000
# 6 0.0000 0.0000 0.0000 9.0970 0.0000 39.0749
#
#
#
# Elastic Compliance Matrix: (Units=1/GPa)
#
#
# Indices 1 2 3 4 5 6 
#
# 1 0.006255 -0.000966 -0.001191 0.000000 0.000053 0.000000
# 2 -0.000966 0.009788 -0.000794 0.000000 0.000903 0.000000
# 3 -0.001191 -0.000794 0.005614 0.000000 -0.002714 0.000000
# 4 0.000000 0.000000 0.000000 0.047638 0.000000 -0.011091
# 5 0.000053 0.000903 -0.002714 0.000000 0.025554 0.000000
# 6 0.000000 0.000000 0.000000 -0.011091 0.000000 0.028174
#
#
# Mechanical properties :
#
#
# Convention : Reuss Voigt Hill
#
# Bulk Modulus (GPa) = 63.47135 70.32997 66.90066
# Shear Modulus (GPa) = 37.26425 47.17014 42.21720
#
# Velocity S-wave (km/s) = 3.64168 4.09721 3.87614
# Velocity P-wave (km/s) = 6.34594 6.88566 6.62130
#
# Compressibility (1/GPa) = 0.01575514
#
# Stress axis : x y z
#
# Youngs Moduli (GPa) = 159.87361 102.16243 178.13371
#
# Poissons Ratio (x) = 0.09869 0.21211
# Poissons Ratio (y) = 0.15445 0.14146
# Poissons Ratio (z) = 0.19037 0.08113
#
# Static dielectric constant tensor:
#      x y z
#    x 4.301070 0.000000 -1.675930 
#    y 0.000000 5.039290 0.000000 
#    z -1.675930 0.000000 3.484310 
# 
# 
# High freq. dielectric constant tensor:
#      x y z
#    x 2.160240 0.000000 0.011710 
#    y 0.000000 2.136720 0.000000 
#    z 0.011710 0.000000 2.178640 
# 
# From -- ./inp_files/187705.got.cif
#   From: 2010.06.25/outbox.cif.g09.slc.cpg/sg15_94_cif.got.tgz:187705.got - 2010.06.28 07:06:18.
