data_PCOD8147114
_publ_section_title
;
Structure prediction by ZEFSAII (Michael W. Deem and Ramdas Pophale) SiO2 
 PCOD8147114
Probable space group: C 2/C
;
_chemical_formula_sum "Si O2"
_cell_formula_units_Z 56
_cell_length_a 19.104598
_cell_length_b 8.587323
_cell_length_c 28.247644
_cell_angle_alpha 90.000000
_cell_angle_beta 149.223806
_cell_angle_gamma 90.000000
_cell_volume 2371.272188
_symmetry_space_group_name_H-M "C 2/C"
_symmetry_group_IT_number 15
_symmetry_cell_setting 'monoclinic'
loop_
_space_group_symop_operation_xyz
x,y,z
-x,y,1/2-z
-x,-y,-z
x,-y,1/2+z
1/2+x,1/2+y,z
1/2-x,1/2+y,1/2-z
1/2-x,1/2-y,-z
1/2+x,1/2-y,1/2+z
loop_
_atom_site_type_symbol
_atom_site_label
_atom_site_fract_x
_atom_site_fract_y
_atom_site_fract_z
Si Si1 0.657515 0.062521 0.326697
Si Si2 0.657824 0.877604 0.501609
Si Si3 0.794004 0.088196 0.505072
Si Si4 0.528378 0.389725 0.641602
Si Si5 0.261346 0.231897 0.215082
Si Si6 0.390509 0.052682 0.366711
Si Si7 0.212634 0.780668 0.831324
O O1 0.500000 0.076636 0.250000
O O2 0.752756 0.074520 0.427008
O O3 0.703895 0.204205 0.319631
O O4 0.688744 0.903832 0.316695
O O5 0.597894 0.720705 0.445315
O O6 0.540370 0.980888 0.459084
O O7 0.778970 0.842912 0.609920
O O8 0.719028 0.960368 0.492351
O O9 0.750000 0.250000 0.500000
O O10 0.959263 0.061454 0.604072
O O11 0.635713 0.372672 0.661497
O O12 0.589023 0.351341 0.728661
O O13 0.227081 0.414817 0.203573
O O14 0.388670 0.162700 0.319123
O O15 0.356124 0.168195 0.390349
#
# Coordination Sequence:
#
# PCOD8147114 Si02
#       7
#     8   8   8   8   8   8   8
#     4  12  26  45  70 102 135 189 230 283 353 413
#     4  11  23  45  70  97 142 181 235 284 345 420
#     4  12  28  45  65 103 144 184 229 294 347 408
#     4  10  23  46  71 102 136 181 237 283 345 421
#     4  10  22  42  71 101 140 174 234 283 349 410
#     4  10  22  43  71 108 134 183 229 291 345 417
#     4  11  24  41  74 101 133 186 230 286 349 410
#
# _framework density 23.616015000000001
#
# number of rings (size 3 to 8) (size 9 to 14) (size 15 to 20)
#    0.000    1.143    1.429    5.143    4.000    6.286 
#    0.000    0.714    0.000    0.000    0.000    0.000 
#    0.000    0.000    0.000    0.000    0.000    0.000 
#
# Total GULP energy -347085.685522 kJ/mol
# GULP energy per Si atom -12395.917340 kJ/mol
# Density = 2.356226 g / cm^3
# Si number density = 23.616015 Si / 1000 Ang^3
#
#
#
# Elastic Constant Matrix: (Units=GPa)
#
#
# Indices 1 2 3 4 5 6 
#
# 1 104.9840 50.9362 29.5221 0.0001 -24.2574 -0.0002
# 2 50.9362 74.4260 17.6298 0.0000 1.3902 -0.0003
# 3 29.5221 17.6298 114.1529 -0.0002 -32.6064 0.0000
# 4 0.0001 0.0000 -0.0002 22.5173 -0.0001 0.4440
# 5 -24.2574 1.3902 -32.6064 -0.0001 42.8121 0.0000
# 6 -0.0002 -0.0003 0.0000 0.4440 0.0000 47.3743
#
#
#
# Elastic Compliance Matrix: (Units=1/GPa)
#
#
# Indices 1 2 3 4 5 6 
#
# 1 0.018107 -0.012696 0.000417 0.000000 0.010989 0.000000
# 2 -0.012696 0.023093 -0.003261 0.000000 -0.010428 0.000000
# 3 0.000417 -0.003261 0.011827 0.000000 0.009349 0.000000
# 4 0.000000 0.000000 0.000000 0.044419 0.000000 -0.000416
# 5 0.010989 -0.010428 0.009349 0.000000 0.037044 0.000000
# 6 0.000000 0.000000 0.000000 -0.000416 0.000000 0.021112
#
#
# Mechanical properties :
#
#
# Convention : Reuss Voigt Hill
#
# Bulk Modulus (GPa) = 45.56880 54.41544 49.99212
# Shear Modulus (GPa) = 25.77344 35.57239 30.67292
#
# Velocity S-wave (km/s) = 3.30715 3.88530 3.60782
# Velocity P-wave (km/s) = 5.82414 6.57413 6.21046
#
# Compressibility (1/GPa) = 0.02194484
#
# Stress axis : x y z
#
# Youngs Moduli (GPa) = 55.22649 43.30367 84.55502
#
# Poissons Ratio (x) = 0.54980 -0.03526
# Poissons Ratio (y) = 0.70118 0.27577
# Poissons Ratio (z) = -0.02303 0.14123
#
# Static dielectric constant tensor:
#      x y z
#    x 4.275910 0.000000 0.093730 
#    y 0.000000 4.598720 0.000000 
#    z 0.093730 0.000000 4.313640 
# 
# 
# High freq. dielectric constant tensor:
#      x y z
#    x 1.942500 0.000000 -0.001250 
#    y 0.000000 1.942140 0.000000 
#    z -0.001250 0.000000 1.934910 
# 
# From -- ./inp_files/317556.got.cif
#   From: 2010.06.25/outbox.cif.g09.slc.cpg/sg15_159_cif.got.tgz:317556.got - 2010.06.28 07:06:18.
