data_PCOD8147512
_publ_section_title
;
Structure prediction by ZEFSAII (Michael W. Deem and Ramdas Pophale) SiO2 
 PCOD8147512
Probable space group: C 2/C
;
_chemical_formula_sum "Si O2"
_cell_formula_units_Z 56
_cell_length_a 17.759062
_cell_length_b 8.395247
_cell_length_c 28.124354
_cell_angle_alpha 90.000000
_cell_angle_beta 143.559901
_cell_angle_gamma 90.000000
_cell_volume 2490.630953
_symmetry_space_group_name_H-M "C 2/C"
_symmetry_group_IT_number 15
_symmetry_cell_setting 'monoclinic'
loop_
_space_group_symop_operation_xyz
x,y,z
-x,y,1/2-z
-x,-y,-z
x,-y,1/2+z
1/2+x,1/2+y,z
1/2-x,1/2+y,1/2-z
1/2-x,1/2-y,-z
1/2+x,1/2-y,1/2+z
loop_
_atom_site_type_symbol
_atom_site_label
_atom_site_fract_x
_atom_site_fract_y
_atom_site_fract_z
Si Si1 0.103122 0.710741 0.923135
Si Si2 0.226254 0.719494 0.584499
Si Si3 0.890511 0.593293 0.471003
Si Si4 0.698450 0.255989 0.272643
Si Si5 0.888643 0.947147 0.817845
Si Si6 0.043259 0.423080 0.825561
Si Si7 0.462444 0.362721 0.445607
O O1 0.082315 0.586641 0.870192
O O2 0.023794 0.871664 0.872214
O O3 0.250000 0.750000 0.000000
O O4 0.057906 0.645628 0.951220
O O5 0.230561 0.524945 0.584015
O O6 0.234411 0.775763 0.643099
O O7 0.340742 0.797191 0.613269
O O8 0.091483 0.774314 0.494608
O O9 0.000000 0.500000 0.500000
O O10 0.863691 0.747289 0.424027
O O11 0.792627 0.197773 0.279174
O O12 0.666582 0.444105 0.252582
O O13 0.569808 0.155498 0.202344
O O14 0.893694 0.068150 0.864829
O O15 0.000000 0.460143 0.750000
O O16 0.500000 0.500000 0.500000
#
# Coordination Sequence:
#
# PCOD8147512 Si02
#       7
#     8   8   8   8   8   8   8
#     4  12  26  45  69 105 136 174 239 288 347 418
#     4  10  22  44  64  97 132 178 227 278 342 407
#     4  10  23  39  68  98 132 172 227 288 338 411
#     4  11  25  42  66  94 140 180 226 274 343 426
#     4  12  25  42  67 103 134 181 228 284 343 417
#     4  10  25  46  67  92 139 185 222 282 352 411
#     4  11  20  40  69  94 134 172 227 281 335 394
#
# _framework density 22.484261
#
# number of rings (size 3 to 8) (size 9 to 14) (size 15 to 20)
#    0.000    1.143    2.857    2.571    8.000    0.571 
#    2.571    0.000    0.000    0.000    0.000    0.000 
#    0.000    0.000    0.000    0.000    0.000    0.000 
#
# Total GULP energy -347224.332870 kJ/mol
# GULP energy per Si atom -12400.869031 kJ/mol
# Density = 2.243309 g / cm^3
# Si number density = 22.484261 Si / 1000 Ang^3
#
#
#
# Elastic Constant Matrix: (Units=GPa)
#
#
# Indices 1 2 3 4 5 6 
#
# 1 81.6149 38.1548 29.4201 0.0000 14.3888 -0.0001
# 2 38.1548 141.3550 38.5293 0.0001 10.8627 -0.0001
# 3 29.4201 38.5293 66.3255 0.0000 14.5897 0.0000
# 4 0.0000 0.0001 0.0000 50.0556 0.0000 5.6711
# 5 14.3888 10.8627 14.5897 0.0000 31.7011 0.0000
# 6 -0.0001 -0.0001 0.0000 5.6711 0.0000 46.8023
#
#
#
# Elastic Compliance Matrix: (Units=1/GPa)
#
#
# Indices 1 2 3 4 5 6 
#
# 1 0.015908 -0.002732 -0.004547 0.000000 -0.004192 0.000000
# 2 -0.002732 0.008889 -0.003955 0.000000 0.000014 0.000000
# 3 -0.004547 -0.003955 0.020739 0.000000 -0.006126 0.000000
# 4 0.000000 0.000000 0.000000 0.020256 0.000000 -0.002454
# 5 -0.004192 0.000014 -0.006126 0.000000 0.036261 0.000000
# 6 0.000000 0.000000 0.000000 -0.002454 0.000000 0.021664
#
#
# Mechanical properties :
#
#
# Convention : Reuss Voigt Hill
#
# Bulk Modulus (GPa) = 43.35137 55.72267 49.53702
# Shear Modulus (GPa) = 32.49399 37.92456 35.20927
#
# Velocity S-wave (km/s) = 3.80569 4.11142 3.96150
# Velocity P-wave (km/s) = 6.21560 6.88296 6.55777
#
# Compressibility (1/GPa) = 0.02306732
#
# Stress axis : x y z
#
# Youngs Moduli (GPa) = 62.86087 112.50143 48.21846
#
# Poissons Ratio (x) = 0.30740 0.21925
# Poissons Ratio (y) = 0.17176 0.19069
# Poissons Ratio (z) = 0.28583 0.44492
#
# Static dielectric constant tensor:
#      x y z
#    x 4.146140 0.000000 -0.105470 
#    y 0.000000 4.537400 0.000000 
#    z -0.105470 0.000000 4.442110 
# 
# 
# High freq. dielectric constant tensor:
#      x y z
#    x 1.877210 0.000000 0.002030 
#    y 0.000000 1.900230 0.000000 
#    z 0.002030 0.000000 1.879090 
# 
# From -- ./inp_files/298588.got.cif
#   From: 2010.06.25/outbox.cif.g09.slc.cpg/sg15_150_cif.got.tgz:298588.got - 2010.06.28 07:06:18.
