data_PCOD8147401
_publ_section_title
;
Structure prediction by ZEFSAII (Michael W. Deem and Ramdas Pophale) SiO2 
 PCOD8147401
Probable space group: C 2/C
;
_chemical_formula_sum "Si O2"
_cell_formula_units_Z 48
_cell_length_a 24.285939
_cell_length_b 9.390817
_cell_length_c 14.752851
_cell_angle_alpha 90.000000
_cell_angle_beta 38.137256
_cell_angle_gamma 90.000000
_cell_volume 2077.803914
_symmetry_space_group_name_H-M "C 2/C"
_symmetry_group_IT_number 15
_symmetry_cell_setting 'monoclinic'
loop_
_space_group_symop_operation_xyz
x,y,z
-x,y,1/2-z
-x,-y,-z
x,-y,1/2+z
1/2+x,1/2+y,z
1/2-x,1/2+y,1/2-z
1/2-x,1/2-y,-z
1/2+x,1/2-y,1/2+z
loop_
_atom_site_type_symbol
_atom_site_label
_atom_site_fract_x
_atom_site_fract_y
_atom_site_fract_z
Si Si1 0.637739 0.794739 0.193555
Si Si2 0.359613 0.202103 0.107087
Si Si3 0.189982 0.094996 0.977712
Si Si4 0.987894 0.832359 0.504188
Si Si5 0.666539 0.297749 0.939345
Si Si6 0.403826 0.018829 0.406405
O O1 0.706139 0.864917 0.177740
O O2 0.549112 0.744858 0.357716
O O3 0.625796 0.909498 0.130984
O O4 0.674714 0.650471 0.099590
O O5 0.370500 0.329527 0.019892
O O6 0.255568 0.182968 0.264849
O O7 0.415343 0.252398 0.124870
O O8 0.399391 0.057854 0.010820
O O9 0.166476 0.928875 0.009089
O O10 0.923827 0.799219 0.503393
O O11 0.000000 0.000000 0.500000
O O12 0.663765 0.152861 0.001093
O O13 0.500000 0.075519 0.250000
#
# Coordination Sequence:
#
# PCOD8147401 Si02
#       6
#     8   8   8   8   8   8
#     4  10  23  45  70  95 140 195 236 280 370 437
#     4  11  23  44  71 100 141 187 236 295 368 431
#     4  10  22  43  70  97 136 186 233 294 355 432
#     4  12  25  42  74 107 135 188 250 303 360 434
#     4  12  26  43  73 108 144 180 248 308 355 428
#     4  11  25  44  70 103 144 194 237 295 366 434
#
# _framework density 23.101313000000001
#
# number of rings (size 3 to 8) (size 9 to 14) (size 15 to 20)
#    0.000    1.000    5.000    1.000    0.000    4.000 
#    0.000    0.000    0.000    0.000    0.000    0.000 
#    0.000    0.000    0.000    0.000    0.000    0.000 
#
# Total GULP energy -297466.811247 kJ/mol
# GULP energy per Si atom -12394.450469 kJ/mol
# Density = 2.304873 g / cm^3
# Si number density = 23.101313 Si / 1000 Ang^3
#
#
#
# Elastic Constant Matrix: (Units=GPa)
#
#
# Indices 1 2 3 4 5 6 
#
# 1 116.0986 38.9690 19.4872 0.0008 -14.2610 0.0000
# 2 38.9690 172.0551 40.6196 0.0036 6.4485 -0.0008
# 3 19.4872 40.6196 72.9078 0.0015 -7.5118 -0.0004
# 4 0.0008 0.0036 0.0015 28.6688 -0.0010 -5.0548
# 5 -14.2610 6.4485 -7.5118 -0.0010 28.0370 0.0000
# 6 0.0000 -0.0008 -0.0004 -5.0548 0.0000 35.6725
#
#
#
# Elastic Compliance Matrix: (Units=1/GPa)
#
#
# Indices 1 2 3 4 5 6 
#
# 1 0.010211 -0.002312 -0.000875 0.000000 0.005491 0.000000
# 2 -0.002312 0.007407 -0.003913 -0.000001 -0.003928 0.000000
# 3 -0.000875 -0.003913 0.016636 0.000000 0.004912 0.000000
# 4 0.000000 -0.000001 0.000000 0.035775 0.000001 0.005069
# 5 0.005491 -0.003928 0.004912 0.000001 0.040680 0.000000
# 6 0.000000 0.000000 0.000000 0.005069 0.000000 0.028751
#
#
# Mechanical properties :
#
#
# Convention : Reuss Voigt Hill
#
# Bulk Modulus (GPa) = 49.86881 62.13479 56.00180
# Shear Modulus (GPa) = 31.18275 35.94137 33.56206
#
# Velocity S-wave (km/s) = 3.67798 3.94866 3.81572
# Velocity P-wave (km/s) = 6.29846 6.90972 6.61116
#
# Compressibility (1/GPa) = 0.02005261
#
# Stress axis : x y z
#
# Youngs Moduli (GPa) = 97.93617 135.01112 60.10924
#
# Poissons Ratio (x) = 0.31211 0.05263
# Poissons Ratio (y) = 0.22640 0.23523
# Poissons Ratio (z) = 0.08574 0.52835
#
# Static dielectric constant tensor:
#      x y z
#    x 4.165730 0.000000 -0.255320 
#    y 0.000000 4.193990 0.000000 
#    z -0.255320 0.000000 4.131560 
# 
# 
# High freq. dielectric constant tensor:
#      x y z
#    x 1.912380 0.000000 -0.017450 
#    y 0.000000 1.921380 0.000000 
#    z -0.017450 0.000000 1.897800 
# 
# From -- ./inp_files/176873.got.cif
#   From: 2010.06.25/outbox.cif.g09.slc.cpg/sg15_89_cif.got.tgz:176873.got - 2010.06.28 07:06:18.
