data_PCOD8147841
_publ_section_title
;
Structure prediction by ZEFSAII (Michael W. Deem and Ramdas Pophale) SiO2 
 PCOD8147841
Probable space group: C 2/C
;
_chemical_formula_sum "Si O2"
_cell_formula_units_Z 40
_cell_length_a 16.184434
_cell_length_b 10.696108
_cell_length_c 20.647817
_cell_angle_alpha 90.000000
_cell_angle_beta 30.230110
_cell_angle_gamma 90.000000
_cell_volume 1799.594039
_symmetry_space_group_name_H-M "C 2/C"
_symmetry_group_IT_number 15
_symmetry_cell_setting 'monoclinic'
loop_
_space_group_symop_operation_xyz
x,y,z
-x,y,1/2-z
-x,-y,-z
x,-y,1/2+z
1/2+x,1/2+y,z
1/2-x,1/2+y,1/2-z
1/2-x,1/2-y,-z
1/2+x,1/2-y,1/2+z
loop_
_atom_site_type_symbol
_atom_site_label
_atom_site_fract_x
_atom_site_fract_y
_atom_site_fract_z
Si Si1 0.781667 0.236771 0.605564
Si Si2 0.843069 0.247381 0.168135
Si Si3 0.500000 0.389009 0.750000
Si Si4 0.299398 0.444026 0.590239
Si Si5 0.500000 0.796716 0.750000
Si Si6 0.059845 0.901003 0.312308
O O1 0.725211 0.281531 0.714622
O O2 0.660980 0.301078 0.634215
O O3 0.964704 0.281200 0.463604
O O4 0.761332 0.089002 0.618324
O O5 0.749911 0.364180 0.196648
O O6 0.807825 0.116487 0.155555
O O7 0.469616 0.471502 0.706734
O O8 0.474894 0.414891 0.439342
O O9 0.159222 0.382792 0.641796
O O10 0.521290 0.712666 0.671921
#
# Coordination Sequence:
#
# PCOD8147841 Si02
#       6
#     8   8   4   8   4   8
#     4  12  26  44  70 101 140 180 222 287 340 403
#     4  11  25  44  72 100 132 184 234 270 339 406
#     4  11  27  44  66 106 143 171 226 284 348 395
#     4  11  22  43  70  99 139 178 225 283 337 405
#     4   9  21  38  70 104 131 179 228 270 346 405
#     4  10  22  45  70  98 139 181 223 286 327 412
#
# _framework density 22.227235
#
# number of rings (size 3 to 8) (size 9 to 14) (size 15 to 20)
#    0.000    1.200    2.000    3.000    2.800    5.600 
#    0.000    0.000    0.000    0.000    0.000    0.000 
#    0.000    0.000    0.000    0.000    0.000    0.000 
#
# Total GULP energy -248033.818889 kJ/mol
# GULP energy per Si atom -12401.690944 kJ/mol
# Density = 2.217664 g / cm^3
# Si number density = 22.227235 Si / 1000 Ang^3
#
#
#
# Elastic Constant Matrix: (Units=GPa)
#
#
# Indices 1 2 3 4 5 6 
#
# 1 63.2741 49.0713 27.5986 -0.0009 -27.7317 0.0001
# 2 49.0713 149.7412 50.8851 0.0020 -20.7779 -0.0011
# 3 27.5986 50.8851 118.7262 -0.0002 -20.6141 -0.0007
# 4 -0.0009 0.0020 -0.0002 -10.7321 -0.0004 -0.1441
# 5 -27.7317 -20.7779 -20.6141 -0.0004 55.7734 0.0001
# 6 0.0001 -0.0011 -0.0007 -0.1441 0.0001 36.1060
#
#
#
# Elastic Compliance Matrix: (Units=1/GPa)
#
#
# Indices 1 2 3 4 5 6 
#
# 1 0.025906 -0.006620 -0.001471 -0.000004 0.009871 0.000000
# 2 -0.006620 0.009679 -0.002730 0.000002 -0.000695 0.000000
# 3 -0.001471 -0.002730 0.010292 -0.000001 0.002055 0.000000
# 4 -0.000004 0.000002 -0.000001 -0.093173 -0.000002 -0.000372
# 5 0.009871 -0.000695 0.002055 -0.000002 0.023339 0.000000
# 6 0.000000 0.000000 0.000000 -0.000372 0.000000 0.027695
#
#
# Mechanical properties :
#
#
# Convention : Reuss Voigt Hill
#
# Bulk Modulus (GPa) = 41.26297 65.20571 53.23434
# Shear Modulus (GPa) = 149.44217 29.84189 89.64203
#
# Velocity S-wave (km/s) = 8.20852 3.66810 6.35747
# Velocity P-wave (km/s) = 10.41365 6.88038 8.82564
#
# Compressibility (1/GPa) = 0.02423480
#
# Stress axis : x y z
#
# Youngs Moduli (GPa) = 38.60061 103.31669 97.16655
#
# Poissons Ratio (x) = 0.68397 0.14291
# Poissons Ratio (y) = 0.25554 0.26527
# Poissons Ratio (z) = 0.05677 0.28206
#
# Static dielectric constant tensor:
#      x y z
#    x 4.228210 0.000000 -0.181510 
#    y 0.000000 4.121750 0.000000 
#    z -0.181510 0.000000 4.014450 
# 
# 
# High freq. dielectric constant tensor:
#      x y z
#    x 1.892530 0.000000 -0.010110 
#    y 0.000000 1.884420 0.000000 
#    z -0.010110 0.000000 1.867230 
# 
# From -- ./inp_files/276739.got.cif
#   From: 2010.06.25/outbox.cif.g09.slc.cpg/sg15_139_cif.got.tgz:276739.got - 2010.06.28 07:06:18.
