data_PCOD8147649
_publ_section_title
;
Structure prediction by ZEFSAII (Michael W. Deem and Ramdas Pophale) SiO2 
 PCOD8147649
Probable space group: C 2/C
;
_chemical_formula_sum "Si O2"
_cell_formula_units_Z 52
_cell_length_a 10.388000
_cell_length_b 24.738690
_cell_length_c 9.235800
_cell_angle_alpha 90.000000
_cell_angle_beta 82.363327
_cell_angle_gamma 90.000000
_cell_volume 2352.415764
_symmetry_space_group_name_H-M "C 2/C"
_symmetry_group_IT_number 15
_symmetry_cell_setting 'monoclinic'
loop_
_space_group_symop_operation_xyz
x,y,z
-x,y,1/2-z
-x,-y,-z
x,-y,1/2+z
1/2+x,1/2+y,z
1/2-x,1/2+y,1/2-z
1/2-x,1/2-y,-z
1/2+x,1/2-y,1/2+z
loop_
_atom_site_type_symbol
_atom_site_label
_atom_site_fract_x
_atom_site_fract_y
_atom_site_fract_z
Si Si1 0.818196 0.164499 0.781984
Si Si2 0.500000 0.636193 0.250000
Si Si3 0.953751 0.669981 0.527054
Si Si4 0.000000 0.408197 0.250000
Si Si5 0.232308 0.056866 0.173409
Si Si6 0.230479 0.948670 0.326003
Si Si7 0.000000 0.396428 0.750000
Si Si8 0.472263 0.291039 0.029067
O O1 0.676650 0.175197 0.862265
O O2 0.845850 0.102265 0.731228
O O3 0.836353 0.200452 0.634054
O O4 0.915539 0.184441 0.888738
O O5 0.632028 0.601875 0.245726
O O6 0.476691 0.675875 0.384195
O O7 0.043496 0.629562 0.607426
O O8 0.930617 0.642558 0.376049
O O9 0.017690 0.727818 0.501365
O O10 0.122551 0.446128 0.257563
O O11 0.382123 0.068850 0.198011
O O12 0.178292 0.003583 0.262742
O O13 0.221732 0.049497 0.001666
#
# Coordination Sequence:
#
# PCOD8147649 Si02
#       8
#     8   4   8   4   8   8   4   8
#     4  10  23  44  67  97 140 184 231 284 341 420
#     4  12  27  46  66 110 142 180 239 286 332 418
#     4  11  23  42  69 103 136 185 227 284 344 412
#     4  10  22  44  68  98 142 168 228 288 348 408
#     4  12  28  45  72 102 138 182 232 292 346 413
#     4  11  25  46  68  99 136 183 227 288 353 403
#     4  12  25  46  74 108 140 172 239 290 342 418
#     4  11  23  43  69  97 142 189 228 278 347 411
#
# _framework density 22.104935999999999
#
# number of rings (size 3 to 8) (size 9 to 14) (size 15 to 20)
#    0.000    0.923    3.077    3.231    6.462    4.308 
#    0.000    3.077    0.000    0.000    0.000    0.000 
#    0.000    0.000    0.000    0.000    0.000    0.000 
#
# Total GULP energy -322283.220004 kJ/mol
# GULP energy per Si atom -12395.508462 kJ/mol
# Density = 2.205462 g / cm^3
# Si number density = 22.104936 Si / 1000 Ang^3
#
#
#
# Elastic Constant Matrix: (Units=GPa)
#
#
# Indices 1 2 3 4 5 6 
#
# 1 20.6622 2.9288 30.4419 0.0000 -24.6147 0.0000
# 2 2.9288 120.0650 49.1316 0.0000 -10.1970 0.0000
# 3 30.4419 49.1316 124.4765 0.0000 -12.0406 0.0000
# 4 0.0000 0.0000 0.0000 44.8094 0.0000 -2.0173
# 5 -24.6147 -10.1970 -12.0406 0.0000 26.8331 0.0000
# 6 0.0000 0.0000 0.0000 -2.0173 0.0000 23.8995
#
#
#
# Elastic Compliance Matrix: (Units=1/GPa)
#
#
# Indices 1 2 3 4 5 6 
#
# 1 -0.143707 -0.019759 0.030803 0.000000 -0.125513 0.000000
# 2 -0.019759 0.007332 0.000475 0.000000 -0.015126 0.000000
# 3 0.030803 0.000475 0.003203 0.000000 0.029874 0.000000
# 4 0.000000 0.000000 0.000000 0.022402 0.000000 0.001891
# 5 -0.125513 -0.015126 0.029874 0.000000 -0.070212 0.000000
# 6 0.000000 0.000000 0.000000 0.001891 0.000000 0.042001
#
#
# Mechanical properties :
#
#
# Convention : Reuss Voigt Hill
#
# Bulk Modulus (GPa) = -9.07984 47.80094 19.36055
# Shear Modulus (GPa) = -25.15963 31.28849 3.06443
#
# Velocity S-wave (km/s) = -3.37737 3.76633 1.17869
# Velocity P-wave (km/s) = 4.39606 6.37065 3.26035
#
# Compressibility (1/GPa) = -0.11013413
#
# Stress axis : x y z
#
# Youngs Moduli (GPa) = -6.95861 136.39431 312.24625
#
# Poissons Ratio (x) = 2.69502 -9.61814
# Poissons Ratio (y) = -0.13750 -0.14840
# Poissons Ratio (z) = 0.21435 -0.06482
#
# Static dielectric constant tensor:
#      x y z
#    x 4.188360 0.000000 -0.124450 
#    y 0.000000 4.109750 0.000000 
#    z -0.124450 0.000000 4.365100 
# 
# 
# High freq. dielectric constant tensor:
#      x y z
#    x 1.861690 0.000000 -0.007450 
#    y 0.000000 1.880330 0.000000 
#    z -0.007450 0.000000 1.893370 
# 
# From -- ./inp_files/33589.got.cif
#   From: 2010.06.25/outbox.cif.g09.slc.cpg/sg15_17_cif.got.tgz:33589.got - 2010.06.28 07:06:18.
