data_PCOD8147780
_publ_section_title
;
Structure prediction by ZEFSAII (Michael W. Deem and Ramdas Pophale) SiO2 
 PCOD8147780
Probable space group: C 2/C
;
_chemical_formula_sum "Si O2"
_cell_formula_units_Z 56
_cell_length_a 16.586001
_cell_length_b 15.680919
_cell_length_c 12.774345
_cell_angle_alpha 90.000000
_cell_angle_beta 53.596117
_cell_angle_gamma 90.000000
_cell_volume 2674.045048
_symmetry_space_group_name_H-M "C 2/C"
_symmetry_group_IT_number 15
_symmetry_cell_setting 'monoclinic'
loop_
_space_group_symop_operation_xyz
x,y,z
-x,y,1/2-z
-x,-y,-z
x,-y,1/2+z
1/2+x,1/2+y,z
1/2-x,1/2+y,1/2-z
1/2-x,1/2-y,-z
1/2+x,1/2-y,1/2+z
loop_
_atom_site_type_symbol
_atom_site_label
_atom_site_fract_x
_atom_site_fract_y
_atom_site_fract_z
Si Si1 0.145248 0.196412 0.281137
Si Si2 0.500000 0.158581 0.250000
Si Si3 0.856741 0.523010 0.257505
Si Si4 0.000000 0.905532 0.750000
Si Si5 0.391869 0.151975 0.822241
Si Si6 0.646355 0.720625 0.525266
Si Si7 0.199636 0.568454 0.410340
Si Si8 0.670768 0.469979 0.041398
O O1 0.047211 0.152137 0.305718
O O2 0.175385 0.280178 0.189615
O O3 0.140253 0.224939 0.404828
O O4 0.230434 0.126655 0.214068
O O5 0.413259 0.101855 0.266197
O O6 0.445690 0.219188 0.374443
O O7 0.909412 0.435052 0.245814
O O8 0.874336 0.529510 0.118961
O O9 0.738726 0.518987 0.383750
O O10 0.919021 0.961963 0.877042
O O11 0.500000 0.195601 0.750000
O O12 0.347261 0.132147 0.969600
O O13 0.750000 0.750000 0.500000
O O14 0.625324 0.624463 0.581316
O O15 0.253091 0.487276 0.421655
#
# Coordination Sequence:
#
# PCOD8147780 Si02
#       8
#     8   4   8   4   8   8   8   8
#     4  11  23  44  67  99 134 169 218 280 328 397
#     4  12  25  41  66  94 134 182 218 273 331 396
#     4  11  23  44  64  95 131 179 220 268 332 395
#     4  10  23  43  72  96 132 172 224 277 337 390
#     4  11  24  39  66  99 126 168 220 265 326 391
#     4  12  25  44  66  98 138 174 223 275 331 395
#     4  10  23  43  69  90 135 170 215 275 330 394
#     4  10  22  45  64  97 127 171 222 272 328 399
#
# _framework density 20.942056000000001
#
# number of rings (size 3 to 8) (size 9 to 14) (size 15 to 20)
#    0.000    1.143    4.286    0.857    4.000    1.143 
#    2.571    0.000    0.000    0.000    0.000    0.000 
#    0.000    0.000    0.000    0.000    0.000    0.000 
#
# Total GULP energy -346977.581488 kJ/mol
# GULP energy per Si atom -12392.056482 kJ/mol
# Density = 2.089439 g / cm^3
# Si number density = 20.942056 Si / 1000 Ang^3
#
#
#
# Elastic Constant Matrix: (Units=GPa)
#
#
# Indices 1 2 3 4 5 6 
#
# 1 86.3047 22.2567 56.0053 0.0000 15.5564 0.0000
# 2 22.2567 99.9672 40.0750 0.0000 13.7916 0.0000
# 3 56.0053 40.0750 122.6880 0.0000 26.7518 0.0000
# 4 0.0000 0.0000 0.0000 136.2488 0.0000 -42.0977
# 5 15.5564 13.7916 26.7518 0.0000 40.7111 0.0000
# 6 0.0000 0.0000 0.0000 -42.0977 0.0000 27.4092
#
#
#
# Elastic Compliance Matrix: (Units=1/GPa)
#
#
# Indices 1 2 3 4 5 6 
#
# 1 0.016590 -0.000670 -0.007028 0.000000 -0.001494 0.000000
# 2 -0.000670 0.011635 -0.003141 0.000000 -0.001622 0.000000
# 3 -0.007028 -0.003141 0.013502 0.000000 -0.005123 0.000000
# 4 0.000000 0.000000 0.000000 0.013968 0.000000 0.021454
# 5 -0.001494 -0.001622 -0.005123 0.000000 0.029050 0.000000
# 6 0.000000 0.000000 0.000000 0.021454 0.000000 0.069435
#
#
# Mechanical properties :
#
#
# Convention : Reuss Voigt Hill
#
# Bulk Modulus (GPa) = 49.87974 60.62600 55.25287
# Shear Modulus (GPa) = 27.39094 53.58201 40.48647
#
# Velocity S-wave (km/s) = 3.62047 5.06373 4.40166
# Velocity P-wave (km/s) = 6.43014 7.94989 7.23006
#
# Compressibility (1/GPa) = 0.02004822
#
# Stress axis : x y z
#
# Youngs Moduli (GPa) = 60.27790 85.94460 74.06202
#
# Poissons Ratio (x) = 0.05757 0.52054
# Poissons Ratio (y) = 0.04038 0.23265
# Poissons Ratio (z) = 0.42366 0.26997
#
# Static dielectric constant tensor:
#      x y z
#    x 3.816930 0.000000 -0.035010 
#    y 0.000000 3.997840 0.000000 
#    z -0.035010 0.000000 3.820960 
# 
# 
# High freq. dielectric constant tensor:
#      x y z
#    x 1.816590 0.000000 0.007050 
#    y 0.000000 1.840170 0.000000 
#    z 0.007050 0.000000 1.818490 
# 
# From -- ./inp_files/105670.got.cif
#   From: 2010.06.25/outbox.cif.g09.slc.cpg/sg15_53_cif.got.tgz:105670.got - 2010.06.28 07:06:18.
