data_PCOD8147908
_publ_section_title
;
Structure prediction by ZEFSAII (Michael W. Deem and Ramdas Pophale) SiO2 
 PCOD8147908
Probable space group: C 2/C
;
_chemical_formula_sum "Si O2"
_cell_formula_units_Z 36
_cell_length_a 11.341105
_cell_length_b 14.524007
_cell_length_c 13.450770
_cell_angle_alpha 90.000000
_cell_angle_beta 137.767533
_cell_angle_gamma 90.000000
_cell_volume 1489.185774
_symmetry_space_group_name_H-M "C 2/C"
_symmetry_group_IT_number 15
_symmetry_cell_setting 'monoclinic'
loop_
_space_group_symop_operation_xyz
x,y,z
-x,y,1/2-z
-x,-y,-z
x,-y,1/2+z
1/2+x,1/2+y,z
1/2-x,1/2+y,1/2-z
1/2-x,1/2-y,-z
1/2+x,1/2-y,1/2+z
loop_
_atom_site_type_symbol
_atom_site_label
_atom_site_fract_x
_atom_site_fract_y
_atom_site_fract_z
Si Si1 0.781084 0.421058 0.306600
Si Si2 0.762548 0.275921 0.738363
Si Si3 0.332173 0.036618 0.521317
Si Si4 0.500000 0.891394 0.750000
Si Si5 0.108814 0.149603 0.522523
O O1 0.771171 0.317579 0.347092
O O2 0.742745 0.499658 0.363661
O O3 0.635769 0.427393 0.127259
O O4 0.971818 0.429667 0.376507
O O5 0.923018 0.330950 0.791159
O O6 0.814069 0.246357 0.884035
O O7 0.592666 0.340936 0.633891
O O8 0.343411 0.952591 0.606335
O O9 0.217975 0.120184 0.493193
#
# Coordination Sequence:
#
# PCOD8147908 Si02
#       5
#     8   8   8   4   8
#     4   9  22  43  67 103 136 188 225 285 347 424
#     4  10  24  41  72 101 142 173 245 278 364 398
#     4  11  21  44  72  93 149 185 230 283 359 401
#     4  12  22  42  72  96 136 194 220 308 328 428
#     4  10  22  46  68 108 135 184 231 292 337 434
#
# _framework density 24.174284
#
# number of rings (size 3 to 8) (size 9 to 14) (size 15 to 20)
#    1.333    0.444    2.222    1.333    0.000    5.333 
#    0.000    0.000   14.667    0.000    0.000    0.000 
#    0.000    0.000    0.000    0.000    0.000    0.000 
#
# Total GULP energy -223060.796525 kJ/mol
# GULP energy per Si atom -12392.266474 kJ/mol
# Density = 2.411926 g / cm^3
# Si number density = 24.174284 Si / 1000 Ang^3
#
#
#
# Elastic Constant Matrix: (Units=GPa)
#
#
# Indices 1 2 3 4 5 6 
#
# 1 136.3913 61.0223 47.4935 0.0000 -0.2099 0.0000
# 2 61.0223 78.6940 25.0909 0.0000 8.5874 0.0000
# 3 47.4935 25.0909 73.2758 -0.0001 -0.4972 -0.0001
# 4 0.0000 0.0000 -0.0001 -5.8905 -0.0001 -12.0681
# 5 -0.2099 8.5874 -0.4972 -0.0001 24.3901 -0.0001
# 6 0.0000 0.0000 -0.0001 -12.0681 -0.0001 61.4516
#
#
#
# Elastic Compliance Matrix: (Units=1/GPa)
#
#
# Indices 1 2 3 4 5 6 
#
# 1 0.013203 -0.008818 -0.005517 0.000000 0.003106 0.000000
# 2 -0.008818 0.020824 -0.001466 0.000000 -0.007438 0.000000
# 3 -0.005517 -0.001466 0.017730 0.000000 0.000830 0.000000
# 4 0.000000 0.000000 0.000000 -0.121058 0.000000 -0.023774
# 5 0.003106 -0.007438 0.000830 0.000000 0.043663 0.000000
# 6 0.000000 0.000000 0.000000 -0.023774 0.000000 0.011604
#
#
# Mechanical properties :
#
#
# Convention : Reuss Voigt Hill
#
# Bulk Modulus (GPa) = 49.61227 61.73049 55.67138
# Shear Modulus (GPa) = 205.87741 26.30719 116.09230
#
# Velocity S-wave (km/s) = 9.23844 3.30241 6.93738
# Velocity P-wave (km/s) = 11.59162 6.33500 9.34071
#
# Compressibility (1/GPa) = 0.02015630
#
# Stress axis : x y z
#
# Youngs Moduli (GPa) = 75.74096 48.02120 56.40035
#
# Poissons Ratio (x) = 0.42345 0.31116
# Poissons Ratio (y) = 0.66788 0.08267
# Poissons Ratio (z) = 0.41786 0.07038
#
# Static dielectric constant tensor:
#      x y z
#    x 3.983410 0.000000 -0.220750 
#    y 0.000000 4.440970 0.000000 
#    z -0.220750 0.000000 4.161400 
# 
# 
# High freq. dielectric constant tensor:
#      x y z
#    x 1.939270 0.000000 -0.008980 
#    y 0.000000 1.963450 0.000000 
#    z -0.008980 0.000000 1.953340 
# 
# From -- ./inp_files/144451.got.cif
#   From: 2010.06.25/outbox.cif.g09.slc.cpg/sg15_73_cif.got.tgz:144451.got - 2010.06.28 07:06:18.
