data_PCOD8147389
_publ_section_title
;
Structure prediction by ZEFSAII (Michael W. Deem and Ramdas Pophale) SiO2 
 PCOD8147389
Probable space group: C 2/C
;
_chemical_formula_sum "Si O2"
_cell_formula_units_Z 56
_cell_length_a 28.626655
_cell_length_b 11.976599
_cell_length_c 8.810259
_cell_angle_alpha 90.000000
_cell_angle_beta 122.678896
_cell_angle_gamma 90.000000
_cell_volume 2542.465848
_symmetry_space_group_name_H-M "C 2/C"
_symmetry_group_IT_number 15
_symmetry_cell_setting 'monoclinic'
loop_
_space_group_symop_operation_xyz
x,y,z
-x,y,1/2-z
-x,-y,-z
x,-y,1/2+z
1/2+x,1/2+y,z
1/2-x,1/2+y,1/2-z
1/2-x,1/2-y,-z
1/2+x,1/2-y,1/2+z
loop_
_atom_site_type_symbol
_atom_site_label
_atom_site_fract_x
_atom_site_fract_y
_atom_site_fract_z
Si Si1 0.304810 0.290357 0.672590
Si Si2 0.099294 0.363758 0.171078
Si Si3 0.130301 0.012155 0.312632
Si Si4 0.053547 0.061862 0.441833
Si Si5 0.490646 0.742279 0.903213
Si Si6 0.897105 0.405973 0.665151
Si Si7 0.689591 0.726937 0.962687
O O1 0.250000 0.250000 0.500000
O O2 0.352654 0.215534 0.683741
O O3 0.317105 0.418752 0.653905
O O4 0.300435 0.276368 0.842647
O O5 0.097609 0.466717 0.280103
O O6 0.112837 0.410690 0.030438
O O7 0.045749 0.285113 0.080439
O O8 0.108088 0.066994 0.430120
O O9 0.154267 0.885119 0.358858
O O10 0.075743 0.027153 0.105981
O O11 0.040173 0.168482 0.523635
O O12 0.000000 0.023179 0.250000
O O13 0.500000 0.684110 0.750000
O O14 0.455245 0.851377 0.807814
O O15 0.847404 0.333615 0.652359
O O16 0.750000 0.750000 0.000000
#
# Coordination Sequence:
#
# PCOD8147389 Si02
#       7
#     8   8   8   8   8   8   8
#     4  11  27  47  70 102 141 183 241 299 350 429
#     4  10  23  42  66 101 140 183 235 285 353 415
#     4  12  26  50  71 110 147 185 243 300 360 441
#     4  12  26  43  75 107 146 192 232 290 366 432
#     4  10  22  44  72 102 147 186 232 295 355 429
#     4  10  22  43  69  99 139 184 232 293 349 423
#     4  11  26  47  75 100 140 190 237 301 369 418
#
# _framework density 22.025860000000002
#
# number of rings (size 3 to 8) (size 9 to 14) (size 15 to 20)
#    0.000    1.143    2.857    1.714    4.000    5.143 
#    0.000    0.000    0.000    0.000    0.000    0.000 
#    0.000    0.000    0.000    0.000    0.000    0.000 
#
# Total GULP energy -346890.038934 kJ/mol
# GULP energy per Si atom -12388.929962 kJ/mol
# Density = 2.197573 g / cm^3
# Si number density = 22.025860 Si / 1000 Ang^3
#
#
#
# Elastic Constant Matrix: (Units=GPa)
#
#
# Indices 1 2 3 4 5 6 
#
# 1 120.8029 43.0641 34.5979 0.0000 4.6550 0.0000
# 2 43.0641 104.6157 43.5773 0.0000 -0.2304 0.0000
# 3 34.5979 43.5773 113.3158 0.0000 21.5546 0.0000
# 4 0.0000 0.0000 0.0000 12.3725 0.0000 -13.8378
# 5 4.6550 -0.2304 21.5546 0.0000 40.8520 0.0000
# 6 0.0000 0.0000 0.0000 -13.8378 0.0000 36.2993
#
#
#
# Elastic Compliance Matrix: (Units=1/GPa)
#
#
# Indices 1 2 3 4 5 6 
#
# 1 0.009987 -0.003409 -0.001688 0.000000 -0.000267 0.000000
# 2 -0.003409 0.012807 -0.004415 0.000000 0.002790 0.000000
# 3 -0.001688 -0.004415 0.012234 0.000000 -0.006288 0.000000
# 4 0.000000 0.000000 0.000000 0.140898 0.000000 0.053712
# 5 -0.000267 0.002790 -0.006288 0.000000 0.027842 0.000000
# 6 0.000000 0.000000 0.000000 0.053712 0.000000 0.048024
#
#
# Mechanical properties :
#
#
# Convention : Reuss Voigt Hill
#
# Bulk Modulus (GPa) = 62.47973 64.57923 63.52948
# Shear Modulus (GPa) = 18.10606 32.40442 25.25524
#
# Velocity S-wave (km/s) = 2.87023 3.83978 3.38985
# Velocity P-wave (km/s) = 6.27793 7.00300 6.65035
#
# Compressibility (1/GPa) = 0.01600519
#
# Stress axis : x y z
#
# Youngs Moduli (GPa) = 100.13378 78.08115 81.73854
#
# Poissons Ratio (x) = 0.26614 0.13794
# Poissons Ratio (y) = 0.34131 0.36090
# Poissons Ratio (z) = 0.16899 0.34475
#
# Static dielectric constant tensor:
#      x y z
#    x 4.172330 0.000000 -0.059760 
#    y 0.000000 3.922070 0.000000 
#    z -0.059760 0.000000 4.289110 
# 
# 
# High freq. dielectric constant tensor:
#      x y z
#    x 1.873440 0.000000 0.001930 
#    y 0.000000 1.866790 0.000000 
#    z 0.001930 0.000000 1.878650 
# 
# From -- ./inp_files/69449.got.cif
#   From: 2010.06.25/outbox.cif.g09.slc.cpg/sg15_35_cif.got.tgz:69449.got - 2010.06.28 07:06:18.
