data_PCOD8147540
_publ_section_title
;
Structure prediction by ZEFSAII (Michael W. Deem and Ramdas Pophale) SiO2 
 PCOD8147540
Probable space group: C 2/C
;
_chemical_formula_sum "Si O2"
_cell_formula_units_Z 48
_cell_length_a 14.076867
_cell_length_b 11.133361
_cell_length_c 27.021669
_cell_angle_alpha 90.000000
_cell_angle_beta 150.324074
_cell_angle_gamma 90.000000
_cell_volume 2096.678423
_symmetry_space_group_name_H-M "C 2/C"
_symmetry_group_IT_number 15
_symmetry_cell_setting 'monoclinic'
loop_
_space_group_symop_operation_xyz
x,y,z
-x,y,1/2-z
-x,-y,-z
x,-y,1/2+z
1/2+x,1/2+y,z
1/2-x,1/2+y,1/2-z
1/2-x,1/2-y,-z
1/2+x,1/2-y,1/2+z
loop_
_atom_site_type_symbol
_atom_site_label
_atom_site_fract_x
_atom_site_fract_y
_atom_site_fract_z
Si Si1 0.612655 0.062914 0.153647
Si Si2 0.346043 0.762288 0.139389
Si Si3 0.064961 0.336980 0.064222
Si Si4 0.623598 0.742791 0.991790
Si Si5 0.464560 0.341850 0.864894
Si Si6 0.747483 0.008264 0.946869
O O1 0.579936 0.197306 0.115891
O O2 0.814810 0.065362 0.272855
O O3 0.608045 0.966936 0.106797
O O4 0.453537 0.037035 0.122847
O O5 0.500000 0.721925 0.250000
O O6 0.458443 0.756203 0.138489
O O7 0.283653 0.903503 0.114640
O O8 0.158912 0.677148 0.053618
O O9 0.124875 0.232495 0.129909
O O10 0.192673 0.319036 0.071754
O O11 0.750000 0.750000 0.000000
O O12 0.616201 0.604481 0.006482
O O13 0.646307 0.420512 0.961877
#
# Coordination Sequence:
#
# PCOD8147540 Si02
#       6
#     8   8   8   8   8   8
#     4  11  22  41  72  94 145 188 231 287 353 419
#     4  11  22  40  70  99 132 178 240 289 349 425
#     4  11  22  44  68  99 140 183 237 294 349 416
#     4  10  24  41  64  96 134 183 223 284 357 412
#     4  11  23  40  70 100 133 187 237 288 348 425
#     4  10  22  44  65  98 144 172 230 300 344 420
#
# _framework density 22.893352
#
# number of rings (size 3 to 8) (size 9 to 14) (size 15 to 20)
#    0.000    1.333    3.333    2.500    2.333    5.333 
#    0.000    2.500    0.000    0.000    0.000    0.000 
#    0.000    0.000    0.000    0.000    0.000    0.000 
#
# Total GULP energy -297361.491059 kJ/mol
# GULP energy per Si atom -12390.062127 kJ/mol
# Density = 2.284125 g / cm^3
# Si number density = 22.893352 Si / 1000 Ang^3
#
#
#
# Elastic Constant Matrix: (Units=GPa)
#
#
# Indices 1 2 3 4 5 6 
#
# 1 105.4178 16.3365 24.8170 0.0000 -16.5937 -0.0001
# 2 16.3365 113.0092 49.4055 0.0000 2.1677 -0.0001
# 3 24.8170 49.4055 140.5572 -0.0007 -9.1535 -0.0002
# 4 0.0000 0.0000 -0.0007 34.0187 -0.0001 -4.7951
# 5 -16.5937 2.1677 -9.1535 -0.0001 26.0793 -0.0001
# 6 -0.0001 -0.0001 -0.0002 -4.7951 -0.0001 24.5297
#
#
#
# Elastic Compliance Matrix: (Units=1/GPa)
#
#
# Indices 1 2 3 4 5 6 
#
# 1 0.010989 -0.001253 -0.001062 0.000000 0.006723 0.000000
# 2 -0.001253 0.010724 -0.003744 0.000000 -0.003003 0.000000
# 3 -0.001062 -0.003744 0.008795 0.000000 0.002723 0.000000
# 4 0.000000 0.000000 0.000000 0.030228 0.000000 0.005909
# 5 0.006723 -0.003003 0.002723 0.000000 0.043828 0.000000
# 6 0.000000 0.000000 0.000000 0.005909 0.000000 0.041922
#
#
# Mechanical properties :
#
#
# Convention : Reuss Voigt Hill
#
# Bulk Modulus (GPa) = 54.37633 60.01134 57.19383
# Shear Modulus (GPa) = 30.35190 34.82055 32.58622
#
# Velocity S-wave (km/s) = 3.64510 3.90422 3.77688
# Velocity P-wave (km/s) = 6.44354 6.82600 6.63752
#
# Compressibility (1/GPa) = 0.01839035
#
# Stress axis : x y z
#
# Youngs Moduli (GPa) = 91.00381 93.24572 113.69735
#
# Poissons Ratio (x) = 0.11686 0.12072
# Poissons Ratio (y) = 0.11405 0.42567
# Poissons Ratio (z) = 0.09663 0.34910
#
# Static dielectric constant tensor:
#      x y z
#    x 4.124480 0.000000 -0.180750 
#    y 0.000000 4.501490 0.000000 
#    z -0.180750 0.000000 4.049730 
# 
# 
# High freq. dielectric constant tensor:
#      x y z
#    x 1.901900 0.000000 -0.017620 
#    y 0.000000 1.910170 0.000000 
#    z -0.017620 0.000000 1.888930 
# 
# From -- ./inp_files/296037.got.cif
#   From: 2010.06.25/outbox.cif.g09.slc.cpg/sg15_149_cif.got.tgz:296037.got - 2010.06.28 07:06:18.
