data_PCOD8147752
_publ_section_title
;
Structure prediction by ZEFSAII (Michael W. Deem and Ramdas Pophale) SiO2 
 PCOD8147752
Probable space group: C 2/C
;
_chemical_formula_sum "Si O2"
_cell_formula_units_Z 40
_cell_length_a 12.291353
_cell_length_b 8.545357
_cell_length_c 17.785008
_cell_angle_alpha 90.000000
_cell_angle_beta 73.451822
_cell_angle_gamma 90.000000
_cell_volume 1790.657774
_symmetry_space_group_name_H-M "C 2/C"
_symmetry_group_IT_number 15
_symmetry_cell_setting 'monoclinic'
loop_
_space_group_symop_operation_xyz
x,y,z
-x,y,1/2-z
-x,-y,-z
x,-y,1/2+z
1/2+x,1/2+y,z
1/2-x,1/2+y,1/2-z
1/2-x,1/2-y,-z
1/2+x,1/2-y,1/2+z
loop_
_atom_site_type_symbol
_atom_site_label
_atom_site_fract_x
_atom_site_fract_y
_atom_site_fract_z
Si Si1 0.249137 0.378465 0.935777
Si Si2 0.024480 0.063090 0.576741
Si Si3 0.148413 0.637194 0.040656
Si Si4 0.628480 0.056857 0.212079
Si Si5 0.186142 0.175819 0.806264
O O1 0.370446 0.469604 0.907191
O O2 0.220502 0.302244 0.862342
O O3 0.250000 0.250000 0.000000
O O4 0.148581 0.501395 0.977366
O O5 0.038652 0.252169 0.565249
O O6 0.912178 0.052646 0.650048
O O7 0.000000 0.000000 0.500000
O O8 0.164633 0.554150 0.117895
O O9 0.250000 0.750000 0.000000
O O10 0.500000 0.002532 0.250000
O O11 0.646177 0.231112 0.240583
O O12 0.706317 0.928834 0.238362
#
# Coordination Sequence:
#
# PCOD8147752 Si02
#       5
#     8   8   8   8   8
#     4  11  22  44  71 103 135 179 244 286 344 425
#     4  11  22  43  71 104 138 179 235 293 349 417
#     4  10  22  44  73  98 141 183 234 293 341 423
#     4  12  27  48  67 104 144 183 235 290 362 423
#     4  12  27  45  69 102 142 187 230 296 356 420
#
# _framework density 22.338160999999999
#
# number of rings (size 3 to 8) (size 9 to 14) (size 15 to 20)
#    0.000    0.800    6.000    1.200    5.600    2.400 
#    3.600    0.000    0.000    0.000    0.000    0.000 
#    0.000    0.000    0.000    0.000    0.000    0.000 
#
# Total GULP energy -247981.606537 kJ/mol
# GULP energy per Si atom -12399.080327 kJ/mol
# Density = 2.228732 g / cm^3
# Si number density = 22.338161 Si / 1000 Ang^3
#
#
#
# Elastic Constant Matrix: (Units=GPa)
#
#
# Indices 1 2 3 4 5 6 
#
# 1 115.8674 35.5301 20.5291 0.0000 -28.6124 0.0000
# 2 35.5301 94.3778 11.7306 0.0000 -17.4696 0.0000
# 3 20.5291 11.7306 69.1519 0.0000 -16.5689 0.0000
# 4 0.0000 0.0000 0.0000 53.3127 0.0000 4.7274
# 5 -28.6124 -17.4696 -16.5689 0.0000 31.9215 0.0000
# 6 0.0000 0.0000 0.0000 4.7274 0.0000 50.9188
#
#
#
# Elastic Compliance Matrix: (Units=1/GPa)
#
#
# Indices 1 2 3 4 5 6 
#
# 1 0.011745 -0.002721 -0.000982 0.000000 0.008529 0.000000
# 2 -0.002721 0.012437 -0.000292 0.000000 0.004216 0.000000
# 3 -0.000982 -0.000292 0.016620 0.000000 0.007587 0.000000
# 4 0.000000 0.000000 0.000000 0.018913 0.000000 -0.001756
# 5 0.008529 0.004216 0.007587 0.000000 0.045217 0.000000
# 6 0.000000 0.000000 0.000000 -0.001756 0.000000 0.019802
#
#
# Mechanical properties :
#
#
# Convention : Reuss Voigt Hill
#
# Bulk Modulus (GPa) = 30.47605 46.10852 38.29228
# Shear Modulus (GPa) = 34.80456 41.33774 38.07115
#
# Velocity S-wave (km/s) = 3.95153 4.30646 4.13281
# Velocity P-wave (km/s) = 5.87300 6.73895 6.32082
#
# Compressibility (1/GPa) = 0.03281265
#
# Stress axis : x y z
#
# Youngs Moduli (GPa) = 85.14308 80.40735 60.16976
#
# Poissons Ratio (x) = 0.21878 0.05906
# Poissons Ratio (y) = 0.23166 0.01756
# Poissons Ratio (z) = 0.08358 0.02346
#
# Static dielectric constant tensor:
#      x y z
#    x 4.267030 0.000000 -0.206090 
#    y 0.000000 4.640350 0.000000 
#    z -0.206090 0.000000 3.970230 
# 
# 
# High freq. dielectric constant tensor:
#      x y z
#    x 1.880130 0.000000 -0.011460 
#    y 0.000000 1.891630 0.000000 
#    z -0.011460 0.000000 1.875470 
# 
# From -- ./inp_files/150793.got.cif
#   From: 2010.06.25/outbox.cif.g09.slc.cpg/sg15_76_cif.got.tgz:150793.got - 2010.06.28 07:06:18.
