data_PCOD8147209
_publ_section_title
;
Structure prediction by ZEFSAII (Michael W. Deem and Ramdas Pophale) SiO2 
 PCOD8147209
Probable space group: C 2/C
;
_chemical_formula_sum "Si O2"
_cell_formula_units_Z 44
_cell_length_a 13.762416
_cell_length_b 6.536060
_cell_length_c 24.097627
_cell_angle_alpha 90.000000
_cell_angle_beta 106.594205
_cell_angle_gamma 90.000000
_cell_volume 2077.350602
_symmetry_space_group_name_H-M "C 2/C"
_symmetry_group_IT_number 15
_symmetry_cell_setting 'monoclinic'
loop_
_space_group_symop_operation_xyz
x,y,z
-x,y,1/2-z
-x,-y,-z
x,-y,1/2+z
1/2+x,1/2+y,z
1/2-x,1/2+y,1/2-z
1/2-x,1/2-y,-z
1/2+x,1/2-y,1/2+z
loop_
_atom_site_type_symbol
_atom_site_label
_atom_site_fract_x
_atom_site_fract_y
_atom_site_fract_z
Si Si1 0.198873 0.491298 0.832889
Si Si2 0.200674 0.806414 0.434160
Si Si3 0.383961 0.741259 0.332863
Si Si4 0.516436 0.556264 0.565843
Si Si5 0.000000 0.374853 0.250000
Si Si6 0.184425 0.375004 0.619005
O O1 0.204040 0.389382 0.894445
O O2 0.277390 0.374976 0.804869
O O3 0.229152 0.729555 0.841164
O O4 0.086321 0.477150 0.789439
O O5 0.250000 0.750000 0.500000
O O6 0.266228 0.992008 0.421309
O O7 0.085853 0.875395 0.421537
O O8 0.440284 0.639436 0.394445
O O9 0.453064 0.726859 0.289417
O O10 0.362030 0.979591 0.341090
O O11 0.500000 0.500000 0.500000
O O12 0.594650 0.742189 0.578724
#
# Coordination Sequence:
#
# PCOD8147209 Si02
#       6
#     8   8   8   8   4   8
#     4  10  24  43  64  98 130 174 226 273 343 405
#     4  11  23  41  66  97 131 174 224 278 340 403
#     4  10  24  43  64  98 130 174 226 273 343 405
#     4  11  23  41  66  97 131 174 224 278 340 403
#     4  12  24  42  70  94 136 178 220 284 342 414
#     4  10  22  43  64  90 134 167 220 278 326 410
#
# _framework density 21.180824000000001
#
# number of rings (size 3 to 8) (size 9 to 14) (size 15 to 20)
#    0.000    1.455    0.000    5.455    2.545    7.273 
#    0.000    7.273    0.000    0.000    0.000    0.000 
#    0.000    0.000    0.000    0.000    0.000    0.000 
#
# Total GULP energy -272891.891874 kJ/mol
# GULP energy per Si atom -12404.176903 kJ/mol
# Density = 2.113262 g / cm^3
# Si number density = 21.180824 Si / 1000 Ang^3
#
#
#
# Elastic Constant Matrix: (Units=GPa)
#
#
# Indices 1 2 3 4 5 6 
#
# 1 167.8138 59.9262 73.9350 0.0000 -0.8811 0.0000
# 2 59.9262 141.4742 64.1299 0.0000 0.0944 0.0000
# 3 73.9350 64.1299 135.9031 0.0000 -1.6979 0.0000
# 4 0.0000 0.0000 0.0000 18.3758 0.0000 -1.0326
# 5 -0.8811 0.0944 -1.6979 0.0000 42.3103 0.0000
# 6 0.0000 0.0000 0.0000 -1.0326 0.0000 33.1938
#
#
#
# Elastic Compliance Matrix: (Units=1/GPa)
#
#
# Indices 1 2 3 4 5 6 
#
# 1 0.008200 -0.001846 -0.003589 0.000000 0.000031 0.000000
# 2 -0.001846 0.009409 -0.003438 0.000000 -0.000197 0.000000
# 3 -0.003589 -0.003438 0.010938 0.000000 0.000372 0.000000
# 4 0.000000 0.000000 0.000000 0.054515 0.000000 0.001696
# 5 0.000031 -0.000197 0.000372 0.000000 0.023651 0.000000
# 6 0.000000 0.000000 0.000000 0.001696 0.000000 0.030179
#
#
# Mechanical properties :
#
#
# Convention : Reuss Voigt Hill
#
# Bulk Modulus (GPa) = 92.59661 93.46369 93.03015
# Shear Modulus (GPa) = 31.59795 35.25598 33.42697
#
# Velocity S-wave (km/s) = 3.86660 4.08428 3.97693
# Velocity P-wave (km/s) = 7.98412 8.15256 8.06878
#
# Compressibility (1/GPa) = 0.01079953
#
# Stress axis : x y z
#
# Youngs Moduli (GPa) = 121.95374 106.28070 91.42596
#
# Poissons Ratio (x) = 0.19623 0.32816
# Poissons Ratio (y) = 0.22516 0.31432
# Poissons Ratio (z) = 0.43773 0.36539
#
# Static dielectric constant tensor:
#      x y z
#    x 4.347960 0.000000 -0.039610 
#    y 0.000000 3.755270 0.000000 
#    z -0.039610 0.000000 3.768660 
# 
# 
# High freq. dielectric constant tensor:
#      x y z
#    x 1.857690 0.000000 -0.002040 
#    y 0.000000 1.830280 0.000000 
#    z -0.002040 0.000000 1.828190 
# 
# From -- ./inp_files/260403.got.cif
#   From: 2010.06.25/outbox.cif.g09.slc.cpg/sg15_131_cif.got.tgz:260403.got - 2010.06.28 07:06:18.
