data_PCOD8147144
_publ_section_title
;
Structure prediction by ZEFSAII (Michael W. Deem and Ramdas Pophale) SiO2 
 PCOD8147144
Probable space group: C 2/C
;
_chemical_formula_sum "Si O2"
_cell_formula_units_Z 60
_cell_length_a 23.465394
_cell_length_b 14.376363
_cell_length_c 9.765735
_cell_angle_alpha 90.000000
_cell_angle_beta 66.291739
_cell_angle_gamma 90.000000
_cell_volume 3016.406002
_symmetry_space_group_name_H-M "C 2/C"
_symmetry_group_IT_number 15
_symmetry_cell_setting 'monoclinic'
loop_
_space_group_symop_operation_xyz
x,y,z
-x,y,1/2-z
-x,-y,-z
x,-y,1/2+z
1/2+x,1/2+y,z
1/2-x,1/2+y,1/2-z
1/2-x,1/2-y,-z
1/2+x,1/2-y,1/2+z
loop_
_atom_site_type_symbol
_atom_site_label
_atom_site_fract_x
_atom_site_fract_y
_atom_site_fract_z
Si Si1 0.416957 0.686013 0.117246
Si Si2 0.721309 0.929050 0.127086
Si Si3 0.194489 0.709139 0.883364
Si Si4 0.500000 0.212263 0.750000
Si Si5 0.372719 0.174966 0.980238
Si Si6 0.543184 0.526060 0.580665
Si Si7 0.356838 0.388960 0.919598
Si Si8 0.800458 0.355397 0.816210
O O1 0.371759 0.770564 0.122287
O O2 0.474673 0.723480 0.150803
O O3 0.380618 0.607612 0.240630
O O4 0.436897 0.633876 0.958642
O O5 0.724365 0.875667 0.269602
O O6 0.711896 0.036058 0.168142
O O7 0.669500 0.888629 0.075909
O O8 0.785964 0.919600 0.986511
O O9 0.239347 0.798795 0.827067
O O10 0.180708 0.681146 0.052511
O O11 0.555384 0.150392 0.628998
O O12 0.357340 0.158173 0.154686
O O13 0.362667 0.283522 0.964620
O O14 0.500000 0.514386 0.750000
O O15 0.500000 0.500000 0.500000
O O16 0.602998 0.458986 0.527008
#
# Coordination Sequence:
#
# PCOD8147144 Si02
#       8
#     8   8   8   4   8   8   8   8
#     4  11  22  41  65  92 133 172 218 266 326 390
#     4  12  22  43  71  95 127 179 218 271 332 396
#     4  11  23  43  63  99 140 168 211 278 333 392
#     4  10  22  42  72  90 122 184 226 268 324 392
#     4  11  22  43  68  89 127 173 223 264 326 395
#     4  12  24  40  61  97 135 169 217 264 320 405
#     4  11  22  38  66  94 128 173 215 255 324 401
#     4  11  25  40  64 101 136 164 215 279 335 386
#
# _framework density 19.891223
#
# number of rings (size 3 to 8) (size 9 to 14) (size 15 to 20)
#    0.000    0.800    5.333    4.400    0.933    3.200 
#    0.000    0.667    0.000    0.000    0.000    0.000 
#    0.000    0.000    0.000    0.000    0.000    0.000 
#
# Total GULP energy -371963.630486 kJ/mol
# GULP energy per Si atom -12398.787683 kJ/mol
# Density = 1.984595 g / cm^3
# Si number density = 19.891223 Si / 1000 Ang^3
#
#
#
# Elastic Constant Matrix: (Units=GPa)
#
#
# Indices 1 2 3 4 5 6 
#
# 1 137.0479 57.1197 56.8314 0.0000 -13.0915 0.0000
# 2 57.1197 108.0603 35.9876 0.0000 -0.4050 0.0000
# 3 56.8314 35.9876 125.4222 0.0000 -9.5793 0.0000
# 4 0.0000 0.0000 0.0000 29.1751 0.0000 2.6977
# 5 -13.0915 -0.4050 -9.5793 0.0000 36.7958 0.0000
# 6 0.0000 0.0000 0.0000 2.6977 0.0000 30.4077
#
#
#
# Elastic Compliance Matrix: (Units=1/GPa)
#
#
# Indices 1 2 3 4 5 6 
#
# 1 0.010914 -0.004628 -0.003392 0.000000 0.002949 0.000000
# 2 -0.004628 0.012211 -0.001553 0.000000 -0.001917 0.000000
# 3 -0.003392 -0.001553 0.010062 0.000000 0.001396 0.000000
# 4 0.000000 0.000000 0.000000 0.034559 0.000000 -0.003066
# 5 0.002949 -0.001917 0.001396 0.000000 0.028568 0.000000
# 6 0.000000 0.000000 0.000000 -0.003066 0.000000 0.033158
#
#
# Mechanical properties :
#
#
# Convention : Reuss Voigt Hill
#
# Bulk Modulus (GPa) = 71.22323 74.48975 72.85649
# Shear Modulus (GPa) = 32.61584 33.98185 33.29885
#
# Velocity S-wave (km/s) = 4.05373 4.13774 4.09595
# Velocity P-wave (km/s) = 7.60226 7.76903 7.68610
#
# Compressibility (1/GPa) = 0.01404036
#
# Stress axis : x y z
#
# Youngs Moduli (GPa) = 91.62440 81.89651 99.38136
#
# Poissons Ratio (x) = 0.37905 0.33712
# Poissons Ratio (y) = 0.42407 0.15432
# Poissons Ratio (z) = 0.31080 0.12717
#
# Static dielectric constant tensor:
#      x y z
#    x 3.621510 0.000000 0.151860 
#    y 0.000000 3.136150 0.000000 
#    z 0.151860 0.000000 3.200100 
# 
# 
# High freq. dielectric constant tensor:
#      x y z
#    x 1.777170 0.000000 -0.002220 
#    y 0.000000 1.767840 0.000000 
#    z -0.002220 0.000000 1.790310 
# 
# From -- ./inp_files/61899.got.cif
#   From: 2010.06.25/outbox.cif.g09.slc.cpg/sg15_31_cif.got.tgz:61899.got - 2010.06.28 07:06:18.
