data_PCOD8147819
_publ_section_title
;
Structure prediction by ZEFSAII (Michael W. Deem and Ramdas Pophale) SiO2 
 PCOD8147819
Probable space group: C 2/C
;
_chemical_formula_sum "Si O2"
_cell_formula_units_Z 44
_cell_length_a 13.277627
_cell_length_b 7.987295
_cell_length_c 17.987232
_cell_angle_alpha 90.000000
_cell_angle_beta 77.599499
_cell_angle_gamma 90.000000
_cell_volume 1863.084493
_symmetry_space_group_name_H-M "C 2/C"
_symmetry_group_IT_number 15
_symmetry_cell_setting 'monoclinic'
loop_
_space_group_symop_operation_xyz
x,y,z
-x,y,1/2-z
-x,-y,-z
x,-y,1/2+z
1/2+x,1/2+y,z
1/2-x,1/2+y,1/2-z
1/2-x,1/2-y,-z
1/2+x,1/2-y,1/2+z
loop_
_atom_site_type_symbol
_atom_site_label
_atom_site_fract_x
_atom_site_fract_y
_atom_site_fract_z
Si Si1 0.132114 0.976984 0.301519
Si Si2 0.032088 0.100077 0.067045
Si Si3 0.500000 0.806813 0.750000
Si Si4 0.215543 0.969117 0.133540
Si Si5 0.312087 0.915044 0.863107
Si Si6 0.337565 0.116279 0.999412
O O1 0.176206 0.052153 0.216865
O O2 0.067328 0.808066 0.296050
O O3 0.232571 0.951790 0.338220
O O4 0.056713 0.106611 0.355930
O O5 0.054728 0.290065 0.035233
O O6 0.131030 0.004974 0.083990
O O7 0.000000 0.000000 0.000000
O O8 0.424311 0.927898 0.807281
O O9 0.231573 0.771479 0.141471
O O10 0.323867 0.048221 0.086587
O O11 0.324454 0.957911 0.947295
O O12 0.250000 0.250000 0.000000
#
# Coordination Sequence:
#
# PCOD8147819 Si02
#       6
#     8   8   4   8   8   8
#     4  11  21  44  73  99 136 189 221 288 365 399
#     4  11  22  41  68 100 139 185 229 288 352 412
#     4  10  24  48  68 110 142 180 234 300 332 434
#     4  10  22  45  68  97 142 178 236 292 343 423
#     4  11  23  45  76  99 140 184 233 291 358 412
#     4  10  23  42  66 103 139 182 234 290 339 433
#
# _framework density 23.616748999999999
#
# number of rings (size 3 to 8) (size 9 to 14) (size 15 to 20)
#    0.000    1.455    3.636    2.727    0.000    8.727 
#   13.091    1.818    0.000    0.000    0.000    0.000 
#    0.000    0.000    0.000    0.000    0.000    0.000 
#
# Total GULP energy -272636.906217 kJ/mol
# GULP energy per Si atom -12392.586646 kJ/mol
# Density = 2.356300 g / cm^3
# Si number density = 23.616749 Si / 1000 Ang^3
#
#
#
# Elastic Constant Matrix: (Units=GPa)
#
#
# Indices 1 2 3 4 5 6 
#
# 1 93.3149 25.6362 45.6878 0.0000 -11.8426 0.0000
# 2 25.6362 66.9994 56.2503 0.0000 -17.6301 0.0000
# 3 45.6878 56.2503 194.2750 0.0000 -33.0773 0.0000
# 4 0.0000 0.0000 0.0000 34.6290 0.0000 -5.4801
# 5 -11.8426 -17.6301 -33.0773 0.0000 48.0706 0.0000
# 6 0.0000 0.0000 0.0000 -5.4801 0.0000 12.1869
#
#
#
# Elastic Compliance Matrix: (Units=1/GPa)
#
#
# Indices 1 2 3 4 5 6 
#
# 1 0.012590 -0.002979 -0.001989 0.000000 0.000640 0.000000
# 2 -0.002979 0.021036 -0.004759 0.000000 0.003706 0.000000
# 3 -0.001989 -0.004759 0.007490 0.000000 0.002918 0.000000
# 4 0.000000 0.000000 0.000000 0.031090 0.000000 0.013980
# 5 0.000640 0.003706 0.002918 0.000000 0.024328 0.000000
# 6 0.000000 0.000000 0.000000 0.013980 0.000000 0.088342
#
#
# Mechanical properties :
#
#
# Convention : Reuss Voigt Hill
#
# Bulk Modulus (GPa) = 46.16430 67.74864 56.95647
# Shear Modulus (GPa) = 23.63497 34.11164 28.87331
#
# Velocity S-wave (km/s) = 3.16693 3.80463 3.50033
# Velocity P-wave (km/s) = 5.74128 6.93175 6.36441
#
# Compressibility (1/GPa) = 0.02166176
#
# Stress axis : x y z
#
# Youngs Moduli (GPa) = 79.42821 47.53694 133.51060
#
# Poissons Ratio (x) = 0.14160 0.26560
# Poissons Ratio (y) = 0.23659 0.63541
# Poissons Ratio (z) = 0.15801 0.22624
#
# Static dielectric constant tensor:
#      x y z
#    x 4.454620 0.000000 -0.506010 
#    y 0.000000 4.116820 0.000000 
#    z -0.506010 0.000000 4.984410 
# 
# 
# High freq. dielectric constant tensor:
#      x y z
#    x 1.924230 0.000000 -0.020270 
#    y 0.000000 1.905300 0.000000 
#    z -0.020270 0.000000 1.959060 
# 
# From -- ./inp_files/202568.got.cif
#   From: 2010.06.25/outbox.cif.g09.slc.cpg/sg15_102_cif.got.tgz:202568.got - 2010.06.28 07:06:18.
