data_PCOD8147481
_publ_section_title
;
Structure prediction by ZEFSAII (Michael W. Deem and Ramdas Pophale) SiO2 
 PCOD8147481
Probable space group: C 2/C
;
_chemical_formula_sum "Si O2"
_cell_formula_units_Z 56
_cell_length_a 13.868289
_cell_length_b 14.924939
_cell_length_c 15.376709
_cell_angle_alpha 90.000000
_cell_angle_beta 124.570069
_cell_angle_gamma 90.000000
_cell_volume 2620.758819
_symmetry_space_group_name_H-M "C 2/C"
_symmetry_group_IT_number 15
_symmetry_cell_setting 'monoclinic'
loop_
_space_group_symop_operation_xyz
x,y,z
-x,y,1/2-z
-x,-y,-z
x,-y,1/2+z
1/2+x,1/2+y,z
1/2-x,1/2+y,1/2-z
1/2-x,1/2-y,-z
1/2+x,1/2-y,1/2+z
loop_
_atom_site_type_symbol
_atom_site_label
_atom_site_fract_x
_atom_site_fract_y
_atom_site_fract_z
Si Si1 0.155182 0.025319 0.755529
Si Si2 0.383344 0.952599 0.915764
Si Si3 0.388845 0.664833 0.327350
Si Si4 0.209884 0.648486 0.964549
Si Si5 0.000000 0.838884 0.250000
Si Si6 0.000000 0.297105 0.250000
Si Si7 0.906458 0.126712 0.947961
Si Si8 0.632095 0.782080 0.685826
O O1 0.108032 0.088949 0.810652
O O2 0.099508 0.060100 0.636844
O O3 0.296411 0.028810 0.832483
O O4 0.124681 0.919652 0.745341
O O5 0.417656 0.880250 0.859831
O O6 0.322121 0.902129 0.964024
O O7 0.500000 0.000000 0.000000
O O8 0.459295 0.738965 0.311158
O O9 0.460025 0.635717 0.450097
O O10 0.262421 0.704814 0.293575
O O11 0.103855 0.641669 0.840796
O O12 0.320313 0.593718 0.980731
O O13 0.250000 0.750000 0.000000
O O14 0.967005 0.771446 0.310509
O O15 0.855392 0.224533 0.895720
#
# Coordination Sequence:
#
# PCOD8147481 Si02
#       8
#     8   8   8   8   4   4   8   8
#     4  10  24  42  62  92 130 167 216 272 322 385
#     4  11  25  45  65  94 134 170 214 275 339 382
#     4  11  21  38  65  94 129 163 212 278 326 373
#     4  12  22  39  66  96 122 170 218 264 326 393
#     4  10  23  42  67  88 130 176 216 252 325 390
#     4  12  21  34  69  96 126 160 216 270 325 382
#     4  11  22  39  66  94 126 168 224 263 324 395
#     4  10  22  44  62  93 129 171 215 266 319 398
#
# _framework density 21.367857000000001
#
# number of rings (size 3 to 8) (size 9 to 14) (size 15 to 20)
#    0.000    1.143    4.286    1.714    4.000    2.286 
#    5.143    3.571    0.000    0.000    0.000    0.000 
#    0.000    0.000    0.000    0.000    0.000    0.000 
#
# Total GULP energy -346882.202770 kJ/mol
# GULP energy per Si atom -12388.650099 kJ/mol
# Density = 2.131922 g / cm^3
# Si number density = 21.367857 Si / 1000 Ang^3
#
#
#
# Elastic Constant Matrix: (Units=GPa)
#
#
# Indices 1 2 3 4 5 6 
#
# 1 99.2231 47.9232 28.1393 0.0000 0.2133 0.0000
# 2 47.9232 90.5107 28.8635 0.0000 10.8963 0.0000
# 3 28.1393 28.8635 132.3199 0.0000 24.8359 0.0000
# 4 0.0000 0.0000 0.0000 32.6925 0.0000 0.2475
# 5 0.2133 10.8963 24.8359 0.0000 31.2898 0.0000
# 6 0.0000 0.0000 0.0000 0.2475 0.0000 42.3074
#
#
#
# Elastic Compliance Matrix: (Units=1/GPa)
#
#
# Indices 1 2 3 4 5 6 
#
# 1 0.014245 -0.007343 -0.002220 0.000000 0.004222 0.000000
# 2 -0.007343 0.015820 -0.001016 0.000000 -0.004653 0.000000
# 3 -0.002220 -0.001016 0.009614 0.000000 -0.007262 0.000000
# 4 0.000000 0.000000 0.000000 0.030589 0.000000 -0.000179
# 5 0.004222 -0.004653 -0.007262 0.000000 0.039315 0.000000
# 6 0.000000 0.000000 0.000000 -0.000179 0.000000 0.023638
#
#
# Mechanical properties :
#
#
# Convention : Reuss Voigt Hill
#
# Bulk Modulus (GPa) = 53.99057 59.10062 56.54560
# Shear Modulus (GPa) = 31.14207 35.73312 33.43760
#
# Velocity S-wave (km/s) = 3.82177 4.09379 3.96012
# Velocity P-wave (km/s) = 6.69302 7.07561 6.88697
#
# Compressibility (1/GPa) = 0.01852175
#
# Stress axis : x y z
#
# Youngs Moduli (GPa) = 70.19841 63.20938 104.01114
#
# Poissons Ratio (x) = 0.46414 0.23093
# Poissons Ratio (y) = 0.51546 0.10569
# Poissons Ratio (z) = 0.15585 0.06423
#
# Static dielectric constant tensor:
#      x y z
#    x 0.069910 0.000000 -0.976650 
#    y 0.000000 -9.273510 0.000000 
#    z -0.976650 0.000000 3.667710 
# 
# 
# High freq. dielectric constant tensor:
#      x y z
#    x 1.831890 0.000000 0.012150 
#    y 0.000000 1.836210 0.000000 
#    z 0.012150 0.000000 1.835060 
# 
# From -- ./inp_files/205527.got.cif
#   From: 2010.06.25/outbox.cif.g09.slc.cpg/sg15_103_cif.got.tgz:205527.got - 2010.06.28 07:06:18.
