data_PCOD8147074
_publ_section_title
;
Structure prediction by ZEFSAII (Michael W. Deem and Ramdas Pophale) SiO2 
 PCOD8147074
Probable space group: C 2/C
;
_chemical_formula_sum "Si O2"
_cell_formula_units_Z 60
_cell_length_a 10.293506
_cell_length_b 9.950527
_cell_length_c 30.441850
_cell_angle_alpha 90.000000
_cell_angle_beta 112.210052
_cell_angle_gamma 90.000000
_cell_volume 2886.686567
_symmetry_space_group_name_H-M "C 2/C"
_symmetry_group_IT_number 15
_symmetry_cell_setting 'monoclinic'
loop_
_space_group_symop_operation_xyz
x,y,z
-x,y,1/2-z
-x,-y,-z
x,-y,1/2+z
1/2+x,1/2+y,z
1/2-x,1/2+y,1/2-z
1/2-x,1/2-y,-z
1/2+x,1/2-y,1/2+z
loop_
_atom_site_type_symbol
_atom_site_label
_atom_site_fract_x
_atom_site_fract_y
_atom_site_fract_z
Si Si1 0.593940 0.502168 0.469268
Si Si2 0.455763 0.579509 0.862538
Si Si3 0.126212 0.329896 0.606601
Si Si4 0.297137 0.439684 0.172608
Si Si5 0.602131 0.967819 0.972333
Si Si6 0.500000 0.384179 0.750000
Si Si7 0.396632 0.298130 0.826922
Si Si8 0.138341 0.261053 0.426107
O O1 0.500000 0.500000 0.500000
O O2 0.507818 0.439352 0.418644
O O3 0.742581 0.421712 0.492310
O O4 0.622475 0.658943 0.464329
O O5 0.371868 0.720352 0.853509
O O6 0.585832 0.600113 0.847244
O O7 0.358790 0.454361 0.833948
O O8 0.182207 0.470451 0.632947
O O9 0.215159 0.272060 0.577892
O O10 0.970270 0.353965 0.567026
O O11 0.367056 0.522252 0.221145
O O12 0.233715 0.301722 0.183784
O O13 0.631241 0.092143 0.944298
O O14 0.500000 0.000000 0.000000
O O15 0.453768 0.289580 0.784451
O O16 0.520187 0.254862 0.874453
#
# Coordination Sequence:
#
# PCOD8147074 Si02
#       8
#     8   8   8   8   8   4   8   8
#     4  11  23  40  59  93 137 179 228 286 325 382
#     4  10  24  42  64  94 131 178 217 274 332 388
#     4  12  23  42  69  95 132 180 227 276 337 397
#     4  11  22  46  68  99 131 167 216 272 337 413
#     4  12  24  38  64  97 129 186 238 278 327 401
#     4  10  22  42  70 104 126 166 204 276 344 412
#     4  10  22  45  71  92 136 170 210 271 343 407
#     4  11  22  42  63  91 136 179 220 281 338 392
#
# _framework density 20.785077999999999
#
# number of rings (size 3 to 8) (size 9 to 14) (size 15 to 20)
#    0.000    1.067    6.667    1.200    1.867    5.867 
#    0.000    0.000    0.000    0.000    0.000    0.000 
#    0.000    0.000    0.000    0.000    0.000    0.000 
#
# Total GULP energy -371950.675282 kJ/mol
# GULP energy per Si atom -12398.355843 kJ/mol
# Density = 2.073777 g / cm^3
# Si number density = 20.785078 Si / 1000 Ang^3
#
#
#
# Elastic Constant Matrix: (Units=GPa)
#
#
# Indices 1 2 3 4 5 6 
#
# 1 105.6519 40.5249 29.0237 0.0000 -10.5410 0.0000
# 2 40.5249 111.0425 16.4149 0.0000 -23.1283 0.0000
# 3 29.0237 16.4149 78.2864 0.0000 -15.3778 0.0000
# 4 0.0000 0.0000 0.0000 14.4714 0.0000 -4.0554
# 5 -10.5410 -23.1283 -15.3778 0.0000 27.0926 0.0000
# 6 0.0000 0.0000 0.0000 -4.0554 0.0000 38.6492
#
#
#
# Elastic Compliance Matrix: (Units=1/GPa)
#
#
# Indices 1 2 3 4 5 6 
#
# 1 0.011940 -0.003987 -0.003767 0.000000 -0.000896 0.000000
# 2 -0.003987 0.012303 0.000739 0.000000 0.009371 0.000000
# 3 -0.003767 0.000739 0.015589 0.000000 0.008014 0.000000
# 4 0.000000 0.000000 0.000000 0.071195 0.000000 0.007470
# 5 -0.000896 0.009371 0.008014 0.000000 0.049111 0.000000
# 6 0.000000 0.000000 0.000000 0.007470 0.000000 0.026658
#
#
# Mechanical properties :
#
#
# Convention : Reuss Voigt Hill
#
# Bulk Modulus (GPa) = 38.75480 51.87864 45.31672
# Shear Modulus (GPa) = 23.87478 29.97712 26.92595
#
# Velocity S-wave (km/s) = 3.39285 3.80181 3.60314
# Velocity P-wave (km/s) = 5.83391 6.65473 6.25779
#
# Compressibility (1/GPa) = 0.02580326
#
# Stress axis : x y z
#
# Youngs Moduli (GPa) = 83.75394 81.27878 64.14696
#
# Poissons Ratio (x) = 0.32408 0.24161
# Poissons Ratio (y) = 0.33395 -0.04743
# Poissons Ratio (z) = 0.31546 -0.06009
#
# Static dielectric constant tensor:
#      x y z
#    x 3.622440 0.000000 -0.084030 
#    y 0.000000 4.511670 0.000000 
#    z -0.084030 0.000000 3.764960 
# 
# 
# High freq. dielectric constant tensor:
#      x y z
#    x 1.808890 0.000000 -0.003990 
#    y 0.000000 1.813580 0.000000 
#    z -0.003990 0.000000 1.820230 
# 
# From -- ./inp_files/307213.got.cif
#   From: 2010.06.25/outbox.cif.g09.slc.cpg/sg15_154_cif.got.tgz:307213.got - 2010.06.28 07:06:18.
