data_PCOD8147066
_publ_section_title
;
Structure prediction by ZEFSAII (Michael W. Deem and Ramdas Pophale) SiO2 
 PCOD8147066
Probable space group: C 2/C
;
_chemical_formula_sum "Si O2"
_cell_formula_units_Z 44
_cell_length_a 21.644499
_cell_length_b 10.800275
_cell_length_c 9.346825
_cell_angle_alpha 90.000000
_cell_angle_beta 117.476585
_cell_angle_gamma 90.000000
_cell_volume 1938.508602
_symmetry_space_group_name_H-M "C 2/C"
_symmetry_group_IT_number 15
_symmetry_cell_setting 'monoclinic'
loop_
_space_group_symop_operation_xyz
x,y,z
-x,y,1/2-z
-x,-y,-z
x,-y,1/2+z
1/2+x,1/2+y,z
1/2-x,1/2+y,1/2-z
1/2-x,1/2-y,-z
1/2+x,1/2-y,1/2+z
loop_
_atom_site_type_symbol
_atom_site_label
_atom_site_fract_x
_atom_site_fract_y
_atom_site_fract_z
Si Si1 0.000000 0.798439 0.250000
Si Si2 0.496792 0.854159 0.479924
Si Si3 0.348091 0.765457 0.904431
Si Si4 0.225867 0.826705 0.608872
Si Si5 0.866913 0.773259 0.739359
Si Si6 0.133008 0.057975 0.795195
O O1 0.029517 0.708079 0.402417
O O2 0.940199 0.885449 0.241879
O O3 0.572770 0.808387 0.518855
O O4 0.437693 0.808888 0.305477
O O5 0.500000 0.000000 0.500000
O O6 0.295308 0.865998 0.773642
O O7 0.336812 0.635748 0.807270
O O8 0.326726 0.752001 0.047607
O O9 0.250000 0.750000 0.500000
O O10 0.179988 0.743097 0.671090
O O11 0.182982 0.939451 0.490250
O O12 0.882285 0.919298 0.769559
#
# Coordination Sequence:
#
# PCOD8147066 Si02
#       6
#     4   8   8   8   8   8
#     4  10  22  42  70 100 138 184 226 292 362 406
#     4  11  26  45  68  98 141 190 235 284 352 439
#     4  10  24  42  68 104 142 180 236 290 353 421
#     4  10  22  47  65  99 144 183 225 285 362 420
#     4  12  23  43  74 106 134 181 244 293 352 420
#     4  10  22  42  72 104 141 179 227 302 360 408
#
# _framework density 22.697862000000001
#
# number of rings (size 3 to 8) (size 9 to 14) (size 15 to 20)
#    0.000    1.455    1.818    2.182    5.091    1.455 
#   13.091    0.000    0.000    0.000    0.000    0.000 
#    0.000    0.000    0.000    0.000    0.000    0.000 
#
# Total GULP energy -272593.403152 kJ/mol
# GULP energy per Si atom -12390.609234 kJ/mol
# Density = 2.264620 g / cm^3
# Si number density = 22.697862 Si / 1000 Ang^3
#
#
#
# Elastic Constant Matrix: (Units=GPa)
#
#
# Indices 1 2 3 4 5 6 
#
# 1 115.9166 24.4762 64.6858 0.0000 0.2582 0.0000
# 2 24.4762 108.1313 45.4501 0.0000 1.7405 0.0000
# 3 64.6858 45.4501 166.8520 0.0000 -1.1681 0.0000
# 4 0.0000 0.0000 0.0000 26.2470 0.0000 -2.2586
# 5 0.2582 1.7405 -1.1681 0.0000 41.2038 0.0000
# 6 0.0000 0.0000 0.0000 -2.2586 0.0000 13.5027
#
#
#
# Elastic Compliance Matrix: (Units=1/GPa)
#
#
# Indices 1 2 3 4 5 6 
#
# 1 0.011069 -0.000789 -0.004077 0.000000 -0.000152 0.000000
# 2 -0.000789 0.010511 -0.002561 0.000000 -0.000512 0.000000
# 3 -0.004077 -0.002561 0.008274 0.000000 0.000368 0.000000
# 4 0.000000 0.000000 0.000000 0.038656 0.000000 0.006466
# 5 -0.000152 -0.000512 0.000368 0.000000 0.024303 0.000000
# 6 0.000000 0.000000 0.000000 0.006466 0.000000 0.075141
#
#
# Mechanical properties :
#
#
# Convention : Reuss Voigt Hill
#
# Bulk Modulus (GPa) = 66.66828 73.34712 70.00770
# Shear Modulus (GPa) = 26.62274 33.27654 29.94964
#
# Velocity S-wave (km/s) = 3.42851 3.83308 3.63642
# Velocity P-wave (km/s) = 6.71630 7.20935 6.96719
#
# Compressibility (1/GPa) = 0.01499964
#
# Stress axis : x y z
#
# Youngs Moduli (GPa) = 90.34028 95.13574 120.85716
#
# Poissons Ratio (x) = 0.07509 0.49279
# Poissons Ratio (y) = 0.07131 0.30949
# Poissons Ratio (z) = 0.36836 0.24363
#
# Static dielectric constant tensor:
#      x y z
#    x 3.025660 0.000000 -0.182040 
#    y 0.000000 3.752180 0.000000 
#    z -0.182040 0.000000 4.726930 
# 
# 
# High freq. dielectric constant tensor:
#      x y z
#    x 1.906330 0.000000 -0.004650 
#    y 0.000000 1.856900 0.000000 
#    z -0.004650 0.000000 1.924540 
# 
# From -- ./inp_files/60943.got.cif
#   From: 2010.06.25/outbox.cif.g09.slc.cpg/sg15_31_cif.got.tgz:60943.got - 2010.06.28 07:06:18.
