data_PCOD8147115
_publ_section_title
;
Structure prediction by ZEFSAII (Michael W. Deem and Ramdas Pophale) SiO2 
 PCOD8147115
Probable space group: C 2/C
;
_chemical_formula_sum "Si O2"
_cell_formula_units_Z 48
_cell_length_a 11.389266
_cell_length_b 10.803280
_cell_length_c 22.607673
_cell_angle_alpha 90.000000
_cell_angle_beta 49.204008
_cell_angle_gamma 90.000000
_cell_volume 2105.845455
_symmetry_space_group_name_H-M "C 2/C"
_symmetry_group_IT_number 15
_symmetry_cell_setting 'monoclinic'
loop_
_space_group_symop_operation_xyz
x,y,z
-x,y,1/2-z
-x,-y,-z
x,-y,1/2+z
1/2+x,1/2+y,z
1/2-x,1/2+y,1/2-z
1/2-x,1/2-y,-z
1/2+x,1/2-y,1/2+z
loop_
_atom_site_type_symbol
_atom_site_label
_atom_site_fract_x
_atom_site_fract_y
_atom_site_fract_z
Si Si1 0.082537 0.100049 0.400581
Si Si2 0.059983 0.806662 0.663649
Si Si3 0.256491 0.042413 0.594968
Si Si4 0.892393 0.290980 0.839009
Si Si5 0.340982 0.349495 0.076323
Si Si6 0.504867 0.108318 0.422754
O O1 0.216481 0.163100 0.394572
O O2 0.077983 0.174677 0.339222
O O3 0.918872 0.111852 0.488701
O O4 0.129964 0.954272 0.382630
O O5 0.155843 0.676929 0.626597
O O6 0.000000 0.822036 0.750000
O O7 0.169047 0.918096 0.608016
O O8 0.123995 0.142321 0.654263
O O9 0.340622 0.086599 0.507731
O O10 0.383672 0.013054 0.605077
O O11 0.977318 0.359371 0.864391
O O12 0.000000 0.331697 0.750000
O O13 0.411064 0.222910 0.075349
#
# Coordination Sequence:
#
# PCOD8147115 Si02
#       6
#     8   8   8   8   8   8
#     4  11  25  42  66 100 130 178 224 267 341 396
#     4  11  25  44  68  99 134 175 219 277 342 396
#     4  10  22  42  71  92 128 176 224 275 322 406
#     4  12  26  41  65  99 139 171 218 286 336 396
#     4  10  23  44  70  93 133 175 224 278 316 413
#     4  10  22  43  67 100 126 174 231 270 332 395
#
# _framework density 22.793696000000001
#
# number of rings (size 3 to 8) (size 9 to 14) (size 15 to 20)
#    0.000    1.333    1.667    2.500    9.333    2.000 
#    0.000    0.000    0.000    0.000    0.000    0.000 
#    0.000    0.000    0.000    0.000    0.000    0.000 
#
# Total GULP energy -297467.293795 kJ/mol
# GULP energy per Si atom -12394.470575 kJ/mol
# Density = 2.274182 g / cm^3
# Si number density = 22.793696 Si / 1000 Ang^3
#
#
#
# Elastic Constant Matrix: (Units=GPa)
#
#
# Indices 1 2 3 4 5 6 
#
# 1 79.4065 39.1452 36.0031 0.0000 13.4535 0.0000
# 2 39.1452 85.5682 37.6621 0.0000 12.0471 0.0000
# 3 36.0031 37.6621 85.3668 0.0000 20.0257 0.0000
# 4 0.0000 0.0000 0.0000 20.9769 0.0000 -3.8737
# 5 13.4535 12.0471 20.0257 0.0000 31.2711 0.0000
# 6 0.0000 0.0000 0.0000 -3.8737 0.0000 32.0484
#
#
#
# Elastic Compliance Matrix: (Units=1/GPa)
#
#
# Indices 1 2 3 4 5 6 
#
# 1 0.017924 -0.005923 -0.004322 0.000000 -0.002662 0.000000
# 2 -0.005923 0.016542 -0.004593 0.000000 -0.000883 0.000000
# 3 -0.004322 -0.004593 0.017313 0.000000 -0.007458 0.000000
# 4 0.000000 0.000000 0.000000 0.048760 0.000000 0.005894
# 5 -0.002662 -0.000883 -0.007458 0.000000 0.038240 0.000000
# 6 0.000000 0.000000 0.000000 0.005894 0.000000 0.031915
#
#
# Mechanical properties :
#
#
# Convention : Reuss Voigt Hill
#
# Bulk Modulus (GPa) = 45.24156 52.88469 49.06312
# Shear Modulus (GPa) = 24.06904 26.02803 25.04853
#
# Velocity S-wave (km/s) = 3.25307 3.38286 3.31860
# Velocity P-wave (km/s) = 5.83106 6.20565 6.02127
#
# Compressibility (1/GPa) = 0.02210357
#
# Stress axis : x y z
#
# Youngs Moduli (GPa) = 55.79226 60.45247 57.76097
#
# Poissons Ratio (x) = 0.35804 0.24964
# Poissons Ratio (y) = 0.33044 0.26529
# Poissons Ratio (z) = 0.24113 0.27765
#
# Static dielectric constant tensor:
#      x y z
#    x 4.558390 0.000000 -0.247780 
#    y 0.000000 4.655750 0.000000 
#    z -0.247780 0.000000 3.834610 
# 
# 
# High freq. dielectric constant tensor:
#      x y z
#    x 1.903660 0.000000 -0.007930 
#    y 0.000000 1.908330 0.000000 
#    z -0.007930 0.000000 1.882240 
# 
# From -- ./inp_files/268689.got.cif
#   From: 2010.06.25/outbox.cif.g09.slc.cpg/sg15_135_cif.got.tgz:268689.got - 2010.06.28 07:06:18.
