data_PCOD8147566
_publ_section_title
;
Structure prediction by ZEFSAII (Michael W. Deem and Ramdas Pophale) SiO2 
 PCOD8147566
Probable space group: C 2/C
;
_chemical_formula_sum "Si O2"
_cell_formula_units_Z 44
_cell_length_a 11.545395
_cell_length_b 15.089726
_cell_length_c 12.785522
_cell_angle_alpha 90.000000
_cell_angle_beta 63.467065
_cell_angle_gamma 90.000000
_cell_volume 1992.852887
_symmetry_space_group_name_H-M "C 2/C"
_symmetry_group_IT_number 15
_symmetry_cell_setting 'monoclinic'
loop_
_space_group_symop_operation_xyz
x,y,z
-x,y,1/2-z
-x,-y,-z
x,-y,1/2+z
1/2+x,1/2+y,z
1/2-x,1/2+y,1/2-z
1/2-x,1/2-y,-z
1/2+x,1/2-y,1/2+z
loop_
_atom_site_type_symbol
_atom_site_label
_atom_site_fract_x
_atom_site_fract_y
_atom_site_fract_z
Si Si1 0.484765 0.406410 0.125974
Si Si2 0.353619 0.939943 0.826199
Si Si3 0.706578 0.863187 0.224737
Si Si4 0.903847 0.093124 0.143905
Si Si5 0.749270 0.655858 0.560722
Si Si6 0.500000 0.265577 0.750000
O O1 0.360108 0.346003 0.149697
O O2 0.435576 0.501124 0.190461
O O3 0.597550 0.365579 0.156173
O O4 0.567182 0.420211 0.988640
O O5 0.500000 0.906966 0.750000
O O6 0.252227 0.887949 0.789999
O O7 0.338495 0.043061 0.803790
O O8 0.316087 0.919311 0.961841
O O9 0.671277 0.846937 0.362179
O O10 0.629129 0.792396 0.186354
O O11 0.989128 0.172482 0.153252
O O12 0.750000 0.750000 0.500000
#
# Coordination Sequence:
#
# PCOD8147566 Si02
#       6
#     8   8   8   8   8   4
#     4   9  20  42  65  93 122 176 218 261 331 390
#     4  10  22  44  66  96 129 176 220 265 338 390
#     4  11  23  41  66  97 136 169 213 279 330 384
#     4   9  21  39  66  93 131 166 218 271 321 397
#     4  11  24  42  68  96 131 173 226 273 317 397
#     4  12  24  40  60 102 136 166 218 280 318 390
#
# _framework density 22.078900000000001
#
# number of rings (size 3 to 8) (size 9 to 14) (size 15 to 20)
#    0.000    1.818    0.909    3.818    5.091    4.364 
#    0.000    0.000    0.000    0.000    0.000    0.000 
#    0.000    0.000    0.000    0.000    0.000    0.000 
#
# Total GULP energy -272584.025556 kJ/mol
# GULP energy per Si atom -12390.182980 kJ/mol
# Density = 2.202865 g / cm^3
# Si number density = 22.078900 Si / 1000 Ang^3
#
#
#
# Elastic Constant Matrix: (Units=GPa)
#
#
# Indices 1 2 3 4 5 6 
#
# 1 177.9415 67.0489 50.8434 0.0000 -23.0041 0.0000
# 2 67.0489 110.4624 29.6029 0.0000 2.7005 0.0000
# 3 50.8434 29.6029 57.2799 0.0000 -14.4495 0.0000
# 4 0.0000 0.0000 0.0000 31.8454 0.0000 1.9881
# 5 -23.0041 2.7005 -14.4495 0.0000 39.0502 0.0000
# 6 0.0000 0.0000 0.0000 1.9881 0.0000 42.2298
#
#
#
# Elastic Compliance Matrix: (Units=1/GPa)
#
#
# Indices 1 2 3 4 5 6 
#
# 1 0.009159 -0.004338 -0.004909 0.000000 0.003879 0.000000
# 2 -0.004338 0.012896 -0.004063 0.000000 -0.004951 0.000000
# 3 -0.004909 -0.004063 0.025651 0.000000 0.006881 0.000000
# 4 0.000000 0.000000 0.000000 0.031494 0.000000 -0.001483
# 5 0.003879 -0.004951 0.006881 0.000000 0.030781 0.000000
# 6 0.000000 0.000000 0.000000 -0.001483 0.000000 0.023750
#
#
# Mechanical properties :
#
#
# Convention : Reuss Voigt Hill
#
# Bulk Modulus (GPa) = 47.42641 71.18601 59.30621
# Shear Modulus (GPa) = 29.87225 35.83767 32.85496
#
# Velocity S-wave (km/s) = 3.68227 4.03322 3.86174
# Velocity P-wave (km/s) = 6.29332 7.34852 6.84130
#
# Compressibility (1/GPa) = 0.02108530
#
# Stress axis : x y z
#
# Youngs Moduli (GPa) = 109.18672 77.54311 38.98524
#
# Poissons Ratio (x) = 0.33642 0.19137
# Poissons Ratio (y) = 0.47370 0.15839
# Poissons Ratio (z) = 0.53598 0.31504
#
# Static dielectric constant tensor:
#      x y z
#    x 4.585080 0.000000 -0.030900 
#    y 0.000000 3.970330 0.000000 
#    z -0.030900 0.000000 3.826710 
# 
# 
# High freq. dielectric constant tensor:
#      x y z
#    x 1.894560 0.000000 0.002770 
#    y 0.000000 1.858650 0.000000 
#    z 0.002770 0.000000 1.852090 
# 
# From -- ./inp_files/143331.got.cif
#   From: 2010.06.25/outbox.cif.g09.slc.cpg/sg15_72_cif.got.tgz:143331.got - 2010.06.28 07:06:18.
