data_PCOD8147924
_publ_section_title
;
Structure prediction by ZEFSAII (Michael W. Deem and Ramdas Pophale) SiO2 
 PCOD8147924
Probable space group: C 2/C
;
_chemical_formula_sum "Si O2"
_cell_formula_units_Z 52
_cell_length_a 9.078112
_cell_length_b 24.750943
_cell_length_c 12.774891
_cell_angle_alpha 90.000000
_cell_angle_beta 123.972730
_cell_angle_gamma 90.000000
_cell_volume 2380.444469
_symmetry_space_group_name_H-M "C 2/C"
_symmetry_group_IT_number 15
_symmetry_cell_setting 'monoclinic'
loop_
_space_group_symop_operation_xyz
x,y,z
-x,y,1/2-z
-x,-y,-z
x,-y,1/2+z
1/2+x,1/2+y,z
1/2-x,1/2+y,1/2-z
1/2-x,1/2-y,-z
1/2+x,1/2-y,1/2+z
loop_
_atom_site_type_symbol
_atom_site_label
_atom_site_fract_x
_atom_site_fract_y
_atom_site_fract_z
Si Si1 0.500000 0.210471 0.250000
Si Si2 0.691008 0.608314 0.854007
Si Si3 0.145919 0.147187 0.470236
Si Si4 0.227392 0.882222 0.613410
Si Si5 0.000000 0.775545 0.750000
Si Si6 0.199241 0.791974 0.209115
Si Si7 0.467958 0.927796 0.123128
Si Si8 0.000000 0.530748 0.250000
O O1 0.674017 0.174815 0.337985
O O2 0.542019 0.248449 0.166136
O O3 0.500000 0.581472 0.750000
O O4 0.701644 0.667741 0.808306
O O5 0.857321 0.574619 0.878215
O O6 0.699708 0.608215 0.980976
O O7 0.169662 0.177736 0.588781
O O8 0.299439 0.103119 0.506564
O O9 0.957401 0.117112 0.398333
O O10 0.141526 0.189274 0.372696
O O11 0.335458 0.930493 0.712264
O O12 0.111078 0.737972 0.715503
O O13 0.500000 0.900046 0.250000
O O14 0.438683 0.992344 0.128485
#
# Coordination Sequence:
#
# PCOD8147924 Si02
#       8
#     4   8   8   8   4   8   8   4
#     4  11  24  38  62  95 139 174 220 275 326 396
#     4  12  23  41  69 100 134 178 226 270 334 404
#     4  12  24  44  66  97 136 178 226 282 327 401
#     4  11  24  43  68  98 135 175 226 285 326 399
#     4  12  28  39  64 101 139 186 229 266 334 390
#     4  12  22  41  61  96 136 187 218 264 330 403
#     4  10  22  46  69  95 132 173 219 285 342 397
#     4   9  24  47  72  94 134 174 223 287 350 392
#
# _framework density 21.844660000000001
#
# number of rings (size 3 to 8) (size 9 to 14) (size 15 to 20)
#    0.462    0.308    5.385    1.385    4.308    2.462 
#    0.000    0.000    0.000    0.000    0.000    0.000 
#    0.000    0.000    0.000    0.000    0.000    0.000 
#
# Total GULP energy -322304.840218 kJ/mol
# GULP energy per Si atom -12396.340008 kJ/mol
# Density = 2.179494 g / cm^3
# Si number density = 21.844660 Si / 1000 Ang^3
#
#
#
# Elastic Constant Matrix: (Units=GPa)
#
#
# Indices 1 2 3 4 5 6 
#
# 1 135.6207 36.0879 5.3003 0.0000 27.4519 0.0000
# 2 36.0879 107.8767 13.7325 0.0000 21.8748 0.0000
# 3 5.3003 13.7325 49.2114 0.0000 15.7792 0.0000
# 4 0.0000 0.0000 0.0000 25.1238 0.0000 8.7500
# 5 27.4519 21.8748 15.7792 0.0000 32.4011 0.0000
# 6 0.0000 0.0000 0.0000 8.7500 0.0000 19.4184
#
#
#
# Elastic Compliance Matrix: (Units=1/GPa)
#
#
# Indices 1 2 3 4 5 6 
#
# 1 0.009324 -0.001822 0.001947 0.000000 -0.007618 0.000000
# 2 -0.001822 0.011123 -0.001179 0.000000 -0.005391 0.000000
# 3 0.001947 -0.001179 0.024546 0.000000 -0.012807 0.000000
# 4 0.000000 0.000000 0.000000 0.047212 0.000000 -0.021274
# 5 -0.007618 -0.005391 -0.012807 0.000000 0.047194 0.000000
# 6 0.000000 0.000000 0.000000 -0.021274 0.000000 0.061084
#
#
# Mechanical properties :
#
#
# Convention : Reuss Voigt Hill
#
# Bulk Modulus (GPa) = 23.31847 44.77225 34.04536
# Shear Modulus (GPa) = 23.05344 31.22786 27.14065
#
# Velocity S-wave (km/s) = 3.25212 3.78503 3.52865
# Velocity P-wave (km/s) = 4.97991 6.29620 5.67634
#
# Compressibility (1/GPa) = 0.04288446
#
# Stress axis : x y z
#
# Youngs Moduli (GPa) = 107.24652 89.90595 40.73923
#
# Poissons Ratio (x) = 0.16384 -0.07931
# Poissons Ratio (y) = 0.19544 0.04803
# Poissons Ratio (z) = -0.20879 0.10599
#
# Static dielectric constant tensor:
#      x y z
#    x 4.256710 0.000000 0.122630 
#    y 0.000000 3.949190 0.000000 
#    z 0.122630 0.000000 3.760930 
# 
# 
# High freq. dielectric constant tensor:
#      x y z
#    x 1.874210 0.000000 0.005330 
#    y 0.000000 1.852820 0.000000 
#    z 0.005330 0.000000 1.843370 
# 
# From -- ./inp_files/81532.got.cif
#   From: 2010.06.25/outbox.cif.g09.slc.cpg/sg15_41_cif.got.tgz:81532.got - 2010.06.28 07:06:18.
