data_PCOD8147532
_publ_section_title
;
Structure prediction by ZEFSAII (Michael W. Deem and Ramdas Pophale) SiO2 
 PCOD8147532
Probable space group: C 2/C
;
_chemical_formula_sum "Si O2"
_cell_formula_units_Z 48
_cell_length_a 25.710586
_cell_length_b 9.959947
_cell_length_c 12.934396
_cell_angle_alpha 90.000000
_cell_angle_beta 40.849184
_cell_angle_gamma 90.000000
_cell_volume 2166.404298
_symmetry_space_group_name_H-M "C 2/C"
_symmetry_group_IT_number 15
_symmetry_cell_setting 'monoclinic'
loop_
_space_group_symop_operation_xyz
x,y,z
-x,y,1/2-z
-x,-y,-z
x,-y,1/2+z
1/2+x,1/2+y,z
1/2-x,1/2+y,1/2-z
1/2-x,1/2-y,-z
1/2+x,1/2-y,1/2+z
loop_
_atom_site_type_symbol
_atom_site_label
_atom_site_fract_x
_atom_site_fract_y
_atom_site_fract_z
Si Si1 0.922021 0.591736 0.295079
Si Si2 0.739378 0.769580 0.853323
Si Si3 0.494680 0.400528 0.639586
Si Si4 0.625180 0.812373 0.204112
Si Si5 0.595709 0.357332 0.300117
Si Si6 0.248874 0.576482 0.849598
O O1 0.919893 0.454433 0.233211
O O2 0.922926 0.707390 0.207917
O O3 0.842156 0.603716 0.483304
O O4 0.000000 0.598113 0.250000
O O5 0.805288 0.685093 0.816539
O O6 0.724091 0.686060 0.774074
O O7 0.762994 0.923325 0.790687
O O8 0.658933 0.774367 0.040553
O O9 0.500000 0.354201 0.750000
O O10 0.436058 0.299945 0.667698
O O11 0.575428 0.386650 0.452076
O O12 0.458514 0.549560 0.691427
O O13 0.689550 0.395648 0.147757
#
# Coordination Sequence:
#
# PCOD8147532 Si02
#       6
#     8   8   8   8   8   8
#     4  11  26  43  66 100 135 173 222 278 334 395
#     4  10  23  41  68  98 129 178 220 271 329 399
#     4  11  23  42  69  95 133 175 220 275 330 401
#     4  10  22  44  65  94 137 171 220 270 333 396
#     4  11  25  43  66 101 131 176 223 276 336 389
#     4  11  24  43  67  99 132 176 225 269 338 396
#
# _framework density 22.156528000000002
#
# number of rings (size 3 to 8) (size 9 to 14) (size 15 to 20)
#    0.000    1.333    1.667    2.500    4.667    4.667 
#    0.000    0.000    0.000    0.000    0.000    0.000 
#    0.000    0.000    0.000    0.000    0.000    0.000 
#
# Total GULP energy -297569.984768 kJ/mol
# GULP energy per Si atom -12398.749365 kJ/mol
# Density = 2.210610 g / cm^3
# Si number density = 22.156528 Si / 1000 Ang^3
#
#
#
# Elastic Constant Matrix: (Units=GPa)
#
#
# Indices 1 2 3 4 5 6 
#
# 1 85.8011 39.2455 44.9082 0.0000 -12.5678 0.0000
# 2 39.2455 150.1372 37.8456 0.0000 -1.3598 0.0000
# 3 44.9082 37.8456 68.4977 0.0000 -20.9747 0.0000
# 4 0.0000 0.0000 0.0000 29.6878 0.0000 -1.3078
# 5 -12.5678 -1.3598 -20.9747 0.0000 34.1721 0.0000
# 6 0.0000 0.0000 0.0000 -1.3078 0.0000 40.4410
#
#
#
# Elastic Compliance Matrix: (Units=1/GPa)
#
#
# Indices 1 2 3 4 5 6 
#
# 1 0.018266 -0.002038 -0.010858 0.000000 -0.000028 0.000000
# 2 -0.002038 0.008198 -0.004092 0.000000 -0.002935 0.000000
# 3 -0.010858 -0.004092 0.027961 0.000000 0.013006 0.000000
# 4 0.000000 0.000000 0.000000 0.033732 0.000000 0.001091
# 5 -0.000028 -0.002935 0.013006 0.000000 0.037120 0.000000
# 6 0.000000 0.000000 0.000000 0.001091 0.000000 0.024763
#
#
# Mechanical properties :
#
#
# Convention : Reuss Voigt Hill
#
# Bulk Modulus (GPa) = 48.90160 60.93720 54.91940
# Shear Modulus (GPa) = 26.20091 33.02265 29.61178
#
# Velocity S-wave (km/s) = 3.44253 3.86479 3.65976
# Velocity P-wave (km/s) = 6.15794 6.89044 6.53447
#
# Compressibility (1/GPa) = 0.02044923
#
# Stress axis : x y z
#
# Youngs Moduli (GPa) = 54.74641 121.97734 35.76350
#
# Poissons Ratio (x) = 0.24858 0.38832
# Poissons Ratio (y) = 0.11157 0.14635
# Poissons Ratio (z) = 0.59444 0.49916
#
# Static dielectric constant tensor:
#      x y z
#    x 3.771350 0.000000 -0.210190 
#    y 0.000000 4.051700 0.000000 
#    z -0.210190 0.000000 3.916950 
# 
# 
# High freq. dielectric constant tensor:
#      x y z
#    x 1.868760 0.000000 -0.020790 
#    y 0.000000 1.886690 0.000000 
#    z -0.020790 0.000000 1.867290 
# 
# From -- ./inp_files/176851.got.cif
#   From: 2010.06.25/outbox.cif.g09.slc.cpg/sg15_89_cif.got.tgz:176851.got - 2010.06.28 07:06:18.
