data_PCOD8147539
_publ_section_title
;
Structure prediction by ZEFSAII (Michael W. Deem and Ramdas Pophale) SiO2 
 PCOD8147539
Probable space group: C 2/C
;
_chemical_formula_sum "Si O2"
_cell_formula_units_Z 40
_cell_length_a 11.566360
_cell_length_b 8.539288
_cell_length_c 18.779272
_cell_angle_alpha 90.000000
_cell_angle_beta 95.431909
_cell_angle_gamma 90.000000
_cell_volume 1846.470969
_symmetry_space_group_name_H-M "C 2/C"
_symmetry_group_IT_number 15
_symmetry_cell_setting 'monoclinic'
loop_
_space_group_symop_operation_xyz
x,y,z
-x,y,1/2-z
-x,-y,-z
x,-y,1/2+z
1/2+x,1/2+y,z
1/2-x,1/2+y,1/2-z
1/2-x,1/2-y,-z
1/2+x,1/2-y,1/2+z
loop_
_atom_site_type_symbol
_atom_site_label
_atom_site_fract_x
_atom_site_fract_y
_atom_site_fract_z
Si Si1 0.905222 0.194046 0.445389
Si Si2 0.289302 0.466203 0.332174
Si Si3 0.685814 0.602464 0.911882
Si Si4 0.625508 0.785437 0.770741
Si Si5 0.834020 0.243182 0.071711
O O1 0.816482 0.338911 0.433985
O O2 0.892576 0.113914 0.521704
O O3 0.033205 0.263945 0.444561
O O4 0.882262 0.064205 0.383330
O O5 0.356728 0.339530 0.290432
O O6 0.221313 0.578663 0.273306
O O7 0.194523 0.386244 0.377799
O O8 0.626583 0.704738 0.847732
O O9 0.688036 0.421040 0.889104
O O10 0.500000 0.862320 0.750000
O O11 0.750000 0.250000 0.000000
#
# Coordination Sequence:
#
# PCOD8147539 Si02
#       5
#     8   8   8   8   8
#     4  10  23  44  66  96 135 163 221 273 315 385
#     4  11  25  44  63  99 126 174 221 261 330 384
#     4  10  22  44  65  98 131 172 213 271 325 378
#     4  11  25  43  68  91 134 174 215 267 325 389
#     4  12  24  38  68  98 128 169 213 269 326 382
#
# _framework density 21.662946000000002
#
# number of rings (size 3 to 8) (size 9 to 14) (size 15 to 20)
#    0.000    1.200    2.000    3.000    2.800    5.600 
#    0.000    1.000    0.000    0.000    0.000    0.000 
#    0.000    0.000    0.000    0.000    0.000    0.000 
#
# Total GULP energy -248129.290645 kJ/mol
# GULP energy per Si atom -12406.464532 kJ/mol
# Density = 2.161364 g / cm^3
# Si number density = 21.662946 Si / 1000 Ang^3
#
#
#
# Elastic Constant Matrix: (Units=GPa)
#
#
# Indices 1 2 3 4 5 6 
#
# 1 133.9714 16.9924 45.5137 0.0000 10.6393 0.0000
# 2 16.9924 58.7385 0.3495 0.0000 -1.2235 0.0000
# 3 45.5137 0.3495 81.2174 0.0000 -0.0430 0.0000
# 4 0.0000 0.0000 0.0000 29.7816 0.0000 -7.0712
# 5 10.6393 -1.2235 -0.0430 0.0000 26.6730 0.0000
# 6 0.0000 0.0000 0.0000 -7.0712 0.0000 25.8450
#
#
#
# Elastic Compliance Matrix: (Units=1/GPa)
#
#
# Indices 1 2 3 4 5 6 
#
# 1 0.010090 -0.002972 -0.005644 0.000000 -0.004170 0.000000
# 2 -0.002972 0.017917 0.001590 0.000000 0.002010 0.000000
# 3 -0.005644 0.001590 0.015470 0.000000 0.002349 0.000000
# 4 0.000000 0.000000 0.000000 0.035911 0.000000 0.009825
# 5 -0.004170 0.002010 0.002349 0.000000 0.039250 0.000000
# 6 0.000000 0.000000 0.000000 0.009825 0.000000 0.041380
#
#
# Mechanical properties :
#
#
# Convention : Reuss Voigt Hill
#
# Bulk Modulus (GPa) = 33.98614 44.40428 39.19521
# Shear Modulus (GPa) = 27.19193 30.53135 28.86164
#
# Velocity S-wave (km/s) = 3.54676 3.75825 3.65403
# Velocity P-wave (km/s) = 5.70047 6.27494 5.99459
#
# Compressibility (1/GPa) = 0.02942376
#
# Stress axis : x y z
#
# Youngs Moduli (GPa) = 99.11092 55.81352 64.64252
#
# Poissons Ratio (x) = 0.16588 0.36482
# Poissons Ratio (y) = 0.29457 -0.10275
# Poissons Ratio (z) = 0.55935 -0.08872
#
# Static dielectric constant tensor:
#      x y z
#    x 3.797400 0.000000 0.064880 
#    y 0.000000 4.241160 0.000000 
#    z 0.064880 0.000000 4.005890 
# 
# 
# High freq. dielectric constant tensor:
#      x y z
#    x 1.853250 0.000000 0.006400 
#    y 0.000000 1.856020 0.000000 
#    z 0.006400 0.000000 1.857390 
# 
# From -- ./inp_files/195064.got.cif
#   From: 2010.06.25/outbox.cif.g09.slc.cpg/sg15_98_cif.got.tgz:195064.got - 2010.06.28 07:06:18.
