data_PCOD8147254
_publ_section_title
;
Structure prediction by ZEFSAII (Michael W. Deem and Ramdas Pophale) SiO2 
 PCOD8147254
Probable space group: C 2/C
;
_chemical_formula_sum "Si O2"
_cell_formula_units_Z 60
_cell_length_a 27.643563
_cell_length_b 8.318980
_cell_length_c 22.819164
_cell_angle_alpha 90.000000
_cell_angle_beta 32.754448
_cell_angle_gamma 90.000000
_cell_volume 2839.180553
_symmetry_space_group_name_H-M "C 2/C"
_symmetry_group_IT_number 15
_symmetry_cell_setting 'monoclinic'
loop_
_space_group_symop_operation_xyz
x,y,z
-x,y,1/2-z
-x,-y,-z
x,-y,1/2+z
1/2+x,1/2+y,z
1/2-x,1/2+y,1/2-z
1/2-x,1/2-y,-z
1/2+x,1/2-y,1/2+z
loop_
_atom_site_type_symbol
_atom_site_label
_atom_site_fract_x
_atom_site_fract_y
_atom_site_fract_z
Si Si1 0.000000 0.424588 0.750000
Si Si2 0.792944 0.924142 0.883593
Si Si3 0.922903 0.690033 0.443527
Si Si4 0.673697 0.920782 0.110752
Si Si5 0.401971 0.650413 0.697116
Si Si6 0.322730 0.058523 0.108867
Si Si7 0.754411 0.108510 0.133147
Si Si8 0.313763 0.395434 0.177356
O O1 0.047831 0.316520 0.653349
O O2 0.070937 0.527291 0.714745
O O3 0.834044 0.770855 0.874840
O O4 0.743941 0.878911 0.873432
O O5 0.871244 0.051469 0.786740
O O6 0.719875 0.989442 0.004431
O O7 0.912679 0.517057 0.487671
O O8 0.823276 0.759322 0.540151
O O9 0.994840 0.800348 0.403610
O O10 0.730777 0.983533 0.106866
O O11 0.337764 0.806265 0.754121
O O12 0.389958 0.552831 0.647775
O O13 0.338692 0.214988 0.132063
O O14 0.280320 0.912428 0.191049
O O15 0.808072 0.017566 0.129685
#
# Coordination Sequence:
#
# PCOD8147254 Si02
#       8
#     4   8   8   8   8   8   8   8
#     4  12  24  42  68 102 142 172 228 284 332 422
#     4  10  22  43  65  94 131 174 222 279 335 400
#     4  12  26  42  66 101 138 181 225 275 345 405
#     4  11  23  42  70  94 133 179 224 278 347 398
#     4  11  24  44  66  99 136 176 225 283 337 405
#     4  11  20  42  68  96 129 173 226 271 332 401
#     4  12  23  42  69  98 131 182 227 274 345 401
#     4  11  22  42  72  94 131 179 227 283 331 396
#
# _framework density 21.132859
#
# number of rings (size 3 to 8) (size 9 to 14) (size 15 to 20)
#    0.000    0.800    8.000    0.000    1.867    2.133 
#    7.200    0.000    0.000    0.000    0.000    0.000 
#    0.000    0.000    0.000    0.000    0.000    0.000 
#
# Total GULP energy -371772.957659 kJ/mol
# GULP energy per Si atom -12392.431922 kJ/mol
# Density = 2.108476 g / cm^3
# Si number density = 21.132859 Si / 1000 Ang^3
#
#
#
# Elastic Constant Matrix: (Units=GPa)
#
#
# Indices 1 2 3 4 5 6 
#
# 1 91.1872 23.0553 36.0513 0.0156 9.7434 -0.0072
# 2 23.0553 70.7169 22.2798 0.1010 8.2030 -0.0525
# 3 36.0513 22.2798 78.3213 0.1009 9.0284 -0.0616
# 4 0.0156 0.1010 0.1009 27.9660 -0.0657 5.7159
# 5 9.7434 8.2030 9.0284 -0.0657 42.1943 0.0388
# 6 -0.0072 -0.0525 -0.0616 5.7159 0.0388 33.9427
#
#
#
# Elastic Compliance Matrix: (Units=1/GPa)
#
#
# Indices 1 2 3 4 5 6 
#
# 1 0.013975 -0.002644 -0.005504 0.000021 -0.001535 -0.000013
# 2 -0.002644 0.016222 -0.003183 -0.000056 -0.001862 0.000030
# 3 -0.005504 -0.003183 0.016393 -0.000056 -0.001618 0.000035
# 4 0.000021 -0.000056 -0.000056 0.037033 0.000081 -0.006237
# 5 -0.001535 -0.001862 -0.001618 0.000081 0.024763 -0.000048
# 6 -0.000013 0.000030 0.000035 -0.006237 -0.000048 0.030512
#
#
# Mechanical properties :
#
#
# Convention : Reuss Voigt Hill
#
# Bulk Modulus (GPa) = 41.79007 44.77759 43.28383
# Shear Modulus (GPa) = 29.49249 31.40985 30.45117
#
# Velocity S-wave (km/s) = 3.73979 3.85944 3.80009
# Velocity P-wave (km/s) = 6.20209 6.41054 6.30718
#
# Compressibility (1/GPa) = 0.02392913
#
# Stress axis : x y z
#
# Youngs Moduli (GPa) = 71.55699 61.64545 61.00085
#
# Poissons Ratio (x) = 0.16300 0.33572
# Poissons Ratio (y) = 0.18921 0.19415
# Poissons Ratio (z) = 0.39382 0.19620
#
# Static dielectric constant tensor:
#      x y z
#    x 3.957050 -0.000100 0.193740 
#    y -0.000100 3.710960 0.000040 
#    z 0.193740 0.000040 3.919170 
# 
# 
# High freq. dielectric constant tensor:
#      x y z
#    x 1.836110 0.000000 0.021730 
#    y 0.000000 1.817520 0.000010 
#    z 0.021730 0.000010 1.822130 
# 
# From -- ./inp_files/284306.got.cif
#   From: 2010.06.25/outbox.cif.g09.slc.cpg/sg15_143_cif.got.tgz:284306.got - 2010.06.28 07:06:18.
