data_PCOD8147175
_publ_section_title
;
Structure prediction by ZEFSAII (Michael W. Deem and Ramdas Pophale) SiO2 
 PCOD8147175
Probable space group: C 2/C
;
_chemical_formula_sum "Si O2"
_cell_formula_units_Z 60
_cell_length_a 6.553274
_cell_length_b 22.531005
_cell_length_c 21.168517
_cell_angle_alpha 90.000000
_cell_angle_beta 102.250711
_cell_angle_gamma 90.000000
_cell_volume 3054.396665
_symmetry_space_group_name_H-M "C 2/C"
_symmetry_group_IT_number 15
_symmetry_cell_setting 'monoclinic'
loop_
_space_group_symop_operation_xyz
x,y,z
-x,y,1/2-z
-x,-y,-z
x,-y,1/2+z
1/2+x,1/2+y,z
1/2-x,1/2+y,1/2-z
1/2-x,1/2-y,-z
1/2+x,1/2-y,1/2+z
loop_
_atom_site_type_symbol
_atom_site_label
_atom_site_fract_x
_atom_site_fract_y
_atom_site_fract_z
Si Si1 0.642817 0.918892 0.535011
Si Si2 0.000000 0.703191 0.250000
Si Si3 0.190271 0.452239 0.079912
Si Si4 0.087823 0.901898 0.066598
Si Si5 0.515122 0.892341 0.321080
Si Si6 0.191459 0.686877 0.136103
Si Si7 0.362384 0.278402 0.065639
Si Si8 0.602118 0.237503 0.667842
O O1 0.433390 0.911539 0.479588
O O2 0.833346 0.917785 0.498057
O O3 0.677438 0.866888 0.586854
O O4 0.617733 0.979591 0.572755
O O5 0.082644 0.665182 0.195118
O O6 0.196060 0.744342 0.279143
O O7 0.433058 0.453698 0.078394
O O8 0.159602 0.424580 0.147547
O O9 0.263542 0.901758 0.131350
O O10 0.952168 0.842381 0.055404
O O11 0.500000 0.921229 0.250000
O O12 0.487016 0.822323 0.308780
O O13 0.430444 0.709453 0.159062
O O14 0.060784 0.741393 0.101008
O O15 0.173639 0.279645 0.102660
O O16 0.250000 0.250000 0.000000
#
# Coordination Sequence:
#
# PCOD8147175 Si02
#       8
#     8   4   8   8   8   8   8   8
#     4  10  23  40  66  86 122 163 195 252 298 361
#     4  10  24  40  60  88 120 168 202 240 300 366
#     4  10  22  43  60  91 121 156 209 242 303 358
#     4  11  21  38  61  93 119 155 201 247 306 354
#     4  11  23  37  62  90 120 160 199 255 298 356
#     4  11  22  39  60  90 124 160 198 244 302 357
#     4  11  22  33  58  95 124 154 192 248 302 358
#     4  11  22  38  59  89 125 156 199 246 306 360
#
# _framework density 19.643813999999999
#
# number of rings (size 3 to 8) (size 9 to 14) (size 15 to 20)
#    0.000    1.333    2.667    3.200    3.733    2.667 
#    1.200    0.000    2.933    0.000    0.000    0.000 
#    0.000    0.000    0.000    0.000    0.000    0.000 
#
# Total GULP energy -371883.988677 kJ/mol
# GULP energy per Si atom -12396.132956 kJ/mol
# Density = 1.959910 g / cm^3
# Si number density = 19.643814 Si / 1000 Ang^3
#
#
#
# Elastic Constant Matrix: (Units=GPa)
#
#
# Indices 1 2 3 4 5 6 
#
# 1 111.5063 21.1543 40.7950 0.0000 -7.5205 0.0000
# 2 21.1543 66.4705 36.9306 0.0000 -6.7262 0.0000
# 3 40.7950 36.9306 134.0559 0.0000 -15.8225 0.0000
# 4 0.0000 0.0000 0.0000 11.9609 0.0000 1.7658
# 5 -7.5205 -6.7262 -15.8225 0.0000 28.2085 0.0000
# 6 0.0000 0.0000 0.0000 1.7658 0.0000 11.3564
#
#
#
# Elastic Compliance Matrix: (Units=1/GPa)
#
#
# Indices 1 2 3 4 5 6 
#
# 1 0.010294 -0.001775 -0.002537 0.000000 0.000898 0.000000
# 2 -0.001775 0.018137 -0.004285 0.000000 0.001448 0.000000
# 3 -0.002537 -0.004285 0.009865 0.000000 0.003835 0.000000
# 4 0.000000 0.000000 0.000000 0.085570 0.000000 -0.013305
# 5 0.000898 0.001448 0.003835 0.000000 0.038186 0.000000
# 6 0.000000 0.000000 0.000000 -0.013305 0.000000 0.090125
#
#
# Mechanical properties :
#
#
# Convention : Reuss Voigt Hill
#
# Bulk Modulus (GPa) = 47.39525 56.64359 52.01942
# Shear Modulus (GPa) = 18.08937 24.51535 21.30236
#
# Velocity S-wave (km/s) = 3.03787 3.53653 3.29664
# Velocity P-wave (km/s) = 6.04025 6.75085 6.40541
#
# Compressibility (1/GPa) = 0.02109916
#
# Stress axis : x y z
#
# Youngs Moduli (GPa) = 97.14569 55.13702 101.36895
#
# Poissons Ratio (x) = 0.09789 0.25722
# Poissons Ratio (y) = 0.17247 0.43439
# Poissons Ratio (z) = 0.24651 0.23628
#
# Static dielectric constant tensor:
#      x y z
#    x 3.323890 0.000000 0.123100 
#    y 0.000000 3.378030 0.000000 
#    z 0.123100 0.000000 3.522830 
# 
# 
# High freq. dielectric constant tensor:
#      x y z
#    x 1.781790 0.000000 -0.005180 
#    y 0.000000 1.743250 0.000000 
#    z -0.005180 0.000000 1.776300 
# 
# From -- ./inp_files/228129.got.cif
#   From: 2010.06.25/outbox.cif.g09.slc.cpg/sg15_115_cif.got.tgz:228129.got - 2010.06.28 07:06:18.
