data_PCOD8147745
_publ_section_title
;
Structure prediction by ZEFSAII (Michael W. Deem and Ramdas Pophale) SiO2 
 PCOD8147745
Probable space group: C 2/C
;
_chemical_formula_sum "Si O2"
_cell_formula_units_Z 28
_cell_length_a 16.639198
_cell_length_b 8.599196
_cell_length_c 13.241240
_cell_angle_alpha 90.000000
_cell_angle_beta 142.314692
_cell_angle_gamma 90.000000
_cell_volume 1158.218332
_symmetry_space_group_name_H-M "C 2/C"
_symmetry_group_IT_number 15
_symmetry_cell_setting 'monoclinic'
loop_
_space_group_symop_operation_xyz
x,y,z
-x,y,1/2-z
-x,-y,-z
x,-y,1/2+z
1/2+x,1/2+y,z
1/2-x,1/2+y,1/2-z
1/2-x,1/2-y,-z
1/2+x,1/2-y,1/2+z
loop_
_atom_site_type_symbol
_atom_site_label
_atom_site_fract_x
_atom_site_fract_y
_atom_site_fract_z
Si Si1 0.850897 0.109203 0.107114
Si Si2 0.186411 0.527627 0.600012
Si Si3 0.500000 0.914275 0.750000
Si Si4 0.770205 0.635951 0.155512
O O1 0.000000 0.168632 0.250000
O O2 0.824792 0.028212 0.189788
O O3 0.750000 0.250000 0.000000
O O4 0.827362 0.988082 0.992238
O O5 0.159105 0.446041 0.679012
O O6 0.188992 0.715177 0.612594
O O7 0.069119 0.480221 0.405192
O O8 0.615794 0.812806 0.811760
#
# Coordination Sequence:
#
# PCOD8147745 Si02
#       4
#     8   8   4   8
#     4  11  26  46  73 107 149 192 243 303 364 428
#     4  11  25  45  73 107 144 193 242 300 360 434
#     4  10  22  44  72  98 144 190 240 290 360 420
#     4  11  25  45  73 107 144 193 242 300 360 434
#
# _framework density 24.175062
#
# number of rings (size 3 to 8) (size 9 to 14) (size 15 to 20)
#    0.000    1.143    0.000    6.000   16.000    1.143 
#   10.286    0.000    0.000    0.000    0.000    0.000 
#    0.000    0.000    0.000    0.000    0.000    0.000 
#
# Total GULP energy -173552.512787 kJ/mol
# GULP energy per Si atom -12396.608056 kJ/mol
# Density = 2.412004 g / cm^3
# Si number density = 24.175062 Si / 1000 Ang^3
#
#
#
# Elastic Constant Matrix: (Units=GPa)
#
#
# Indices 1 2 3 4 5 6 
#
# 1 91.2964 29.8266 58.3031 0.0000 0.9041 0.0000
# 2 29.8266 135.4958 44.4960 0.0000 0.0165 0.0000
# 3 58.3031 44.4960 135.3967 0.0000 5.5048 0.0000
# 4 0.0000 0.0000 0.0000 21.0276 0.0000 -6.7532
# 5 0.9041 0.0165 5.5048 0.0000 58.2101 0.0000
# 6 0.0000 0.0000 0.0000 -6.7532 0.0000 21.4121
#
#
#
# Elastic Compliance Matrix: (Units=1/GPa)
#
#
# Indices 1 2 3 4 5 6 
#
# 1 0.015333 -0.001348 -0.006174 0.000000 0.000346 0.000000
# 2 -0.001348 0.008395 -0.002188 0.000000 0.000225 0.000000
# 3 -0.006174 -0.002188 0.010801 0.000000 -0.000925 0.000000
# 4 0.000000 0.000000 0.000000 0.052916 0.000000 0.016689
# 5 0.000346 0.000225 -0.000925 0.000000 0.017261 0.000000
# 6 0.000000 0.000000 0.000000 0.016689 0.000000 0.051966
#
#
# Mechanical properties :
#
#
# Convention : Reuss Voigt Hill
#
# Bulk Modulus (GPa) = 66.17932 69.71560 67.94746
# Shear Modulus (GPa) = 27.60480 35.43418 31.51949
#
# Velocity S-wave (km/s) = 3.38282 3.83264 3.61474
# Velocity P-wave (km/s) = 6.53395 6.96319 6.75198
#
# Compressibility (1/GPa) = 0.01511046
#
# Stress axis : x y z
#
# Youngs Moduli (GPa) = 65.21981 119.11233 92.58679
#
# Poissons Ratio (x) = 0.16055 0.57159
# Poissons Ratio (y) = 0.08791 0.20256
# Poissons Ratio (z) = 0.40264 0.26059
#
# Static dielectric constant tensor:
#      x y z
#    x 4.449340 0.000000 -0.086080 
#    y 0.000000 4.196460 0.000000 
#    z -0.086080 0.000000 4.442400 
# 
# 
# High freq. dielectric constant tensor:
#      x y z
#    x 1.961000 0.000000 -0.006820 
#    y 0.000000 1.950270 0.000000 
#    z -0.006820 0.000000 1.958870 
# 
# From -- ./inp_files/93147.got.cif
#   From: 2010.06.25/outbox.cif.g09.slc.cpg/sg15_47_cif.got.tgz:93147.got - 2010.06.28 07:06:18.
