data_PCOD8147981
_publ_section_title
;
Structure prediction by ZEFSAII (Michael W. Deem and Ramdas Pophale) SiO2 
 PCOD8147981
Probable space group: C 2/C
;
_chemical_formula_sum "Si O2"
_cell_formula_units_Z 52
_cell_length_a 12.212571
_cell_length_b 13.417263
_cell_length_c 15.445399
_cell_angle_alpha 90.000000
_cell_angle_beta 65.866506
_cell_angle_gamma 90.000000
_cell_volume 2309.661862
_symmetry_space_group_name_H-M "C 2/C"
_symmetry_group_IT_number 15
_symmetry_cell_setting 'monoclinic'
loop_
_space_group_symop_operation_xyz
x,y,z
-x,y,1/2-z
-x,-y,-z
x,-y,1/2+z
1/2+x,1/2+y,z
1/2-x,1/2+y,1/2-z
1/2-x,1/2-y,-z
1/2+x,1/2-y,1/2+z
loop_
_atom_site_type_symbol
_atom_site_label
_atom_site_fract_x
_atom_site_fract_y
_atom_site_fract_z
Si Si1 0.500000 0.733625 0.750000
Si Si2 0.866977 0.406577 0.710197
Si Si3 0.140157 0.934937 0.882500
Si Si4 0.512870 0.737073 0.145705
Si Si5 0.432084 0.573174 0.906542
Si Si6 0.959784 0.449312 0.424876
Si Si7 0.727645 0.599692 0.078967
O O1 0.397861 0.800036 0.739862
O O2 0.438661 0.669695 0.845120
O O3 0.772523 0.459548 0.804711
O O4 0.809879 0.382784 0.635512
O O5 0.985723 0.477580 0.666648
O O6 0.087639 0.842905 0.845373
O O7 0.142908 0.903495 0.982360
O O8 0.063495 0.035466 0.893033
O O9 0.500000 0.762816 0.250000
O O10 0.486332 0.837980 0.101072
O O11 0.647450 0.696274 0.080231
O O12 0.365456 0.489293 0.871107
O O13 0.814507 0.434843 0.470918
O O14 0.000000 0.500000 0.500000
#
# Coordination Sequence:
#
# PCOD8147981 Si02
#       7
#     4   8   8   8   8   8   8
#     4  12  28  42  68 100 142 180 230 284 352 420
#     4  11  25  44  63  99 140 179 224 286 342 411
#     4  10  23  44  72 101 135 174 237 282 345 414
#     4  11  22  41  72 104 130 182 238 287 344 412
#     4  10  24  45  73 100 131 184 226 288 345 410
#     4  10  25  42  64  96 143 181 222 285 346 407
#     4  10  22  47  71  97 135 180 232 287 341 416
#
# _framework density 22.514116999999999
#
# number of rings (size 3 to 8) (size 9 to 14) (size 15 to 20)
#    0.000    1.538    1.538    1.385    9.692    4.308 
#    2.769    0.000    0.000    0.000    0.000    0.000 
#    0.000    0.000    0.000    0.000    0.000    0.000 
#
# Total GULP energy -322386.860018 kJ/mol
# GULP energy per Si atom -12399.494616 kJ/mol
# Density = 2.246287 g / cm^3
# Si number density = 22.514117 Si / 1000 Ang^3
#
#
#
# Elastic Constant Matrix: (Units=GPa)
#
#
# Indices 1 2 3 4 5 6 
#
# 1 84.6731 40.4914 48.1629 0.0000 -12.1777 0.0000
# 2 40.4914 132.6758 58.5060 0.0000 -6.8563 0.0000
# 3 48.1629 58.5060 145.2710 0.0000 -17.7513 0.0000
# 4 0.0000 0.0000 0.0000 45.1926 0.0000 6.3339
# 5 -12.1777 -6.8563 -17.7513 0.0000 45.1176 0.0000
# 6 0.0000 0.0000 0.0000 6.3339 0.0000 25.4378
#
#
#
# Elastic Compliance Matrix: (Units=1/GPa)
#
#
# Indices 1 2 3 4 5 6 
#
# 1 0.015701 -0.003042 -0.003697 0.000000 0.002321 0.000000
# 2 -0.003042 0.009754 -0.002983 0.000000 -0.000512 0.000000
# 3 -0.003697 -0.002983 0.009594 0.000000 0.002324 0.000000
# 4 0.000000 0.000000 0.000000 0.022928 0.000000 -0.005709
# 5 0.002321 -0.000512 0.002324 0.000000 0.023627 0.000000
# 6 0.000000 0.000000 0.000000 -0.005709 0.000000 0.040733
#
#
# Mechanical properties :
#
#
# Convention : Reuss Voigt Hill
#
# Bulk Modulus (GPa) = 64.07089 72.99338 68.53213
# Shear Modulus (GPa) = 34.01754 37.51358 35.76556
#
# Velocity S-wave (km/s) = 3.89130 4.08637 3.99003
# Velocity P-wave (km/s) = 6.97922 7.39974 7.19255
#
# Compressibility (1/GPa) = 0.01560771
#
# Stress axis : x y z
#
# Youngs Moduli (GPa) = 63.68852 102.51988 104.22641
#
# Poissons Ratio (x) = 0.31184 0.38532
# Poissons Ratio (y) = 0.19372 0.31086
# Poissons Ratio (z) = 0.23545 0.30577
#
# Static dielectric constant tensor:
#      x y z
#    x 4.057370 0.000000 -0.281490 
#    y 0.000000 3.961910 0.000000 
#    z -0.281490 0.000000 4.312950 
# 
# 
# High freq. dielectric constant tensor:
#      x y z
#    x 1.882120 0.000000 -0.007060 
#    y 0.000000 1.879670 0.000000 
#    z -0.007060 0.000000 1.902010 
# 
# From -- ./inp_files/144190.got.cif
#   From: 2010.06.25/outbox.cif.g09.slc.cpg/sg15_73_cif.got.tgz:144190.got - 2010.06.28 07:06:18.
