data_PCOD8147281
_publ_section_title
;
Structure prediction by ZEFSAII (Michael W. Deem and Ramdas Pophale) SiO2 
 PCOD8147281
Probable space group: C 2/C
;
_chemical_formula_sum "Si O2"
_cell_formula_units_Z 52
_cell_length_a 7.715592
_cell_length_b 25.963178
_cell_length_c 12.260960
_cell_angle_alpha 90.000000
_cell_angle_beta 85.911267
_cell_angle_gamma 90.000000
_cell_volume 2449.880017
_symmetry_space_group_name_H-M "C 2/C"
_symmetry_group_IT_number 15
_symmetry_cell_setting 'monoclinic'
loop_
_space_group_symop_operation_xyz
x,y,z
-x,y,1/2-z
-x,-y,-z
x,-y,1/2+z
1/2+x,1/2+y,z
1/2-x,1/2+y,1/2-z
1/2-x,1/2-y,-z
1/2+x,1/2-y,1/2+z
loop_
_atom_site_type_symbol
_atom_site_label
_atom_site_fract_x
_atom_site_fract_y
_atom_site_fract_z
Si Si1 0.144863 0.297345 0.051554
Si Si2 0.500000 0.257560 0.750000
Si Si3 0.185705 0.078352 0.275854
Si Si4 0.880221 0.120463 0.658357
Si Si5 0.309243 0.029473 0.714224
Si Si6 0.653993 0.823174 0.813276
Si Si7 0.882131 0.050734 0.985946
O O1 0.989434 0.278208 0.139963
O O2 0.266727 0.333097 0.119342
O O3 0.250000 0.250000 0.000000
O O4 0.088552 0.325755 0.942656
O O5 0.327913 0.291526 0.775357
O O6 0.327608 0.117543 0.223483
O O7 0.210637 0.071600 0.402991
O O8 0.000000 0.101426 0.250000
O O9 0.197912 0.022183 0.223349
O O10 0.762019 0.074075 0.706034
O O11 0.000000 0.142460 0.750000
O O12 0.995453 0.097365 0.556876
O O13 0.500000 0.017576 0.750000
O O14 0.281584 0.044293 0.589041
O O15 0.500000 0.797547 0.750000
O O16 0.000000 0.000000 0.000000
#
# Coordination Sequence:
#
# PCOD8147281 Si02
#       7
#     8   4   8   8   8   8   8
#     4  10  24  44  71 101 133 175 234 295 346 412
#     4  10  24  48  72  96 132 186 230 296 362 404
#     4  12  21  39  68  94 136 183 225 277 344 421
#     4  10  22  43  66  93 134 178 232 286 345 416
#     4  11  24  38  60  97 139 177 231 281 344 418
#     4  11  25  44  69 105 139 175 232 287 357 421
#     4  11  21  39  64  94 128 188 231 274 341 416
#
# _framework density 21.225528000000001
#
# number of rings (size 3 to 8) (size 9 to 14) (size 15 to 20)
#    0.000    1.231    3.846    1.846    3.231    4.923 
#    2.769    0.000    0.000    0.000    0.000    0.000 
#    0.000    0.000    0.000    0.000    0.000    0.000 
#
# Total GULP energy -322196.014782 kJ/mol
# GULP energy per Si atom -12392.154415 kJ/mol
# Density = 2.117722 g / cm^3
# Si number density = 21.225528 Si / 1000 Ang^3
#
#
#
# Elastic Constant Matrix: (Units=GPa)
#
#
# Indices 1 2 3 4 5 6 
#
# 1 82.4864 22.0519 45.1836 0.0000 14.0278 0.0000
# 2 22.0519 106.3324 53.4630 0.0000 -6.1256 0.0000
# 3 45.1836 53.4630 170.6774 0.0000 -14.5810 0.0000
# 4 0.0000 0.0000 0.0000 36.2034 0.0000 -1.3037
# 5 14.0278 -6.1256 -14.5810 0.0000 36.4265 0.0000
# 6 0.0000 0.0000 0.0000 -1.3037 0.0000 20.2570
#
#
#
# Elastic Compliance Matrix: (Units=1/GPa)
#
#
# Indices 1 2 3 4 5 6 
#
# 1 0.016505 -0.001602 -0.004591 0.000000 -0.008463 0.000000
# 2 -0.001602 0.011327 -0.003011 0.000000 0.001316 0.000000
# 3 -0.004591 -0.003011 0.008413 0.000000 0.004629 0.000000
# 4 0.000000 0.000000 0.000000 0.027686 0.000000 0.001782
# 5 -0.008463 0.001316 0.004629 0.000000 0.032786 0.000000
# 6 0.000000 0.000000 0.000000 0.001782 0.000000 0.049480
#
#
# Mechanical properties :
#
#
# Convention : Reuss Voigt Hill
#
# Bulk Modulus (GPa) = 56.06477 66.76590 61.41534
# Shear Modulus (GPa) = 29.31664 34.49723 31.90693
#
# Velocity S-wave (km/s) = 3.72048 4.03584 3.88136
# Velocity P-wave (km/s) = 6.70277 7.29665 7.00600
#
# Compressibility (1/GPa) = 0.01783651
#
# Stress axis : x y z
#
# Youngs Moduli (GPa) = 60.58595 88.28709 118.86386
#
# Poissons Ratio (x) = 0.14148 0.54565
# Poissons Ratio (y) = 0.09709 0.35793
# Poissons Ratio (z) = 0.27812 0.26586
#
# Static dielectric constant tensor:
#      x y z
#    x 3.666650 0.000000 0.009470 
#    y 0.000000 3.889710 0.000000 
#    z 0.009470 0.000000 4.397240 
# 
# 
# High freq. dielectric constant tensor:
#      x y z
#    x 1.812550 0.000000 0.000050 
#    y 0.000000 1.839680 0.000000 
#    z 0.000050 0.000000 1.853070 
# 
# From -- ./inp_files/80807.got.cif
#   From: 2010.06.25/outbox.cif.g09.slc.cpg/sg15_41_cif.got.tgz:80807.got - 2010.06.28 07:06:18.
