data_PCOD8147179
_publ_section_title
;
Structure prediction by ZEFSAII (Michael W. Deem and Ramdas Pophale) SiO2 
 PCOD8147179
Probable space group: C 2/C
;
_chemical_formula_sum "Si O2"
_cell_formula_units_Z 64
_cell_length_a 19.029452
_cell_length_b 8.389879
_cell_length_c 18.997745
_cell_angle_alpha 90.000000
_cell_angle_beta 89.054726
_cell_angle_gamma 90.000000
_cell_volume 3032.668397
_symmetry_space_group_name_H-M "C 2/C"
_symmetry_group_IT_number 15
_symmetry_cell_setting 'monoclinic'
loop_
_space_group_symop_operation_xyz
x,y,z
-x,y,1/2-z
-x,-y,-z
x,-y,1/2+z
1/2+x,1/2+y,z
1/2-x,1/2+y,1/2-z
1/2-x,1/2-y,-z
1/2+x,1/2-y,1/2+z
loop_
_atom_site_type_symbol
_atom_site_label
_atom_site_fract_x
_atom_site_fract_y
_atom_site_fract_z
Si Si1 0.783229 0.838100 0.095833
Si Si2 0.065280 0.745972 0.198742
Si Si3 0.937020 0.901245 0.803722
Si Si4 0.123239 0.409298 0.375328
Si Si5 0.156745 0.595817 0.505787
Si Si6 0.193416 0.354888 0.775798
Si Si7 0.542578 0.924836 0.115034
Si Si8 0.172777 0.098664 0.311653
O O1 0.828061 0.766739 0.030361
O O2 0.763232 0.710306 0.157073
O O3 0.836807 0.951261 0.136017
O O4 0.713962 0.927356 0.067202
O O5 0.135697 0.765699 0.244558
O O6 0.072060 0.588513 0.149704
O O7 0.000000 0.714024 0.250000
O O8 0.055301 0.920741 0.159794
O O9 0.934013 0.745596 0.852676
O O10 0.866236 0.909722 0.761032
O O11 0.000000 0.870101 0.750000
O O12 0.164602 0.465085 0.444351
O O13 0.150121 0.491519 0.302928
O O14 0.141843 0.228430 0.364622
O O15 0.040780 0.438986 0.387631
O O16 0.078026 0.584087 0.537569
O O17 0.245232 0.391220 0.710388
#
# Coordination Sequence:
#
# PCOD8147179 Si02
#       8
#     8   8   8   8   8   8   8   8
#     4  10  22  43  61  88 131 167 218 275 314 387
#     4  11  22  39  66  96 134 167 207 271 339 397
#     4  11  23  39  64 100 133 166 210 273 339 390
#     4  11  24  40  65  93 129 173 219 266 320 396
#     4  10  24  44  64  87 126 185 221 257 322 381
#     4  11  21  39  64  96 127 169 208 273 348 385
#     4  12  22  44  66  96 136 174 214 271 327 393
#     4  12  22  39  65  97 129 163 214 281 332 391
#
# _framework density 21.103527
#
# number of rings (size 3 to 8) (size 9 to 14) (size 15 to 20)
#    0.000    1.000    3.750    3.750    0.000    0.500 
#    2.250    0.625    0.000    0.000    0.000    0.000 
#    0.000    0.000    0.000    0.000    0.000    0.000 
#
# Total GULP energy -396433.214901 kJ/mol
# GULP energy per Si atom -12388.537966 kJ/mol
# Density = 2.105549 g / cm^3
# Si number density = 21.103527 Si / 1000 Ang^3
#
#
#
# Elastic Constant Matrix: (Units=GPa)
#
#
# Indices 1 2 3 4 5 6 
#
# 1 87.0427 7.2380 24.4498 0.0000 1.7900 0.0000
# 2 7.2380 122.9929 35.9999 0.0000 -2.3734 0.0000
# 3 24.4498 35.9999 77.5136 0.0000 -1.1187 0.0000
# 4 0.0000 0.0000 0.0000 18.3774 0.0000 7.5863
# 5 1.7900 -2.3734 -1.1187 0.0000 32.4270 0.0000
# 6 0.0000 0.0000 0.0000 7.5863 0.0000 24.8990
#
#
#
# Elastic Compliance Matrix: (Units=1/GPa)
#
#
# Indices 1 2 3 4 5 6 
#
# 1 0.012652 0.000476 -0.004224 0.000000 -0.000809 0.000000
# 2 0.000476 0.009437 -0.004526 0.000000 0.000508 0.000000
# 3 -0.004224 -0.004526 0.016342 0.000000 0.000466 0.000000
# 4 0.000000 0.000000 0.000000 0.062244 0.000000 -0.018965
# 5 -0.000809 0.000508 0.000466 0.000000 0.030936 0.000000
# 6 0.000000 0.000000 0.000000 -0.018965 0.000000 0.045941
#
#
# Mechanical properties :
#
#
# Convention : Reuss Voigt Hill
#
# Bulk Modulus (GPa) = 45.69455 46.99163 46.34309
# Shear Modulus (GPa) = 24.82714 29.79810 27.31262
#
# Velocity S-wave (km/s) = 3.43366 3.76173 3.60143
# Velocity P-wave (km/s) = 6.11715 6.41740 6.26907
#
# Compressibility (1/GPa) = 0.02188445
#
# Stress axis : x y z
#
# Youngs Moduli (GPa) = 79.03862 105.96582 61.19286
#
# Poissons Ratio (x) = -0.05045 0.25845
# Poissons Ratio (y) = -0.03763 0.27694
# Poissons Ratio (z) = 0.33382 0.47957
#
# Static dielectric constant tensor:
#      x y z
#    x 3.484310 0.000000 -0.052860 
#    y 0.000000 4.043540 0.000000 
#    z -0.052860 0.000000 3.647560 
# 
# 
# High freq. dielectric constant tensor:
#      x y z
#    x 1.832150 0.000000 -0.001040 
#    y 0.000000 1.836560 0.000000 
#    z -0.001040 0.000000 1.810710 
# 
# From -- ./inp_files/251574.got.cif
#   From: 2010.06.25/outbox.cif.g09.slc.cpg/sg15_126_cif.got.tgz:251574.got - 2010.06.28 07:06:18.
