data_PCOD8147848
_publ_section_title
;
Structure prediction by ZEFSAII (Michael W. Deem and Ramdas Pophale) SiO2 
 PCOD8147848
Probable space group: C 2/C
;
_chemical_formula_sum "Si O2"
_cell_formula_units_Z 36
_cell_length_a 23.785919
_cell_length_b 9.506416
_cell_length_c 13.854976
_cell_angle_alpha 90.000000
_cell_angle_beta 151.204015
_cell_angle_gamma 90.000000
_cell_volume 1509.079786
_symmetry_space_group_name_H-M "C 2/C"
_symmetry_group_IT_number 15
_symmetry_cell_setting 'monoclinic'
loop_
_space_group_symop_operation_xyz
x,y,z
-x,y,1/2-z
-x,-y,-z
x,-y,1/2+z
1/2+x,1/2+y,z
1/2-x,1/2+y,1/2-z
1/2-x,1/2-y,-z
1/2+x,1/2-y,1/2+z
loop_
_atom_site_type_symbol
_atom_site_label
_atom_site_fract_x
_atom_site_fract_y
_atom_site_fract_z
Si Si1 0.132421 0.900269 0.032737
Si Si2 0.500000 0.363200 0.250000
Si Si3 0.330099 0.113043 0.986976
Si Si4 0.554720 0.887343 0.469165
Si Si5 0.183239 0.507200 0.828951
O O1 0.215044 0.890459 0.249374
O O2 0.206031 0.907253 0.043923
O O3 0.061679 0.755732 0.919767
O O4 0.040535 0.031858 0.898567
O O5 0.614039 0.266124 0.404668
O O6 0.427318 0.018190 0.077900
O O7 0.284901 0.055939 0.020340
O O8 0.428326 0.891296 0.328751
O O9 0.651485 0.889429 0.700281
#
# Coordination Sequence:
#
# PCOD8147848 Si02
#       5
#     8   4   8   8   8
#     4  11  27  45  73 113 145 183 256 309 352 439
#     4  12  26  46  72 108 156 186 242 314 348 430
#     4  11  22  48  75 100 150 196 238 301 368 439
#     4  10  22  45  71 105 145 190 242 302 363 439
#     4  10  22  45  78 100 143 202 237 290 387 428
#
# _framework density 23.855598000000001
#
# number of rings (size 3 to 8) (size 9 to 14) (size 15 to 20)
#    0.000    1.333    2.222    2.667    3.111    4.444 
#    0.000    2.222    0.000    0.000    0.000    0.000 
#    0.000    0.000    0.000    0.000    0.000    0.000 
#
# Total GULP energy -223077.077958 kJ/mol
# GULP energy per Si atom -12393.170998 kJ/mol
# Density = 2.380130 g / cm^3
# Si number density = 23.855598 Si / 1000 Ang^3
#
#
#
# Elastic Constant Matrix: (Units=GPa)
#
#
# Indices 1 2 3 4 5 6 
#
# 1 125.9827 58.7452 38.8979 0.0000 -17.0873 0.0000
# 2 58.7452 155.7189 57.2074 0.0000 -2.3377 0.0000
# 3 38.8979 57.2074 153.0292 0.0000 -7.1311 0.0000
# 4 0.0000 0.0000 0.0000 30.7561 0.0000 3.4378
# 5 -17.0873 -2.3377 -7.1311 0.0000 28.5036 0.0000
# 6 0.0000 0.0000 0.0000 3.4378 0.0000 32.3394
#
#
#
# Elastic Compliance Matrix: (Units=1/GPa)
#
#
# Indices 1 2 3 4 5 6 
#
# 1 0.010735 -0.003547 -0.001130 0.000000 0.005862 0.000000
# 2 -0.003547 0.008616 -0.002414 0.000000 -0.002024 0.000000
# 3 -0.001130 -0.002414 0.007774 0.000000 0.001070 0.000000
# 4 0.000000 0.000000 0.000000 0.032905 0.000000 -0.003498
# 5 0.005862 -0.002024 0.001070 0.000000 0.038699 0.000000
# 6 0.000000 0.000000 0.000000 -0.003498 0.000000 0.031294
#
#
# Mechanical properties :
#
#
# Convention : Reuss Voigt Hill
#
# Bulk Modulus (GPa) = 77.24980 82.71464 79.98222
# Shear Modulus (GPa) = 33.66565 36.97851 35.32208
#
# Velocity S-wave (km/s) = 3.76070 3.94140 3.85211
# Velocity P-wave (km/s) = 7.16308 7.44723 7.30654
#
# Compressibility (1/GPa) = 0.01294502
#
# Stress axis : x y z
#
# Youngs Moduli (GPa) = 93.14975 116.05912 128.63320
#
# Poissons Ratio (x) = 0.41165 0.14531
# Poissons Ratio (y) = 0.33040 0.31049
# Poissons Ratio (z) = 0.10523 0.28014
#
# Static dielectric constant tensor:
#      x y z
#    x 4.156190 0.000000 -0.053780 
#    y 0.000000 4.299400 0.000000 
#    z -0.053780 0.000000 4.472640 
# 
# 
# High freq. dielectric constant tensor:
#      x y z
#    x 1.928030 0.000000 -0.002580 
#    y 0.000000 1.935950 0.000000 
#    z -0.002580 0.000000 1.975170 
# 
# From -- ./inp_files/177046.got.cif
#   From: 2010.06.25/outbox.cif.g09.slc.cpg/sg15_89_cif.got.tgz:177046.got - 2010.06.28 07:06:18.
