data_PCOD8147189
_publ_section_title
;
Structure prediction by ZEFSAII (Michael W. Deem and Ramdas Pophale) SiO2 
 PCOD8147189
Probable space group: C 2/C
;
_chemical_formula_sum "Si O2"
_cell_formula_units_Z 64
_cell_length_a 14.440807
_cell_length_b 25.287511
_cell_length_c 9.284223
_cell_angle_alpha 90.000000
_cell_angle_beta 112.906611
_cell_angle_gamma 90.000000
_cell_volume 3122.978466
_symmetry_space_group_name_H-M "C 2/C"
_symmetry_group_IT_number 15
_symmetry_cell_setting 'monoclinic'
loop_
_space_group_symop_operation_xyz
x,y,z
-x,y,1/2-z
-x,-y,-z
x,-y,1/2+z
1/2+x,1/2+y,z
1/2-x,1/2+y,1/2-z
1/2-x,1/2-y,-z
1/2+x,1/2-y,1/2+z
loop_
_atom_site_type_symbol
_atom_site_label
_atom_site_fract_x
_atom_site_fract_y
_atom_site_fract_z
Si Si1 0.023974 0.280666 0.546496
Si Si2 0.257642 0.011930 0.062144
Si Si3 0.390011 0.981896 0.902005
Si Si4 0.012787 0.165493 0.424687
Si Si5 0.412918 0.879727 0.091635
Si Si6 0.330591 0.791472 0.609820
Si Si7 0.700547 0.396930 0.993517
Si Si8 0.689051 0.381734 0.642688
O O1 0.013990 0.227359 0.451780
O O2 0.058858 0.323517 0.453705
O O3 0.109607 0.268912 0.716505
O O4 0.917009 0.301334 0.542981
O O5 0.189767 0.958884 0.028829
O O6 0.360138 0.010857 0.218782
O O7 0.190053 0.061460 0.065367
O O8 0.304329 0.016160 0.931363
O O9 0.387467 0.920563 0.947466
O O10 0.500000 0.000000 0.000000
O O11 0.115855 0.135505 0.529547
O O12 0.000000 0.153835 0.250000
O O13 0.919994 0.142344 0.460121
O O14 0.500000 0.901076 0.250000
O O15 0.308123 0.875017 0.116371
O O16 0.250000 0.750000 0.500000
O O17 0.275957 0.845467 0.624745
O O18 0.698521 0.387565 0.819797
#
# Coordination Sequence:
#
# PCOD8147189 Si02
#       8
#     8   8   8   8   8   8   8   8
#     4  11  23  40  63  99 125 167 218 260 323 391
#     4  11  21  40  65  89 130 172 219 271 328 388
#     4  11  22  38  58  94 131 171 216 269 329 393
#     4  10  23  42  69  89 127 170 217 272 328 378
#     4  11  22  39  62  94 131 164 215 259 326 399
#     4  11  23  42  65  89 134 170 209 266 321 390
#     4  10  22  43  62  95 128 169 218 273 321 391
#     4  11  21  45  65  91 128 174 214 270 334 380
#
# _framework density 20.493257
#
# number of rings (size 3 to 8) (size 9 to 14) (size 15 to 20)
#    0.000    1.250    5.000    2.250    1.750    2.000 
#    2.250    0.000    0.000    0.000    0.000    0.000 
#    0.000    0.000    0.000    0.000    0.000    0.000 
#
# Total GULP energy -396641.861276 kJ/mol
# GULP energy per Si atom -12395.058165 kJ/mol
# Density = 2.044661 g / cm^3
# Si number density = 20.493257 Si / 1000 Ang^3
#
#
#
# Elastic Constant Matrix: (Units=GPa)
#
#
# Indices 1 2 3 4 5 6 
#
# 1 141.9336 65.7261 10.8857 0.0000 14.9034 0.0000
# 2 65.7261 119.4221 16.0586 0.0000 -5.9834 0.0000
# 3 10.8857 16.0586 37.5947 0.0000 10.5352 0.0000
# 4 0.0000 0.0000 0.0000 33.2526 0.0000 2.3466
# 5 14.9034 -5.9834 10.5352 0.0000 24.5509 0.0000
# 6 0.0000 0.0000 0.0000 2.3466 0.0000 35.6299
#
#
#
# Elastic Compliance Matrix: (Units=1/GPa)
#
#
# Indices 1 2 3 4 5 6 
#
# 1 0.011023 -0.006854 0.002364 0.000000 -0.009376 0.000000
# 2 -0.006854 0.013567 -0.006710 0.000000 0.010346 0.000000
# 3 0.002364 -0.006710 0.033693 0.000000 -0.017528 0.000000
# 4 0.000000 0.000000 0.000000 0.030213 0.000000 -0.001990
# 5 -0.009376 0.010346 -0.017528 0.000000 0.056466 0.000000
# 6 0.000000 0.000000 0.000000 -0.001990 0.000000 0.028197
#
#
# Mechanical properties :
#
#
# Convention : Reuss Voigt Hill
#
# Bulk Modulus (GPa) = 27.86929 53.81013 40.83971
# Shear Modulus (GPa) = 24.09394 32.43867 28.26630
#
# Velocity S-wave (km/s) = 3.43257 3.98288 3.71792
# Velocity P-wave (km/s) = 5.41653 6.88953 6.19695
#
# Compressibility (1/GPa) = 0.03588179
#
# Stress axis : x y z
#
# Youngs Moduli (GPa) = 90.72107 73.71026 29.67964
#
# Poissons Ratio (x) = 0.50522 -0.07015
# Poissons Ratio (y) = 0.62182 0.19914
# Poissons Ratio (z) = -0.21442 0.49457
#
# Static dielectric constant tensor:
#      x y z
#    x 3.387870 0.000000 0.184320 
#    y 0.000000 3.735760 0.000000 
#    z 0.184320 0.000000 3.689640 
# 
# 
# High freq. dielectric constant tensor:
#      x y z
#    x 1.812120 0.000000 0.008500 
#    y 0.000000 1.803470 0.000000 
#    z 0.008500 0.000000 1.788820 
# 
# From -- ./inp_files/43578.got.cif
#   From: 2010.06.25/outbox.cif.g09.slc.cpg/sg15_22_cif.got.tgz:43578.got - 2010.06.28 07:06:18.
