data_PCOD8147572
_publ_section_title
;
Structure prediction by ZEFSAII (Michael W. Deem and Ramdas Pophale) SiO2 
 PCOD8147572
Probable space group: C 2/C
;
_chemical_formula_sum "Si O2"
_cell_formula_units_Z 52
_cell_length_a 11.639498
_cell_length_b 8.572287
_cell_length_c 24.624422
_cell_angle_alpha 90.000000
_cell_angle_beta 102.373072
_cell_angle_gamma 90.000000
_cell_volume 2399.886404
_symmetry_space_group_name_H-M "C 2/C"
_symmetry_group_IT_number 15
_symmetry_cell_setting 'monoclinic'
loop_
_space_group_symop_operation_xyz
x,y,z
-x,y,1/2-z
-x,-y,-z
x,-y,1/2+z
1/2+x,1/2+y,z
1/2-x,1/2+y,1/2-z
1/2-x,1/2-y,-z
1/2+x,1/2-y,1/2+z
loop_
_atom_site_type_symbol
_atom_site_label
_atom_site_fract_x
_atom_site_fract_y
_atom_site_fract_z
Si Si1 0.357779 0.478197 0.315340
Si Si2 0.898958 0.504433 0.945761
Si Si3 0.500000 0.320891 0.750000
Si Si4 0.424843 0.346583 0.929616
Si Si5 0.355786 0.548399 0.537257
Si Si6 0.590261 0.973095 0.301822
Si Si7 0.493841 0.215719 0.125024
O O1 0.402400 0.573472 0.268141
O O2 0.371569 0.558447 0.374834
O O3 0.220223 0.463331 0.290395
O O4 0.428510 0.314624 0.324294
O O5 0.914303 0.664773 0.913855
O O6 0.772470 0.487962 0.960476
O O7 0.913302 0.357850 0.907475
O O8 0.000000 0.500000 0.000000
O O9 0.447038 0.210366 0.696288
O O10 0.559381 0.397590 0.954158
O O11 0.349714 0.376428 0.976799
O O12 0.399558 0.675726 0.585202
O O13 0.500000 0.053005 0.250000
O O14 0.580911 0.075692 0.355197
#
# Coordination Sequence:
#
# PCOD8147572 Si02
#       7
#     8   8   4   8   8   8   8
#     4  11  25  45  71  92 136 172 220 277 331 394
#     4  12  24  38  67  99 135 175 215 264 315 388
#     4  10  26  44  66  98 122 176 218 280 334 380
#     4  10  22  44  66  97 135 179 214 267 327 388
#     4  10  23  44  64  98 141 172 218 262 323 399
#     4  10  26  44  69  97 129 166 224 281 334 390
#     4  11  25  43  66 104 126 181 216 265 336 391
#
# _framework density 21.667691999999999
#
# number of rings (size 3 to 8) (size 9 to 14) (size 15 to 20)
#    0.462    0.923    1.538    2.308    5.385    4.308 
#    0.000    0.000    0.000    0.000    0.000    0.000 
#    0.000    0.000    0.000    0.000    0.000    0.000 
#
# Total GULP energy -322371.846430 kJ/mol
# GULP energy per Si atom -12398.917170 kJ/mol
# Density = 2.161838 g / cm^3
# Si number density = 21.667692 Si / 1000 Ang^3
#
#
#
# Elastic Constant Matrix: (Units=GPa)
#
#
# Indices 1 2 3 4 5 6 
#
# 1 162.1473 42.0730 30.2512 0.0000 -7.4752 0.0000
# 2 42.0730 92.0286 17.4145 0.0000 -12.7225 0.0000
# 3 30.2512 17.4145 61.1766 0.0000 -5.0759 0.0000
# 4 0.0000 0.0000 0.0000 35.0494 0.0000 -12.4760
# 5 -7.4752 -12.7225 -5.0759 0.0000 29.7456 0.0000
# 6 0.0000 0.0000 0.0000 -12.4760 0.0000 27.8048
#
#
#
# Elastic Compliance Matrix: (Units=1/GPa)
#
#
# Indices 1 2 3 4 5 6 
#
# 1 0.007445 -0.002839 -0.002859 0.000000 0.000169 0.000000
# 2 -0.002839 0.013170 -0.001965 0.000000 0.004584 0.000000
# 3 -0.002859 -0.001965 0.018451 0.000000 0.001590 0.000000
# 4 0.000000 0.000000 0.000000 0.033954 0.000000 0.015235
# 5 0.000169 0.004584 0.001590 0.000000 0.035893 0.000000
# 6 0.000000 0.000000 0.000000 0.015235 0.000000 0.042801
#
#
# Mechanical properties :
#
#
# Convention : Reuss Voigt Hill
#
# Bulk Modulus (GPa) = 42.12353 54.98109 48.55231
# Shear Modulus (GPa) = 28.57896 33.56087 31.06992
#
# Velocity S-wave (km/s) = 3.63570 3.93986 3.79083
# Velocity P-wave (km/s) = 6.09158 6.79165 6.45112
#
# Compressibility (1/GPa) = 0.02373970
#
# Stress axis : x y z
#
# Youngs Moduli (GPa) = 134.31465 75.93170 54.19714
#
# Poissons Ratio (x) = 0.21560 0.15497
# Poissons Ratio (y) = 0.38137 0.10647
# Poissons Ratio (z) = 0.38405 0.14917
#
# Static dielectric constant tensor:
#      x y z
#    x 3.897130 0.000000 -0.075290 
#    y 0.000000 4.400600 0.000000 
#    z -0.075290 0.000000 3.778140 
# 
# 
# High freq. dielectric constant tensor:
#      x y z
#    x 1.856720 0.000000 -0.002850 
#    y 0.000000 1.859750 0.000000 
#    z -0.002850 0.000000 1.838990 
# 
# From -- ./inp_files/291215.got.cif
#   From: 2010.06.25/outbox.cif.g09.slc.cpg/sg15_146_cif.got.tgz:291215.got - 2010.06.28 07:06:18.
