data_PCOD8147370
_publ_section_title
;
Structure prediction by ZEFSAII (Michael W. Deem and Ramdas Pophale) SiO2 
 PCOD8147370
Probable space group: C 2/C
;
_chemical_formula_sum "Si O2"
_cell_formula_units_Z 64
_cell_length_a 31.100752
_cell_length_b 7.742178
_cell_length_c 19.082947
_cell_angle_alpha 90.000000
_cell_angle_beta 144.182038
_cell_angle_gamma 90.000000
_cell_volume 2689.011400
_symmetry_space_group_name_H-M "C 2/C"
_symmetry_group_IT_number 15
_symmetry_cell_setting 'monoclinic'
loop_
_space_group_symop_operation_xyz
x,y,z
-x,y,1/2-z
-x,-y,-z
x,-y,1/2+z
1/2+x,1/2+y,z
1/2-x,1/2+y,1/2-z
1/2-x,1/2-y,-z
1/2+x,1/2-y,1/2+z
loop_
_atom_site_type_symbol
_atom_site_label
_atom_site_fract_x
_atom_site_fract_y
_atom_site_fract_z
Si Si1 0.490797 0.688287 0.519053
Si Si2 0.847720 0.619843 0.120265
Si Si3 0.762404 0.184933 0.405407
Si Si4 0.883807 0.248106 0.167787
Si Si5 0.813117 0.841169 0.432409
Si Si6 0.535343 0.596886 0.724481
Si Si7 0.657915 0.694587 0.235046
Si Si8 0.138244 0.189271 0.652284
O O1 0.500000 0.500000 0.500000
O O2 0.482795 0.658827 0.591958
O O3 0.418556 0.786250 0.392841
O O4 0.566523 0.780777 0.593210
O O5 0.785769 0.596505 0.097066
O O6 0.903173 0.454385 0.197510
O O7 0.888712 0.801402 0.187666
O O8 0.804889 0.643318 0.988962
O O9 0.711489 0.213619 0.271470
O O10 0.821953 0.045048 0.458765
O O11 0.836774 0.193822 0.173529
O O12 0.951813 0.112293 0.255648
O O13 0.837034 0.251487 0.034991
O O14 0.729496 0.791591 0.300620
O O15 0.867380 0.797395 0.439570
O O16 0.500000 0.659502 0.750000
O O17 0.651053 0.504131 0.195713
#
# Coordination Sequence:
#
# PCOD8147370 Si02
#       8
#     8   8   8   8   8   8   8   8
#     4  10  22  43  69  92 140 192 228 287 364 431
#     4  11  24  43  71 107 139 185 239 299 351 428
#     4  11  22  41  68 100 146 185 236 292 367 417
#     4  12  24  44  74 104 140 186 245 296 358 421
#     4  12  25  39  70 110 140 186 246 299 356 424
#     4  12  26  46  74 103 140 192 241 296 360 432
#     4  11  23  43  67  99 141 192 238 289 360 433
#     4  11  23  42  66 102 140 188 240 294 359 428
#
# _framework density 23.800567999999998
#
# number of rings (size 3 to 8) (size 9 to 14) (size 15 to 20)
#    0.000    0.750    6.250    1.875    5.250    1.500 
#    0.000    2.500    0.000    0.000    0.000    0.000 
#    0.000    0.000    0.000    0.000    0.000    0.000 
#
# Total GULP energy -396512.950201 kJ/mol
# GULP energy per Si atom -12391.029694 kJ/mol
# Density = 2.374640 g / cm^3
# Si number density = 23.800568 Si / 1000 Ang^3
#
#
#
# Elastic Constant Matrix: (Units=GPa)
#
#
# Indices 1 2 3 4 5 6 
#
# 1 120.6019 14.5668 43.1113 0.0000 -32.8970 0.0000
# 2 14.5668 80.8188 17.9418 0.0001 -5.1995 0.0001
# 3 43.1113 17.9418 104.0086 0.0000 -27.4361 0.0000
# 4 0.0000 0.0001 0.0000 23.7596 0.0000 8.1999
# 5 -32.8970 -5.1995 -27.4361 0.0000 38.5182 0.0000
# 6 0.0000 0.0001 0.0000 8.1999 0.0000 23.4334
#
#
#
# Elastic Compliance Matrix: (Units=1/GPa)
#
#
# Indices 1 2 3 4 5 6 
#
# 1 0.011452 -0.001003 -0.002499 0.000000 0.007865 0.000000
# 2 -0.001003 0.012955 -0.001950 0.000000 -0.000497 0.000000
# 3 -0.002499 -0.001950 0.012750 0.000000 0.006684 0.000000
# 4 0.000000 0.000000 0.000000 0.047869 0.000000 -0.016751
# 5 0.007865 -0.000497 0.006684 0.000000 0.037373 0.000000
# 6 0.000000 0.000000 0.000000 -0.016751 0.000000 0.048536
#
#
# Mechanical properties :
#
#
# Convention : Reuss Voigt Hill
#
# Bulk Modulus (GPa) = 38.09206 50.74101 44.41653
# Shear Modulus (GPa) = 26.23438 32.46286 29.34862
#
# Velocity S-wave (km/s) = 3.32363 3.69718 3.51537
# Velocity P-wave (km/s) = 5.54690 6.29214 5.93124
#
# Compressibility (1/GPa) = 0.02625219
#
# Stress axis : x y z
#
# Youngs Moduli (GPa) = 87.32429 77.18951 78.43150
#
# Poissons Ratio (x) = 0.07744 0.19599
# Poissons Ratio (y) = 0.08761 0.15295
# Poissons Ratio (z) = 0.21821 0.15053
#
# Static dielectric constant tensor:
#      x y z
#    x 4.030460 0.000000 -0.237450 
#    y 0.000000 4.026690 0.000000 
#    z -0.237450 0.000000 5.151600 
# 
# 
# High freq. dielectric constant tensor:
#      x y z
#    x 1.934760 0.000000 -0.015520 
#    y 0.000000 1.920090 0.000000 
#    z -0.015520 0.000000 1.949870 
# 
# From -- ./inp_files/224625.got.cif
#   From: 2010.06.25/outbox.cif.g09.slc.cpg/sg15_113_cif.got.tgz:224625.got - 2010.06.28 07:06:18.
